158

Mg 40.04200 9.01400 29.77800
C  41.90300 10.45900 32.42400
C  37.87600 7.91000 32.25600
C  38.42700 7.45500 27.38800
C  42.77000 9.53200 27.72100
N  39.92600 9.10000 32.21100
C  40.71600 9.89900 32.98600
C  40.19900 9.84300 34.41600
C  39.04800 8.69400 34.36500
C  38.91600 8.59000 32.84800
C  39.30600 7.30300 35.04500
C  39.69400 11.26200 34.85300
C  38.92300 11.32900 36.21100
H  39.20300 12.43100 37.25000
N  38.30600 8.01900 29.79100
C  37.54800 7.57900 30.84900
C  36.29000 6.92200 30.36300
C  36.54200 6.67900 28.96400
C  37.81600 7.42400 28.65000
C  35.19700 6.52700 31.28800
C  35.67400 5.90700 27.92400
O  35.97400 5.80600 26.72000
C  34.30500 5.28500 28.33400
N  40.59700 8.31800 27.84300
C  39.70600 7.81900 26.95700
C  40.41000 7.60400 25.56000
C  41.73400 8.34800 25.71000
C  41.73900 8.74400 27.19000
C  40.53200 6.17000 25.15900
C  41.85000 9.60300 24.77100
C  41.21300 10.89900 25.15900
N  41.84800 9.82100 29.93900
C  42.81000 10.10900 29.02200
C  43.77600 11.03900 29.49400
C  43.48900 11.09800 30.86800
C  42.35900 10.35700 31.09700
C  44.95600 11.52900 28.76800
C  43.96800 11.70800 32.03300
O  44.93400 12.40700 32.28100
C  42.97000 11.33700 33.14700
C  43.63200 10.71000 34.40800
O  44.44800 9.81200 34.46600
O  43.12200 11.34100 35.43700
C  43.73600 11.00100 36.76100
H  37.26600 7.54200 33.08300
H  37.97200 6.88900 26.57300
H  43.49200 9.70000 26.91900
H  40.86400 9.44800 35.18400
H  38.11300 9.10600 34.74500
H  39.25400 6.44300 34.37800
H  38.50900 7.19900 35.78000
H  40.26300 7.50700 35.52600
H  39.14000 11.64400 33.99500
H  40.49100 11.99300 34.98600
H  38.99000 10.39400 36.76600
H  37.86900 11.48500 35.98500
H  34.29500 6.96300 30.85900
H  35.20900 6.79500 32.34500
H  35.01300 5.45600 31.20200
H  34.05200 5.31100 29.39400
H  34.58400 4.27400 28.03500
H  33.51000 5.64800 27.68300
H  39.77300 8.18000 24.88900
H  42.62000 7.72600 25.57900
H  41.54300 5.77000 25.23800
H  40.21500 6.07500 24.12100
H  40.04600 5.51800 25.88500
H  41.39700 9.24300 23.84700
H  42.91600 9.70100 24.56400
H  41.91000 11.56300 25.67000
H  40.42900 10.68200 25.88600
H  40.86300 11.42600 24.27200
H  45.34400 10.66200 28.23500
H  45.80800 11.90100 29.33800
H  44.69200 12.20700 27.95600
H  42.63600 12.33100 33.44400
H  44.63500 11.58300 36.96500
H  43.89100 9.92400 36.83300
H  43.01400 11.19900 37.55300
Mg 46.58000 16.39100 28.34400
C  44.34100 16.18600 30.95100
C  48.71200 18.08700 30.46500
C  48.62900 16.78600 25.74300
C  44.34200 14.67400 26.21000
N  46.42300 17.26900 30.46500
C  45.46200 16.97700 31.33100
C  45.78500 17.42500 32.73100
C  47.23100 18.03000 32.55000
C  47.51000 17.79100 31.06700
C  47.38700 19.58400 32.95200
C  45.73000 16.29700 33.78900
C  46.25300 16.73900 35.15200
H  46.11200 18.18500 35.65200
N  48.42200 17.15600 28.09900
C  49.16900 17.76300 29.09600
C  50.54500 18.13900 28.57400
C  50.51600 17.84600 27.21400
C  49.13600 17.25400 26.95800
C  51.73300 18.49000 29.43600
C  51.54300 18.04400 26.17600
O  51.36000 17.60200 25.06500
C  52.89200 18.59300 26.42200
N  46.28200 16.04200 26.22300
C  47.37000 16.22400 25.45500
C  47.01400 15.92600 24.01200
C  45.76700 15.06300 24.13000
C  45.43800 15.23200 25.58300
C  46.78000 17.23900 23.25500
C  45.98000 13.59500 23.60200
C  46.45400 12.61200 24.66200
N  44.66500 15.75400 28.47800
C  43.89200 14.99700 27.53300
C  42.62700 14.57800 28.14400
C  42.78500 15.05100 29.50300
C  44.03300 15.69000 29.63400
C  41.35000 13.95600 27.49700
C  42.05800 15.18700 30.82300
O  40.89700 14.92600 31.12200
C  43.11900 15.76800 31.78900
C  42.51600 17.00700 32.40300
O  42.46400 18.14100 31.82100
O  42.21500 16.72300 33.69300
C  41.70100 17.85000 34.54300
H  49.48700 18.47800 31.12800
H  49.19500 16.91100 24.81700
H  43.61400 14.07800 25.65600
H  45.12800 18.20000 33.12700
H  47.98900 17.42200 33.04400
H  46.69700 19.95600 33.71000
H  47.34200 20.20500 32.05700
H  48.39200 19.70700 33.35600
H  46.32900 15.45500 33.44200
H  44.75500 15.82800 33.92500
H  47.31600 16.54600 35.29400
H  45.85800 16.01300 35.86300
H  52.54500 17.78400 29.26100
H  51.48600 18.65500 30.48500
H  52.09200 19.45400 29.07700
H  52.90600 19.56200 26.92000
H  53.42000 18.59700 25.46900
H  53.39300 17.89600 27.09300
H  47.88200 15.41300 23.59900
H  44.98700 15.51200 23.51500
H  47.71400 17.79900 23.22200
H  45.97800 17.79500 23.74200
H  46.57100 16.92200 22.23300
H  46.62700 13.56300 22.72600
H  45.06100 13.17700 23.19100
H  47.50800 12.35200 24.56600
H  45.95200 11.66500 24.46700
H  46.18900 12.94900 25.66400
H  41.24100 14.14100 26.42900
H  40.52800 14.33700 28.10400
H  41.43700 12.87000 27.53800
H  43.23700 14.99000 32.54400
H  40.66700 18.07800 34.28300
H  42.22200 18.80600 34.59400
H  41.97600 17.51700 35.54400

