158

Mg 46.23700 25.29700 28.30900
C  47.45700 27.34900 30.90000
C  45.46800 22.90500 30.74100
C  45.70200 22.98300 25.83200
C  47.56900 27.40400 25.94800
N  46.44400 25.15400 30.60800
C  46.92600 26.20700 31.40000
C  46.79200 25.80500 32.87000
C  46.16900 24.34000 32.86000
C  46.03100 24.08800 31.35700
C  46.98400 23.23100 33.57900
C  46.09900 26.92300 33.73300
C  45.42400 26.40000 35.02200
H  45.63200 27.36300 36.20300
N  45.60600 23.22100 28.22400
C  45.35200 22.46600 29.36700
C  44.97400 21.08900 28.91200
C  45.12400 20.98300 27.50000
C  45.41200 22.44900 27.06100
C  44.60400 19.91800 29.86600
C  44.88700 19.79800 26.56200
O  45.00900 19.95200 25.36600
C  44.52400 18.42700 27.20000
N  46.67900 25.13200 26.24000
C  46.23700 24.18500 25.41400
C  46.31600 24.60100 23.91900
C  46.79800 26.08600 24.00600
C  47.04000 26.23800 25.46900
C  47.36400 23.78100 23.12100
C  45.82800 27.15600 23.42900
C  45.81100 27.40400 21.95100
N  47.29100 27.08600 28.35600
C  47.74600 27.84400 27.26100
C  48.41100 29.03300 27.78600
C  48.28200 28.92000 29.22400
C  47.63800 27.69600 29.48600
C  49.02600 30.17200 27.16200
C  48.54200 29.57600 30.47500
O  49.07300 30.65000 30.64200
C  48.10200 28.58300 31.61100
C  49.37200 28.30100 32.41900
O  50.11500 27.32500 32.28800
O  49.40900 29.08500 33.49900
C  50.27800 28.48300 34.60900
H  45.10900 22.21200 31.50500
H  45.47900 22.38800 24.94400
H  47.88400 28.16000 25.22400
H  47.81900 25.80200 33.23700
H  45.21700 24.32500 33.39000
H  47.40000 22.46100 32.92900
H  46.35800 22.92200 34.41600
H  47.81100 23.75700 34.05500
H  45.32600 27.40600 33.13500
H  46.88400 27.64800 33.94500
H  45.90300 25.48400 35.36600
H  44.35700 26.33800 34.81100
H  45.36300 19.13600 29.87700
H  43.64000 19.57200 29.49200
H  44.38000 20.21100 30.89200
H  44.24000 17.79100 26.36100
H  43.65500 18.67100 27.81100
H  45.27900 18.03100 27.87800
H  45.33900 24.49500 23.44800
H  47.74200 26.14100 23.46300
H  47.46300 24.34900 22.19700
H  46.95100 22.79700 22.89700
H  48.32800 23.68000 23.61900
H  46.02400 28.10300 23.93100
H  44.89600 26.69900 23.75900
H  46.62800 28.07000 21.67400
H  44.85700 27.90000 21.77200
H  45.75100 26.45500 21.41800
H  50.02500 30.30900 27.57700
H  48.56100 31.13300 27.38200
H  49.12400 30.03400 26.08500
H  47.34300 29.06800 32.22500
H  50.16900 29.29100 35.33300
H  51.32100 28.39300 34.30500
H  49.93600 27.47500 34.84200
Mg 35.42900 49.18300 25.91400
C  35.95300 47.50800 28.93800
C  34.38000 51.86900 27.60000
C  34.93000 50.57800 22.94500
C  36.50900 46.24300 24.19300
N  35.16700 49.62900 28.11500
C  35.40600 48.80900 29.09500
C  35.14100 49.55200 30.43400
C  34.38500 50.83100 29.93700
C  34.69900 50.80600 28.49000
C  32.91000 50.73000 30.19000
C  36.45900 49.82600 31.26000
C  36.54200 49.15700 32.64100
H  36.31200 50.05500 33.86400
N  34.79600 51.02600 25.30900
C  34.53000 52.01400 26.14700
C  34.21900 53.23500 25.41000
C  34.25100 52.81300 24.04000
C  34.66200 51.39600 24.06500
C  33.87300 54.62400 26.08700
C  33.96200 53.65400 22.83900
O  34.10600 53.22300 21.70200
C  33.51700 55.11500 22.93800
N  35.80300 48.54800 23.92100
C  35.41000 49.26500 22.83800
C  35.49000 48.59200 21.46300
C  36.29300 47.32300 21.94600
C  36.29100 47.35600 23.47400
C  34.09100 48.25700 20.95100
C  37.73500 47.32800 21.43900
C  37.87400 47.02900 19.91800
N  35.98500 47.23900 26.42600
C  36.38700 46.16800 25.60600
C  36.66200 45.03500 26.39700
C  36.51800 45.47100 27.71200
C  36.12500 46.83700 27.66600
C  37.22800 43.60800 26.00700
C  36.63900 45.18500 29.14400
O  37.00700 44.12100 29.64200
C  36.44300 46.51600 29.95200
C  35.46300 46.13600 30.88300
O  34.32200 45.93200 30.56900
O  36.00500 45.96600 32.14300
C  35.00200 45.36500 33.03100
H  33.90600 52.73700 28.06300
H  34.68700 50.90700 21.93200
H  36.81000 45.33500 23.66600
H  34.50100 48.99400 31.11700
H  34.80900 51.74300 30.35700
H  32.53500 49.80500 30.62700
H  32.41500 50.87500 29.23000
H  32.62800 51.58400 30.80500
H  36.53000 50.90700 31.37300
H  37.32500 49.51500 30.67600
H  37.55200 48.75300 32.69900
H  35.80100 48.35800 32.60400
H  34.76800 55.15200 25.75800
H  33.79700 54.50500 27.16700
H  33.02600 55.04300 25.54300
H  34.27900 55.73900 23.40500
H  32.62200 55.10100 23.56100
H  33.15900 55.55100 22.00500
H  35.97200 49.23400 20.72500
H  35.75700 46.42000 21.65500
H  33.33500 48.52000 21.69000
H  33.85900 47.24900 20.60800
H  33.93500 48.99400 20.16300
H  38.33400 46.69200 22.09100
H  38.06300 48.35200 21.61600
H  38.25700 47.84800 19.30900
H  36.86300 46.87900 19.53700
H  38.38200 46.07500 19.78100
H  36.45200 42.98000 25.56900
H  37.64600 43.03700 26.83600
H  38.07700 43.58400 25.32400
H  37.34700 46.92300 30.40500
H  35.00900 44.27900 32.94600
H  33.98000 45.65900 32.79200
H  35.30800 45.59000 34.05300

