158

Mg -2.58800 17.28800 26.36500
C  -2.76000 14.90100 29.02900
C  -3.23500 19.65300 28.67900
C  -2.64200 19.44300 23.92100
C  -2.46600 14.65500 24.06700
N  -2.76800 17.26300 28.73000
C  -2.85600 16.18700 29.52400
C  -3.41000 16.58000 30.87600
C  -3.72600 18.11300 30.73100
C  -3.24600 18.36500 29.30400
C  -5.22600 18.53100 30.92100
C  -2.46400 16.25500 32.12600
C  -2.56300 16.99600 33.42600
H  -2.59100 16.25000 34.72300
N  -2.79200 19.33100 26.28400
C  -3.04600 20.12500 27.33100
C  -3.24900 21.51400 26.83600
C  -3.02500 21.44200 25.41500
C  -2.76900 20.02100 25.17100
C  -3.44900 22.75100 27.70100
C  -2.86700 22.57100 24.44100
O  -2.41100 22.34200 23.31700
C  -3.06400 24.02500 24.72700
N  -2.85600 17.05800 24.32300
C  -2.71100 18.11400 23.53700
C  -2.48300 17.67100 22.08800
C  -2.30200 16.15100 22.13000
C  -2.44300 15.94300 23.62200
C  -3.56400 18.04800 21.05500
C  -1.04300 15.59100 21.41700
C  0.27800 15.57400 22.20700
N  -2.55900 15.22100 26.42200
C  -2.51600 14.29500 25.39700
C  -2.47500 12.93700 25.96300
C  -2.61200 13.17300 27.32800
C  -2.66500 14.58800 27.59200
C  -2.47900 11.66200 25.19200
C  -2.76700 12.47800 28.59500
O  -2.76100 11.25600 28.74900
C  -2.81000 13.55200 29.69300
C  -1.66200 13.32500 30.62600
O  -0.59900 13.91400 30.59500
O  -2.07000 12.56400 31.63100
C  -0.93500 12.17500 32.47800
H  -3.29800 20.49600 29.37000
H  -2.51400 20.05500 23.02600
H  -2.41400 13.83600 23.34700
H  -4.32700 15.99100 30.86700
H  -3.05000 18.72600 31.32600
H  -5.75700 18.08300 31.76100
H  -5.81800 18.46300 30.00800
H  -5.22100 19.57300 31.24200
H  -1.44600 16.21300 31.73800
H  -2.77000 15.25900 32.44300
H  -3.43400 17.63200 33.27100
H  -1.71800 17.68300 33.47100
H  -3.64600 22.53200 28.75100
H  -4.35900 23.26400 27.39100
H  -2.67600 23.51400 27.61400
H  -4.08200 24.29800 25.00600
H  -3.00200 24.49300 23.74400
H  -2.35000 24.37200 25.47300
H  -1.48400 18.06600 21.90800
H  -3.14300 15.61300 21.69200
H  -3.41800 17.42600 20.17200
H  -3.39800 19.06700 20.70600
H  -4.55300 17.86600 21.47500
H  -0.86500 16.34100 20.64700
H  -1.30500 14.62400 20.98800
H  0.23000 15.80000 23.27200
H  0.91200 16.27300 21.66200
H  0.68400 14.56900 22.09400
H  -1.42800 11.43000 25.02400
H  -2.90100 11.78600 24.19400
H  -3.06700 10.91900 25.73100
H  -3.70000 13.50000 30.32100
H  0.04700 11.94900 32.06300
H  -1.22100 11.28200 33.03300
H  -0.84700 12.95800 33.23200
Mg 2.11600 -1.15400 44.62600
C  5.48400 -0.10200 44.33000
C  1.19100 1.85100 43.19200
C  -0.96500 -2.41000 44.24900
C  3.37900 -4.33700 45.44700
N  3.29300 0.67100 43.77100
C  4.63800 0.89500 43.92400
C  4.98800 2.26800 43.41700
C  3.57700 2.96400 43.25300
C  2.60500 1.82600 43.42900
C  3.31800 4.17800 44.21700
C  5.81500 2.33800 42.04600
C  5.58200 1.23300 40.92200
H  5.03800 1.70100 39.57000
N  0.32500 -0.38300 43.89600
C  0.14700 0.87500 43.42700
C  -1.25300 1.08200 43.11900
C  -1.95000 -0.12000 43.49300
C  -0.90600 -1.04100 43.91500
C  -1.67800 2.33200 42.48500
C  -3.42900 -0.33800 43.28500
O  -4.04400 0.52400 42.68000
C  -4.10000 -1.64800 43.74000
N  1.39700 -3.14500 44.58700
C  0.00600 -3.35200 44.60500
C  -0.35600 -4.80500 44.98400
C  1.02900 -5.30000 45.47100
C  2.04800 -4.21200 45.08300
C  -1.43300 -5.07100 45.96200
C  1.49900 -6.63600 44.86000
C  1.37400 -7.93800 45.72000
N  3.97500 -2.05300 45.01700
C  4.36600 -3.39100 45.28000
C  5.76500 -3.45000 45.52800
C  6.24000 -2.14400 45.24300
C  5.12700 -1.34300 44.82200
C  6.58000 -4.68700 46.00600
C  7.34300 -1.38000 45.23000
O  8.41000 -1.54700 45.82700
C  6.92200 0.04200 44.68900
C  7.17000 1.14700 45.64800
O  6.59000 1.33600 46.69400
O  8.17900 1.99100 45.17600
C  8.40000 3.22700 45.89300
H  0.95400 2.84400 42.80500
H  -1.96500 -2.84900 44.21700
H  3.73300 -5.26600 45.90000
H  5.56400 2.79800 44.17600
H  3.58400 3.29500 42.21400
H  3.11800 5.08000 43.63800
H  4.20900 4.34300 44.82300
H  2.41800 3.99900 44.80400
H  6.82900 2.17800 42.41500
H  5.82600 3.37600 41.71200
H  4.90400 0.48800 41.33800
H  6.42900 0.60400 40.64700
H  -1.13500 2.56700 41.57000
H  -1.39200 3.19100 43.09200
H  -2.73900 2.48700 42.28800
H  -4.00500 -2.54000 43.12100
H  -5.15000 -1.42400 43.92600
H  -3.73700 -1.77100 44.76100
H  -0.44300 -5.43700 44.10100
H  0.98000 -5.24100 46.55800
H  -2.17700 -4.32100 45.69400
H  -1.24600 -5.02100 47.03500
H  -1.95100 -5.97500 45.64300
H  2.57800 -6.65600 44.70900
H  1.08700 -6.90900 43.88900
H  0.50900 -7.77700 46.36400
H  2.31000 -8.07100 46.26200
H  1.25800 -8.83700 45.11400
H  6.35000 -5.56200 45.39900
H  6.33800 -5.00700 47.01900
H  7.64000 -4.43800 45.95900
H  7.52100 0.15900 43.78600
H  9.36800 3.07900 46.37100
H  7.73900 3.58000 46.68500
H  8.44500 3.93300 45.06300

