158

Mg 17.28000 -0.87400 28.16900
C  16.28100 1.30100 30.95800
C  19.04200 -2.69700 30.52400
C  18.48100 -2.50800 25.62500
C  15.61000 1.30000 26.12000
N  17.70700 -0.61500 30.45100
C  17.16100 0.24000 31.36100
C  17.36300 -0.28700 32.82000
C  18.39300 -1.40800 32.65400
C  18.39000 -1.55800 31.09400
C  19.78400 -1.15700 33.22600
C  16.00400 -0.74400 33.51000
C  15.64300 -0.06200 34.82900
H  16.74500 0.62500 35.69100
N  18.53200 -2.49600 28.00600
C  19.11600 -3.15400 29.11200
C  19.71700 -4.26500 28.52500
C  19.68300 -4.23100 27.14300
C  18.86500 -3.07400 26.86300
C  20.56500 -5.23700 29.36800
C  20.35000 -5.18200 26.04600
O  20.07300 -4.97100 24.85200
C  21.33000 -6.16800 26.47000
N  16.95000 -0.78600 26.11500
C  17.72200 -1.43300 25.27700
C  17.58600 -0.84200 23.84800
C  16.47000 0.17100 24.00400
C  16.30100 0.24200 25.50200
C  18.84700 -0.28200 23.14600
C  15.20100 -0.19200 23.18500
C  14.03700 -0.92600 23.89400
N  15.99800 0.83300 28.42400
C  15.41400 1.61400 27.44400
C  14.62500 2.66600 28.09300
C  14.97600 2.57600 29.47300
C  15.87200 1.49100 29.62800
C  13.63700 3.49500 27.55000
C  14.73800 3.16500 30.80800
O  14.07400 4.13300 31.20100
C  15.53200 2.26400 31.80400
C  16.46800 3.21100 32.56100
O  17.61500 3.55700 32.21700
O  15.88100 3.64200 33.71100
C  16.59000 4.61500 34.52200
H  19.53400 -3.37600 31.22300
H  18.93300 -3.02900 24.77900
H  15.16900 2.05000 25.46000
H  17.87100 0.45300 33.43900
H  18.05900 -2.35100 33.08600
H  19.92700 -0.26100 33.83100
H  20.53800 -1.13200 32.43900
H  19.94900 -2.02000 33.87100
H  16.12900 -1.82700 33.53400
H  15.14000 -0.60800 32.85900
H  15.23500 -0.84600 35.46800
H  14.87200 0.69600 34.68800
H  20.20600 -6.22000 29.06200
H  20.51100 -5.22000 30.45600
H  21.62400 -5.10900 29.14300
H  22.03300 -5.61300 27.09000
H  21.93000 -6.55800 25.64800
H  20.82300 -6.97700 26.99700
H  17.27300 -1.66700 23.20800
H  16.75900 1.19000 23.74600
H  18.59100 0.70100 22.75000
H  19.00000 -1.00500 22.34500
H  19.73600 -0.29800 23.77700
H  15.45200 -0.85900 22.36100
H  14.71200 0.59700 22.61400
H  13.22900 -0.24500 23.62600
H  14.02500 -0.96300 24.98300
H  13.69600 -1.89900 23.54000
H  12.65200 3.22000 27.92700
H  13.55700 3.32700 26.47600
H  13.76800 4.54500 27.80900
H  14.70500 1.92200 32.42700
H  17.34400 5.17600 33.97100
H  17.04600 4.14000 35.39100
H  15.78600 5.29900 34.79200
Mg 5.57800 54.15600 40.87900
C  5.74900 50.65600 40.97900
C  8.71100 54.18600 39.52300
C  5.19100 57.40600 40.55900
C  2.30400 53.86500 42.17500
N  7.05800 52.57000 40.28000
C  6.96000 51.20400 40.47700
C  8.17100 50.49500 39.90400
C  9.25100 51.67600 39.80000
C  8.26700 52.87600 39.80400
C  10.20100 51.71600 41.09600
C  7.95000 49.71300 38.57100
C  7.04800 50.25600 37.39400
H  6.35100 49.22800 36.46900
N  6.68000 55.56200 40.10200
C  7.96300 55.39200 39.61000
C  8.62200 56.61500 39.36500
C  7.66300 57.68900 39.59300
C  6.44300 56.96900 40.14300
C  10.06400 56.86200 38.88600
C  7.82200 59.20700 39.27500
O  8.82500 59.64000 38.77700
C  6.76100 60.27800 39.44800
N  3.84700 55.48700 41.20500
C  3.98200 56.76500 41.00200
C  2.75300 57.53000 41.58600
C  1.71700 56.35200 41.87500
C  2.68400 55.16700 41.84600
C  2.89700 58.47500 42.80800
C  0.45700 56.36400 40.99600
C  -0.84700 56.48200 41.80200
N  4.31200 52.63300 41.40800
C  3.00200 52.61800 41.95200
C  2.57200 51.30000 42.27800
C  3.67600 50.57200 41.90100
C  4.66600 51.35400 41.38600
C  1.34600 50.84600 43.04800
C  4.17400 49.20300 41.97600
O  3.58500 48.20300 42.40200
C  5.49100 49.15800 41.35700
C  5.42200 48.24900 40.30100
O  4.82200 48.44000 39.24000
O  6.14500 47.19400 40.59300
C  6.15900 46.12400 39.61600
H  9.72400 54.24300 39.12100
H  5.12000 58.49300 40.48500
H  1.28900 53.69000 42.53800
H  8.57300 49.75400 40.59400
H  9.90800 51.64600 38.93100
H  10.25700 50.77600 41.64500
H  9.83800 52.51600 41.74200
H  11.23000 51.92300 40.80400
H  7.74900 48.65400 38.73300
H  8.89600 49.66500 38.03100
H  7.66700 50.95400 36.83000
H  6.26600 50.83400 37.88600
H  10.15700 56.98000 37.80600
H  10.82800 56.20200 39.29600
H  10.22000 57.85900 39.29800
H  5.86500 59.83300 39.01500
H  7.21800 61.14400 38.97000
H  6.61400 60.46200 40.51200
H  2.39800 58.19200 40.79600
H  1.29500 56.48300 42.87100
H  2.07400 59.18100 42.69900
H  3.87400 58.93200 42.96600
H  2.50400 58.01700 43.71600
H  0.44900 55.42400 40.44500
H  0.61500 57.16900 40.27900
H  -0.76900 56.86400 42.82000
H  -1.25500 55.47200 41.76800
H  -1.48400 57.04400 41.11900
H  0.54100 51.57400 43.14500
H  1.64400 50.74100 44.09100
H  0.90200 49.95200 42.61000
H  6.26700 48.87700 42.07000
H  5.17200 45.65900 39.62200
H  6.93800 45.39600 39.84300
H  6.42800 46.40300 38.59800

