158

Mg 40.32600 7.36900 29.43500
C  41.95700 9.33000 31.89300
C  38.15400 6.20700 31.73100
C  38.79300 5.93100 26.86900
C  42.96100 8.30500 27.22100
N  40.07000 7.80300 31.55700
C  40.91800 8.54600 32.42900
C  40.42900 8.50100 33.91400
C  39.29700 7.38200 33.84200
C  39.14500 7.09200 32.27300
C  39.67800 6.14000 34.64100
C  39.97300 9.86800 34.53500
C  39.07700 9.78300 35.84300
H  39.45300 10.75100 36.98700
N  38.71300 6.23300 29.25800
C  37.89200 5.91100 30.33400
C  36.78700 5.15800 29.89000
C  36.91500 5.09000 28.46500
C  38.19200 5.71400 28.12700
C  35.62200 4.65300 30.74700
C  35.96300 4.52400 27.47400
O  36.25500 4.39900 26.29800
C  34.57700 4.04200 27.88900
N  40.95700 6.98300 27.36300
C  40.02400 6.51900 26.49900
C  40.53800 6.45700 25.04600
C  41.92700 7.07300 25.12000
C  41.97800 7.53700 26.63600
C  40.45900 4.99400 24.45500
C  42.28700 8.29200 24.14900
C  41.45400 9.62200 24.43200
N  42.09200 8.50300 29.50100
C  43.06800 8.77500 28.51500
C  43.98800 9.77100 29.01800
C  43.58300 9.97700 30.30100
C  42.43400 9.22300 30.55200
C  45.04000 10.42400 28.17000
C  43.88600 10.78000 31.47900
O  44.80400 11.57700 31.63100
C  42.91700 10.35100 32.57900
C  43.74100 9.62500 33.61300
O  44.33900 8.50600 33.54100
O  43.76200 10.44300 34.75900
C  44.26800 9.84600 36.00800
H  37.51200 5.68200 32.44100
H  38.25900 5.60900 25.97300
H  43.74600 8.70400 26.57600
H  41.30400 8.23200 34.50600
H  38.33800 7.78700 34.16600
H  39.23600 6.18600 35.63600
H  40.76200 6.16600 34.75600
H  39.31700 5.13800 34.41100
H  39.48900 10.31300 33.66600
H  40.83800 10.45100 34.85100
H  38.74100 8.80100 36.17400
H  38.18600 10.26600 35.44000
H  35.63800 4.86300 31.81600
H  35.64600 3.57000 30.63000
H  34.70100 5.13200 30.41300
H  34.04500 3.52800 27.08800
H  34.14000 5.00500 28.15200
H  34.72800 3.33600 28.70600
H  39.75200 7.04500 24.57200
H  42.76900 6.38300 25.06900
H  41.47500 4.67900 24.21800
H  39.79600 5.04300 23.59000
H  40.10300 4.30600 25.22100
H  41.98900 8.02100 23.13600
H  43.34100 8.57200 24.14400
H  40.82000 9.55400 25.31600
H  40.85300 9.68600 23.52500
H  42.02100 10.54400 24.56000
H  45.84700 9.69700 28.08500
H  45.29700 11.26000 28.82000
H  44.67000 10.75700 27.20100
H  42.39000 11.21200 32.99000
H  45.00300 9.07300 35.78400
H  43.58200 9.30900 36.66300
H  44.82500 10.59200 36.57500
Mg 9.35900 48.54600 25.32700
C  7.31700 48.02500 28.09700
C  11.92700 49.35300 27.43200
C  11.23600 48.94300 22.64700
C  6.54000 48.18300 23.27700
N  9.56600 48.63000 27.52400
C  8.61700 48.36100 28.42500
C  9.06200 48.74200 29.87600
C  10.54400 49.21400 29.62800
C  10.72500 49.03900 28.10300
C  10.80100 50.65900 30.14200
C  9.01100 47.66300 30.96400
C  10.07900 47.73200 32.15800
H  9.74900 46.96300 33.48100
N  11.29700 49.03000 25.07500
C  12.22800 49.31300 26.03900
C  13.56600 49.35400 25.47900
C  13.42100 48.91300 24.09600
C  11.95800 48.93100 23.86300
C  14.79900 49.78500 26.25300
C  14.45700 48.84400 23.04000
O  14.17600 48.56100 21.87000
C  15.93000 49.05100 23.34600
N  8.99500 48.53200 23.30900
C  9.91500 48.85100 22.41600
C  9.29900 48.99500 20.99100
C  7.85000 48.43000 21.13100
C  7.75500 48.42100 22.65100
C  9.29400 50.42100 20.51200
C  7.62000 46.99500 20.57600
C  6.70100 46.80300 19.41600
N  7.33900 48.11800 25.60400
C  6.29600 47.89400 24.65000
C  5.05800 47.67500 25.36500
C  5.44500 47.68400 26.71000
C  6.81000 47.94300 26.78100
C  3.78000 47.61800 24.73000
C  4.99300 47.59100 28.07900
O  3.82900 47.46800 28.45000
C  6.17600 47.81000 29.04400
C  6.33900 46.44800 29.72700
O  6.83900 45.44600 29.31400
O  5.88800 46.46100 31.04500
C  6.08500 45.23200 31.89300
H  12.71700 49.62900 28.13400
H  11.86100 49.23300 21.80000
H  5.70400 48.01800 22.59400
H  8.43300 49.57400 30.19000
H  11.33500 48.53500 29.94600
H  10.97600 51.44200 29.40400
H  11.65700 50.62700 30.81700
H  9.90700 51.01500 30.65400
H  9.11600 46.66300 30.54300
H  8.00500 47.83200 31.34700
H  10.39300 48.75200 32.38000
H  10.87300 47.14700 31.69500
H  14.65100 49.88400 27.32800
H  15.16100 50.72000 25.82400
H  15.57400 49.02300 26.16600
H  16.30400 48.22400 23.94900
H  16.10000 50.01800 23.81800
H  16.57100 48.91000 22.47600
H  9.92200 48.29600 20.43400
H  7.03100 49.03200 20.73600
H  9.71200 51.00700 21.33100
H  8.37200 50.87700 20.15400
H  9.99600 50.38300 19.68000
H  7.29600 46.30100 21.35100
H  8.57700 46.60000 20.23800
H  7.22100 46.16300 18.70300
H  6.71700 47.78800 18.94800
H  5.74600 46.35700 19.69400
H  3.67100 46.77200 24.05200
H  3.67900 48.59800 24.26500
H  3.03500 47.58700 25.52500
H  5.95400 48.57600 29.78600
H  7.12800 45.33300 32.19100
H  5.92300 44.34000 31.28700
H  5.34600 45.10200 32.68300

