158

Mg 46.87500 16.64700 27.55800
C  45.07600 16.38200 30.65000
C  49.05200 18.75300 29.22100
C  48.18700 17.36600 24.61200
C  44.17700 15.18000 25.98700
N  47.00800 17.53500 29.76500
C  46.23000 17.09400 30.83700
C  46.79200 17.67900 32.11000
C  47.97800 18.56300 31.64400
C  48.07100 18.26000 30.13300
C  47.85000 20.05000 32.06800
C  47.23100 16.47100 33.05500
C  47.00600 16.65800 34.54300
H  47.24700 18.09600 35.05500
N  48.46000 17.84600 27.02900
C  49.23800 18.63700 27.82100
C  50.35000 19.15100 27.02100
C  50.18200 18.71400 25.68300
C  48.90300 17.92800 25.73700
C  51.46200 19.88700 27.64200
C  51.04400 18.91400 24.48400
O  50.74300 18.49600 23.37100
C  52.41600 19.62100 24.63200
N  46.33300 16.31200 25.65200
C  47.02300 16.65100 24.52600
C  46.41400 16.16300 23.19400
C  45.12000 15.45500 23.68800
C  45.25800 15.62600 25.24000
C  46.01100 17.31100 22.12400
C  44.97200 14.02400 23.17300
C  45.66900 12.99700 23.99300
N  45.06700 15.87800 28.10000
C  44.02700 15.30800 27.31600
C  42.92600 14.91600 28.18000
C  43.27000 15.32400 29.53500
C  44.53700 15.95400 29.38600
C  41.69700 14.25700 27.79900
C  42.77300 15.41100 30.88000
O  41.79700 14.96800 31.45800
C  43.98400 16.03600 31.67000
C  43.45500 17.16300 32.56400
O  43.28800 18.31900 32.15300
O  43.20100 16.74900 33.89200
C  42.80700 17.72500 34.87700
H  49.77900 19.34200 29.78400
H  48.54000 17.64100 23.61600
H  43.32200 14.74800 25.46200
H  45.99000 18.20000 32.63200
H  48.89000 18.23500 32.14100
H  47.05800 20.21500 32.79800
H  47.52700 20.58600 31.17500
H  48.77000 20.48800 32.45600
H  48.28800 16.25400 32.90300
H  46.69800 15.53700 32.87500
H  47.49500 15.90800 35.16500
H  45.95100 16.39900 34.63500
H  51.44800 19.87700 28.73200
H  51.39800 20.87100 27.17800
H  52.34500 19.29900 27.39200
H  52.33000 20.59100 25.12300
H  52.75500 19.79100 23.61000
H  53.03900 19.00300 25.27800
H  47.14200 15.48800 22.74500
H  44.19400 15.99300 23.48900
H  46.46200 18.22400 22.51400
H  44.95900 17.50300 21.91200
H  46.44300 17.04600 21.15900
H  45.42200 13.93000 22.18500
H  43.90700 13.79900 23.22500
H  46.14500 12.26900 23.33600
H  45.00500 12.49700 24.69800
H  46.51600 13.37200 24.56800
H  41.36600 14.61300 26.82400
H  40.88600 14.46700 28.49600
H  41.84200 13.18100 27.70100
H  44.28400 15.30200 32.41800
H  42.51000 17.30800 35.84000
H  41.97400 18.32100 34.50500
H  43.70400 18.34300 34.91600
Mg -1.91400 34.03000 27.13700
C  -3.38100 32.37900 29.79300
C  -0.63800 36.37900 29.34800
C  -1.03900 35.88800 24.47400
C  -3.61900 31.84200 24.92100
N  -2.08700 34.42600 29.31200
C  -2.62500 33.50100 30.18700
C  -2.36900 33.98200 31.66100
C  -1.56800 35.30500 31.51300
C  -1.44800 35.44400 29.94000
C  -2.26600 36.51200 32.27700
C  -1.74700 33.00200 32.66200
C  -2.60300 32.36600 33.78800
H  -1.86000 32.08900 35.10600
N  -0.89900 35.82600 26.95900
C  -0.41600 36.60100 27.97000
C  0.22000 37.76100 27.41700
C  0.24500 37.61500 25.98000
C  -0.57300 36.45500 25.69700
C  0.79900 38.83600 28.20800
C  0.89500 38.42100 24.93400
O  0.74600 38.17500 23.74300
C  1.79900 39.66400 25.16100
N  -2.34300 33.92500 24.97300
C  -1.84600 34.82000 24.06500
C  -2.25800 34.42400 22.67500
C  -2.79500 33.00700 22.83400
C  -2.95700 32.89900 24.32100
C  -3.28600 35.54800 22.14000
C  -1.83400 31.85400 22.23000
C  -0.78400 31.14100 23.11800
N  -3.14900 32.44200 27.29600
C  -3.80600 31.62400 26.31500
C  -4.70000 30.65200 26.88600
C  -4.52300 30.87600 28.30600
C  -3.62900 31.96400 28.42900
C  -5.67600 29.73800 26.21700
C  -4.82000 30.43300 29.65900
O  -5.49000 29.48700 30.07500
C  -4.20800 31.42000 30.65200
C  -5.31400 32.06200 31.39800
O  -5.91500 33.07000 31.03300
O  -5.56800 31.39400 32.55200
C  -6.50800 32.07200 33.41600
H  -0.22500 37.05100 30.10200
H  -0.62100 36.40700 23.60900
H  -4.05500 31.26700 24.10100
H  -3.38900 34.15100 32.00700
H  -0.61500 35.12200 32.00800
H  -1.37600 37.08800 32.53200
H  -2.74300 36.19900 33.20500
H  -2.87500 37.07900 31.57300
H  -0.88700 33.46000 33.14900
H  -1.40500 32.14700 32.07900
H  -3.07600 31.42500 33.50600
H  -3.31400 33.15700 34.02700
H  1.85300 38.77600 27.93500
H  0.76800 38.62900 29.27800
H  0.25100 39.76100 28.02700
H  2.32300 39.96500 24.25300
H  2.51100 39.40400 25.94400
H  1.15500 40.45300 25.54700
H  -1.42600 34.53400 21.98000
H  -3.74700 32.80900 22.34100
H  -3.24700 36.45800 22.73900
H  -4.30300 35.16700 22.23400
H  -3.04700 35.87000 21.12600
H  -1.35100 32.40300 21.42200
H  -2.57500 31.18000 21.80000
H  -0.70400 31.39500 24.17500
H  0.22800 31.40600 22.81200
H  -0.92300 30.06200 23.18400
H  -5.53300 28.75700 26.67000
H  -5.48500 29.58900 25.15500
H  -6.64700 30.15600 26.48500
H  -3.68700 30.68400 31.26400
H  -7.40700 32.35600 32.87000
H  -6.06400 33.01200 33.74400
H  -6.73800 31.43300 34.26900

