158

Mg 8.04400 3.02200 28.34500
C  9.61000 1.58800 31.15200
C  6.14600 4.97000 30.65400
C  6.53700 4.22300 25.86200
C  9.59900 0.66500 26.39100
N  7.84700 3.24200 30.68300
C  8.80000 2.64600 31.54100
C  8.62700 3.17600 33.00200
C  7.37000 4.04100 32.81800
C  7.08800 4.07000 31.28800
C  6.18900 3.66200 33.74900
C  9.84100 3.88600 33.43900
C  10.25700 3.75700 34.92500
H  9.10400 3.41500 35.86200
N  6.71000 4.49000 28.24700
C  6.01600 5.13800 29.21300
C  5.12500 6.14400 28.59100
C  5.20700 5.99700 27.24000
C  6.21400 4.87000 27.04800
C  4.22200 7.02700 29.37400
C  4.50200 6.71100 26.08100
O  4.71800 6.53000 24.89200
C  3.51000 7.72500 26.50300
N  8.01300 2.43800 26.37900
C  7.36200 3.15700 25.52900
C  7.36800 2.55200 24.06400
C  8.37100 1.42000 24.31200
C  8.72000 1.50300 25.73500
C  5.97700 2.14700 23.54000
C  9.53200 1.27100 23.38500
C  10.60000 2.39100 23.56600
N  9.28900 1.41100 28.66700
C  9.83600 0.57000 27.74000
C  10.78600 -0.36400 28.40500
C  10.72600 0.01500 29.72800
C  9.79200 1.11600 29.86300
C  11.47600 -1.52900 27.76600
C  11.25300 -0.25500 31.05400
O  12.02300 -1.11100 31.52400
C  10.52300 0.73600 32.02800
C  9.83300 -0.00800 33.07700
O  8.61400 -0.13700 33.13800
O  10.74300 -0.53900 33.97400
C  10.14100 -1.06400 35.19600
H  5.70700 5.77000 31.25300
H  6.07900 4.75800 25.02700
H  10.16800 -0.09400 25.85000
H  8.40800 2.30200 33.61400
H  7.63300 5.09700 32.88200
H  5.27100 3.51500 33.18000
H  6.10000 4.40400 34.54400
H  6.43400 2.68600 34.16600
H  9.75100 4.96400 33.30200
H  10.68600 3.62700 32.80100
H  10.75800 4.66400 35.26500
H  11.00700 2.97800 35.06100
H  4.29100 8.04300 28.98400
H  4.45300 7.19800 30.42500
H  3.21000 6.65400 29.21800
H  2.97800 8.02700 25.60100
H  3.89100 8.66500 26.90000
H  2.63800 7.51000 27.12100
H  7.71000 3.41400 23.49000
H  7.84500 0.46600 24.27200
H  5.94400 2.58400 22.54200
H  5.13200 2.46600 24.15100
H  6.01000 1.05900 23.48700
H  9.14500 1.26800 22.36600
H  9.87700 0.24300 23.49600
H  11.51400 1.99900 24.01300
H  10.08100 3.18700 24.10000
H  10.83400 2.81200 22.58800
H  12.48300 -1.28500 27.42700
H  10.97800 -1.98400 26.91000
H  11.37000 -2.40700 28.40400
H  11.21300 1.38400 32.56900
H  10.86700 -1.62500 35.78500
H  9.36700 -1.79000 34.94600
H  9.72400 -0.24700 35.78500
Mg -2.30900 34.95800 27.12000
C  -4.01800 33.27200 29.76400
C  -0.77600 36.88500 29.49500
C  -0.70000 36.65100 24.64700
C  -4.18700 33.20600 24.85300
N  -2.40000 35.09700 29.48800
C  -3.13600 34.22700 30.32300
C  -2.86900 34.54000 31.80900
C  -2.03100 35.93000 31.68600
C  -1.67500 35.97400 30.15700
C  -2.73600 37.23600 32.06400
C  -1.99400 33.37200 32.48400
C  -2.68300 32.79000 33.78900
H  -1.79900 32.66800 35.07700
N  -0.84300 36.47800 27.06300
C  -0.41600 37.18200 28.13600
C  0.54800 38.15400 27.68900
C  0.66000 38.06700 26.31900
C  -0.26400 37.00100 25.96800
C  1.23000 39.10500 28.65100
C  1.56500 38.80200 25.33000
O  1.73800 38.36200 24.22500
C  2.40400 39.99000 25.82400
N  -2.48100 35.00100 25.02700
C  -1.64600 35.73400 24.20100
C  -1.92900 35.49300 22.75900
C  -2.99100 34.34100 22.77900
C  -3.34000 34.15200 24.28600
C  -2.44100 36.76600 21.95000
C  -2.63200 32.98500 22.10300
C  -1.44300 32.22200 22.74500
N  -3.84400 33.63000 27.23100
C  -4.51200 32.94700 26.18100
C  -5.29500 31.88600 26.67300
C  -5.04500 32.02500 28.07300
C  -4.24100 33.08300 28.36600
C  -6.16800 30.87800 25.98900
C  -5.45700 31.35600 29.29600
O  -6.27200 30.45900 29.43600
C  -4.88000 32.17600 30.45600
C  -5.97200 32.49700 31.42700
O  -6.84100 33.28900 31.14700
O  -5.96400 31.67400 32.52500
C  -7.02300 31.71200 33.50200
H  -0.13600 37.40100 30.21300
H  -0.23900 37.19600 23.82100
H  -4.67600 32.52600 24.15400
H  -3.84900 34.73300 32.24500
H  -1.14200 35.85300 32.31200
H  -3.16700 37.75500 31.20700
H  -2.07100 37.90300 32.61300
H  -3.54200 36.99900 32.75900
H  -1.02800 33.68700 32.87900
H  -1.90600 32.56000 31.76200
H  -2.97000 31.76400 33.56000
H  -3.61300 33.34200 33.92600
H  0.83000 40.07500 28.35600
H  2.31500 39.06800 28.54700
H  0.95200 38.90800 29.68600
H  1.80000 40.66200 26.43300
H  2.86500 40.49200 24.97300
H  3.23300 39.52800 26.36000
H  -1.09100 35.12400 22.16800
H  -3.86100 34.74400 22.26100
H  -3.45500 36.58500 21.59400
H  -1.71000 37.03200 21.18700
H  -2.35200 37.63700 22.59900
H  -2.41900 33.22800 21.06200
H  -3.56100 32.41600 22.12500
H  -0.75800 32.00300 21.92700
H  -1.90800 31.28400 23.05100
H  -0.92400 32.65900 23.59900
H  -7.08100 30.60900 26.52000
H  -5.63800 30.02800 25.55700
H  -6.55200 31.45200 25.14700
H  -4.08000 31.60000 30.92200
H  -6.75500 32.42700 34.28000
H  -7.26500 30.75700 33.96800
H  -7.89400 32.18700 33.05000

