158

Mg 9.29200 48.60600 27.73100
C  7.61900 47.82200 30.70500
C  12.14600 48.96200 29.62500
C  10.93900 49.23300 24.93100
C  6.28900 48.64900 25.94000
N  9.76900 48.65900 29.97600
C  8.95400 48.22500 30.98500
C  9.60800 48.31800 32.35300
C  11.10200 48.79100 31.93000
C  11.03300 48.92400 30.43100
C  11.55400 50.05600 32.74000
C  9.59300 46.93900 33.19500
C  10.60200 46.62500 34.36200
H  10.08900 45.77800 35.58700
N  11.32100 48.82300 27.29800
C  12.34400 48.90600 28.20900
C  13.58900 48.77100 27.47100
C  13.21800 48.86200 26.02600
C  11.77200 49.02000 26.06800
C  14.94400 48.49200 28.06200
C  14.13500 48.66300 24.83100
O  13.85600 48.45800 23.66600
C  15.61700 48.62200 25.11100
N  8.65800 49.04100 25.78200
C  9.58500 49.31000 24.78100
C  8.99800 49.30000 23.31100
C  7.44000 49.37300 23.70400
C  7.40800 48.94000 25.22800
C  9.52200 50.41100 22.42300
C  6.59600 48.35000 22.74600
C  5.92200 48.96900 21.55000
N  7.33200 48.34600 28.22800
C  6.19700 48.39000 27.38400
C  4.99500 47.98400 28.19500
C  5.55200 47.71300 29.46300
C  6.96300 47.95600 29.46500
C  3.62900 47.94000 27.60000
C  5.19100 47.33700 30.84100
O  4.06200 47.05800 31.24700
C  6.50600 47.36600 31.64300
C  6.60700 46.04800 32.22400
O  7.22300 45.04700 31.84200
O  5.82000 46.11000 33.33900
C  5.73300 44.86100 34.05900
H  13.09800 48.95900 30.15900
H  11.52100 49.38200 24.01900
H  5.35600 48.68600 25.37400
H  9.10300 49.09300 32.92900
H  11.90600 48.09500 32.16600
H  11.06700 50.14900 33.71000
H  11.38900 50.99700 32.21500
H  12.58900 49.85000 33.01400
H  9.60300 46.07700 32.52900
H  8.62800 47.08800 33.68100
H  11.05200 47.54400 34.73900
H  11.41200 45.98100 34.02000
H  14.96100 48.40100 29.14800
H  15.57800 49.36600 27.91300
H  15.49400 47.72600 27.51500
H  15.97400 49.37900 25.80900
H  16.12200 48.95100 24.20300
H  15.96000 47.66700 25.50900
H  9.21200 48.33500 22.85300
H  7.02600 50.38100 23.71500
H  9.48100 49.91800 21.45100
H  10.55000 50.65400 22.69000
H  8.85600 51.27300 22.44400
H  5.81500 47.81100 23.28200
H  7.27600 47.61200 22.32100
H  6.69600 49.42900 20.93600
H  5.25300 49.78500 21.82300
H  5.33800 48.13400 21.16300
H  3.03100 47.13600 28.03000
H  3.62300 47.79300 26.52000
H  3.17600 48.91500 27.77800
H  6.48300 48.13800 32.41100
H  6.08300 44.98900 35.08400
H  6.23000 44.00600 33.60000
H  4.68100 44.57600 34.06200
Mg -11.31600 16.01100 43.37100
C  -7.93400 17.13800 43.42300
C  -12.19100 19.23100 42.53800
C  -14.44300 14.97000 43.28300
C  -10.13700 12.71400 43.57100
N  -10.16800 17.95700 42.92100
C  -8.83700 18.14700 43.01600
C  -8.45600 19.53400 42.62800
C  -9.84800 20.25700 42.49700
C  -10.81800 19.06800 42.63700
C  -10.12100 21.49500 43.41500
C  -7.67800 19.42100 41.23900
C  -6.38800 20.16400 41.22600
H  -5.38600 19.72900 40.12800
N  -13.09200 17.03000 43.13700
C  -13.23500 18.34000 42.86800
C  -14.63300 18.68100 42.81900
C  -15.40000 17.45500 43.02800
C  -14.32700 16.41700 43.17200
C  -15.08300 20.13000 42.46000
C  -16.84400 17.31300 43.16900
O  -17.53700 18.26900 42.81500
C  -17.49400 16.15600 43.73900
N  -12.17200 14.08200 43.21100
C  -13.50100 13.98400 43.29100
C  -13.84400 12.52300 43.46000
C  -12.47000 11.73100 43.43400
C  -11.49300 12.88800 43.43900
C  -14.76000 12.18800 44.66100
C  -12.24300 10.82400 42.13400
C  -12.31600 9.29500 42.26700
N  -9.45100 15.07700 43.40200
C  -9.13500 13.72800 43.51700
C  -7.76300 13.54900 43.69500
C  -7.23700 14.88400 43.69800
C  -8.29400 15.77700 43.60700
C  -7.00600 12.27900 43.79900
C  -6.04600 15.69700 43.76200
O  -4.87700 15.36700 43.84200
C  -6.40900 17.25700 43.69700
C  -6.14800 17.92700 44.87400
O  -6.14900 17.44300 45.97000
O  -5.87900 19.28100 44.60800
C  -5.76700 20.15600 45.74700
H  -12.36800 20.28800 42.32800
H  -15.44200 14.54300 43.39800
H  -9.80200 11.67800 43.65700
H  -7.98900 19.96900 43.51000
H  -9.99700 20.66000 41.49500
H  -10.44000 22.42500 42.94400
H  -9.16500 21.72900 43.88300
H  -10.77700 21.14400 44.21200
H  -8.16900 19.88900 40.38600
H  -7.58100 18.36000 41.01000
H  -5.93900 20.03200 42.21100
H  -6.60700 21.23100 41.20800
H  -16.13800 20.04300 42.20000
H  -14.48600 20.70000 41.74800
H  -15.01600 20.59400 43.44400
H  -18.45200 16.46800 44.15300
H  -16.82900 15.86300 44.55100
H  -17.74400 15.42900 42.96600
H  -14.42300 12.16300 42.60900
H  -12.31700 11.14300 44.33900
H  -14.71700 12.92600 45.46300
H  -14.68400 11.19000 45.09200
H  -15.80000 12.22900 44.33900
H  -11.29300 11.15900 41.71600
H  -13.06800 11.17000 41.51100
H  -13.23200 8.89100 41.83700
H  -12.08800 8.99700 43.29100
H  -11.52300 8.80700 41.70000
H  -7.01700 11.82900 42.80700
H  -7.35400 11.66500 44.63000
H  -5.98600 12.59000 44.02800
H  -5.87400 17.79100 42.91100
H  -6.75600 20.50700 46.04200
H  -5.28000 21.10700 45.53500
H  -5.25900 19.70000 46.59700

