158

Mg 35.46700 48.84100 24.85700
C  35.57800 47.04200 27.80400
C  34.36000 51.45400 26.64700
C  35.16000 50.40900 21.99300
C  36.23600 45.89100 23.10000
N  35.14800 49.21900 26.94700
C  35.24200 48.41100 27.96200
C  34.91200 49.06000 29.31200
C  34.24400 50.39600 28.91600
C  34.62300 50.37800 27.40800
C  32.74900 50.67800 29.08800
C  36.28100 49.16900 30.09500
C  36.14200 48.96600 31.62600
H  34.71000 48.86100 32.19800
N  34.85000 50.67800 24.36400
C  34.36700 51.58700 25.29600
C  33.93100 52.76100 24.50900
C  34.19300 52.50400 23.15900
C  34.73000 51.15800 23.12100
C  33.32600 53.98600 25.11900
C  33.85300 53.34800 21.95000
O  34.13800 52.97200 20.83600
C  33.08600 54.72900 22.08500
N  35.64400 48.16100 22.80400
C  35.42600 49.07400 21.81200
C  35.43500 48.39500 20.43200
C  36.03800 46.99600 20.78500
C  35.95500 47.00500 22.36000
C  33.93000 48.38200 19.96900
C  37.42800 46.83900 20.16900
C  38.59100 47.58800 20.81800
N  35.85400 46.83200 25.32700
C  36.13000 45.76200 24.53400
C  36.33800 44.58600 25.36100
C  36.16500 45.04600 26.65100
C  35.89200 46.42800 26.56600
C  36.79200 43.29800 25.01400
C  36.26300 44.75000 28.06800
O  36.57800 43.69100 28.62900
C  35.77700 45.96100 28.90300
C  34.56500 45.55400 29.65200
O  33.40700 45.64000 29.25600
O  34.87800 45.12500 30.91600
C  33.69000 44.51200 31.56000
H  34.08500 52.38000 27.15700
H  34.99900 50.89500 21.02800
H  36.64800 45.07900 22.49700
H  34.13200 48.42800 29.73600
H  34.72000 51.16400 29.52700
H  32.24900 49.81100 29.52000
H  32.14300 50.82500 28.19400
H  32.57500 51.48400 29.80100
H  36.65600 50.17300 29.89600
H  37.02200 48.48100 29.68800
H  36.76700 49.77400 32.00600
H  36.68300 48.04200 31.83000
H  33.33900 53.86500 26.20200
H  32.30300 54.16600 24.79000
H  34.02500 54.79600 24.90700
H  32.06200 54.51400 22.39000
H  32.96100 55.16100 21.09300
H  33.70400 55.35700 22.72700
H  36.06900 48.94900 19.74000
H  35.44000 46.20700 20.33000
H  33.35300 47.49200 20.21900
H  33.88100 48.52700 18.89000
H  33.34000 49.09300 20.54700
H  37.35200 46.94100 19.08600
H  37.61600 45.76800 20.22900
H  38.26600 48.34200 21.53600
H  39.20200 48.13800 20.10200
H  39.26900 46.98500 21.42100
H  36.02200 42.65700 24.58500
H  37.19800 42.83900 25.91500
H  37.62600 43.56300 24.36400
H  36.60700 46.11600 29.59200
H  32.97400 43.93100 30.97800
H  33.06800 45.34000 31.89900
H  33.96100 44.13200 32.54500
Mg -10.16600 39.59700 42.62300
C  -9.33100 36.31300 41.76900
C  -7.39400 40.69200 40.86300
C  -11.39700 42.72800 42.41800
C  -13.22300 38.48800 43.74500
N  -8.49300 38.62500 41.48300
C  -8.45200 37.24200 41.26300
C  -7.26900 36.93200 40.36200
C  -6.50800 38.36900 40.21500
C  -7.52600 39.34600 40.88500
C  -5.06300 38.43500 40.78700
C  -7.78200 36.38200 38.96400
C  -6.86400 35.27400 38.37200
H  -5.71500 35.66300 37.36500
N  -9.39900 41.50200 41.88800
C  -8.26400 41.74900 41.19700
C  -8.07900 43.16300 41.02700
C  -9.24600 43.74400 41.49400
C  -10.05300 42.66000 42.01300
C  -6.81300 43.83200 40.37000
C  -9.50400 45.21300 41.42800
O  -8.61000 45.91200 41.02000
C  -10.76400 45.88200 41.87400
N  -12.05900 40.48700 43.03200
C  -12.31200 41.80400 42.97100
C  -13.72900 42.08000 43.34100
C  -14.26500 40.77700 43.92900
C  -13.17100 39.80500 43.43200
C  -13.83100 43.40800 44.28500
C  -15.76900 40.40800 43.40600
C  -16.81000 39.91400 44.42200
N  -11.07100 37.77500 42.92400
C  -12.28900 37.47200 43.37800
C  -12.46300 35.99300 43.40700
C  -11.22800 35.55000 42.79000
C  -10.51900 36.71500 42.45800
C  -13.70700 35.21500 43.80500
C  -10.51400 34.31100 42.51600
O  -10.71800 33.13900 42.76200
C  -9.29900 34.77700 41.58600
C  -8.05700 34.21900 42.11400
O  -7.68300 34.29400 43.30900
O  -7.39900 33.51600 41.06100
C  -6.01600 33.02900 41.36200
H  -6.48600 40.95500 40.31600
H  -11.71600 43.77200 42.39500
H  -14.17500 38.10000 44.11400
H  -6.66600 36.27200 40.98400
H  -6.34000 38.54900 39.15400
H  -4.50600 39.14500 40.17700
H  -4.56600 37.46800 40.70000
H  -5.01100 38.79300 41.81500
H  -7.81000 37.25700 38.31500
H  -8.79600 36.05500 39.19700
H  -7.43800 34.40800 38.04400
H  -6.28500 34.83900 39.18700
H  -7.09800 44.31000 39.43300
H  -6.01100 43.14000 40.11400
H  -6.30300 44.61000 40.93900
H  -10.73000 45.65300 42.93900
H  -11.64300 45.46900 41.37800
H  -10.92500 46.95000 41.72600
H  -14.09300 42.23400 42.32600
H  -14.18800 40.80100 45.01600
H  -14.46600 44.09400 43.72500
H  -12.80800 43.77300 44.38300
H  -14.31900 43.18800 45.23500
H  -15.59700 39.65000 42.64100
H  -16.18700 41.30900 42.95800
H  -16.53800 40.02300 45.47100
H  -17.02900 38.87200 44.18800
H  -17.69100 40.47500 44.10900
H  -14.30800 35.72500 44.55900
H  -13.28300 34.28300 44.18000
H  -14.19500 35.14800 42.83300
H  -9.56000 34.51100 40.56200
H  -5.35200 33.88500 41.24300
H  -5.66900 32.29100 40.63900
H  -5.76000 32.68900 42.36600

