158

Mg 48.70500 45.73600 43.21300
C  45.25800 45.16100 42.94800
C  49.20600 42.39200 42.78900
C  52.06900 46.25200 43.11700
C  48.14000 49.09900 43.33100
N  47.37200 44.00600 42.80700
C  45.91300 43.97300 42.85900
C  45.38800 42.50200 42.83400
C  46.74100 41.66900 42.64800
C  47.90000 42.72100 42.79600
C  46.84000 40.41800 43.48900
C  44.29500 42.00700 41.85700
C  44.17600 42.59900 40.43900
H  44.04400 41.78900 39.16100
N  50.40700 44.45100 43.02500
C  50.41500 43.11400 42.81800
C  51.77400 42.55900 42.81800
C  52.64300 43.69100 42.98800
C  51.74300 44.86900 43.04700
C  52.00500 41.07900 42.75900
C  54.14900 43.59700 43.06200
O  54.73400 42.52100 42.89800
C  55.05800 44.81800 43.25400
N  49.92700 47.40000 43.00400
C  51.22300 47.36600 43.08100
C  51.82700 48.76700 43.29200
C  50.58300 49.70500 43.08900
C  49.49700 48.71900 43.22100
C  52.43300 48.92400 44.70600
C  50.59000 50.47600 41.74500
C  50.73500 52.02700 41.85500
N  47.01900 46.98800 42.97400
C  46.98700 48.34300 43.14400
C  45.61000 48.74200 43.21900
C  44.91100 47.52000 43.10300
C  45.82300 46.47700 43.02500
C  44.93100 50.06500 43.37700
C  43.56100 46.93800 42.96000
O  42.49100 47.47800 42.79900
C  43.78200 45.34200 43.04300
C  43.12600 44.78100 44.26400
O  42.28900 43.94400 44.24600
O  43.63900 45.29200 45.42200
C  43.03600 44.92600 46.74600
H  49.33100 41.31000 42.70300
H  53.12600 46.52500 43.13900
H  48.05300 50.17200 43.51300
H  44.90600 42.40200 43.80700
H  46.86900 41.28800 41.63500
H  47.11300 39.62200 42.79700
H  45.85400 40.21700 43.90800
H  47.66200 40.34100 44.20100
H  43.30800 42.13900 42.30000
H  44.48300 40.95800 41.62700
H  45.01800 43.28800 40.37500
H  43.33700 43.29300 40.46300
H  51.84500 40.88700 41.69800
H  51.16700 40.53000 43.18800
H  52.89100 40.65100 43.22700
H  55.05500 45.31600 42.28400
H  56.06100 44.41900 43.40300
H  54.65300 45.52900 43.97500
H  52.62300 48.66000 42.55500
H  50.54700 50.44900 43.88500
H  52.25700 48.09200 45.38700
H  52.01500 49.84400 45.11300
H  53.50000 49.14000 44.76700
H  49.69200 50.31500 41.15000
H  51.44700 50.07500 41.20400
H  50.35300 52.37300 42.81500
H  50.16700 52.51900 41.06400
H  51.78100 52.33100 41.82900
H  44.20000 50.17100 42.57600
H  45.67900 50.85200 43.28100
H  44.48600 50.07900 44.37200
H  43.20000 44.81800 42.28500
H  43.75600 44.46600 47.42300
H  42.23500 44.18800 46.71700
H  42.58100 45.86600 47.06000
Mg -11.42800 38.76700 42.30500
C  -9.70600 35.99600 41.21000
C  -8.85000 40.78600 40.95800
C  -13.33800 41.42400 42.72200
C  -14.17400 36.68800 42.94300
N  -9.52200 38.38500 41.01600
C  -8.96200 37.17100 40.81900
C  -7.48600 37.26000 40.39100
C  -7.29400 38.83700 40.40300
C  -8.65700 39.36700 40.84700
C  -6.15500 39.43300 41.27400
C  -7.18500 36.67400 38.99600
C  -6.16500 35.50800 39.02000
H  -5.05700 35.69300 38.00100
N  -11.03100 40.84500 42.10800
C  -9.95300 41.46400 41.52600
C  -10.16400 42.87500 41.37600
C  -11.47100 43.13700 41.91100
C  -12.03500 41.77900 42.29700
C  -9.20500 43.83200 40.72700
C  -12.22500 44.49300 42.01400
O  -11.74200 45.51600 41.57400
C  -13.58200 44.59800 42.61100
N  -13.46900 39.01800 42.69500
C  -14.00700 40.23400 42.91100
C  -15.44500 40.20300 43.47800
C  -15.58700 38.67100 43.67500
C  -14.32100 38.05200 43.04600
C  -15.52100 41.04700 44.82800
C  -16.94500 38.10900 43.17600
C  -17.66000 37.15400 44.11800
N  -11.87600 36.78000 42.13900
C  -12.99500 36.01300 42.54500
C  -12.69700 34.58200 42.44100
C  -11.47600 34.54200 41.85400
C  -10.93500 35.86900 41.83100
C  -13.71700 33.44300 42.81600
C  -10.44900 33.64400 41.39200
O  -10.51400 32.41200 41.28400
C  -9.23500 34.53500 41.11200
C  -8.19400 34.29000 42.14000
O  -7.79000 35.10500 42.93900
O  -7.44000 33.15400 41.84800
C  -6.10100 33.03800 42.36000
H  -8.00500 41.44700 40.75600
H  -14.09100 42.19400 42.90200
H  -14.97000 36.10000 43.40300
H  -6.82100 36.93300 41.19000
H  -7.05500 39.23900 39.41900
H  -5.40900 39.98600 40.70300
H  -5.64000 38.58300 41.72200
H  -6.55500 40.05500 42.07500
H  -6.73100 37.46600 38.39900
H  -8.12300 36.33100 38.55900
H  -6.63200 34.53000 38.90500
H  -5.70100 35.44400 40.00400
H  -9.62500 44.08500 39.75400
H  -8.24200 43.45300 40.38400
H  -9.17500 44.74700 41.31900
H  -14.28000 44.17700 41.88800
H  -13.82600 45.65800 42.67200
H  -13.59000 44.13100 43.59600
H  -16.19700 40.60300 42.79800
H  -15.33300 38.56600 44.73000
H  -15.96400 42.02900 44.65900
H  -14.51400 41.22400 45.20700
H  -16.13000 40.61700 45.62300
H  -16.83900 37.63300 42.20100
H  -17.58200 38.93800 42.86900
H  -18.54400 37.72600 44.39800
H  -17.07100 36.86900 44.99000
H  -17.87600 36.26400 43.52600
H  -14.07400 33.73800 43.80200
H  -13.06200 32.57600 42.90500
H  -14.53100 33.26200 42.11300
H  -8.83100 34.21200 40.15300
H  -5.59900 34.00300 42.29800
H  -5.62200 32.36900 41.64500
H  -6.13300 32.59500 43.35500

