158

Mg 16.43300 52.04100 26.40000
C  18.42100 50.40400 28.85600
C  14.31900 53.06400 28.83300
C  14.57100 53.32100 23.99600
C  18.61200 50.76200 23.97000
N  16.47200 51.65800 28.62100
C  17.34600 51.09700 29.43600
C  17.11800 51.45500 30.94200
C  15.61000 51.92800 30.89700
C  15.46300 52.28100 29.37100
C  14.65600 50.72000 31.27200
C  18.10100 52.53600 31.49900
C  18.43400 52.49600 32.98300
H  17.58800 51.63000 33.88300
N  14.64600 53.07200 26.40400
C  13.99700 53.44200 27.50100
C  13.04400 54.42200 27.14800
C  12.96300 54.48800 25.73000
C  14.01500 53.54100 25.30200
C  12.23000 55.17500 28.27600
C  12.04300 55.21500 24.75900
O  12.13000 55.11900 23.57900
C  11.05100 56.18500 25.24100
N  16.60200 51.98800 24.36100
C  15.69400 52.60400 23.56700
C  16.05300 52.54600 22.07400
C  17.44000 51.86000 22.11900
C  17.50800 51.54800 23.54800
C  14.94300 51.83200 21.25000
C  18.59300 52.64400 21.45900
C  19.66100 53.45700 22.26400
N  18.18200 50.89100 26.32400
C  18.93400 50.42000 25.33900
C  20.15400 49.71800 25.81000
C  19.99900 49.73300 27.19300
C  18.76400 50.39600 27.48700
C  21.30400 49.08100 25.10300
C  20.60100 49.37700 28.47100
O  21.67000 48.82800 28.68100
C  19.59000 49.80600 29.60700
C  19.15000 48.55200 30.34300
O  18.18000 47.85400 29.99000
O  19.96800 48.43600 31.48200
C  19.45900 47.70100 32.65200
H  13.69700 53.45500 29.64100
H  13.97300 53.74700 23.18800
H  19.26200 50.34900 23.19700
H  17.30200 50.52700 31.48200
H  15.43400 52.71000 31.63700
H  13.79900 50.63600 30.60400
H  14.32500 51.02200 32.26600
H  15.09700 49.72600 31.34400
H  17.81600 53.57400 31.32900
H  19.04500 52.25500 31.03300
H  18.45800 53.49700 33.41500
H  19.39000 51.98900 33.11500
H  12.93300 55.73100 28.89700
H  11.60500 54.44800 28.79500
H  11.54700 55.92900 27.88600
H  10.76100 56.83600 24.41600
H  11.39800 56.89400 25.99200
H  10.18600 55.63000 25.60300
H  16.03500 53.55200 21.65700
H  17.35200 50.86900 21.67500
H  15.41100 51.05400 20.64800
H  14.42900 52.53100 20.59100
H  14.15200 51.36000 21.83200
H  18.23100 53.39800 20.76000
H  19.11100 51.86000 20.90600
H  19.43000 53.35500 23.32400
H  19.62600 54.53700 22.12300
H  20.68100 53.13100 22.06100
H  21.38200 49.72800 24.23000
H  21.21500 48.08600 24.66700
H  22.18700 49.07900 25.74400
H  20.03900 50.39500 30.40700
H  19.65500 48.30600 33.53700
H  20.07500 46.80300 32.70300
H  18.40300 47.44100 32.58000
Mg -11.86400 38.80700 41.90300
C  -9.50900 36.22200 41.26700
C  -9.78900 40.83400 40.25600
C  -14.34100 40.97100 41.91100
C  -14.11000 36.21900 42.78200
N  -10.05200 38.45600 40.54700
C  -9.23600 37.37000 40.55100
C  -8.07400 37.59600 39.56900
C  -8.08400 39.12700 39.34000
C  -9.43000 39.51800 40.02800
C  -6.91100 39.96900 40.02400
C  -8.27300 36.70700 38.28200
C  -6.97800 36.06100 37.77100
H  -6.19900 36.79200 36.73400
N  -11.95100 40.70400 41.27300
C  -10.93200 41.42200 40.75600
C  -11.22200 42.79500 40.68400
C  -12.60900 42.82000 41.02900
C  -13.05700 41.42700 41.45900
C  -10.34900 43.99100 40.22200
C  -13.51000 44.02900 40.96300
O  -13.01500 45.09700 40.64300
C  -14.95500 44.09800 41.38600
N  -13.92100 38.57400 42.20800
C  -14.68100 39.69400 42.24800
C  -16.13800 39.35400 42.55700
C  -16.09100 37.84500 42.78900
C  -14.64200 37.48200 42.58700
C  -16.70300 40.30600 43.67900
C  -17.03600 36.96600 41.89500
C  -17.56800 35.56700 42.50700
N  -11.83700 36.62300 42.07400
C  -12.78400 35.76500 42.53800
C  -12.25900 34.45900 42.73900
C  -10.89900 34.58300 42.29100
C  -10.76600 35.87000 41.77900
C  -13.01500 33.26500 43.52100
C  -9.60200 33.94000 42.20600
O  -9.27300 32.81200 42.46900
C  -8.64700 34.89900 41.36900
C  -7.38800 34.98900 42.11300
O  -6.61400 34.01200 42.14600
O  -7.18400 36.27200 42.59000
C  -6.05200 36.45100 43.50600
H  -9.12600 41.60600 39.85900
H  -15.10000 41.74100 42.06500
H  -14.73400 35.35500 43.01800
H  -7.20900 37.43100 40.21200
H  -8.20000 39.47100 38.31300
H  -7.10900 40.36000 41.02200
H  -6.71500 40.75100 39.29100
H  -5.98200 39.40000 40.02400
H  -8.60900 37.34100 37.46200
H  -8.90500 35.83400 38.44600
H  -7.24300 35.03100 37.53000
H  -6.27600 35.98000 38.60100
H  -10.76000 44.57100 39.39500
H  -9.36100 43.63200 39.93200
H  -10.00900 44.68400 40.99100
H  -15.30200 45.12300 41.25900
H  -15.00900 43.81900 42.43800
H  -15.49400 43.35100 40.80200
H  -16.58300 39.63500 41.60200
H  -16.47500 37.54200 43.76300
H  -17.20800 41.21900 43.36300
H  -15.88800 40.56300 44.35500
H  -17.36800 39.69400 44.28800
H  -16.34800 36.80200 41.06600
H  -17.81300 37.59800 41.46400
H  -18.65000 35.50000 42.39500
H  -17.27600 35.39900 43.54400
H  -17.30100 34.74400 41.84400
H  -12.35100 32.51100 43.94300
H  -13.74500 32.81500 42.84800
H  -13.45600 33.72800 44.40300
H  -8.48600 34.46700 40.38200
H  -5.26600 36.90300 42.90100
H  -5.63000 35.49100 43.80200
H  -6.30800 37.08000 44.35800

