158

Mg 6.72300 53.27700 40.73000
C  6.50300 49.89300 40.35000
C  9.87300 53.31000 39.54400
C  6.54600 56.69900 40.48800
C  3.30900 53.22100 41.75900
N  7.96400 51.77700 39.91500
C  7.72400 50.40400 39.82400
C  8.99900 49.62900 39.43200
C  10.11700 50.74100 39.72000
C  9.27800 52.06600 39.67900
C  11.00900 50.52700 41.02900
C  8.98800 49.07700 37.97900
C  8.24400 49.88100 36.96600
H  7.59000 49.10300 35.72600
N  8.07700 54.81200 40.05800
C  9.32000 54.55900 39.54300
C  9.93600 55.85100 39.21300
C  8.95300 56.86400 39.50800
C  7.79400 56.14800 40.03800
C  11.36900 56.01200 38.76000
C  9.12000 58.46400 39.33000
O  10.16600 58.87200 38.77400
C  8.08100 59.41400 39.81100
N  5.17300 54.70600 40.98400
C  5.40000 56.03900 40.90400
C  4.10900 56.83600 41.15500
C  3.11100 55.73300 41.68400
C  3.92300 54.44200 41.51200
C  4.13300 58.17400 42.08000
C  1.67200 55.67900 41.00800
C  0.44500 55.57500 41.80900
N  5.23800 51.87500 41.17400
C  3.91200 51.98600 41.49800
C  3.38000 50.67600 41.81700
C  4.34300 49.79700 41.27200
C  5.41500 50.59200 40.90000
C  1.99800 50.29200 42.37500
C  4.64800 48.41100 40.96600
O  3.97900 47.38700 41.10300
C  6.15900 48.41000 40.44900
C  6.10300 47.68300 39.13000
O  5.75600 48.14600 38.04400
O  6.38300 46.33700 39.26400
C  6.35700 45.41100 38.09400
H  10.92900 53.14900 39.32000
H  6.33200 57.76000 40.33800
H  2.29600 53.06400 42.13700
H  9.08100 48.80500 40.14100
H  10.82300 50.67200 38.89300
H  11.20400 51.45000 41.57500
H  11.94000 50.07100 40.69400
H  10.58900 49.89200 41.81000
H  8.53300 48.08700 37.97900
H  9.98900 48.97900 37.55700
H  8.95100 50.54400 36.46700
H  7.55600 50.61000 37.39500
H  11.30700 56.45300 37.76500
H  11.87800 55.05500 38.65000
H  11.96800 56.67100 39.38900
H  7.18000 59.22500 39.22700
H  8.35400 60.45000 39.60800
H  8.05500 59.25000 40.88800
H  3.65900 57.06900 40.19000
H  2.92900 55.74100 42.75800
H  3.94900 59.10100 41.53600
H  5.06700 58.16200 42.64200
H  3.36100 58.23700 42.84600
H  1.49800 54.84800 40.32400
H  1.71800 56.55200 40.35700
H  0.64700 55.30800 42.84600
H  -0.18100 54.80100 41.36500
H  -0.04400 56.54600 41.89000
H  1.59700 51.09300 42.99700
H  2.03900 49.38600 42.97900
H  1.31500 50.21800 41.52900
H  6.74800 47.83200 41.16100
H  6.08100 45.94800 37.18700
H  5.69300 44.56500 38.27000
H  7.38000 45.04500 37.99700
Mg -1.51400 34.70900 27.18600
C  -3.25000 32.77100 29.61600
C  -0.24900 36.65900 29.53900
C  0.06800 36.22800 24.62600
C  -3.20300 32.64300 24.70400
N  -1.89600 34.86500 29.33000
C  -2.51000 33.89500 30.15700
C  -2.41300 34.31400 31.64000
C  -1.57500 35.57600 31.59100
C  -1.12300 35.65400 30.07100
C  -2.27000 36.86700 32.14600
C  -1.81100 33.13800 32.51800
C  -1.07200 33.41900 33.89900
H  -1.58500 32.69600 35.12900
N  -0.40900 36.32000 27.08600
C  0.01900 37.01100 28.15400
C  0.84500 38.11100 27.73200
C  0.97300 37.97900 26.33400
C  0.21700 36.77500 25.91800
C  1.55600 39.03300 28.74800
C  1.78200 38.94200 25.33200
O  1.71900 38.75700 24.14600
C  2.62900 40.04600 25.71300
N  -1.64400 34.53800 25.05800
C  -0.80800 35.20000 24.23400
C  -0.80400 34.69500 22.76600
C  -1.86600 33.61600 22.80700
C  -2.26400 33.55500 24.29300
C  -1.05100 35.78700 21.68300
C  -1.20700 32.23100 22.25200
C  -0.27700 31.58700 23.27900
N  -2.98000 33.11100 27.14700
C  -3.54300 32.41200 26.07000
C  -4.38600 31.34000 26.61200
C  -4.31400 31.43900 28.00200
C  -3.39200 32.48900 28.26900
C  -5.22000 30.35200 25.83100
C  -4.74300 30.88700 29.19700
O  -5.51200 30.02000 29.45200
C  -4.14800 31.81600 30.36100
C  -5.29100 32.35900 31.17300
O  -6.32100 32.85500 30.68400
O  -5.04300 32.17000 32.42700
C  -5.98700 32.68800 33.44700
H  0.41200 37.10000 30.28800
H  0.51500 36.80600 23.81400
H  -3.58800 31.93600 23.96600
H  -3.43800 34.49000 31.96700
H  -0.64600 35.55700 32.16100
H  -2.40000 37.54400 31.30100
H  -1.74700 37.41000 32.93300
H  -3.29000 36.64500 32.46100
H  -1.08800 32.62800 31.88100
H  -2.59100 32.41700 32.76600
H  -1.34900 34.47000 33.97800
H  0.01700 33.38400 33.85900
H  1.08100 40.00800 28.64100
H  2.62200 39.06400 28.52400
H  1.43700 38.73100 29.78900
H  2.01400 40.90100 25.99500
H  3.11300 40.30600 24.77100
H  3.40100 39.82100 26.44900
H  0.19700 34.32800 22.53800
H  -2.75600 33.85700 22.22700
H  -0.26700 35.97100 20.94900
H  -1.28100 36.76000 22.11800
H  -1.94600 35.57900 21.09800
H  -0.60700 32.30400 21.34500
H  -2.06000 31.56500 22.11900
H  -0.67900 30.57500 23.23000
H  -0.31100 31.97500 24.29700
H  0.74700 31.46700 22.92500
H  -5.03000 30.54800 24.77600
H  -6.26700 30.49300 26.09800
H  -4.83900 29.38700 26.16400
H  -3.61000 31.24500 31.11900
H  -6.81700 33.07900 32.85900
H  -5.51100 33.51700 33.97100
H  -6.19700 31.89100 34.16000

