158

Mg -2.88100 16.54200 27.75000
C  -3.49700 14.35300 30.43100
C  -3.57700 19.12400 29.98100
C  -2.95700 18.66400 25.25600
C  -3.23600 13.82600 25.61700
N  -3.43800 16.68300 29.94800
C  -3.52800 15.66600 30.83400
C  -3.78900 16.15100 32.22800
C  -4.02000 17.69200 32.03300
C  -3.72200 17.82300 30.55300
C  -5.34600 18.30000 32.50200
C  -2.69700 15.97300 33.25200
C  -3.23500 15.78200 34.76000
H  -2.18700 16.04600 35.81600
N  -2.96100 18.64900 27.63500
C  -3.20300 19.52700 28.66300
C  -3.15200 20.83000 28.08900
C  -2.95600 20.74900 26.75200
C  -2.88900 19.30500 26.46700
C  -3.36600 22.12700 28.85400
C  -2.75900 21.89000 25.67000
O  -2.73100 21.72400 24.43100
C  -2.66000 23.33600 26.16600
N  -3.14600 16.32300 25.81100
C  -3.20300 17.33300 24.88000
C  -3.24700 16.96100 23.39600
C  -3.29500 15.37700 23.60500
C  -3.17600 15.10900 25.14000
C  -4.43800 17.44800 22.56300
C  -2.13600 14.75400 22.77600
C  -0.76000 14.59600 23.44800
N  -3.24400 14.49000 27.86900
C  -3.29000 13.48500 26.98600
C  -3.58200 12.22300 27.60400
C  -3.61800 12.45200 28.98100
C  -3.49400 13.86800 29.13400
C  -3.74100 10.93500 26.90600
C  -3.77100 11.84800 30.28300
O  -3.89800 10.69500 30.69900
C  -3.64100 13.12000 31.20800
C  -2.52500 12.75100 32.05200
O  -1.33000 12.89800 31.76200
O  -2.95800 12.24700 33.24800
C  -1.97200 11.87000 34.23100
H  -3.60000 20.00400 30.62700
H  -3.08600 19.32800 24.39800
H  -3.29000 12.98700 24.92100
H  -4.76500 15.75200 32.50400
H  -3.27400 18.32000 32.52000
H  -6.22400 17.65800 32.58600
H  -5.50600 19.16000 31.85200
H  -5.14200 18.74400 33.47700
H  -1.93300 16.74900 33.18700
H  -2.10800 15.07800 33.05300
H  -3.66700 14.78200 34.81700
H  -4.06900 16.45800 34.94800
H  -4.15300 22.75300 28.43500
H  -2.44600 22.71200 28.87000
H  -3.60900 21.83400 29.87600
H  -3.55400 23.66400 26.69500
H  -2.52800 23.93000 25.26100
H  -1.76800 23.38300 26.79000
H  -2.26100 17.21200 23.00500
H  -4.26100 15.00100 23.26900
H  -5.21900 16.70600 22.39800
H  -4.21800 17.86200 21.57900
H  -4.97200 18.18500 23.16300
H  -1.96200 15.39200 21.91000
H  -2.47700 13.77100 22.45000
H  -0.79000 14.55600 24.53700
H  -0.26900 15.51200 23.12300
H  -0.26800 13.77000 22.93400
H  -2.76400 10.50500 26.68400
H  -4.30000 11.04800 25.97700
H  -4.32600 10.25300 27.52300
H  -4.57900 13.23400 31.75100
H  -1.14600 11.28200 33.83100
H  -2.51100 11.28200 34.97400
H  -1.62700 12.79800 34.68800
Mg 54.84000 24.70500 43.54400
C  52.25100 27.08600 43.11800
C  52.71700 22.33400 42.44700
C  57.45000 22.55100 43.41000
C  57.02200 27.32800 44.25000
N  52.75700 24.71100 42.82200
C  51.88500 25.81300 42.73200
C  50.57600 25.34700 42.18600
C  50.64200 23.73600 42.23500
C  52.11100 23.58900 42.55600
C  49.76900 22.88200 43.13300
C  50.25400 25.89700 40.78500
C  51.41100 26.02400 39.79200
H  51.00800 25.84700 38.28100
N  55.04900 22.65700 43.05100
C  54.04400 21.89300 42.65100
C  54.54800 20.63000 42.52700
C  55.89800 20.58400 42.88100
C  56.21000 21.98400 43.18400
C  53.77000 19.43700 42.18000
C  56.77700 19.27800 43.03200
O  56.36800 18.12800 42.81900
C  58.22400 19.42100 43.44500
N  56.95500 24.94700 43.70400
C  57.76800 23.87600 43.78200
C  59.19700 24.26000 44.04400
C  59.12400 25.78200 44.25800
C  57.59700 26.09400 44.03200
C  59.68000 23.46400 45.29100
C  59.98300 26.78900 43.39400
C  59.53500 26.87800 41.90600
N  54.71700 26.79800 43.49800
C  55.61600 27.70900 44.04100
C  54.93400 28.94700 44.33600
C  53.63500 28.72200 44.00600
C  53.54600 27.46500 43.45300
C  55.58900 30.15200 44.94300
C  52.30700 29.33600 43.98000
O  51.97300 30.38200 44.39700
C  51.38500 28.38700 43.22200
C  50.90200 29.08500 41.96300
O  51.63100 29.34400 41.03400
O  49.53300 29.28900 41.99500
C  48.91600 29.53900 40.72800
H  52.03100 21.53700 42.15400
H  58.31000 21.89800 43.25000
H  57.72600 28.01100 44.73000
H  49.83400 25.77700 42.85800
H  50.46900 23.31100 41.24600
H  50.39300 22.51100 43.94600
H  49.31400 21.98400 42.71700
H  48.87500 23.31300 43.58400
H  49.72600 26.83500 40.95800
H  49.55800 25.19300 40.32900
H  52.28700 25.40700 39.99100
H  51.60700 27.09400 39.72900
H  54.24700 19.10800 41.25700
H  52.69500 19.59400 42.09600
H  53.93300 18.59000 42.84700
H  58.76400 18.49500 43.64100
H  58.38300 20.11300 44.27200
H  58.83000 19.77100 42.61000
H  59.71200 23.90700 43.15000
H  59.47000 26.06400 45.25300
H  60.30600 24.11600 45.89900
H  60.28300 22.66400 44.86000
H  58.96400 23.14200 46.04700
H  61.04500 26.74500 43.63800
H  59.91200 27.79900 43.79700
H  58.64300 27.45800 41.67100
H  59.33700 25.87900 41.51900
H  60.41800 27.12700 41.31600
H  56.58200 30.34800 44.54000
H  55.69300 30.01200 46.01900
H  55.08000 31.09700 44.75500
H  50.59800 28.24500 43.96300
H  48.81500 30.62000 40.63500
H  47.88500 29.20800 40.85400
H  49.37600 29.06200 39.86200

