158

Mg 43.43700 3.31900 47.16800
C  41.49200 6.46900 47.00700
C  40.42400 1.67800 46.93800
C  45.17700 0.56400 46.55800
C  46.19000 5.45700 46.37200
N  41.19900 4.04400 46.70800
C  40.68000 5.31600 46.91700
C  39.17000 5.25300 47.19200
C  38.97900 3.70000 47.43500
C  40.26900 3.07200 46.92300
C  38.54300 3.25000 48.85800
C  38.41800 5.93200 46.03900
C  38.79700 5.47700 44.65200
H  39.71400 6.36300 43.71500
N  42.91200 1.35200 46.99900
C  41.63600 0.85700 46.89200
C  41.72500 -0.61400 46.77900
C  43.05400 -0.98200 46.76900
C  43.80600 0.31300 46.73600
C  40.44200 -1.47600 46.64100
C  43.56200 -2.43000 46.71700
O  42.86400 -3.40200 46.88200
C  45.04200 -2.71300 46.66000
N  45.46600 3.05400 46.52900
C  45.95500 1.76400 46.45500
C  47.48800 1.80900 46.24600
C  47.72400 3.38200 46.01900
C  46.33800 4.04400 46.26600
C  48.27500 1.10700 47.41100
C  48.21500 3.61800 44.56300
C  49.67600 3.77300 44.15400
N  43.84600 5.46600 46.99700
C  45.05800 6.15200 46.66900
C  44.79500 7.50800 46.67800
C  43.48300 7.65800 46.86200
C  42.92700 6.44000 46.95100
C  45.91800 8.52200 46.37800
C  42.42000 8.75300 47.11500
O  42.38100 9.96300 47.23000
C  41.16800 7.92300 47.06400
C  40.36800 8.16600 48.31700
O  40.56800 7.64700 49.46100
O  39.49300 9.15400 48.08900
C  38.58500 9.65800 49.16800
H  39.39500 1.32100 47.02100
H  45.76300 -0.35500 46.49700
H  47.05200 5.92100 45.88800
H  39.00400 5.79400 48.12300
H  38.18100 3.39800 46.75700
H  37.62900 2.68300 48.68400
H  38.34700 4.12300 49.48000
H  39.32000 2.61600 49.28400
H  38.63000 6.99900 46.11400
H  37.35800 5.69100 46.12100
H  37.82900 5.38700 44.16000
H  39.25200 4.48900 44.71900
H  40.27800 -2.22700 47.41400
H  40.55700 -2.12800 45.77500
H  39.55600 -0.86000 46.48900
H  45.52600 -2.08400 47.40700
H  45.42100 -2.43100 45.67800
H  45.19200 -3.75300 46.94800
H  47.75800 1.21400 45.37400
H  48.41500 3.74200 46.78100
H  48.93500 1.78900 47.94700
H  48.69200 0.12300 47.19500
H  47.59200 0.93200 48.24200
H  47.78700 4.51800 44.11900
H  47.77000 2.79900 43.99800
H  50.15500 3.49200 45.09200
H  50.05000 4.76800 43.91500
H  49.92700 3.13900 43.30400
H  46.57500 8.79900 47.20200
H  45.45300 9.44900 46.04400
H  46.55600 8.17100 45.56700
H  40.57900 8.31200 46.23300
H  38.22700 8.93300 49.89800
H  37.69300 9.95300 48.61600
H  39.01800 10.55800 49.60600
Mg -11.66400 38.91700 41.92800
C  -9.65700 36.08200 40.69100
C  -9.34800 40.92400 40.25900
C  -13.83200 41.41100 42.24600
C  -13.88800 36.53000 43.17100
N  -9.79800 38.50500 40.55100
C  -9.16600 37.33100 40.18900
C  -7.96900 37.56800 39.30200
C  -7.84100 39.19500 39.24000
C  -9.01700 39.55800 40.10700
C  -6.43900 39.60800 39.69700
C  -8.09300 36.85600 37.91400
C  -6.83700 35.88300 37.65100
H  -5.76900 36.43100 36.60300
N  -11.55400 40.96800 41.39300
C  -10.50100 41.61200 40.78400
C  -10.77400 42.99400 40.80500
C  -12.14300 43.17500 41.26200
C  -12.58800 41.83600 41.69200
C  -9.86700 44.00900 40.34300
C  -12.95600 44.50900 41.20800
O  -12.41100 45.55100 40.74400
C  -14.36900 44.62400 41.76600
N  -13.68500 38.97500 42.36700
C  -14.29400 40.14200 42.65400
C  -15.56700 39.92100 43.50400
C  -15.47500 38.38100 43.79500
C  -14.28800 37.89900 43.05900
C  -15.61300 40.74300 44.79400
C  -16.79200 37.56800 43.52600
C  -17.99300 37.91800 44.43400
N  -11.72700 36.83700 41.99100
C  -12.62700 35.99800 42.66300
C  -12.21700 34.66600 42.55100
C  -11.02800 34.69700 41.80000
C  -10.80900 36.01300 41.43300
C  -12.90700 33.49800 43.32600
C  -10.02600 33.82700 41.18600
O  -9.92800 32.55500 41.19000
C  -8.92000 34.78200 40.68000
C  -7.92000 34.76700 41.75400
O  -8.01600 35.29500 42.85700
O  -6.89800 33.85700 41.51500
C  -5.96500 33.37300 42.54600
H  -8.69500 41.61000 39.71600
H  -14.49700 42.24500 42.47900
H  -14.47700 35.82300 43.75800
H  -7.13600 37.21100 39.90700
H  -7.97000 39.63700 38.25200
H  -6.38800 39.53900 40.78400
H  -6.18400 40.55800 39.22800
H  -5.71300 38.93900 39.23500
H  -7.99100 37.55300 37.08300
H  -9.01600 36.27900 37.95900
H  -7.22500 34.98400 37.17200
H  -6.24000 35.71900 38.54900
H  -9.76000 44.86100 41.01500
H  -10.32300 44.30800 39.40000
H  -8.88600 43.59000 40.12200
H  -15.04400 43.97900 41.20300
H  -14.66300 45.66700 41.65300
H  -14.48400 44.25000 42.78300
H  -16.36200 40.17400 42.80200
H  -15.08300 38.16000 44.78800
H  -16.41600 41.47700 44.73900
H  -14.70000 41.32300 44.93100
H  -15.55900 40.09700 45.66900
H  -16.66800 36.49800 43.69400
H  -17.12200 37.67700 42.49300
H  -18.91000 37.99700 43.85100
H  -17.89600 38.83600 45.01300
H  -18.02500 37.02700 45.06100
H  -13.75900 33.71200 43.97100
H  -12.12000 33.13800 43.98800
H  -13.20700 32.85700 42.49700
H  -8.51100 34.39300 39.74700
H  -5.71300 32.32400 42.39100
H  -6.38300 33.34800 43.55200
H  -5.07900 34.00800 42.55900

