158

Mg 0.59900 6.81400 26.05300
C  1.18200 8.72700 28.99600
C  0.51800 4.02200 28.09200
C  -0.00000 4.96900 23.36800
C  1.10800 9.67700 24.20100
N  0.96800 6.50700 28.29200
C  0.94100 7.43100 29.29200
C  0.77500 6.81700 30.65300
C  0.84500 5.28600 30.30600
C  0.71000 5.23400 28.79600
C  2.10300 4.45600 30.70000
C  -0.57600 7.27300 31.42100
C  -0.48600 7.76100 32.85200
H  0.72800 7.39500 33.71700
N  0.44600 4.71100 25.74800
C  0.34500 3.75100 26.70700
C  0.09600 2.47800 26.04100
C  0.00500 2.74400 24.64700
C  0.17300 4.16800 24.53000
C  0.15400 1.11200 26.71800
C  -0.14000 1.74600 23.46900
O  -0.11300 2.10600 22.28500
C  -0.12600 0.20800 23.70100
N  0.49900 7.27600 24.12400
C  0.18700 6.36800 23.20800
C  -0.05600 6.99300 21.83100
C  0.39600 8.45700 22.06000
C  0.77000 8.42500 23.57300
C  0.62800 6.26800 20.55600
C  -0.63800 9.54500 21.63400
C  -1.86200 9.64100 22.63000
N  0.96500 8.79800 26.49600
C  1.29700 9.81200 25.60000
C  1.58300 11.06900 26.26200
C  1.53400 10.63500 27.65100
C  1.20000 9.27800 27.70000
C  2.06600 12.38800 25.59300
C  1.84700 11.10300 28.93300
O  2.26200 12.24000 29.26700
C  1.44800 9.90900 29.93400
C  2.53800 9.83800 30.89100
O  3.60300 9.30400 30.71900
O  2.27100 10.56400 32.00500
C  3.43900 10.75900 32.85100
H  0.35400 3.14800 28.72600
H  -0.28500 4.47900 22.43400
H  1.16800 10.51900 23.50800
H  1.59600 7.07000 31.32300
H  0.01800 4.70100 30.70900
H  2.81800 4.95800 31.35100
H  2.65000 4.10600 29.82500
H  1.68700 3.54300 31.12700
H  -1.36700 6.56700 31.16800
H  -0.87800 8.15500 30.85500
H  -1.39500 7.44000 33.36100
H  -0.47200 8.83800 32.68700
H  0.56100 1.12800 27.72900
H  0.79300 0.46100 26.12100
H  -0.87700 0.76600 26.64900
H  0.84800 -0.26700 23.81700
H  -0.49800 -0.22400 22.77200
H  -0.80300 0.01000 24.53200
H  -1.13600 7.01000 21.68300
H  1.23200 8.73500 21.41900
H  1.04000 5.31400 20.88400
H  1.34000 6.96600 20.11500
H  -0.07700 6.03500 19.75800
H  -1.04800 9.29600 20.65600
H  -0.26000 10.54200 21.40600
H  -2.82900 9.70800 22.13300
H  -1.71200 10.54600 23.21800
H  -1.90500 8.76000 23.27100
H  2.86100 12.16200 24.88200
H  2.50100 13.03800 26.35300
H  1.24100 12.88600 25.08200
H  0.52700 10.15200 30.46400
H  3.99200 11.64400 32.53500
H  4.11100 9.90100 32.86500
H  3.07300 10.98300 33.85300
Mg 17.35600 51.04400 25.87800
C  19.31300 49.88100 28.46400
C  15.36700 52.65500 28.32300
C  15.88100 52.68900 23.49100
C  19.81300 49.83800 23.56900
N  17.28900 51.20200 28.13100
C  18.14800 50.53600 28.95300
C  17.88500 50.96900 30.45900
C  16.41600 51.54500 30.33100
C  16.36500 51.85200 28.90100
C  15.28400 50.53300 30.71300
C  18.92200 51.92400 31.23000
C  18.82900 51.87300 32.76900
H  17.86400 50.98700 33.50100
N  15.67500 52.24000 25.87000
C  15.04100 52.81800 26.94700
C  13.96600 53.65900 26.45600
C  14.08900 53.76800 25.07100
C  15.26300 52.84400 24.72800
C  12.98500 54.30200 27.31200
C  13.14700 54.46900 24.06200
O  13.16700 54.16700 22.87100
C  12.00900 55.47100 24.55700
N  17.96800 51.39000 23.88400
C  17.09400 52.09300 23.04100
C  17.45800 51.97500 21.56800
C  18.81700 51.27800 21.67200
C  18.88800 50.76900 23.09900
C  16.45600 51.41100 20.48000
C  19.98000 52.38900 21.44400
C  21.19500 51.74900 20.70100
N  19.07500 49.82700 25.98400
C  20.02700 49.47700 24.99300
C  21.13900 48.68500 25.60400
C  20.87000 48.78000 26.96500
C  19.64300 49.59900 27.13300
C  22.28700 47.96300 24.89900
C  21.37200 48.45100 28.29800
O  22.32300 47.86100 28.63300
C  20.32900 49.12800 29.32000
C  19.75200 48.18200 30.26000
O  18.93800 47.33000 29.89200
O  20.29400 48.33500 31.54700
C  19.69400 47.45000 32.51400
H  14.71000 53.11400 29.06500
H  15.38500 53.18200 22.65200
H  20.61900 49.45600 22.93900
H  17.91800 49.97900 30.91400
H  16.14200 52.49700 30.78400
H  14.80400 50.20300 29.79200
H  14.55500 50.95200 31.40700
H  15.71000 49.73200 31.31600
H  18.92600 52.98300 30.97000
H  19.94100 51.63700 30.97200
H  18.59900 52.87700 33.12500
H  19.81600 51.54300 33.09300
H  12.05000 54.01000 26.83400
H  13.12200 55.38200 27.25100
H  12.99700 53.93700 28.33900
H  11.16000 54.87600 24.89300
H  11.71700 56.16700 23.77000
H  12.54800 56.11000 25.25600
H  17.47900 53.03200 21.30400
H  18.85100 50.44100 20.97500
H  17.04800 50.84200 19.76400
H  15.89700 52.20200 19.98000
H  15.68200 50.79100 20.93300
H  20.37400 52.80300 22.37200
H  19.60800 53.15400 20.76200
H  21.42000 52.39800 19.85500
H  20.85400 50.82700 20.22900
H  22.03200 51.52900 21.36500
H  21.90500 47.26500 24.15400
H  22.83800 47.28000 25.54500
H  23.04300 48.62000 24.47000
H  20.91200 49.84700 29.89500
H  18.60700 47.50300 32.45400
H  19.90000 47.78000 33.53300
H  19.97700 46.40500 32.38800

