158

Mg 47.90900 34.00800 25.91200
C  46.00900 32.91300 28.60200
C  48.45900 36.87400 27.47400
C  49.58800 34.84600 23.15200
C  46.87800 31.04300 24.18700
N  47.33300 34.85700 27.84300
C  46.66300 34.17300 28.82900
C  46.85600 34.99700 30.21100
C  47.07300 36.44300 29.63100
C  47.57700 36.07200 28.20000
C  45.91800 37.48300 29.62500
C  48.01500 34.41700 30.92900
C  48.00800 34.41800 32.50000
H  47.29600 35.56400 33.22100
N  48.88400 35.69200 25.36700
C  49.04500 36.76800 26.15100
C  49.87000 37.75100 25.46400
C  49.97700 37.31000 24.12800
C  49.48000 35.88900 24.17500
C  50.40200 39.01500 26.19200
C  50.62300 37.94400 22.87200
O  50.55000 37.41500 21.76900
C  51.41900 39.25800 23.00800
N  48.00900 33.11600 23.85300
C  48.87700 33.71400 22.93700
C  48.95000 32.84200 21.66100
C  48.46900 31.42500 22.15400
C  47.72800 31.86000 23.45500
C  48.29000 33.30800 20.29500
C  49.41400 30.33300 22.51900
C  50.47900 30.02900 21.42400
N  46.69900 32.33100 26.29100
C  46.35200 31.23900 25.50700
C  45.47500 30.42900 26.23300
C  45.26500 31.02700 27.47900
C  46.02000 32.20500 27.45100
C  44.89500 29.05500 25.76700
C  44.48400 30.98500 28.71300
O  43.80300 30.08900 29.09300
C  44.92300 32.31600 29.47400
C  45.25700 32.04100 30.89600
O  45.89400 31.14800 31.33800
O  44.50100 32.92200 31.69900
C  44.35100 32.41700 33.07500
H  48.74400 37.82000 27.94000
H  50.31900 35.18900 22.41500
H  46.57200 30.16300 23.61600
H  45.92500 35.07000 30.77400
H  47.94000 36.97500 30.02300
H  45.39200 37.68400 28.69200
H  46.29000 38.46200 29.92800
H  45.30900 37.07700 30.43400
H  48.90800 34.95300 30.60700
H  48.07700 33.36500 30.64900
H  49.06600 34.32100 32.74500
H  47.48700 33.52200 32.83900
H  51.48100 39.03500 26.04400
H  50.18800 39.13100 27.25500
H  49.98400 39.91300 25.73600
H  52.06400 39.15000 23.88000
H  50.73800 40.10500 23.08900
H  51.92100 39.34500 22.04500
H  50.00300 32.59800 21.51800
H  47.62000 30.93900 21.67300
H  47.27900 32.94900 20.10600
H  48.98500 32.84900 19.59200
H  48.24800 34.38300 20.11900
H  48.73000 29.49900 22.67800
H  49.84300 30.58000 23.49000
H  51.43300 30.27500 21.89100
H  50.32100 30.70300 20.58200
H  50.53400 28.96700 21.18500
H  45.02200 28.32600 26.56800
H  45.54700 28.73100 24.95600
H  43.85200 29.15900 25.46700
H  43.98000 32.85500 29.37400
H  44.25500 31.33500 33.16600
H  43.43100 32.84700 33.47200
H  45.16100 32.79600 33.69800
Mg 30.50300 57.67900 40.96100
C  27.62300 55.96400 39.79600
C  32.56900 55.11200 39.58600
C  33.13300 59.75500 41.07500
C  28.38300 60.32800 41.97500
N  30.11400 55.95400 39.72200
C  28.88100 55.34300 39.43300
C  29.09700 54.04400 38.68200
C  30.47500 53.57900 39.27400
C  31.15200 55.00000 39.46600
C  30.36800 52.97900 40.63600
C  28.90600 53.93200 37.19300
C  29.02400 55.22100 36.28200
H  27.85000 55.50600 35.40000
N  32.65000 57.45200 40.49600
C  33.24000 56.31200 39.94000
C  34.66700 56.53400 39.83200
C  34.84200 57.92100 40.20200
C  33.50700 58.47200 40.67500
C  35.69100 55.45800 39.45200
C  36.20200 58.57800 40.18800
O  37.16700 57.88500 39.93000
C  36.50200 60.02800 40.62300
N  30.77000 59.70200 41.60800
C  31.95800 60.32800 41.56300
C  31.87000 61.84100 41.79700
C  30.39500 62.00700 42.29100
C  29.77500 60.60700 42.01500
C  32.89700 62.49300 42.68400
C  29.61200 63.03600 41.35500
C  28.66800 63.91700 42.14800
N  28.43000 58.04800 40.94600
C  27.70600 59.16000 41.39100
C  26.30700 58.86700 41.13500
C  26.20700 57.63300 40.52700
C  27.51600 57.19400 40.45200
C  25.14000 59.75300 41.42700
C  25.32100 56.72100 39.99300
O  24.05700 56.74300 39.88000
C  26.25000 55.53500 39.36700
C  25.82700 54.24600 40.06700
O  25.98000 54.02500 41.26900
O  24.95200 53.51900 39.23500
C  24.36500 52.28000 39.83900
H  33.22500 54.26100 39.39100
H  33.96200 60.46300 41.14700
H  27.70400 61.11400 42.31200
H  28.39300 53.30900 39.07200
H  31.13700 53.06600 38.57600
H  29.34300 52.83700 40.97800
H  30.85900 53.54000 41.43100
H  30.88100 52.01800 40.57700
H  27.84900 53.70300 37.05500
H  29.68900 53.26700 36.83000
H  29.82600 54.95800 35.59200
H  29.22400 56.09300 36.90500
H  36.11100 55.57900 38.45400
H  35.22200 54.49400 39.64900
H  36.49100 55.52000 40.19000
H  35.73000 60.67200 40.20100
H  37.49500 60.38900 40.35800
H  36.32900 60.10300 41.69700
H  31.98600 62.30500 40.81800
H  30.45800 62.13500 43.37100
H  32.96500 61.88700 43.58800
H  32.50500 63.46600 42.98000
H  33.78000 62.64700 42.06300
H  29.05400 62.48000 40.60100
H  30.27700 63.72100 40.83100
H  29.01600 64.94900 42.10100
H  28.59600 63.55200 43.17300
H  27.66000 63.83100 41.74000
H  24.97200 60.55300 40.70600
H  25.45100 60.32600 42.30000
H  24.15900 59.27800 41.40100
H  26.14200 55.48100 38.28400
H  23.54000 51.92300 39.22200
H  23.85700 52.51100 40.77500
H  25.15300 51.52800 39.80600

