158

Mg 25.21200 2.00400 29.65200
C  27.18600 1.35600 32.35100
C  22.42000 2.45600 31.68000
C  23.15100 2.20000 26.83000
C  27.86500 1.37400 27.52200
N  24.86400 1.89500 31.76500
C  25.85100 1.75600 32.66600
C  25.37800 2.04300 34.08900
C  23.84400 2.32600 33.91600
C  23.67400 2.25200 32.35400
C  22.93500 1.27700 34.68100
C  26.13200 3.31300 34.71600
C  26.90000 3.19400 36.08400
H  26.40900 4.08400 37.22700
N  23.11200 2.29500 29.34600
C  22.17200 2.40100 30.33000
C  20.87800 2.42000 29.69700
C  21.08100 2.36600 28.27800
C  22.51900 2.25600 28.11500
C  19.54000 2.32100 30.48300
C  20.00200 2.20600 27.20900
O  20.17500 2.14100 25.98600
C  18.50300 2.16100 27.57700
N  25.43800 1.84400 27.54800
C  24.53100 2.11600 26.62000
C  25.16600 2.40100 25.20200
C  26.65500 2.24900 25.46500
C  26.66400 1.73400 26.89800
C  24.60000 1.55100 24.01900
C  27.48500 3.57600 25.38500
C  27.04700 4.72900 26.31400
N  27.13400 1.36000 29.83100
C  28.13500 1.16200 28.90600
C  29.41800 0.86400 29.55100
C  29.13600 0.92900 30.96600
C  27.72700 1.20900 31.04300
C  30.75900 0.62000 28.82500
C  29.68000 0.91700 32.34100
O  30.82400 0.85500 32.82500
C  28.41000 1.19000 33.21300
C  28.32200 0.10000 34.24500
O  27.80800 -1.00400 34.01400
O  28.82100 0.58000 35.37300
C  28.65700 -0.27000 36.54200
H  21.59200 2.80000 32.30200
H  22.53600 2.41000 25.95200
H  28.65300 1.35800 26.76600
H  25.64500 1.19800 34.72300
H  23.58500 3.33000 34.25300
H  23.56000 0.88700 35.48400
H  22.66700 0.58500 33.88200
H  22.03900 1.74100 35.09300
H  25.44200 4.15500 34.67600
H  26.87400 3.65500 33.99400
H  27.93800 3.51700 36.00000
H  26.75800 2.17300 36.43700
H  19.05500 1.34700 30.41400
H  18.85300 3.15700 30.35300
H  19.54000 2.34100 31.57300
H  18.12800 1.21300 27.96200
H  17.99900 2.18700 26.61100
H  18.20900 2.97700 28.23700
H  25.10800 3.46600 24.97300
H  27.11000 1.54500 24.76800
H  25.39800 0.89600 23.66900
H  24.25900 2.17600 23.19400
H  23.72000 1.02200 24.38700
H  27.41200 3.98400 24.37700
H  28.54700 3.40800 25.56300
H  27.71500 4.96100 27.14400
H  26.08300 4.47700 26.75700
H  26.81900 5.66900 25.81100
H  31.25200 1.58500 28.70400
H  30.48400 0.10300 27.90600
H  31.31800 -0.06500 29.46200
H  28.50800 2.18800 33.64000
H  29.56700 -0.85700 36.66200
H  27.81800 -0.96600 36.55700
H  28.56000 0.41600 37.38300
Mg 35.55600 48.90500 24.99100
C  36.08400 47.39000 28.11300
C  33.95900 51.45300 26.71300
C  34.67600 50.04000 22.06000
C  37.08200 46.12100 23.46900
N  34.88800 49.23400 27.16600
C  35.43500 48.58800 28.26800
C  35.04000 49.27300 29.61200
C  34.13100 50.37300 28.98700
C  34.30300 50.36800 27.50100
C  32.62400 50.24600 29.39400
C  36.27800 49.85100 30.41100
C  36.31700 49.16700 31.80600
H  35.02800 48.86900 32.56300
N  34.55100 50.57400 24.46700
C  34.13800 51.57800 25.26400
C  33.58300 52.67200 24.36900
C  33.60300 52.17900 23.09500
C  34.24300 50.83400 23.17100
C  33.10500 53.97900 24.88400
C  33.21900 52.85200 21.70300
O  33.24700 52.29500 20.57400
C  32.63100 54.19900 21.71000
N  35.86500 48.26400 23.02000
C  35.36800 48.89200 21.96800
C  35.80700 48.26500 20.59800
C  36.62100 47.03100 21.13000
C  36.53300 47.09400 22.63300
C  34.65300 47.92400 19.61300
C  38.13600 47.03900 20.67400
C  38.97700 48.16900 21.33800
N  36.34200 47.08300 25.60300
C  36.95300 46.03000 24.90800
C  37.34200 44.96400 25.78900
C  37.03000 45.44400 27.02500
C  36.47200 46.77000 26.84900
C  37.86900 43.63800 25.32100
C  37.06000 45.12100 28.45400
O  37.43400 44.10300 29.02800
C  36.56300 46.41100 29.20600
C  35.37200 45.91200 29.93600
O  34.24500 45.76500 29.49000
O  35.82400 45.28800 31.13600
C  34.91600 44.70100 32.10800
H  33.48200 52.25400 27.28200
H  34.38500 50.34400 21.05300
H  37.49400 45.21400 23.02200
H  34.40300 48.52300 30.08100
H  34.42900 51.35800 29.34600
H  32.56600 49.51200 30.19700
H  31.98400 49.86900 28.59700
H  32.15600 51.17400 29.72300
H  36.12600 50.93000 30.44400
H  37.16900 49.65600 29.81400
H  37.02400 49.83900 32.29100
H  36.91900 48.26600 31.68700
H  32.03500 53.87900 24.70200
H  33.54100 54.84800 24.39200
H  33.29300 54.10600 25.95000
H  32.00600 54.42100 22.57500
H  31.91000 54.24400 20.89400
H  33.44000 54.90700 21.53000
H  36.50300 48.99400 20.18400
H  36.26700 46.03100 20.88100
H  33.72900 48.45700 19.83500
H  34.40100 46.87000 19.73300
H  35.02600 47.99300 18.59100
H  38.05300 47.32100 19.62400
H  38.56200 46.05300 20.86000
H  39.56900 47.68300 22.11400
H  38.25300 48.90200 21.69400
H  39.54500 48.66200 20.54900
H  38.90800 43.52500 25.63300
H  37.89300 43.57700 24.23300
H  37.40200 42.82100 25.87100
H  37.39300 46.82600 29.77700
H  35.04200 43.61900 32.06000
H  33.89100 44.93000 31.81700
H  35.23700 45.08000 33.07800

