158

Mg -1.94600 16.96100 26.97100
C  -2.52600 14.63100 29.64400
C  -2.29500 19.44800 29.24700
C  -1.63600 18.88400 24.43900
C  -2.24400 14.14700 24.67100
N  -2.29500 16.93500 29.17100
C  -2.31500 15.93500 30.12100
C  -2.54600 16.40200 31.59300
C  -2.59400 17.98000 31.28500
C  -2.41700 18.14800 29.79100
C  -3.86700 18.60700 31.85000
C  -1.30800 15.94100 32.43900
C  -0.80400 16.73200 33.57600
H  -0.25000 16.05200 34.90400
N  -1.84200 18.97300 26.84000
C  -2.04500 19.84600 27.90700
C  -1.94500 21.13700 27.33900
C  -1.71800 21.02400 25.94400
C  -1.75600 19.60900 25.69300
C  -2.01300 22.36700 28.27100
C  -1.49300 22.09500 24.87100
O  -1.28100 21.83800 23.70300
C  -1.51000 23.47300 25.27500
N  -2.09600 16.57800 24.84700
C  -1.89500 17.63600 24.05700
C  -1.89400 17.24900 22.58600
C  -1.71100 15.68000 22.66100
C  -2.06800 15.41900 24.13100
C  -3.21400 17.70000 21.82900
C  -0.26600 15.10500 22.31500
C  0.85000 15.55900 23.18600
N  -2.27700 14.85400 27.08500
C  -2.37000 13.90900 26.04500
C  -2.43000 12.65400 26.70400
C  -2.59100 12.89500 28.10600
C  -2.48500 14.20900 28.24600
C  -2.45800 11.34600 26.03900
C  -2.89000 12.23900 29.41300
O  -3.24000 11.10500 29.67800
C  -2.70100 13.35300 30.44500
C  -1.49400 12.94500 31.21300
O  -0.31700 13.26800 31.00200
O  -1.86400 12.30600 32.38000
C  -0.99700 12.24500 33.56900
H  -2.35400 20.21400 30.02300
H  -1.61500 19.61000 23.62400
H  -2.38800 13.28800 24.01300
H  -3.43700 15.97500 32.05300
H  -1.80300 18.62300 31.67300
H  -4.09500 18.07400 32.77400
H  -4.62500 18.62500 31.06600
H  -3.71800 19.66200 32.07900
H  -0.44300 15.69200 31.82400
H  -1.61600 15.03900 32.96700
H  -1.71900 17.30900 33.70800
H  0.05800 17.31000 33.24300
H  -2.80300 23.05500 27.97100
H  -1.09700 22.95400 28.20100
H  -2.10200 22.14700 29.33400
H  -2.41200 23.72900 25.83000
H  -1.53300 23.99600 24.31900
H  -0.62800 23.67700 25.88200
H  -1.00900 17.65700 22.09800
H  -2.58100 15.24000 22.17300
H  -2.92400 18.24700 20.93100
H  -3.87600 18.32700 22.42600
H  -3.66400 16.78600 21.44200
H  -0.02900 15.50800 21.33100
H  -0.34100 14.02400 22.43600
H  1.47900 16.11400 22.49100
H  1.28900 14.67300 23.64500
H  0.45200 16.21500 23.96000
H  -3.20400 11.41800 25.24700
H  -2.86100 10.58100 26.70300
H  -1.50100 10.99200 25.65800
H  -3.40400 13.56800 31.24900
H  -0.93100 13.27600 33.91800
H  0.01100 11.92200 33.30800
H  -1.37100 11.68400 34.42500
Mg 5.57200 54.12200 40.98300
C  4.61800 50.71500 40.32100
C  8.60300 53.46600 39.60500
C  6.13400 57.48600 41.16300
C  2.31900 54.51100 42.35700
N  6.30900 52.41600 39.81100
C  5.83700 51.14600 39.75600
C  6.78200 50.30400 38.93200
C  8.17900 51.01000 39.21200
C  7.67200 52.37500 39.60600
C  9.12000 50.42800 40.27600
C  6.33700 50.28800 37.42800
C  7.24600 49.39100 36.47300
H  6.30900 48.56600 35.50500
N  7.17900 55.34900 40.36400
C  8.34800 54.84300 39.94400
C  9.29400 55.97400 39.85100
C  8.51800 57.16500 40.09800
C  7.19800 56.72400 40.52900
C  10.65300 55.77900 39.39600
C  9.04100 58.50800 40.06500
O  10.18900 58.74700 39.63100
C  8.25500 59.73700 40.42200
N  4.34000 55.70100 41.48200
C  4.88200 56.95800 41.60000
C  3.93800 57.97100 42.31300
C  2.75600 57.02000 42.79900
C  3.16100 55.63200 42.21100
C  4.61600 58.86000 43.47800
C  1.30100 57.53300 42.33200
C  0.54100 58.30800 43.34500
N  3.72500 52.83300 41.25900
C  2.57800 53.18100 41.98300
C  1.77700 51.94200 42.12200
C  2.60400 50.99700 41.53400
C  3.68600 51.54900 40.96700
C  0.42900 51.81000 42.79600
C  2.51300 49.63100 41.27700
O  1.71500 48.78800 41.64700
C  3.93000 49.37000 40.43500
C  3.50500 48.62200 39.15600
O  2.45300 48.59200 38.50400
O  4.63200 47.87600 38.83200
C  4.70600 46.64000 38.10200
H  9.62200 53.25600 39.27300
H  6.33900 58.54200 41.35200
H  1.40500 54.73000 42.91400
H  6.95700 49.31500 39.35600
H  8.63600 51.11000 38.22800
H  10.12800 50.24600 39.90300
H  8.75000 49.47900 40.66400
H  9.15900 51.10100 41.13300
H  6.44400 51.29200 37.01700
H  5.29400 50.02300 37.25800
H  7.95400 48.62700 36.79100
H  7.82000 50.10900 35.88800
H  11.33000 56.24000 40.11600
H  10.66000 55.98100 38.32500
H  10.87600 54.72700 39.57100
H  8.91200 60.54600 40.10200
H  8.05600 59.74900 41.49400
H  7.37200 59.75300 39.78400
H  3.50700 58.60800 41.54100
H  2.63500 56.83400 43.86600
H  4.19100 58.71000 44.47000
H  4.26100 59.88200 43.34500
H  5.69700 58.73200 43.52600
H  0.72600 56.67400 41.98600
H  1.45000 58.15500 41.45000
H  -0.15200 58.98600 42.84700
H  1.23700 58.88700 43.95200
H  -0.02200 57.56600 43.91100
H  0.01100 50.88200 42.40600
H  -0.19900 52.66200 42.53800
H  0.64000 51.73700 43.86300
H  4.39000 48.65000 41.11100
H  4.15400 45.86000 38.62500
H  5.73800 46.35200 37.90300
H  4.32000 46.90400 37.11700

