158

Mg 53.24900 25.10400 44.04300
C  50.48900 27.44200 43.67200
C  51.13800 22.69900 43.14600
C  55.91600 23.28100 43.61900
C  55.27700 27.92900 44.72400
N  51.04100 25.14000 43.30200
C  50.10100 26.13600 43.31900
C  48.66400 25.56500 43.05600
C  48.89100 24.06000 43.24200
C  50.43800 23.90600 43.29800
C  48.29400 23.46000 44.55400
C  48.05000 26.09600 41.71800
C  49.01200 26.57400 40.63900
H  49.42300 25.49600 39.57100
N  53.51200 23.24100 43.53600
C  52.48900 22.29500 43.26200
C  53.07000 20.97700 42.95500
C  54.47700 21.24500 43.14600
C  54.72300 22.60400 43.48200
C  52.18800 19.76800 42.48300
C  55.46700 20.13400 42.90200
O  55.02400 18.99000 42.58400
C  56.93600 20.30300 42.90000
N  55.21000 25.64100 44.01000
C  56.17700 24.58300 43.86000
C  57.58300 25.15400 43.75600
C  57.40700 26.65400 44.23500
C  55.86000 26.77900 44.29800
C  58.79800 24.42800 44.38100
C  58.12200 27.71500 43.34900
C  59.30800 28.49800 43.93000
N  52.93800 27.29400 44.20800
C  53.88600 28.21400 44.69300
C  53.20100 29.42800 44.97100
C  51.84000 29.15300 44.51900
C  51.77000 27.81700 44.07600
C  53.87800 30.70100 45.50600
C  50.52400 29.69700 44.40600
O  50.06700 30.73500 44.79000
C  49.63500 28.66400 43.72500
C  49.33300 29.23300 42.41200
O  50.07000 29.54200 41.46100
O  47.94900 29.36600 42.41300
C  47.34600 29.96000 41.17700
H  50.45600 21.88400 42.89500
H  56.86500 22.76200 43.46700
H  55.87600 28.80700 44.97300
H  48.06100 26.00700 43.84900
H  48.50900 23.44300 42.42900
H  47.53900 24.17500 44.87900
H  49.06800 23.21900 45.28400
H  47.74900 22.52900 44.39600
H  47.39200 26.94000 41.92300
H  47.50000 25.25900 41.28900
H  49.86600 27.06600 41.10600
H  48.53800 27.35400 40.04300
H  52.30000 19.43000 41.45300
H  51.12600 19.90800 42.68500
H  52.50400 18.92300 43.09500
H  57.40300 19.36200 42.60900
H  57.37700 20.67400 43.82500
H  57.19500 21.08900 42.19000
H  57.79400 25.19600 42.68700
H  57.76200 26.75200 45.26000
H  59.57700 25.04400 44.83000
H  59.16300 23.82000 43.55300
H  58.33300 23.80600 45.14600
H  57.35600 28.45400 43.11400
H  58.22700 27.24500 42.37100
H  59.36000 29.55900 43.68600
H  60.19700 28.08200 43.45600
H  59.15000 28.47400 45.00800
H  53.29600 31.10300 46.33500
H  54.14900 31.34600 44.67000
H  54.73700 30.28000 46.02800
H  48.73800 28.55600 44.33500
H  47.69600 30.98900 41.08600
H  46.26500 29.82400 41.17500
H  47.82900 29.46100 40.33600
Mg -11.92100 37.91000 42.38400
C  -9.67700 35.36900 41.78700
C  -9.95100 39.88200 40.34700
C  -14.34700 40.28800 42.51500
C  -14.16300 35.71200 43.82200
N  -10.09000 37.62700 41.15400
C  -9.29900 36.50200 41.06600
C  -8.21400 36.60800 39.97000
C  -8.09300 38.12400 39.70900
C  -9.46600 38.61700 40.40500
C  -6.87600 38.95700 40.27800
C  -8.65000 35.81500 38.67700
C  -7.70200 34.67400 38.28900
H  -6.53100 34.99500 37.32000
N  -12.02200 39.94100 41.71400
C  -11.11500 40.47500 40.85500
C  -11.52700 41.84600 40.54600
C  -12.83400 42.00600 41.11600
C  -13.11200 40.77600 41.90800
C  -10.65800 42.72700 39.71100
C  -13.76800 43.19600 40.90400
O  -13.47800 44.02700 40.05700
C  -15.13900 43.44600 41.63300
N  -14.00300 37.91100 42.89900
C  -14.72100 39.03900 42.94400
C  -16.10800 38.72800 43.55900
C  -16.07200 37.23900 43.82600
C  -14.66600 36.90600 43.49900
C  -16.26900 39.60600 44.85100
C  -17.06200 36.36700 42.96500
C  -18.33900 35.91400 43.67000
N  -12.01600 35.93100 42.72700
C  -12.85600 35.24300 43.49900
C  -12.25700 33.92400 43.79300
C  -11.06100 33.93800 43.08800
C  -10.92500 35.17900 42.45200
C  -12.85400 32.80800 44.66500
C  -9.81100 33.21300 42.83800
O  -9.43000 32.13900 43.24600
C  -8.82900 34.09400 41.90900
C  -7.50600 34.26300 42.49100
O  -6.57700 33.47400 42.21100
O  -7.30500 35.45300 43.12200
C  -6.00200 35.69600 43.67600
H  -9.36500 40.45100 39.62300
H  -15.08800 41.03000 42.81900
H  -14.79700 35.00500 44.36000
H  -7.22600 36.25900 40.27300
H  -8.18600 38.35800 38.64800
H  -6.22400 39.35200 39.49900
H  -6.25100 38.24300 40.81400
H  -7.20700 39.81400 40.86500
H  -8.79500 36.43600 37.79300
H  -9.65300 35.43800 38.87300
H  -8.19800 33.85200 37.77200
H  -7.10500 34.23200 39.08600
H  -10.87600 43.76600 39.95800
H  -10.84500 42.50000 38.66100
H  -9.64300 42.53000 40.05600
H  -15.79100 42.57500 41.56700
H  -15.63000 44.33600 41.23900
H  -14.97500 43.63600 42.69300
H  -16.81700 38.90200 42.75000
H  -16.31100 37.08900 44.87900
H  -16.60100 39.00800 45.70000
H  -16.93200 40.44000 44.61800
H  -15.29600 40.03000 45.09900
H  -16.47500 35.50700 42.64300
H  -17.27400 36.87300 42.02300
H  -18.34300 34.83000 43.78100
H  -19.21600 36.15200 43.06700
H  -18.43700 36.29000 44.68800
H  -13.93400 32.90400 44.55600
H  -12.67900 32.88000 45.73800
H  -12.44600 31.87900 44.26600
H  -8.69000 33.56300 40.96700
H  -5.42200 36.47100 43.17500
H  -5.39800 34.79100 43.75200
H  -6.19600 36.15900 44.64300

