158

Mg 40.88000 9.79100 29.93400
C  42.41200 10.71500 32.88000
C  38.38200 8.31400 31.81900
C  39.75500 8.23000 27.11600
C  43.74100 10.60900 28.21100
N  40.48700 9.53100 32.08000
C  41.21600 10.06100 33.11300
C  40.52000 9.86300 34.50100
C  39.30800 8.90900 34.10500
C  39.30600 9.02100 32.57200
C  39.43500 7.44200 34.61800
C  40.08700 11.16800 35.21000
C  40.58000 11.21200 36.68000
H  41.06000 12.57000 37.08100
N  39.18200 8.67200 29.50000
C  38.28000 8.16300 30.39800
C  37.29400 7.43800 29.67500
C  37.68200 7.42500 28.32000
C  38.96100 8.14600 28.28400
C  36.16700 6.71000 30.37900
C  36.93300 6.80300 27.09900
O  37.37800 6.89600 25.94200
C  35.59100 6.21000 27.26100
N  41.69900 9.21700 27.95900
C  40.99600 8.77000 26.91700
C  41.66800 8.84900 25.53600
C  42.90100 9.74600 25.94800
C  42.80300 9.84600 27.50100
C  41.91000 7.40200 24.98100
C  42.82000 11.14400 25.17600
C  41.69700 12.14800 25.62700
N  42.62600 10.60400 30.41700
C  43.74900 10.93500 29.57600
C  44.70300 11.71300 30.33100
C  44.19500 11.63400 31.63700
C  42.99800 10.94000 31.65500
C  46.04900 12.29900 29.82400
C  44.53100 11.99600 32.98000
O  45.44300 12.66900 33.38100
C  43.39600 11.36000 33.88900
C  44.11600 10.43400 34.82500
O  44.30700 9.26900 34.56100
O  44.51800 11.14000 35.92200
C  44.99300 10.34000 37.04300
H  37.66000 7.74500 32.40800
H  39.40900 7.89600 26.13500
H  44.55500 10.89700 27.54300
H  41.25600 9.29000 35.06600
H  38.34800 9.24500 34.49800
H  39.52300 7.48200 35.70300
H  40.37500 7.05900 34.22000
H  38.68000 6.71100 34.32600
H  39.00400 11.26600 35.13100
H  40.37000 12.06900 34.66500
H  41.45100 10.58400 36.86600
H  39.87500 10.95200 37.47000
H  36.37800 6.45800 31.41800
H  35.97400 5.72300 29.96100
H  35.19000 7.19300 30.36400
H  35.40700 5.18800 26.92900
H  34.99000 6.83500 26.60100
H  35.14800 6.43600 28.23100
H  41.04400 9.45000 24.87400
H  43.86800 9.39500 25.58900
H  41.66300 6.74600 25.81600
H  42.96800 7.34400 24.72400
H  41.37600 7.17100 24.06000
H  42.56900 10.85600 24.15500
H  43.74700 11.71500 25.12900
H  41.16300 11.68700 26.45800
H  40.97400 12.41900 24.85700
H  42.19600 13.05700 25.96300
H  45.88300 13.10100 29.10500
H  46.77600 11.50100 29.67300
H  46.30600 12.80500 30.75500
H  42.91700 12.17700 34.42800
H  45.21400 10.91400 37.94200
H  45.94400 9.93500 36.69800
H  44.35600 9.52200 37.38100
Mg -2.08900 34.36300 26.93500
C  -3.63000 32.54100 29.48800
C  -0.74400 36.41800 29.27100
C  -0.72900 36.01400 24.40600
C  -3.94800 32.43300 24.61400
N  -2.30600 34.64500 29.16500
C  -2.75500 33.57700 29.94900
C  -2.42900 33.89200 31.39100
C  -1.67100 35.29300 31.38600
C  -1.55300 35.50500 29.85600
C  -2.17700 36.45800 32.21500
C  -1.74300 32.68800 32.14300
C  -1.35200 32.88600 33.64200
H  -1.83900 31.88600 34.71900
N  -0.93900 35.95500 26.79200
C  -0.46200 36.67900 27.87500
C  0.47600 37.60500 27.33200
C  0.61300 37.42100 25.97100
C  -0.30600 36.40700 25.62500
C  1.11300 38.52700 28.33100
C  1.45100 38.22200 24.94600
O  1.41400 38.03500 23.76700
C  2.40700 39.21500 25.38200
N  -2.42000 34.28100 24.78500
C  -1.70800 35.07000 23.98300
C  -1.90100 34.73500 22.48100
C  -2.94800 33.55900 22.52100
C  -3.22900 33.44200 24.02900
C  -2.35400 36.00800 21.74700
C  -2.46600 32.18200 21.89500
C  -1.33400 31.39300 22.52200
N  -3.53000 32.83000 27.00200
C  -4.03400 32.07300 25.96600
C  -4.91700 31.09800 26.48200
C  -4.83300 31.24400 27.87700
C  -3.89200 32.27400 28.13200
C  -5.71000 30.10900 25.69800
C  -5.31400 30.77300 29.13700
O  -6.15500 29.97500 29.41700
C  -4.45900 31.49600 30.24700
C  -5.29300 32.08700 31.26600
O  -5.92500 33.10300 30.97600
O  -5.32700 31.38800 32.47900
C  -6.44700 31.73200 33.37200
H  -0.34000 37.04700 30.06600
H  -0.39000 36.60900 23.55500
H  -4.56100 31.79400 23.97400
H  -3.39300 34.14100 31.83600
H  -0.70500 35.06300 31.83400
H  -2.91500 36.06000 32.91100
H  -2.73400 36.99400 31.44700
H  -1.53700 37.17400 32.73000
H  -0.93800 32.32200 31.50700
H  -2.51000 31.91300 32.14300
H  -1.85000 33.82200 33.89600
H  -0.26600 32.94500 33.71200
H  1.93900 39.12500 27.94600
H  1.52700 37.89500 29.11700
H  0.31500 39.06900 28.83800
H  1.95600 40.14100 25.73800
H  2.89700 39.59400 24.48500
H  3.14000 38.86100 26.10700
H  -0.95500 34.41400 22.04600
H  -3.89500 33.88200 22.09000
H  -2.42700 36.87300 22.40500
H  -3.31600 35.89700 21.24600
H  -1.56800 36.17600 21.01000
H  -2.07700 32.54100 20.94100
H  -3.35800 31.56600 21.78800
H  -0.54200 31.29300 21.77900
H  -1.75400 30.43200 22.81700
H  -0.84400 31.81100 23.40100
H  -6.63200 30.48300 25.25200
H  -5.86200 29.19100 26.26600
H  -5.02100 29.69500 24.96200
H  -3.80200 30.79200 30.75800
H  -6.56400 32.80900 33.48600
H  -6.26000 31.30500 34.35700
H  -7.35000 31.21500 33.04700

