158

Mg -11.24000 40.66500 43.32100
C  -10.80900 37.32100 42.11200
C  -8.28800 41.48800 41.67700
C  -12.10700 43.83400 43.62500
C  -14.55300 39.72000 44.07700
N  -9.74200 39.50200 41.94900
C  -9.83500 38.17500 41.56800
C  -8.53000 37.75400 40.75500
C  -7.55500 38.97700 41.11000
C  -8.57100 40.08600 41.63400
C  -6.27500 38.74100 41.92700
C  -8.73100 37.51400 39.27300
C  -7.98400 36.27400 38.61200
H  -6.95400 36.42300 37.47500
N  -10.31500 42.42700 42.74000
C  -9.07700 42.56300 42.17200
C  -8.69900 43.93000 42.13900
C  -9.84700 44.64000 42.67200
C  -10.80400 43.65100 43.03800
C  -7.54300 44.39600 41.49500
C  -10.01100 46.15600 42.74800
O  -9.01500 46.84700 42.57900
C  -11.16000 46.90000 43.21400
N  -13.10400 41.68400 43.82900
C  -13.13700 42.99400 43.94100
C  -14.57000 43.51100 44.31400
C  -15.34400 42.12600 44.51100
C  -14.30600 41.10500 44.08400
C  -14.76000 44.45100 45.50800
C  -16.71000 42.09600 43.75100
C  -17.95800 42.29400 44.60700
N  -12.42800 38.86900 43.32400
C  -13.68700 38.64800 43.73700
C  -14.03500 37.20900 43.61000
C  -12.83800 36.66700 43.04300
C  -11.92400 37.71800 42.84700
C  -15.39400 36.63400 43.90600
C  -12.23200 35.42300 42.61400
O  -12.65000 34.26800 42.65400
C  -10.97600 35.83100 41.83300
C  -9.88000 34.90800 42.21200
O  -9.21700 35.00900 43.26900
O  -9.63800 34.01400 41.22200
C  -8.42800 33.19800 41.45500
H  -7.31000 41.67400 41.22700
H  -12.31900 44.87700 43.86900
H  -15.52000 39.46100 44.51300
H  -8.07600 36.85800 41.17800
H  -7.19700 39.40700 40.17500
H  -6.19700 37.65400 41.93700
H  -6.34200 39.15900 42.93200
H  -5.48300 39.17900 41.31900
H  -8.28000 38.34000 38.72400
H  -9.77600 37.41900 38.98000
H  -8.76300 35.63900 38.19100
H  -7.36600 35.80300 39.37700
H  -7.67300 45.29000 40.88400
H  -7.05600 43.64000 40.87800
H  -6.73800 44.55900 42.21100
H  -12.03800 46.68600 42.60600
H  -10.83300 47.93800 43.14500
H  -11.14800 46.61000 44.26400
H  -14.97500 44.04000 43.45100
H  -15.47200 41.98100 45.58300
H  -15.18000 43.95700 46.38400
H  -15.20800 45.38300 45.16100
H  -13.75200 44.61800 45.88700
H  -16.77400 41.09000 43.33600
H  -16.74900 42.78300 42.90600
H  -18.65900 43.01900 44.19300
H  -17.70300 42.57000 45.63100
H  -18.43600 41.31700 44.66600
H  -16.05300 36.86900 43.07000
H  -15.88800 37.02700 44.79400
H  -15.42200 35.54900 43.99700
H  -11.33100 35.57300 40.83500
H  -7.57400 33.79200 41.12800
H  -8.52000 32.27400 40.88500
H  -8.20000 32.84200 42.46000
Mg -5.68100 25.14900 25.95800
C  -4.11400 26.89400 28.61200
C  -6.78500 22.75800 28.04300
C  -6.98500 23.76000 23.28800
C  -3.96800 27.53700 23.77900
N  -5.51100 24.84700 28.10200
C  -4.85400 25.71900 28.95600
C  -5.30400 25.32600 30.44300
C  -5.80700 23.84100 30.24300
C  -6.07400 23.80400 28.70000
C  -4.89400 22.77400 30.74100
C  -6.36700 26.28400 31.05100
C  -6.61400 26.26800 32.50200
H  -6.07400 25.12700 33.30200
N  -6.91500 23.62000 25.71900
C  -7.25600 22.70200 26.74700
C  -8.09600 21.68400 26.13900
C  -8.18300 22.00100 24.74400
C  -7.33300 23.20300 24.52600
C  -8.79200 20.56100 26.90600
C  -8.93400 21.21100 23.69500
O  -9.04000 21.59300 22.56300
C  -9.59900 19.87200 24.08800
N  -5.54800 25.66000 23.83300
C  -6.07600 24.77200 22.98000
C  -5.79900 25.22800 21.57900
C  -4.87400 26.48900 21.69700
C  -4.79800 26.56500 23.20400
C  -5.17600 24.11900 20.61800
C  -5.45600 27.83300 21.01000
C  -4.73900 28.54100 19.84600
N  -4.18800 26.77200 26.16700
C  -3.65600 27.65100 25.19900
C  -2.75400 28.58400 25.84100
C  -2.85800 28.32600 27.21400
C  -3.84100 27.25200 27.31200
C  -1.96600 29.71800 25.12400
C  -2.41400 28.72700 28.55100
O  -1.56800 29.59700 28.79800
C  -3.31600 27.87500 29.46000
C  -2.43700 27.33300 30.54600
O  -1.49800 26.55400 30.43200
O  -2.85600 27.79500 31.80700
C  -2.24400 27.26400 33.06200
H  -7.13200 21.98300 28.73000
H  -7.29200 23.34200 22.32700
H  -3.43800 28.15500 23.05200
H  -4.47700 25.41500 31.14700
H  -6.74200 23.73000 30.79300
H  -3.89100 23.09700 30.46200
H  -5.11200 21.82800 30.24600
H  -4.92400 22.62900 31.82100
H  -7.32300 25.93900 30.65800
H  -6.24900 27.34600 30.83700
H  -7.67600 26.29100 32.74700
H  -6.17200 27.17800 32.90900
H  -8.71300 19.58600 26.42500
H  -9.86300 20.76500 26.91900
H  -8.56600 20.41200 27.96200
H  -10.40300 20.05000 24.80300
H  -8.85100 19.17700 24.46900
H  -10.08600 19.32800 23.27800
H  -6.73600 25.61000 21.17400
H  -3.86200 26.27800 21.35100
H  -4.11800 24.31300 20.44100
H  -5.62100 24.11300 19.62300
H  -5.20700 23.09500 20.99000
H  -5.43500 28.53600 21.84200
H  -6.51600 27.80700 20.75800
H  -3.96200 27.94700 19.36400
H  -4.26800 29.43200 20.26000
H  -5.46300 29.01400 19.18300
H  -1.11300 29.78500 25.79800
H  -2.59500 30.60800 25.10900
H  -1.65100 29.40200 24.12900
H  -4.02200 28.45800 30.05100
H  -3.06400 27.28700 33.78000
H  -1.38100 27.81500 33.43400
H  -1.91200 26.23000 32.97200

