158

Mg 54.38500 25.20100 43.21800
C  51.60600 27.32000 42.81100
C  52.47700 22.58800 42.14400
C  57.25700 23.40800 42.84200
C  56.22200 28.07200 44.09700
N  52.28100 25.05500 42.50200
C  51.30900 26.01400 42.48500
C  49.95600 25.34300 42.21600
C  50.21800 23.87100 42.45800
C  51.74200 23.79700 42.36100
C  49.90800 23.26600 43.81900
C  49.33500 25.57900 40.77700
C  50.39700 26.05100 39.65600
H  50.99100 24.96200 38.79500
N  54.80200 23.21200 42.64600
C  53.84800 22.28000 42.25300
C  54.49600 20.99500 42.01900
C  55.93000 21.18400 42.24700
C  56.08600 22.64000 42.55800
C  53.66700 19.80600 41.63900
C  56.95800 20.12400 42.16400
O  56.68900 19.02700 41.82300
C  58.35900 20.33200 42.64600
N  56.43700 25.69900 43.38900
C  57.42900 24.76900 43.29700
C  58.88100 25.39900 43.50800
C  58.47400 26.85800 43.88500
C  56.88700 26.86300 43.86300
C  59.76800 24.63200 44.52100
C  59.12500 27.91800 43.03700
C  60.30600 28.70200 43.56800
N  54.02500 27.29200 43.38000
C  54.84800 28.31900 43.86200
C  54.04700 29.52200 44.06200
C  52.75100 29.16100 43.65200
C  52.82700 27.79300 43.21400
C  54.54600 30.85000 44.66100
C  51.37300 29.60500 43.63600
O  50.97600 30.71900 43.96600
C  50.55600 28.48400 43.03100
C  49.95300 28.99400 41.78000
O  50.47500 29.17200 40.63400
O  48.62200 29.16000 41.96800
C  47.83700 29.49300 40.76800
H  51.89200 21.69500 41.91600
H  58.16700 22.84900 42.61400
H  56.79700 28.93100 44.45000
H  49.20900 25.78100 42.87800
H  49.75700 23.33900 41.62600
H  50.67700 22.69900 44.34300
H  49.10800 22.57400 43.55500
H  49.61900 23.96200 44.60600
H  48.48100 26.25600 40.78000
H  48.80400 24.69400 40.42800
H  51.23800 26.59700 40.08400
H  49.89300 26.64500 38.89300
H  53.37300 19.87700 40.59200
H  52.77100 19.68600 42.24900
H  54.25000 18.88500 41.63200
H  58.79100 19.44300 43.10500
H  58.28000 21.02800 43.48100
H  58.98900 20.73300 41.85100
H  59.41100 25.26700 42.56400
H  58.71900 27.11800 44.91400
H  59.54200 23.57000 44.43100
H  59.39800 24.90800 45.50800
H  60.81100 24.90900 44.36900
H  58.34700 28.61400 42.72000
H  59.52000 27.53900 42.09400
H  60.18500 29.78300 43.49200
H  61.23500 28.44200 43.06100
H  60.48500 28.56100 44.63400
H  55.10100 30.76500 45.59500
H  53.57200 31.28900 44.87700
H  55.09300 31.33300 43.85200
H  49.81600 28.20000 43.78000
H  47.67800 28.62600 40.12600
H  48.34900 30.28100 40.21600
H  46.84600 29.83400 41.06600
Mg -12.07400 37.73900 41.24900
C  -9.62100 35.41300 40.38100
C  -10.31400 40.11700 39.33500
C  -14.77300 39.63300 41.03300
C  -13.78900 35.18700 42.87400
N  -10.24200 37.73900 39.92000
C  -9.42500 36.62500 39.77600
C  -8.20900 36.94900 38.98800
C  -8.24600 38.54200 38.84200
C  -9.67000 38.85600 39.35300
C  -7.26500 39.34400 39.67100
C  -8.31500 36.26100 37.58300
C  -7.06700 35.42100 37.05900
H  -5.94100 36.26300 36.41300
N  -12.51300 39.66900 40.32500
C  -11.63800 40.50400 39.69300
C  -12.36600 41.72600 39.37300
C  -13.66400 41.63400 39.90100
C  -13.70600 40.29800 40.47500
C  -11.67500 42.83500 38.56200
C  -14.73200 42.62600 39.77000
O  -14.45900 43.60400 39.07200
C  -16.13900 42.48500 40.28800
N  -14.00600 37.47900 41.89100
C  -14.98300 38.37100 41.56800
C  -16.34800 37.93900 42.10000
C  -15.99200 36.57900 42.75600
C  -14.50800 36.34400 42.45400
C  -17.16000 38.99800 42.98100
C  -16.87300 35.40800 42.16000
C  -17.56900 34.50600 43.17100
N  -11.75800 35.68700 41.70800
C  -12.47400 34.80500 42.45400
C  -11.69300 33.63700 42.61800
C  -10.56100 33.73300 41.85600
C  -10.67500 35.04600 41.26300
C  -12.08700 32.41200 43.45000
C  -9.40600 33.14600 41.30400
O  -9.01700 31.98700 41.42200
C  -8.65000 34.14900 40.41300
C  -7.39700 34.36000 41.27400
O  -6.40800 33.65200 41.40600
O  -7.46400 35.60400 41.91000
C  -6.26600 36.15500 42.61000
H  -9.67000 40.85600 38.85300
H  -15.73600 40.14700 41.03100
H  -14.22800 34.29100 43.31600
H  -7.25700 36.70000 39.45600
H  -8.06400 38.80900 37.80100
H  -6.35600 39.49000 39.08700
H  -6.91500 38.73800 40.50700
H  -7.68400 40.29900 39.98800
H  -8.69800 36.94700 36.82700
H  -9.14100 35.55000 37.58700
H  -7.48200 34.65800 36.40000
H  -6.69600 34.88300 37.93100
H  -12.24900 43.41100 37.83600
H  -10.65000 42.69400 38.21800
H  -11.39800 43.59500 39.29200
H  -16.61600 43.45200 40.12900
H  -16.24800 42.10200 41.30300
H  -16.61200 41.79500 39.58900
H  -17.05000 37.89900 41.26700
H  -16.06400 36.43700 43.83400
H  -17.84500 39.64100 42.42800
H  -16.51300 39.71200 43.49100
H  -17.68400 38.45200 43.76600
H  -16.39100 34.66900 41.52000
H  -17.65400 35.80000 41.50800
H  -18.08400 33.67100 42.69500
H  -18.23500 35.18100 43.70800
H  -16.88200 34.12100 43.92600
H  -12.36600 32.80600 44.42700
H  -11.18500 31.81700 43.59600
H  -12.93900 31.90800 42.99300
H  -8.32700 33.65000 39.49900
H  -6.56900 36.98500 43.24900
H  -5.64900 36.41500 41.75100
H  -5.83000 35.46300 43.33100

