158

Mg 26.36800 49.00000 26.12200
C  24.58100 50.51700 28.66000
C  28.78900 48.11600 28.51900
C  28.36800 47.82100 23.64800
C  24.17200 50.29600 23.68600
N  26.69500 49.35200 28.34300
C  25.66700 49.77600 29.17800
C  26.05700 49.44700 30.67900
C  27.48700 48.94300 30.57400
C  27.66300 48.72000 29.09000
C  28.60700 49.90700 31.11900
C  24.96600 48.54200 31.33300
C  25.40100 47.80100 32.59000
H  24.60000 48.10500 33.85700
N  28.22300 47.98200 26.10600
C  29.04800 47.78600 27.17600
C  30.19400 47.06800 26.76000
C  30.19000 47.02700 25.35500
C  28.86200 47.58000 24.93600
C  31.19000 46.54100 27.76900
C  31.24800 46.50100 24.45300
O  31.15800 46.36000 23.22300
C  32.50400 45.98600 25.05600
N  26.26700 49.12000 24.03100
C  27.19800 48.44200 23.24400
C  26.95500 48.71200 21.80100
C  25.53000 49.38800 21.75400
C  25.26200 49.57000 23.18200
C  27.97900 49.56500 21.08900
C  24.46500 48.55100 20.96000
C  23.90600 47.23600 21.72100
N  24.69100 50.16300 26.13100
C  23.87400 50.61500 25.07200
C  22.71600 51.26700 25.66900
C  22.96800 51.28200 27.03600
C  24.19100 50.61500 27.25900
C  21.49600 51.71600 25.03300
C  22.45400 51.64700 28.34100
O  21.34900 52.08000 28.52100
C  23.41400 51.09400 29.41600
C  23.85800 52.18400 30.30600
O  24.82800 52.88500 30.17000
O  23.01600 52.33600 31.36900
C  23.36100 53.36600 32.36200
H  29.36100 47.72100 29.36100
H  28.89700 47.33200 22.82800
H  23.38400 50.65500 23.02200
H  26.05400 50.37300 31.25400
H  27.52600 48.06200 31.21500
H  29.50800 49.90500 30.50400
H  28.87500 49.47100 32.08100
H  28.18800 50.90500 31.25100
H  24.56400 47.78400 30.66000
H  24.07200 49.11800 31.57000
H  26.44600 47.95700 32.85900
H  25.35700 46.72400 32.43000
H  32.11700 47.10000 27.89500
H  31.47500 45.51000 27.56200
H  30.78400 46.41000 28.77100
H  33.17700 45.82500 24.21400
H  32.45200 45.02700 25.57000
H  32.88600 46.81900 25.64500
H  26.86700 47.73800 21.32100
H  25.41000 50.40700 21.38700
H  27.41400 50.15700 20.36900
H  28.64400 48.90500 20.53100
H  28.60100 50.16200 21.75600
H  24.95000 48.27400 20.02400
H  23.64400 49.24100 20.76700
H  24.24100 47.39400 22.74600
H  24.44900 46.39300 21.29400
H  22.81700 47.24700 21.66700
H  21.69300 52.48100 24.28200
H  20.80400 52.09900 25.78300
H  21.01500 50.86900 24.54300
H  22.81800 50.48800 30.09700
H  22.70000 54.20500 32.57900
H  24.37800 53.74000 32.24800
H  23.51600 52.94100 33.35300
Mg 5.51200 52.91200 41.10100
C  4.87100 49.43700 40.80900
C  8.55300 52.35000 39.61700
C  5.69000 56.17700 40.63300
C  2.08800 53.31200 41.96900
N  6.57600 51.06400 40.33300
C  6.11000 49.77600 40.27100
C  7.17300 48.86100 39.56200
C  8.49000 49.77300 39.62900
C  7.82100 51.16700 39.94900
C  9.37900 49.36600 40.86400
C  6.82000 48.47000 38.12800
C  5.85200 49.40400 37.36900
H  6.57600 50.41200 36.39000
N  6.96100 54.07900 40.33600
C  8.08200 53.67600 39.63900
C  8.86500 54.82000 39.28400
C  8.10800 55.93100 39.67100
C  6.84200 55.39000 40.22800
C  10.21900 54.72200 38.76500
C  8.47600 57.40500 39.48500
O  9.52200 57.74800 38.97400
C  7.56900 58.53500 39.88200
N  4.02700 54.46900 41.19200
C  4.44300 55.79200 41.13200
C  3.23300 56.77500 41.27300
C  2.01300 55.86600 41.54700
C  2.72700 54.43200 41.57100
C  3.54700 57.64200 42.55200
C  0.97600 55.88200 40.37000
C  0.08700 57.14800 40.40100
N  3.88800 51.74300 41.51300
C  2.60600 52.00200 41.95600
C  1.95000 50.81000 42.38500
C  2.82100 49.74900 41.95400
C  3.95900 50.35600 41.34400
C  0.61300 50.75800 43.21900
C  2.93500 48.35000 41.81600
O  2.12500 47.57300 42.21400
C  4.28400 48.05100 41.12300
C  4.01400 47.15600 39.95100
O  3.35700 47.44000 38.93900
O  4.52400 45.88300 40.18500
C  3.79600 44.86500 39.42400
H  9.56000 52.16200 39.23600
H  5.68500 57.26200 40.51100
H  1.12000 53.51700 42.43000
H  7.34000 47.92000 40.08600
H  9.13400 49.74200 38.75000
H  9.07300 48.37400 41.19600
H  9.35300 50.12900 41.64100
H  10.41100 49.26500 40.52700
H  6.29400 47.51900 38.21700
H  7.68200 48.26200 37.49400
H  5.20400 50.04100 37.97200
H  5.16500 48.77700 36.80100
H  10.35500 54.42900 37.72400
H  10.71500 53.93100 39.32800
H  10.80600 55.62100 38.95300
H  8.18400 59.42500 39.74800
H  7.44900 58.49900 40.96500
H  6.71900 58.61900 39.20400
H  3.23200 57.32800 40.33400
H  1.54100 56.05300 42.51100
H  4.43400 57.26300 43.05900
H  2.72600 57.62500 43.26800
H  3.78700 58.68600 42.35000
H  0.38200 54.99000 40.57000
H  1.31500 55.85000 39.33500
H  0.03400 57.50400 39.37200
H  0.55900 57.83900 41.09800
H  -0.94500 56.88700 40.63700
H  -0.13400 50.07200 42.82000
H  0.15000 51.74500 43.21900
H  0.75500 50.51600 44.27200
H  4.89800 47.48800 41.82600
H  4.25500 44.74200 38.44300
H  2.76100 45.12100 39.19800
H  3.86900 43.90800 39.93900

