158

Mg 8.81900 3.73000 27.52100
C  10.13800 2.23100 30.37800
C  6.72600 5.53700 29.55200
C  7.32300 5.07100 24.69400
C  10.53600 1.47400 25.50600
N  8.39500 3.68700 29.69300
C  9.14600 3.20400 30.67500
C  8.62800 3.67500 32.09200
C  7.45600 4.63100 31.76500
C  7.50100 4.58400 30.23900
C  5.99000 4.29600 32.24400
C  9.74600 4.19800 33.06300
C  9.18800 5.00000 34.29900
H  9.85900 4.70200 35.63300
N  7.21200 5.09700 27.10200
C  6.52200 5.78900 28.08000
C  5.73300 6.83900 27.46500
C  6.01800 6.81300 26.07500
C  6.88100 5.61800 25.90800
C  4.86800 7.76100 28.25100
C  5.51700 7.66100 25.02200
O  5.83200 7.44300 23.87500
C  4.69400 8.87300 25.29500
N  8.87100 3.29500 25.40600
C  8.16800 3.96900 24.46700
C  8.41600 3.47700 22.99100
C  9.47800 2.37200 23.25800
C  9.73900 2.41400 24.76000
C  6.96900 3.10100 22.43700
C  10.85200 2.62000 22.46800
C  11.39900 1.39100 21.77000
N  9.97800 2.16800 27.80200
C  10.60200 1.27200 26.90700
C  11.43900 0.34500 27.65500
C  11.31900 0.71900 28.98800
C  10.42000 1.83000 29.07500
C  12.15300 -0.84900 27.09600
C  11.81000 0.43400 30.33500
O  12.53400 -0.40000 30.71200
C  11.06000 1.45000 31.28100
C  10.21300 0.65700 32.24100
O  9.33300 -0.15800 31.91600
O  10.71900 0.85500 33.54600
C  9.76000 0.42500 34.59400
H  6.10300 6.21300 30.14000
H  6.91500 5.46200 23.75900
H  11.17100 0.80900 24.91600
H  8.16900 2.89200 32.69500
H  7.66800 5.65400 32.07700
H  5.81900 3.30700 31.82000
H  5.33600 5.08300 31.86900
H  5.80300 4.32800 33.31700
H  10.34100 4.68000 32.28700
H  10.32000 3.38800 33.51400
H  8.10600 4.90600 34.39400
H  9.39800 6.05800 34.14300
H  3.80600 7.53700 28.15100
H  5.03400 8.79700 27.95400
H  5.10100 7.69800 29.31400
H  3.89700 8.59600 25.98400
H  4.38500 9.26600 24.32600
H  5.46300 9.48700 25.76500
H  8.87400 4.29300 22.43100
H  9.05900 1.45800 22.83700
H  6.77900 2.03400 22.32300
H  6.70100 3.69800 21.56600
H  6.20800 3.35700 23.17400
H  11.63200 2.98300 23.13800
H  10.75300 3.47200 21.79600
H  11.22900 1.53500 20.70300
H  11.04100 0.46500 22.22000
H  12.46900 1.46700 21.95900
H  12.28500 -1.53500 27.93300
H  13.09200 -0.65900 26.57700
H  11.58300 -1.34200 26.30900
H  11.67600 2.09700 31.90600
H  8.77100 0.13600 34.24000
H  9.63800 1.20300 35.34700
H  10.15400 -0.41300 35.16900
Mg 36.93700 49.88400 24.54800
C  37.16400 48.11800 27.57100
C  35.27700 52.36400 26.15400
C  36.27700 51.25800 21.46600
C  37.88300 46.85900 22.82700
N  36.47900 50.21100 26.68400
C  36.68100 49.39300 27.75300
C  36.34200 50.14500 29.02300
C  35.76400 51.51800 28.50600
C  35.84900 51.44300 27.01900
C  34.28500 51.82000 29.02000
C  37.67900 50.28800 29.80400
C  37.68700 50.00000 31.35000
H  36.32100 49.81000 32.01300
N  36.04400 51.65700 23.89500
C  35.48600 52.55200 24.70300
C  35.11800 53.75700 23.90600
C  35.38900 53.44600 22.55500
C  35.89800 52.02400 22.54900
C  34.48200 54.94600 24.61800
C  35.24200 54.29800 21.33700
O  35.46900 53.91700 20.16700
C  34.85000 55.83000 21.53700
N  37.04400 49.08700 22.44200
C  36.80400 49.93400 21.39200
C  37.21400 49.21800 20.10300
C  37.78500 47.87200 20.53200
C  37.63400 47.90100 22.01500
C  36.11300 49.12600 19.00900
C  39.33100 47.64900 20.15600
C  40.32600 48.82400 20.57600
N  37.58200 47.94600 25.02100
C  37.82400 46.82000 24.21400
C  38.04100 45.67000 25.03500
C  37.81800 46.16200 26.32200
C  37.44400 47.50700 26.29100
C  38.44300 44.35100 24.55100
C  37.79000 45.72800 27.75100
O  37.97900 44.62500 28.24500
C  37.41500 47.02700 28.56800
C  36.24800 46.62700 29.39200
O  35.09700 46.74800 29.01500
O  36.68200 46.10000 30.58900
C  35.65600 45.47900 31.42100
H  34.99700 53.23400 26.75200
H  36.06600 51.77800 20.53000
H  38.14200 45.94600 22.28800
H  35.65200 49.52200 29.59100
H  36.42900 52.31100 28.84900
H  33.61600 51.63900 28.17900
H  34.20900 52.88400 29.24300
H  33.82300 51.17400 29.76700
H  37.91800 51.34800 29.72000
H  38.53400 49.70500 29.46300
H  38.26700 50.76800 31.86100
H  38.23800 49.06500 31.44500
H  33.45600 55.24000 24.39900
H  34.98400 55.83100 24.22800
H  34.59600 54.95500 25.70200
H  33.82100 55.91800 21.88500
H  34.65600 56.30600 20.57600
H  35.72800 56.22000 22.05300
H  37.99400 49.81300 19.62700
H  37.23400 47.01600 20.14200
H  35.16700 49.39300 19.48200
H  36.10300 48.25000 18.36200
H  36.28300 49.99100 18.36700
H  39.43100 47.64100 19.07000
H  39.55900 46.71100 20.66300
H  39.89100 49.52500 21.28700
H  40.65100 49.44100 19.73800
H  41.19300 48.29800 20.97600
H  39.47900 44.18200 24.84300
H  38.19200 44.28700 23.49200
H  37.86100 43.55700 25.02000
H  38.28200 47.36300 29.13700
H  34.91700 46.20000 31.77000
H  36.14400 44.98900 32.26400
H  35.15000 44.68800 30.86700

