158

Mg 8.79800 4.67000 28.06400
C  10.03800 3.08600 30.84800
C  6.96700 6.72000 30.24700
C  7.47600 6.12000 25.39600
C  10.28700 2.22700 26.06000
N  8.52900 4.87100 30.32000
C  9.20400 4.11600 31.25700
C  8.96300 4.62500 32.68500
C  7.75600 5.68000 32.42800
C  7.70700 5.75700 30.89800
C  6.44500 5.30500 33.20100
C  10.25300 5.18800 33.36500
C  10.61600 4.59000 34.75700
H  11.01400 5.63600 35.86400
N  7.51300 6.36700 27.89200
C  6.81700 6.96600 28.88000
C  6.07300 8.04000 28.25200
C  6.17200 7.88500 26.84700
C  7.07800 6.74600 26.63600
C  5.29500 9.01500 29.04700
C  5.58700 8.72500 25.71600
O  5.72500 8.46300 24.50800
C  4.77300 9.84900 25.96900
N  8.74000 4.09700 25.99100
C  8.26700 4.97200 25.08900
C  8.53700 4.47700 23.65900
C  9.46400 3.20600 23.85400
C  9.52600 3.17800 25.40000
C  7.26000 4.12200 22.91500
C  10.91000 3.43100 23.25700
C  11.18000 2.90300 21.81000
N  9.84700 2.98300 28.32900
C  10.41500 2.05100 27.43100
C  11.14600 1.06300 28.13500
C  11.07500 1.46500 29.48800
C  10.21400 2.57400 29.54200
C  11.89200 -0.06000 27.54400
C  11.45300 1.11600 30.85400
O  12.04400 0.12300 31.32700
C  10.93100 2.24100 31.72600
C  10.19100 1.54100 32.80300
O  9.02100 1.19800 32.71900
O  10.99400 1.49100 33.80700
C  10.50500 0.70700 35.00400
H  6.42300 7.34100 30.96200
H  7.11400 6.61000 24.49000
H  10.61800 1.45900 25.35800
H  8.69600 3.77900 33.31800
H  8.01900 6.71100 32.66000
H  6.55700 4.68600 34.09100
H  5.82000 4.77800 32.48000
H  5.91400 6.21200 33.48900
H  10.26900 6.27500 33.44600
H  11.03700 4.90500 32.66200
H  11.53600 4.03600 34.57000
H  9.87200 3.94300 35.22100
H  5.75700 9.39900 29.95700
H  4.50500 8.39400 29.47000
H  4.80600 9.83800 28.52600
H  4.01000 9.73000 26.73800
H  4.34300 10.30800 25.07900
H  5.48100 10.53100 26.44000
H  9.00500 5.30900 23.13300
H  9.01900 2.28800 23.47100
H  6.36000 4.57100 23.33300
H  7.11000 3.04200 22.91400
H  7.25400 4.49900 21.89300
H  11.68900 3.12800 23.95700
H  11.09500 4.50200 23.17800
H  11.77200 1.99000 21.87100
H  11.72700 3.70900 21.32100
H  10.32800 2.74600 21.14900
H  11.47000 -0.29100 26.56600
H  11.64100 -0.93500 28.14400
H  12.97700 0.03200 27.59400
H  11.74700 2.84400 32.12700
H  10.08400 1.42200 35.71200
H  11.28400 0.24700 35.61100
H  9.82600 -0.12900 34.83800
Mg 49.81600 45.83200 41.56300
C  46.58400 46.00800 40.34300
C  49.97400 42.54300 40.73100
C  53.10700 45.80500 42.44400
C  49.66200 49.22700 42.11200
N  48.44200 44.48300 40.45100
C  47.13600 44.73800 40.16700
C  46.44900 43.38300 39.75700
C  47.40800 42.29800 40.34000
C  48.70000 43.16400 40.51800
C  47.03900 41.75900 41.72500
C  46.28800 43.24900 38.16800
C  44.83800 43.07500 37.66600
H  44.43400 43.88500 36.41800
N  51.41400 44.35100 41.56100
C  51.27600 43.07600 41.12100
C  52.55600 42.37600 41.14600
C  53.47600 43.35700 41.58700
C  52.65300 44.55400 41.90700
C  52.79500 40.88600 40.65900
C  54.96500 43.15300 41.68100
O  55.46300 42.12400 41.20600
C  55.88700 44.05800 42.33200
N  51.20300 47.31000 42.25700
C  52.52800 47.09300 42.61200
C  53.22600 48.35700 43.06300
C  52.05800 49.46600 42.89500
C  50.90600 48.57800 42.42000
C  53.72200 48.21800 44.55000
C  52.40400 50.61600 41.90000
C  52.02200 52.04500 42.43300
N  48.45000 47.37900 41.34700
C  48.50400 48.71100 41.60400
C  47.19600 49.34700 41.36800
C  46.38600 48.32700 40.86800
C  47.22100 47.18700 40.83300
C  46.73100 50.80400 41.66500
C  45.04600 47.96900 40.38700
O  43.99900 48.62600 40.31100
C  45.12400 46.37600 39.97800
C  44.03300 45.72200 40.75900
O  44.10200 45.14400 41.82800
O  42.84200 45.84700 40.08900
C  41.72100 45.14600 40.71600
H  49.94400 41.45400 40.66300
H  54.15400 45.80100 42.75400
H  49.65700 50.31600 42.19000
H  45.46100 43.40000 40.21700
H  47.51600 41.40700 39.72100
H  46.50600 40.82000 41.57400
H  46.54800 42.55300 42.28800
H  47.94300 41.53200 42.29000
H  46.85500 42.39600 37.79400
H  46.61900 44.16800 37.68400
H  44.08400 43.21800 38.44000
H  44.64600 42.03200 37.41500
H  53.43200 40.92300 39.77500
H  51.79500 40.51900 40.42900
H  53.25500 40.34200 41.48400
H  55.63900 44.23900 43.37800
H  55.78800 45.00300 41.79700
H  56.88200 43.61600 42.36600
H  54.04600 48.47100 42.35400
H  51.81800 49.95100 43.84100
H  54.29200 47.29100 44.62700
H  52.87500 48.15200 45.23200
H  54.38300 49.00800 44.90700
H  52.01900 50.51400 40.88500
H  53.48200 50.66100 41.74600
H  51.89500 52.77900 41.63700
H  52.82600 52.41100 43.07200
H  51.12900 51.97300 43.05300
H  46.13400 50.82100 42.57700
H  46.10000 51.25000 40.89500
H  47.62800 51.41800 41.58900
H  45.04000 46.31500 38.89300
H  41.63300 45.27700 41.79500
H  41.76100 44.08200 40.48400
H  40.79200 45.48200 40.25500

