158

Mg 49.08300 46.82800 42.81000
C  45.70000 47.03600 42.15500
C  49.10100 43.50600 42.10400
C  52.47800 46.85400 43.12800
C  49.11200 50.33300 43.29900
N  47.63100 45.55300 41.99600
C  46.25700 45.80300 41.84000
C  45.57300 44.56800 41.25200
C  46.61400 43.41800 41.42000
C  47.85500 44.24100 41.91000
C  46.29000 42.33700 42.47500
C  45.09700 44.93000 39.80400
C  43.86500 44.10500 39.19200
H  44.17700 43.04100 38.07600
N  50.62800 45.37500 42.53400
C  50.43900 44.03200 42.18900
C  51.70900 43.38600 41.97200
C  52.72900 44.31500 42.37700
C  51.98400 45.61700 42.67500
C  51.88500 41.86500 41.58000
C  54.19400 44.04300 42.47100
O  54.58300 42.87500 42.28700
C  55.33300 45.09200 42.78300
N  50.58200 48.43000 43.00300
C  51.86600 48.15100 43.30200
C  52.69900 49.47700 43.59900
C  51.61900 50.61400 43.54400
C  50.39400 49.76500 43.26700
C  53.46800 49.53600 44.95000
C  51.89400 51.75400 42.56900
C  51.81400 51.47800 41.01000
N  47.73900 48.39700 42.79200
C  47.87200 49.74500 43.08100
C  46.54800 50.38500 43.11100
C  45.67000 49.35500 42.72000
C  46.40200 48.20800 42.58200
C  46.31700 51.89600 43.39100
C  44.29200 49.05600 42.42000
O  43.35400 49.84100 42.51200
C  44.18000 47.52400 42.02900
C  43.30600 46.84600 43.04200
O  43.63000 46.56300 44.18600
O  42.04000 46.66000 42.50100
C  41.18300 45.96200 43.50600
H  49.09500 42.42200 41.97100
H  53.56700 46.87900 43.19700
H  49.03900 51.41500 43.42900
H  44.62500 44.39900 41.76400
H  46.73400 42.81700 40.51900
H  46.59800 41.30000 42.34100
H  45.21000 42.21800 42.56100
H  46.80300 42.62900 43.39100
H  45.97200 44.96500 39.15500
H  44.80900 45.98100 39.81400
H  43.15800 44.84300 38.81100
H  43.35500 43.52500 39.96100
H  50.98900 41.31800 41.87300
H  52.69300 41.42300 42.16200
H  52.20900 41.73700 40.54700
H  55.15100 45.87200 42.04400
H  56.35300 44.70900 42.77300
H  55.10200 45.50800 43.76400
H  53.50700 49.67200 42.89300
H  51.50100 51.06300 44.53000
H  53.12100 48.71800 45.58100
H  53.44100 50.47300 45.50500
H  54.52500 49.42600 44.70800
H  52.93400 52.03800 42.73200
H  51.37500 52.61400 42.99200
H  51.55000 50.43500 40.83400
H  52.75000 51.86800 40.61000
H  51.04300 52.08500 40.53500
H  45.24700 51.99200 43.57700
H  46.59000 52.40500 42.46700
H  46.81000 52.23000 44.30400
H  43.67700 47.42300 41.06700
H  41.67000 45.03400 43.80700
H  40.22900 45.66000 43.07300
H  41.02400 46.58700 44.38400
Mg 49.03300 34.93400 27.33600
C  46.78200 33.47300 29.66900
C  49.57300 37.28700 29.37000
C  50.18600 36.58400 24.62600
C  48.21200 32.24600 25.14500
N  48.26900 35.27100 29.26600
C  47.43100 34.60500 30.08800
C  47.54600 35.12800 31.52300
C  48.09000 36.52600 31.39700
C  48.78500 36.34600 29.97800
C  47.08700 37.62700 31.37400
C  48.50000 34.24100 32.36600
C  48.19000 34.22400 33.87700
H  49.18500 34.89900 34.83200
N  49.80400 36.75200 27.06400
C  50.01300 37.59000 28.03000
C  50.60200 38.80400 27.51100
C  50.76800 38.65300 26.10400
C  50.22600 37.27900 25.86000
C  51.02400 39.91400 28.42600
C  51.34800 39.58700 25.03300
O  51.35900 39.35400 23.84500
C  51.91600 40.90600 25.46700
N  49.14700 34.47400 25.13800
C  49.70500 35.34700 24.27800
C  49.57900 34.68200 22.88600
C  49.37500 33.18800 23.15900
C  48.86400 33.26500 24.58200
C  48.44200 35.44900 22.08300
C  50.66800 32.29000 23.11900
C  50.62400 31.04600 22.22000
N  47.84500 33.10100 27.36800
C  47.68100 32.13400 26.41400
C  46.73800 31.16100 26.91800
C  46.36800 31.69000 28.23300
C  47.04100 32.87500 28.37000
C  46.40700 29.88700 26.16700
C  45.45900 31.43900 29.36500
O  44.82000 30.41800 29.61600
C  45.70100 32.63400 30.40600
C  46.00300 32.06800 31.73200
O  46.89200 31.28100 32.05900
O  45.09600 32.62500 32.57600
C  45.15400 32.26500 33.91400
H  49.78300 38.12600 30.03800
H  50.59200 37.11500 23.76300
H  47.98600 31.48400 24.39600
H  46.49800 35.09500 31.82300
H  48.73200 36.86000 32.21300
H  47.12300 38.20100 32.30000
H  46.04900 37.30200 31.30300
H  47.22500 38.22600 30.47400
H  49.48600 34.70600 32.35200
H  48.54800 33.27100 31.87200
H  48.30700 33.17700 34.15500
H  47.15500 34.51100 34.06400
H  50.33800 40.75800 28.50300
H  51.97400 40.31900 28.07500
H  51.27700 39.46700 29.38700
H  51.23000 41.61900 25.92500
H  52.25200 41.44300 24.58000
H  52.69100 40.74600 26.21700
H  50.52400 34.68800 22.34100
H  48.57600 32.88700 22.48100
H  47.55700 34.81400 22.03600
H  48.77900 35.53900 21.05100
H  48.30800 36.42800 22.54400
H  50.82700 31.86800 24.11200
H  51.59900 32.84800 23.01800
H  51.58500 30.79400 21.77100
H  49.82500 31.13900 21.48500
H  50.36800 30.21400 22.87500
H  46.26300 30.18900 25.12900
H  45.35500 29.65800 26.33800
H  47.18500 29.16400 26.41100
H  44.80900 33.25800 30.46700
H  45.06400 33.22800 34.41500
H  46.16100 31.96200 34.19800
H  44.48700 31.48700 34.28600

