158

Mg 36.00100 2.65800 30.65800
C  33.51200 3.56100 32.98200
C  38.29600 2.60800 33.33200
C  38.40300 2.04200 28.46800
C  33.63700 2.76300 28.07400
N  35.88600 3.17700 32.90700
C  34.77200 3.43700 33.67800
C  35.10600 3.46400 35.19400
C  36.65400 3.34600 35.23500
C  37.01700 3.00400 33.77500
C  37.38700 4.64300 35.63200
C  34.39400 2.26800 35.85400
C  34.33200 2.24800 37.38000
H  34.87100 3.39200 38.19300
N  38.09800 2.55600 30.86000
C  38.80900 2.47300 32.00100
C  40.24000 2.21400 31.70200
C  40.29100 1.95400 30.28100
C  38.91200 2.17300 29.81500
C  41.39300 2.13200 32.72700
C  41.44100 1.58800 29.42300
O  41.30900 1.36200 28.24300
C  42.85400 1.55500 30.02900
N  36.08000 2.53000 28.61200
C  37.21800 2.30400 27.93000
C  36.91900 2.04800 26.45300
C  35.40800 2.25900 26.28200
C  35.01200 2.51000 27.74900
C  37.80500 2.89600 25.48300
C  34.56800 1.13500 25.74300
C  33.52400 1.48000 24.67500
N  34.03600 3.17100 30.46400
C  33.20500 3.16800 29.33600
C  31.84400 3.52900 29.82600
C  31.91500 3.73000 31.21100
C  33.26300 3.44900 31.57600
C  30.50600 3.66000 28.99900
C  31.19500 4.01400 32.40600
O  29.99600 4.18500 32.54700
C  32.18200 3.88200 33.53900
C  32.18500 5.25000 34.11800
O  32.54400 6.24700 33.55000
O  31.80400 5.11900 35.44800
C  31.83100 6.35400 36.18900
H  39.04300 2.70100 34.12300
H  39.12500 1.78400 27.69100
H  32.98700 2.75800 27.19600
H  34.70700 4.33300 35.71900
H  36.91900 2.45600 35.80700
H  38.14700 4.39600 36.37400
H  36.80500 5.47500 36.02700
H  37.86700 5.06000 34.74600
H  34.92400 1.37100 35.53400
H  33.36800 2.18000 35.49700
H  34.82700 1.30300 37.60400
H  33.33300 2.03300 37.75800
H  41.80900 1.12700 32.80400
H  41.14400 2.55600 33.70000
H  42.14900 2.77400 32.27400
H  42.89500 0.84000 30.85100
H  43.32900 2.47700 30.36500
H  43.55600 1.21600 29.26800
H  37.11900 0.99300 26.27000
H  35.27200 3.14100 25.65600
H  38.28800 3.71500 26.01600
H  37.16700 3.30700 24.70000
H  38.56700 2.24400 25.05700
H  33.96200 0.69400 26.53400
H  35.26500 0.38000 25.37900
H  33.25400 2.51800 24.48500
H  32.62500 0.91300 24.92000
H  33.98600 1.08800 23.76900
H  30.67300 3.32000 27.97700
H  30.42800 4.74700 29.02800
H  29.67600 3.08700 29.41200
H  31.91000 3.16800 34.31600
H  31.11000 7.05300 35.76700
H  32.79900 6.85500 36.17900
H  31.56100 6.16900 37.22900
Mg 29.67400 57.56700 39.93800
C  27.08700 55.37000 38.82100
C  31.92100 55.10800 38.83900
C  32.20900 59.88700 40.12600
C  27.33000 60.15700 40.26600
N  29.46000 55.42200 39.05900
C  28.35500 54.74300 38.72000
C  28.62100 53.27900 38.25900
C  30.14300 53.21900 38.48900
C  30.56200 54.61100 38.94300
C  30.59100 52.21400 39.50800
C  28.16900 53.04100 36.77100
C  28.75300 53.97300 35.61600
H  27.74700 54.77200 34.69700
N  31.77200 57.48900 39.70600
C  32.48600 56.36500 39.15500
C  33.87100 56.69600 39.15900
C  33.98300 58.02100 39.73200
C  32.64800 58.52900 39.95200
C  34.98900 55.70500 38.73300
C  35.32600 58.81600 39.91600
O  36.35900 58.35300 39.48100
C  35.41700 60.25900 40.54400
N  29.74000 59.79200 40.08500
C  30.91900 60.46200 40.25400
C  30.61000 62.02000 40.31000
C  28.98400 62.00300 40.37400
C  28.65500 60.58700 40.29300
C  31.29700 62.86500 41.31100
C  28.22000 62.91800 39.44300
C  26.92200 63.65300 39.92600
N  27.57800 57.73900 39.81500
C  26.83500 58.86300 39.95300
C  25.48600 58.50500 39.77300
C  25.53000 57.15200 39.35200
C  26.86500 56.70100 39.34000
C  24.34100 59.52300 39.94300
C  24.70800 56.00500 38.86200
O  23.51900 55.88200 38.66900
C  25.69100 54.90600 38.46500
C  25.44600 53.67900 39.24000
O  25.67100 53.48900 40.42400
O  24.78400 52.78100 38.44200
C  24.30300 51.51400 39.02700
H  32.56300 54.24300 38.66500
H  33.00100 60.63900 40.11600
H  26.61700 60.95800 40.47200
H  28.03400 52.69600 38.96800
H  30.62500 52.95700 37.54700
H  31.11100 51.51800 38.85000
H  29.73800 51.79500 40.04200
H  31.33200 52.67300 40.16300
H  27.09100 52.90700 36.86100
H  28.69700 52.10200 36.60800
H  29.38900 53.40600 34.93600
H  29.54500 54.65800 35.91900
H  35.53300 56.04400 37.85100
H  34.52000 54.72600 38.64300
H  35.67900 55.45700 39.53900
H  36.36200 60.56000 40.99500
H  34.68200 60.46100 41.32300
H  35.11900 60.90000 39.71300
H  30.83200 62.45900 39.33700
H  28.84900 62.36700 41.39200
H  31.99100 63.43700 40.69500
H  31.74200 62.28100 42.11600
H  30.63900 63.59800 41.78000
H  28.02800 62.33100 38.54500
H  28.90000 63.74000 39.22300
H  26.07100 63.48800 39.26500
H  27.00600 64.73800 39.98300
H  26.58200 63.29600 40.89900
H  24.24200 59.75200 41.00400
H  23.37400 59.16700 39.58700
H  24.45800 60.49400 39.46300
H  25.50800 54.77100 37.39900
H  24.64500 51.30800 40.04100
H  24.53100 50.63800 38.42000
H  23.22400 51.64800 39.10200

