158

Mg 47.49700 34.34400 27.63700
C  45.52100 32.76300 30.12100
C  47.75900 37.04500 29.81700
C  48.98400 35.91400 25.07000
C  46.56600 31.81700 25.45700
N  46.86900 34.72000 29.76600
C  46.18800 33.86700 30.60700
C  46.23400 34.41700 32.09800
C  46.39600 35.93800 31.80400
C  47.10700 35.92000 30.40500
C  45.07800 36.73000 31.72400
C  47.51400 33.88400 32.80700
C  47.38900 33.73400 34.30200
H  46.26000 34.56000 34.98500
N  48.28300 36.22100 27.42400
C  48.39800 37.13700 28.50100
C  49.26700 38.26100 28.03700
C  49.47600 38.00000 26.64000
C  48.98000 36.66800 26.29900
C  49.70100 39.35100 29.02400
C  50.20400 38.89700 25.66200
O  50.46300 38.44000 24.50800
C  50.70800 40.28500 26.04200
N  47.89300 33.83700 25.53000
C  48.50100 34.66700 24.71500
C  48.27700 34.27200 23.22300
C  47.78200 32.77600 23.39000
C  47.36300 32.78300 24.84300
C  47.14000 35.22700 22.54400
C  48.88100 31.70700 23.06000
C  50.07700 31.56200 24.00400
N  46.31000 32.63200 27.69600
C  46.04800 31.69200 26.69400
C  45.34000 30.57400 27.32500
C  45.10200 31.03200 28.65300
C  45.67100 32.23100 28.83700
C  44.96900 29.28300 26.73800
C  44.34200 30.62700 29.84500
O  43.72800 29.58700 30.01800
C  44.40700 31.85000 30.82100
C  44.52600 31.47200 32.23900
O  45.56300 31.28500 32.77600
O  43.28400 31.63900 32.84100
C  43.25600 31.51300 34.32400
H  47.69900 37.90700 30.48500
H  49.42600 36.33200 24.16300
H  46.25700 30.92500 24.90800
H  45.27400 34.22900 32.58000
H  46.94500 36.50400 32.55600
H  44.58000 36.59900 30.76300
H  45.16500 37.74000 32.12400
H  44.42600 36.20800 32.42400
H  48.38800 34.49900 32.59300
H  47.57300 32.92700 32.28800
H  48.32100 33.88200 34.84800
H  47.16400 32.67300 34.40700
H  50.75500 39.62900 29.02600
H  49.47000 38.97100 30.01900
H  49.06000 40.22900 28.94800
H  49.90300 40.80600 26.56100
H  50.95700 40.75100 25.08900
H  51.49000 40.10900 26.78100
H  49.24100 34.39500 22.72800
H  46.94500 32.53200 22.73600
H  46.82300 36.02400 23.21700
H  46.28200 34.62400 22.24900
H  47.56600 35.61100 21.61700
H  49.14500 31.91500 22.02300
H  48.40600 30.72800 23.00300
H  50.87800 31.93700 23.36600
H  50.06400 30.48900 24.19600
H  50.13300 32.12100 24.93800
H  45.76200 28.94300 26.07100
H  44.01600 29.34300 26.21200
H  45.00600 28.51400 27.50900
H  43.50600 32.44400 30.66900
H  43.83100 30.61900 34.56500
H  42.24300 31.34100 34.68700
H  43.57400 32.43200 34.81600
Mg 6.53500 53.99400 41.24400
C  5.92100 50.58200 40.83100
C  9.71400 53.40100 39.79100
C  6.87300 57.24700 40.74400
C  3.16000 54.49300 42.12200
N  7.69300 52.21200 40.35300
C  7.30000 50.90900 40.44800
C  8.43200 49.90300 40.14200
C  9.67800 50.83900 40.06700
C  8.97400 52.20500 39.99000
C  10.59800 50.68600 41.32800
C  8.31800 48.91100 38.90900
C  8.01900 49.65300 37.59500
H  7.37200 48.93600 36.44900
N  8.06200 55.14400 40.31500
C  9.26600 54.74900 39.86400
C  10.09500 55.88200 39.58300
C  9.32500 57.02500 39.87800
C  8.03500 56.51500 40.39200
C  11.46200 55.75400 39.01000
C  9.72900 58.49400 39.56600
O  10.83500 58.71900 39.06900
C  8.82800 59.67600 39.84800
N  5.09900 55.59300 41.11500
C  5.57000 56.87500 41.09400
C  4.45100 57.95800 41.28100
C  3.32300 57.04100 41.85200
C  3.86600 55.62300 41.69600
C  4.87700 59.09600 42.20400
C  1.92800 57.20000 41.24200
C  1.32600 58.61100 41.39000
N  4.89200 52.75200 41.55100
C  3.60500 53.11600 41.94700
C  2.76600 51.91500 41.95200
C  3.62400 50.89600 41.53600
C  4.93200 51.45300 41.27900
C  1.33600 51.79300 42.32300
C  3.66400 49.47100 41.21200
O  2.82900 48.59000 41.27800
C  5.19900 49.19200 40.82500
C  5.14300 48.45800 39.57100
O  4.73300 48.84600 38.46600
O  5.45600 47.06200 39.86100
C  5.02200 46.10600 38.85200
H  10.78000 53.18000 39.70300
H  7.08700 58.31100 40.86100
H  2.14100 54.66700 42.47200
H  8.43600 49.20200 40.97600
H  10.21800 50.65400 39.13900
H  11.51100 50.19500 40.99000
H  10.10900 50.07200 42.08300
H  10.86100 51.70400 41.61700
H  7.49900 48.23100 39.14500
H  9.22300 48.30600 38.87600
H  8.93800 50.11500 37.23300
H  7.42800 50.52000 37.88900
H  11.81100 54.76300 38.72000
H  12.15000 56.09200 39.78400
H  11.40700 56.44200 38.16600
H  7.93200 59.38600 39.29800
H  9.27600 60.51200 39.31000
H  8.80200 59.88300 40.91800
H  4.11300 58.35100 40.32200
H  3.11400 57.03300 42.92200
H  5.76600 58.87800 42.79600
H  4.12700 59.29500 42.96900
H  5.08100 59.96100 41.57300
H  1.18000 56.59600 41.75600
H  2.00600 56.87800 40.20400
H  0.44900 58.65100 42.03500
H  1.08800 58.92800 40.37400
H  2.03000 59.35300 41.76700
H  0.96500 52.76400 42.65300
H  1.10900 51.13900 43.16400
H  0.74200 51.59800 41.43000
H  5.60100 48.53700 41.59800
H  5.31300 45.11300 39.19500
H  5.64400 46.37500 37.99900
H  3.96200 46.27200 38.66300

