158

Mg 0.29500 8.13000 26.26900
C  0.87400 10.14500 29.26200
C  0.78400 5.46300 28.12200
C  0.35900 6.50300 23.49100
C  0.69200 11.21300 24.40000
N  0.84000 7.80400 28.46200
C  0.82400 8.74300 29.48100
C  0.97900 8.00400 30.83300
C  0.96100 6.47600 30.44500
C  0.80100 6.58300 28.93700
C  2.28600 5.73900 30.94900
C  -0.19700 8.42000 31.82700
C  0.09200 8.43700 33.37900
H  1.17500 7.56900 34.00100
N  0.51200 6.18600 25.81700
C  0.66600 5.19700 26.72200
C  0.46300 3.88500 26.04500
C  0.46700 4.18100 24.59400
C  0.38400 5.70000 24.58000
C  0.32500 2.54100 26.78700
C  0.27900 3.28100 23.34400
O  0.02200 3.81200 22.32000
C  0.35900 1.79600 23.46300
N  0.45200 8.78400 24.27900
C  0.31900 7.87100 23.28700
C  0.21100 8.51700 21.87600
C  -0.04600 9.99900 22.22500
C  0.47300 10.00100 23.71200
C  1.58000 8.25300 21.17300
C  -1.54300 10.33100 22.18400
C  -1.87500 11.51900 21.23400
N  0.67900 10.26700 26.72300
C  0.78500 11.31800 25.82500
C  0.92900 12.55400 26.54600
C  1.00300 12.19000 27.93100
C  0.82400 10.74400 27.98200
C  1.09500 13.94100 25.98200
C  1.27200 12.67300 29.24000
O  1.60600 13.78700 29.68600
C  1.08500 11.36000 30.21000
C  2.19300 11.23500 31.15800
O  3.14500 10.51900 30.93500
O  1.96200 11.95300 32.29100
C  3.09500 12.10400 33.18100
H  1.00100 4.56500 28.70300
H  0.30600 6.02900 22.50800
H  0.74100 12.16400 23.86500
H  1.91700 8.29300 31.30600
H  0.09100 5.93500 30.81600
H  1.99500 4.87600 31.54700
H  3.03400 6.32600 31.48200
H  2.85600 5.37100 30.09500
H  -1.02100 7.73700 31.61800
H  -0.54300 9.42700 31.59500
H  -0.77000 8.32400 34.03600
H  0.45800 9.41700 33.68400
H  0.16000 2.68600 27.85500
H  1.21300 1.93800 26.60100
H  -0.63900 2.13600 26.47900
H  -0.38100 1.40200 24.15900
H  1.28700 1.51600 23.96000
H  0.38500 1.33400 22.47600
H  -0.60900 8.18600 21.23800
H  0.59300 10.63300 21.61100
H  2.17400 7.49600 21.68500
H  2.19600 9.15100 21.12500
H  1.49300 8.03100 20.10900
H  -1.79900 10.74300 23.16000
H  -2.18200 9.48700 21.92400
H  -1.99000 12.43600 21.81100
H  -2.87800 11.26400 20.89200
H  -1.25200 11.75100 20.37000
H  0.44600 13.96700 25.10600
H  2.13600 14.15400 25.74000
H  0.75200 14.68300 26.70300
H  0.20800 11.59300 30.81300
H  3.58900 13.03500 32.90100
H  3.69900 11.20000 33.25900
H  2.60400 12.15000 34.15200
Mg 41.98100 41.32300 26.44100
C  41.00100 43.61800 28.92600
C  43.54300 39.32100 28.75000
C  42.79100 39.03900 24.01100
C  40.93600 43.52200 23.95900
N  42.27600 41.55800 28.50600
C  41.69100 42.43100 29.46600
C  41.98100 42.16300 30.90900
C  42.92400 40.85700 30.73600
C  42.94400 40.52400 29.19800
C  44.41100 40.98900 31.24200
C  40.73500 41.88300 31.80700
C  40.43600 42.86400 32.93200
H  40.07900 42.27800 34.29700
N  43.05000 39.43500 26.42100
C  43.65100 38.82500 27.52700
C  44.22200 37.60800 27.17500
C  43.92600 37.43800 25.76900
C  43.25100 38.68100 25.31800
C  44.84500 36.59500 28.10400
C  44.43000 36.31800 24.86200
O  44.15900 36.41700 23.68300
C  45.29500 35.06700 25.33400
N  41.94300 41.32600 24.29300
C  42.26600 40.25600 23.52500
C  41.93800 40.49800 22.01400
C  41.18100 41.82700 22.09800
C  41.29600 42.24300 23.52800
C  43.17600 40.52700 21.10900
C  39.76800 41.92200 21.65400
C  39.68600 41.81900 20.15300
N  41.12900 43.20400 26.42200
C  40.77400 43.98100 25.29900
C  40.16000 45.19400 25.74400
C  40.17900 45.16200 27.14800
C  40.81700 43.91400 27.50300
C  39.56400 46.24000 24.94300
C  39.91500 45.79000 28.42100
O  39.36600 46.81800 28.64000
C  40.46200 44.83700 29.59400
C  41.48000 45.63600 30.27900
O  42.63700 45.75600 30.03400
O  40.97500 46.02300 31.46200
C  41.84500 46.81600 32.38600
H  44.01500 38.82700 29.60100
H  43.09300 38.33900 23.22900
H  40.55600 44.20800 23.19900
H  42.40800 43.08800 31.29800
H  42.49100 40.10600 31.39800
H  44.48400 40.32400 32.10300
H  44.52300 42.03900 31.51300
H  45.07500 40.61000 30.46500
H  40.81300 40.88500 32.23800
H  39.95900 41.97100 31.04600
H  39.64800 43.58600 32.71500
H  41.28700 43.52300 33.10300
H  45.92300 36.74300 28.03100
H  44.39600 35.62300 27.90000
H  44.53800 36.75800 29.13700
H  45.62300 34.45500 24.49300
H  44.54400 34.51200 25.89700
H  46.10600 35.31200 26.01900
H  41.30700 39.66600 21.70300
H  41.81200 42.52000 21.54100
H  43.05900 41.25700 20.30800
H  43.20100 39.53200 20.66400
H  44.12800 40.73900 21.59400
H  39.31000 42.77400 22.15600
H  39.37000 41.00500 22.08800
H  40.52400 42.30200 19.65000
H  38.78800 42.30500 19.77000
H  39.53900 40.77300 19.88300
H  38.95000 45.71000 24.21600
H  40.31800 46.83800 24.43100
H  38.90000 46.88300 25.52100
H  39.81100 44.63600 30.44400
H  42.39800 46.18000 33.07700
H  41.27900 47.42200 33.09400
H  42.57200 47.46800 31.90200

