158

Mg 47.37800 44.41600 44.03100
C  43.96600 43.90500 43.65600
C  47.73600 41.09200 42.86500
C  50.72000 44.86400 43.71000
C  46.85700 47.82000 44.27000
N  46.02000 42.63400 43.65300
C  44.70500 42.74600 43.37600
C  44.08800 41.53900 42.65000
C  45.27700 40.56700 42.77900
C  46.45400 41.46500 43.14900
C  45.17700 39.39300 43.78100
C  43.51600 41.88700 41.18700
C  42.09100 41.36800 40.89700
H  41.84100 40.95300 39.49500
N  49.01700 43.09100 43.56900
C  48.94900 41.80600 43.15200
C  50.28100 41.36200 42.80700
C  51.16800 42.37800 43.21900
C  50.31600 43.54800 43.53800
C  50.59200 39.94000 42.31600
C  52.64600 42.18700 43.28100
O  53.20800 41.14000 42.93900
C  53.63500 43.26500 43.67600
N  48.61000 46.13900 43.84500
C  49.99500 46.02300 43.87900
C  50.65500 47.40200 43.98400
C  49.39200 48.40900 44.07700
C  48.21700 47.44400 44.05700
C  51.66100 47.54200 45.21100
C  49.40800 49.51500 42.96200
C  49.17100 50.96200 43.42100
N  45.76700 45.61400 43.99100
C  45.71100 47.02400 44.23900
C  44.29300 47.37800 44.27400
C  43.57900 46.14000 44.06800
C  44.54400 45.15100 43.92300
C  43.67600 48.78000 44.42800
C  42.29000 45.59600 43.90100
O  41.18300 46.13500 43.84700
C  42.49400 44.07400 43.56300
C  41.74900 43.21000 44.50800
O  40.83200 42.47000 44.17900
O  42.33400 43.30700 45.74200
C  41.53800 42.60900 46.75000
H  47.96800 40.07600 42.53800
H  51.78000 45.04600 43.52200
H  46.67700 48.89700 44.31000
H  43.25100 41.14200 43.22400
H  45.50600 40.26700 41.75600
H  44.14400 39.30500 44.11900
H  45.71500 39.68500 44.68300
H  45.66300 38.50000 43.38800
H  44.23500 41.59200 40.42300
H  43.46900 42.96800 41.05500
H  41.32900 42.13200 41.05000
H  41.88000 40.51900 41.54800
H  49.78600 39.39000 41.82900
H  50.83200 39.40300 43.23300
H  51.55600 39.82900 41.81900
H  53.53000 44.00500 42.88200
H  54.61600 42.80100 43.57100
H  53.45100 43.57600 44.70500
H  51.27400 47.57000 43.10300
H  49.22000 48.84300 45.06200
H  51.48500 46.78300 45.97300
H  51.65000 48.54500 45.63700
H  52.66300 47.40200 44.80600
H  48.73800 49.21000 42.15700
H  50.36600 49.47700 42.44500
H  48.13900 51.26800 43.25000
H  49.80000 51.55900 42.76100
H  49.52700 51.27500 44.40200
H  44.23500 49.58500 44.90500
H  42.74400 48.73900 44.99300
H  43.40100 49.01200 43.40000
H  42.14300 43.96000 42.53700
H  41.54800 41.53100 46.58600
H  40.52300 43.00400 46.78700
H  41.98000 42.84700 47.71800
Mg -0.43000 43.35900 25.25800
C  1.69700 42.61300 27.88200
C  -2.99600 42.80400 27.39300
C  -2.52100 43.37800 22.62500
C  2.44500 43.20100 23.12000
N  -0.60200 42.60000 27.41000
C  0.40900 42.64500 28.32500
C  -0.14200 42.64200 29.75300
C  -1.65000 42.31000 29.49900
C  -1.78100 42.59000 28.00400
C  -2.28300 40.94400 29.90000
C  0.07400 44.08900 30.37900
C  0.05100 44.13800 31.94300
H  -0.20900 42.84300 32.76700
N  -2.49000 43.32000 25.04000
C  -3.37100 43.06400 26.06800
C  -4.72400 43.15300 25.53900
C  -4.59800 43.24400 24.14400
C  -3.16000 43.33400 23.84700
C  -5.94800 43.04000 26.44000
C  -5.66800 43.39500 23.04500
O  -5.46000 43.71700 21.90100
C  -7.19600 43.24300 23.49300
N  -0.07800 43.36800 23.20300
C  -1.07500 43.31500 22.28900
C  -0.55000 43.40300 20.82300
C  0.95100 43.75800 21.10800
C  1.16200 43.39600 22.54200
C  -0.77900 41.97800 20.14000
C  1.51100 45.22400 20.78100
C  1.20300 46.42300 21.64800
N  1.64100 43.13700 25.38000
C  2.64100 43.00000 24.50900
C  3.92200 42.73400 25.15000
C  3.61700 42.59800 26.49500
C  2.19500 42.78000 26.55100
C  5.24400 42.57500 24.40400
C  4.18600 42.21300 27.75300
O  5.36700 41.97900 28.03900
C  3.02100 42.49900 28.74400
C  3.14600 41.40300 29.75700
O  2.78200 40.19900 29.72500
O  3.65700 41.92800 30.91100
C  4.13800 41.02300 31.98900
H  -3.82800 42.69400 28.09200
H  -3.12600 43.44100 21.71800
H  3.34000 43.22600 22.49500
H  0.42100 41.94900 30.37800
H  -2.28400 43.03800 30.00500
H  -3.07400 40.75600 29.17400
H  -2.71300 41.08900 30.89100
H  -1.45700 40.23500 29.96000
H  -0.63100 44.80700 29.96000
H  1.01600 44.50200 30.02000
H  -0.63700 44.94700 32.19100
H  0.98200 44.49400 32.38400
H  -6.56000 43.93900 26.37900
H  -5.83100 42.87500 27.51100
H  -6.47400 42.23800 25.92100
H  -7.44500 42.33900 24.04800
H  -7.60500 43.30100 22.48400
H  -7.62800 44.08800 24.02900
H  -0.94300 44.10700 20.08900
H  1.47800 43.07100 20.44700
H  -1.39500 41.30800 20.73900
H  0.18500 41.48700 20.00500
H  -1.32800 42.16700 19.21800
H  1.12000 45.23300 19.76400
H  2.59200 45.09400 20.73500
H  1.07300 47.29900 21.01400
H  2.08500 46.61300 22.26000
H  0.28600 46.30600 22.22600
H  5.96200 42.26200 25.16100
H  5.60600 43.44300 23.85100
H  5.11100 41.72800 23.73100
H  3.19200 43.49600 29.15100
H  5.19900 40.94800 31.75000
H  3.67000 40.03900 32.00800
H  4.05000 41.49000 32.97000

