158

Mg 25.73800 1.74700 29.55400
C  27.75300 1.15500 32.49100
C  23.14300 2.12800 31.53400
C  23.89100 1.66100 26.76300
C  28.58600 0.57300 27.63800
N  25.55900 1.65400 31.77300
C  26.42100 1.53500 32.82000
C  25.75300 1.70700 34.21200
C  24.31800 1.72300 33.79800
C  24.29900 1.86900 32.23800
C  23.36300 0.56900 34.40100
C  26.22500 3.00400 35.07400
C  26.65500 2.72700 36.41500
H  26.57600 3.73000 37.54000
N  23.74800 2.18000 29.18200
C  22.83200 2.32100 30.12900
C  21.53500 2.55200 29.49000
C  21.71500 2.35100 28.07800
C  23.15500 1.96900 27.99300
C  20.32500 2.96500 30.27100
C  20.74500 2.45900 26.91600
O  21.12300 2.27700 25.76500
C  19.32500 2.76000 27.14200
N  26.14300 1.02300 27.58200
C  25.21800 1.27200 26.56800
C  25.87100 1.23900 25.14500
C  27.40300 1.09600 25.47300
C  27.40900 0.79700 26.97000
C  25.23700 0.19600 24.10400
C  28.28900 2.29800 24.95500
C  28.82700 2.23000 23.58600
N  27.73000 0.98700 29.96600
C  28.75000 0.61300 29.07500
C  29.99800 0.47100 29.84400
C  29.61300 0.61800 31.14500
C  28.25400 0.87200 31.22500
C  31.33900 0.04700 29.23400
C  30.13100 0.50000 32.52200
O  31.24600 0.24900 32.99700
C  28.92300 0.96900 33.39800
C  28.72000 -0.05600 34.46800
O  27.90500 -0.92900 34.55200
O  29.64700 0.20100 35.45800
C  29.51200 -0.58700 36.66100
H  22.26600 1.86200 32.12800
H  23.31900 1.79600 25.84200
H  29.40900 0.36400 26.95100
H  25.94300 0.83800 34.84200
H  23.87700 2.63300 34.20400
H  23.96800 -0.30400 34.64900
H  22.56200 0.28800 33.71700
H  23.01900 0.96600 35.35600
H  25.47500 3.79500 35.06400
H  27.11500 3.19500 34.47400
H  27.72900 2.68000 36.23500
H  26.39100 1.72300 36.74800
H  19.98300 3.95600 29.97200
H  20.62800 2.90200 31.31600
H  19.42400 2.36800 30.12900
H  18.77800 2.52900 26.22800
H  19.06300 3.77700 27.43100
H  18.92500 2.01200 27.82800
H  25.61600 2.17900 24.65700
H  27.74000 0.23100 24.90300
H  24.22400 -0.07000 24.40600
H  25.87300 -0.68000 23.98200
H  25.13200 0.69100 23.13800
H  29.00800 2.69100 25.67400
H  27.50200 3.02900 24.76800
H  28.60300 1.28200 23.09700
H  29.89200 2.44100 23.68200
H  28.50000 3.14200 23.08600
H  31.35400 -0.74100 28.48100
H  31.87700 -0.39900 30.07100
H  31.99600 0.86900 28.95000
H  29.04000 1.89200 33.96600
H  28.45800 -0.62900 36.93400
H  30.19100 -0.14700 37.39200
H  29.87000 -1.58500 36.40900
Mg 41.67400 9.09800 29.38500
C  43.49400 10.53700 31.94700
C  39.52600 7.67100 31.59200
C  40.13700 7.63100 26.69100
C  44.29500 9.99800 27.16800
N  41.59500 9.01100 31.57800
C  42.33400 9.85100 32.42100
C  41.77100 9.81200 33.89600
C  40.62300 8.76800 33.76500
C  40.63700 8.34900 32.19600
C  40.64400 7.57300 34.70400
C  41.52000 11.23100 34.51700
C  40.36000 11.29800 35.54600
H  40.51700 12.11500 36.86100
N  40.02100 7.87100 29.11400
C  39.24900 7.31500 30.17800
C  38.10500 6.69000 29.65500
C  38.12700 6.80100 28.21700
C  39.47400 7.42400 27.91700
C  37.06500 6.03100 30.66000
C  37.15000 6.39200 27.22000
O  37.29500 6.41300 26.01000
C  35.88900 5.95500 27.73800
N  42.23000 8.74800 27.23700
C  41.35200 8.24600 26.34700
C  41.94900 8.29500 24.92500
C  43.26800 9.10500 25.06700
C  43.27100 9.25000 26.57800
C  42.13500 6.84700 24.43200
C  43.22200 10.51600 24.31800
C  42.05400 11.47600 24.61000
N  43.40100 10.16500 29.47100
C  44.39600 10.37500 28.54500
C  45.43400 11.21000 29.08500
C  45.09300 11.37500 30.48700
C  43.85000 10.64700 30.61300
C  46.51600 11.76200 28.25300
C  45.48800 11.91700 31.75700
O  46.45200 12.58500 32.13700
C  44.41600 11.37700 32.75700
C  45.10100 10.65800 33.86900
O  45.96000 9.81200 33.75600
O  44.68900 11.13200 35.13300
C  45.39000 10.68900 36.43000
H  38.88800 7.20500 32.34600
H  39.51500 7.13400 25.94300
H  45.06500 10.49800 26.57600
H  42.53300 9.49300 34.60800
H  39.63400 9.20700 33.89700
H  40.38100 6.69800 34.10900
H  39.86500 7.76400 35.44300
H  41.54400 7.55700 35.31800
H  41.39600 11.86400 33.63800
H  42.30000 11.55100 35.20700
H  40.14700 10.26000 35.80400
H  39.54800 11.79100 35.01200
H  36.16200 6.64000 30.67900
H  37.42300 5.97000 31.68800
H  36.67000 5.09100 30.27500
H  35.24500 5.70300 26.89500
H  35.35000 6.61400 28.41900
H  36.04500 5.03400 28.29900
H  41.23000 8.74000 24.23800
H  44.13000 8.55600 24.68800
H  41.74900 6.18700 25.20900
H  43.19200 6.65500 24.24500
H  41.54500 6.73100 23.52300
H  43.16700 10.33100 23.24500
H  44.15500 11.04800 24.50000
H  42.40600 12.40300 25.06300
H  41.29400 11.09700 25.29300
H  41.52400 11.63700 23.67100
H  47.09200 12.49800 28.81400
H  46.17400 12.16500 27.30000
H  47.19600 10.95800 27.97000
H  43.89400 12.28100 33.07100
H  46.03800 9.85700 36.15300
H  44.71500 10.25800 37.16900
H  45.98600 11.54000 36.76000

