158

Mg 47.28100 24.16600 27.99400
C  47.97600 26.34600 30.73100
C  46.32900 21.74300 30.12000
C  46.97300 22.12300 25.34000
C  48.52800 26.70600 25.88000
N  47.07200 24.12000 30.13100
C  47.44300 25.07500 31.03400
C  47.12600 24.54100 32.47500
C  46.74400 23.07400 32.23700
C  46.67900 22.98500 30.73500
C  47.68000 21.96600 32.85500
C  45.97200 25.35400 33.15100
C  46.40700 25.91300 34.48900
H  45.30200 26.35700 35.55400
N  46.60400 22.24700 27.77700
C  46.21900 21.35400 28.76100
C  45.83700 20.15600 28.21500
C  46.05600 20.22200 26.80900
C  46.51700 21.62400 26.58900
C  45.34000 19.04100 29.00300
C  45.75900 19.19400 25.64400
O  46.14100 19.39600 24.53200
C  45.06900 17.86800 25.95400
N  47.66800 24.39200 25.89600
C  47.52800 23.44300 25.03500
C  47.63100 23.94100 23.61200
C  47.76700 25.47200 23.79500
C  48.04700 25.56300 25.27000
C  48.79000 23.28300 22.91600
C  46.67400 26.35800 23.19900
C  45.38200 26.63300 24.00700
N  48.21500 26.13800 28.22200
C  48.58400 27.04100 27.20800
C  48.94700 28.27700 27.84200
C  48.77500 28.02700 29.25900
C  48.28100 26.76200 29.40900
C  49.47000 29.50200 27.15500
C  49.00300 28.61500 30.60100
O  49.46200 29.73400 30.80500
C  48.47400 27.49800 31.59300
C  49.47200 27.12400 32.60700
O  50.08400 26.08900 32.64000
O  49.43500 28.09700 33.58600
C  50.28400 27.73000 34.72800
H  46.22600 20.88500 30.78700
H  46.77900 21.54400 24.43500
H  48.72700 27.54200 25.20600
H  48.09900 24.58400 32.96500
H  45.74100 22.78400 32.55100
H  47.05700 21.18300 33.28700
H  48.28800 22.25700 33.71100
H  48.38300 21.48800 32.17300
H  45.19900 24.64900 33.45600
H  45.60600 26.11100 32.45700
H  47.09400 26.75700 34.43100
H  46.99400 25.12800 34.96600
H  44.36800 18.66800 28.68000
H  45.08200 19.32700 30.02200
H  46.13300 18.29900 28.91900
H  45.49700 17.49700 26.88500
H  45.33300 17.16300 25.16600
H  43.98000 17.85000 26.00000
H  46.70600 23.69100 23.09300
H  48.74000 25.87100 23.51100
H  49.55200 24.01900 22.66100
H  48.43100 22.64400 22.11000
H  49.24400 22.59200 23.62700
H  46.38200 25.89000 22.25800
H  46.99000 27.36500 22.92800
H  45.52200 26.41800 25.06600
H  44.68800 25.92800 23.55100
H  45.04700 27.66000 23.86100
H  48.66100 30.23300 27.18100
H  49.67500 29.30200 26.10400
H  50.35500 29.78900 27.72300
H  47.53600 27.87000 32.00700
H  50.30900 28.56800 35.42400
H  51.31500 27.50900 34.45200
H  49.88000 26.82700 35.18600
Mg 26.34200 51.69100 26.31700
C  23.94100 52.68400 28.79700
C  28.32000 50.43100 28.92000
C  28.60500 50.66200 24.04100
C  24.18200 52.82900 23.88600
N  26.15600 51.69500 28.62200
C  25.09400 52.13100 29.39200
C  25.29900 51.80200 30.87300
C  26.78600 51.21000 30.88900
C  27.13500 51.08000 29.39900
C  27.87100 52.03000 31.72500
C  24.29800 50.83200 31.55600
C  24.03800 51.04000 33.04400
H  24.22100 49.84300 33.93900
N  28.32000 50.77500 26.41700
C  28.91500 50.34700 27.61800
C  30.17700 49.73800 27.30500
C  30.28900 49.72900 25.83900
C  29.01700 50.44600 25.37200
C  31.08900 49.18100 28.31300
C  31.51000 49.27400 25.03400
O  31.63700 49.55900 23.85800
C  32.58200 48.43900 25.68400
N  26.47800 51.97000 24.14300
C  27.57900 51.41900 23.44500
C  27.26900 51.41900 21.99600
C  25.71900 51.83200 21.94500
C  25.38800 52.30800 23.32000
C  28.23500 52.26100 21.13000
C  24.75700 50.69600 21.35400
C  23.95300 50.92100 20.06400
N  24.51900 52.75600 26.30200
C  23.80300 53.15400 25.21500
C  22.66100 53.81400 25.65100
C  22.61900 53.66300 27.02300
C  23.78900 52.93100 27.38100
C  21.56900 54.20900 24.76900
C  21.86500 53.83000 28.29900
O  20.79500 54.38500 28.44900
C  22.68600 53.13000 29.47200
C  22.98700 54.15600 30.46200
O  23.46900 55.29800 30.30900
O  22.61200 53.67400 31.67600
C  22.54300 54.52700 32.85200
H  29.05700 50.11500 29.66200
H  29.27900 50.13200 23.36400
H  23.41300 52.98600 23.12600
H  25.25200 52.74900 31.41100
H  26.76400 50.16900 31.21000
H  28.75300 52.25000 31.12400
H  28.03300 51.45300 32.63500
H  27.37900 52.94700 32.04900
H  24.66100 49.80500 31.58200
H  23.32700 50.74800 31.06800
H  23.05400 51.50700 33.09500
H  24.65000 51.89900 33.32000
H  30.65700 49.30200 29.30700
H  32.00300 49.77300 28.34100
H  31.21300 48.12500 28.07400
H  33.33000 48.14600 24.94700
H  32.20800 47.55000 26.19200
H  32.91200 49.20600 26.38500
H  27.30400 50.38400 21.65600
H  25.66600 52.69800 21.28500
H  29.23500 51.91700 21.39600
H  28.15700 53.24900 21.58500
H  27.95700 52.33000 20.07800
H  24.20500 50.20500 22.15600
H  25.36900 49.84800 21.04800
H  24.06000 50.28400 19.18600
H  24.24900 51.87200 19.62100
H  22.94700 51.15200 20.41600
H  21.86400 55.18000 24.37200
H  20.60500 54.29700 25.27100
H  21.53000 53.41600 24.02200
H  22.05500 52.36900 29.93200
H  21.50600 54.79100 33.06200
H  23.05900 55.47800 32.72200
H  23.06500 54.10700 33.71200

