158

Mg 25.28000 2.04600 29.73300
C  27.02600 1.63900 32.74200
C  22.44900 1.60200 31.66900
C  23.51200 2.10300 26.87900
C  28.19800 1.64500 27.92400
N  24.82400 1.78700 31.98600
C  25.65200 1.75900 32.98800
C  25.01000 1.90200 34.38600
C  23.47200 1.81800 34.00800
C  23.54800 1.67100 32.45100
C  22.69600 0.56500 34.53100
C  25.44500 3.25100 35.15600
C  26.45200 3.05200 36.34800
H  26.32100 4.20600 37.37800
N  23.28600 2.00200 29.32800
C  22.28200 1.74400 30.25400
C  20.96500 1.75400 29.52600
C  21.26600 1.90700 28.14200
C  22.77500 2.03000 28.09600
C  19.65700 1.29800 30.21700
C  20.31900 1.75700 26.87200
O  20.67400 1.64200 25.71300
C  18.89300 1.77300 27.09900
N  25.78200 1.79200 27.66600
C  24.90500 2.00400 26.72000
C  25.56300 2.01200 25.30100
C  27.08500 1.94100 25.62400
C  27.06300 1.74500 27.12000
C  25.04500 0.89100 24.37900
C  27.87800 3.19200 25.17100
C  27.44200 4.61500 25.67900
N  27.23600 1.71500 30.15800
C  28.31400 1.57500 29.32700
C  29.44800 1.28900 30.18900
C  29.04400 1.41800 31.48600
C  27.63900 1.63500 31.45300
C  30.86700 1.00200 29.78700
C  29.46700 1.30900 32.88300
O  30.63000 1.31200 33.32600
C  28.20400 1.58100 33.74600
C  28.21800 0.56300 34.86000
O  27.77800 -0.56500 34.78500
O  28.88400 1.15500 35.93000
C  28.87200 0.29700 37.15300
H  21.54500 1.57600 32.28200
H  22.95700 2.16400 25.94100
H  29.16500 1.64800 27.41600
H  25.23200 1.01600 34.98100
H  23.04300 2.78200 34.28200
H  21.78700 0.91400 35.02200
H  23.31500 0.02200 35.24500
H  22.50400 -0.06000 33.65900
H  24.57600 3.73200 35.60500
H  26.05000 3.74800 34.39900
H  27.47000 3.18500 35.98200
H  26.41200 2.05400 36.78300
H  19.77100 1.39800 31.29600
H  19.46300 0.23800 30.05100
H  18.74900 1.82400 29.92200
H  18.62900 2.43200 27.92600
H  18.45100 0.78200 27.20000
H  18.39800 2.02300 26.16100
H  25.27700 2.96300 24.85100
H  27.50900 1.04500 25.17100
H  25.06200 1.21000 23.33700
H  24.07300 0.64300 24.80600
H  25.69900 0.02800 24.49900
H  27.81300 3.25800 24.08500
H  28.89900 3.07200 25.53400
H  28.31200 5.10900 26.11100
H  26.62400 4.62300 26.40000
H  27.07900 5.23900 24.86200
H  31.44700 1.47400 30.58000
H  31.13100 1.52500 28.86800
H  31.12700 -0.04900 29.91300
H  28.37500 2.50700 34.29600
H  29.04400 -0.77000 37.01100
H  27.92400 0.38600 37.68300
H  29.81100 0.48100 37.67500
Mg 41.27600 9.75200 29.14100
C  43.38100 10.47800 31.83900
C  39.06700 8.40300 31.22800
C  39.71100 8.40200 26.42200
C  44.03700 10.45700 26.95200
N  41.26600 9.47700 31.30900
C  42.10800 9.96100 32.26000
C  41.52700 9.84700 33.68000
C  40.20200 9.14700 33.41100
C  40.12800 9.05900 31.86900
C  40.09200 7.71800 34.07400
C  41.33400 11.19700 34.42700
C  40.89700 11.18200 35.92100
H  41.99900 11.44100 36.93800
N  39.65700 8.52200 28.83600
C  38.78500 8.11300 29.84200
C  37.65800 7.38000 29.30200
C  37.77500 7.64000 27.87000
C  39.13900 8.17500 27.66100
C  36.57100 6.72900 30.14500
C  36.77100 7.40800 26.76500
O  36.97200 7.65900 25.57200
C  35.43400 6.87500 27.05900
N  41.88000 9.37200 26.95900
C  40.95600 8.94600 26.04400
C  41.42000 9.17400 24.58000
C  42.72600 9.88700 24.82800
C  42.92300 9.93400 26.33400
C  41.57200 7.81900 23.79400
C  42.57600 11.28600 24.21600
C  42.09000 12.47500 25.14600
N  43.27700 10.36200 29.30400
C  44.23100 10.66900 28.34700
C  45.42500 11.12800 28.95900
C  45.13500 11.10200 30.33300
C  43.82300 10.65800 30.50400
C  46.69400 11.38200 28.23700
C  45.70700 11.30200 31.63500
O  46.84600 11.63300 32.02900
C  44.55100 10.89700 32.69700
C  44.92800 9.93100 33.69600
O  44.99100 8.74300 33.46600
O  45.24600 10.54300 34.85200
C  45.66400 9.63700 35.92700
H  38.41600 7.91200 31.95400
H  39.27800 7.84900 25.58600
H  44.75200 10.87400 26.23900
H  42.16400 9.16800 34.24800
H  39.31900 9.77100 33.54100
H  40.97500 7.41800 34.63800
H  39.92300 6.88800 33.38700
H  39.18300 7.94800 34.63000
H  40.68100 11.92500 33.94400
H  42.32700 11.63700 34.34100
H  40.43200 10.24400 36.22400
H  40.08500 11.90000 36.03600
H  36.79200 6.83500 31.20700
H  36.36700 5.68000 29.92600
H  35.64700 7.28700 29.99400
H  34.85100 6.88200 26.13800
H  34.93400 7.62100 27.67600
H  35.50800 5.89400 27.52800
H  40.71600 9.68500 23.92400
H  43.55400 9.43000 24.28600
H  41.44300 6.96500 24.46000
H  42.55300 7.67000 23.34200
H  40.78500 7.92500 23.04900
H  42.03600 11.40000 23.27600
H  43.59600 11.55100 23.93700
H  42.96700 13.06100 25.41900
H  41.56600 12.12700 26.03700
H  41.41300 13.08300 24.54500
H  47.52400 11.23400 28.92700
H  46.91100 12.36000 27.80700
H  46.75900 10.73000 27.36600
H  44.34200 11.81400 33.24900
H  44.73600 9.31300 36.39900
H  46.32300 10.16500 36.61600
H  46.29800 8.82900 35.56400

