158

Mg 36.73400 2.45700 30.19800
C  33.90300 3.22300 32.37100
C  38.66100 2.48000 32.87800
C  39.15200 1.54400 28.13500
C  34.48500 2.70600 27.38700
N  36.30500 2.87300 32.36000
C  35.10000 3.02600 33.07700
C  35.29400 2.88800 34.62100
C  36.89100 2.90100 34.70400
C  37.30400 2.77100 33.20900
C  37.38700 4.23600 35.39100
C  34.56000 1.68000 35.22800
C  34.25200 1.66500 36.80300
H  34.88300 2.80200 37.72900
N  38.75600 2.20800 30.41600
C  39.33000 2.23500 31.60900
C  40.76400 1.88600 31.46600
C  40.96700 1.50100 30.09700
C  39.59500 1.78200 29.46400
C  41.66200 1.87100 32.68900
C  42.14500 0.82300 29.33400
O  42.07300 0.69600 28.08800
C  43.34200 0.25100 30.09300
N  36.81700 2.32600 28.00200
C  37.94000 1.79800 27.46700
C  37.76900 1.54000 25.97200
C  36.25100 1.75900 25.73700
C  35.81500 2.30600 27.09600
C  38.74800 2.41400 25.12400
C  35.49600 0.48600 25.22700
C  35.04800 -0.57200 26.25200
N  34.63500 2.78900 29.84100
C  33.92000 2.94300 28.67400
C  32.55800 3.28400 28.98600
C  32.55000 3.40300 30.38100
C  33.82500 3.11300 30.87800
C  31.47300 3.39100 27.97600
C  31.69700 3.79800 31.53400
O  30.50100 4.21300 31.56000
C  32.50000 3.62000 32.84400
C  32.51500 4.83100 33.75200
O  32.72200 6.01800 33.40100
O  32.02500 4.56100 35.02400
C  32.23700 5.61600 35.97700
H  39.32500 2.66200 33.72600
H  39.72600 0.91200 27.45400
H  33.89000 2.95000 26.50500
H  34.89300 3.68000 35.25500
H  37.17900 2.07700 35.35700
H  37.52500 4.25600 36.47200
H  36.78200 5.09900 35.11300
H  38.28800 4.56600 34.87400
H  35.10400 0.77800 34.94700
H  33.65000 1.55500 34.64000
H  34.52600 0.64200 37.06100
H  33.19200 1.64900 37.05900
H  41.27300 1.18100 33.43800
H  41.70600 2.88300 33.09300
H  42.67100 1.58900 32.39200
H  43.04000 -0.18000 31.04800
H  44.05600 1.07300 30.13800
H  43.78300 -0.48900 29.42400
H  38.07800 0.50600 25.81800
H  36.07900 2.55600 25.01300
H  39.38900 3.13300 25.63400
H  38.29800 2.96500 24.29800
H  39.39600 1.77100 24.52800
H  36.07300 -0.09400 24.50600
H  34.72300 0.85000 24.55100
H  35.51400 -1.54800 26.12200
H  34.01100 -0.71400 25.94700
H  35.04800 -0.20200 27.27700
H  31.17400 2.42100 27.57900
H  31.64900 4.10700 27.17400
H  30.50300 3.56800 28.44300
H  32.00600 2.89600 33.49400
H  33.23600 6.01000 35.78800
H  32.30000 5.33000 37.02700
H  31.54000 6.41000 35.70700
Mg 47.84400 45.23600 42.73400
C  44.40300 45.90000 41.74300
C  47.69200 42.57500 40.77500
C  51.19000 45.26200 42.70300
C  47.82500 48.58300 43.97200
N  46.17200 44.30200 41.55600
C  44.91800 44.76400 41.25200
C  44.26100 43.85500 40.25700
C  45.27000 42.66700 40.17400
C  46.43800 43.17000 40.95600
C  44.77500 41.31400 40.80000
C  44.02700 44.55400 38.86900
C  42.68100 44.20700 38.21600
H  42.62100 43.09300 37.17200
N  49.26300 43.94000 42.01200
C  48.95900 42.87700 41.26200
C  50.12800 42.16600 40.98700
C  51.20000 42.99100 41.46800
C  50.58500 44.13500 42.09800
C  50.23900 40.83500 40.26700
C  52.72800 42.66500 41.23600
O  53.04200 41.56100 40.78700
C  53.87100 43.60100 41.52100
N  49.29100 46.65000 43.33700
C  50.58800 46.38100 43.37300
C  51.35800 47.56100 43.98100
C  50.26900 48.63400 44.12900
C  49.00500 47.87300 43.93300
C  52.16100 47.34600 45.27800
C  50.42400 49.87300 43.11100
C  51.57000 50.79100 43.36500
N  46.38500 46.77900 43.15600
C  46.55800 48.07900 43.58500
C  45.28300 48.69400 43.81800
C  44.40000 47.87000 43.07400
C  45.17500 46.79200 42.57000
C  45.01800 49.95500 44.45600
C  43.06400 47.85600 42.48100
O  42.15700 48.67000 42.52800
C  43.00400 46.51900 41.57800
C  41.91600 45.69100 42.08900
O  41.25100 45.00800 41.32900
O  41.89900 45.54100 43.44800
C  40.83900 44.65400 44.03000
H  47.53500 41.72600 40.10600
H  52.24900 45.12600 42.93400
H  47.88900 49.62900 44.27900
H  43.33700 43.44400 40.66400
H  45.55200 42.43800 39.14600
H  45.06700 40.50000 40.13700
H  43.68900 41.22300 40.75900
H  45.14300 41.17400 41.81700
H  44.82500 44.30400 38.17000
H  44.17300 45.62600 39.00600
H  42.29600 45.12300 37.76800
H  42.07900 43.82100 39.03900
H  49.28400 40.32200 40.38200
H  50.92800 40.12800 40.72800
H  50.53400 40.92400 39.22200
H  54.10600 43.49600 42.58000
H  53.63600 44.63800 41.28000
H  54.71800 43.36000 40.87900
H  52.06900 47.83200 43.20100
H  50.29200 49.13000 45.09900
H  51.82400 48.08000 46.01000
H  53.20200 47.51800 45.00600
H  52.01200 46.34200 45.67500
H  49.46100 50.38000 43.18400
H  50.43300 49.39100 42.13400
H  51.16900 51.79600 43.49700
H  52.20600 50.86900 42.48400
H  52.34600 50.60500 44.10800
H  45.88300 50.40000 44.94900
H  44.13700 49.85100 45.09000
H  44.78000 50.59200 43.60400
H  42.75400 46.87700 40.57900
H  40.56800 45.01000 45.02400
H  41.08300 43.59900 44.15800
H  39.90700 44.75800 43.47600

