158

Mg 53.85000 23.17900 44.33800
C  50.90200 24.97000 43.51000
C  52.20400 20.29900 43.25100
C  56.70200 21.62700 44.48600
C  55.35000 26.23400 45.14600
N  51.82200 22.72500 43.07000
C  50.72700 23.65500 43.12500
C  49.43100 22.83300 42.81500
C  49.91000 21.33400 43.04900
C  51.40600 21.43600 43.18200
C  49.13200 20.57000 44.25400
C  49.04200 23.24800 41.34800
C  47.60200 23.46300 41.10200
H  47.05200 22.96700 39.73400
N  54.38800 21.20500 43.90000
C  53.60200 20.12100 43.52800
C  54.47500 18.96300 43.34200
C  55.82600 19.42000 43.58700
C  55.67200 20.80900 43.97000
C  54.08400 17.62300 42.76100
C  57.12300 18.57200 43.44300
O  56.98100 17.42600 43.02100
C  58.60200 19.02300 43.74400
N  55.77700 23.82600 44.73100
C  56.81900 23.01400 44.72600
C  58.15000 23.72100 45.01000
C  57.73400 25.22300 45.27200
C  56.23400 25.10800 45.01100
C  59.03400 23.06400 46.05500
C  58.46700 26.32100 44.39700
C  59.96300 26.13700 44.19100
N  53.30600 25.26200 44.42500
C  53.97500 26.31900 44.77900
C  53.13600 27.50100 44.90300
C  51.86800 26.97100 44.42700
C  52.06300 25.63600 44.09100
C  53.47300 28.89200 45.48000
C  50.46900 27.32000 44.24300
O  49.89900 28.37700 44.39600
C  49.86400 26.05300 43.52400
C  49.58800 26.44400 42.18300
O  50.33000 26.44000 41.20200
O  48.28700 26.89200 42.16300
C  47.76400 27.35800 40.86900
H  51.63600 19.46100 42.84100
H  57.73300 21.27900 44.58100
H  55.78200 27.17500 45.49200
H  48.63000 23.04300 43.52300
H  49.71500 20.72600 42.16600
H  48.69600 19.62700 43.92200
H  48.31200 21.19600 44.60500
H  49.79600 20.38000 45.09800
H  49.34900 22.53000 40.58800
H  49.54400 24.14700 40.99200
H  47.37300 24.51400 41.27800
H  46.99600 22.88500 41.80000
H  54.67600 17.43000 41.86600
H  53.05200 17.63000 42.41000
H  54.31800 16.78200 43.41300
H  58.82600 19.31700 44.76900
H  58.69200 19.85100 43.04100
H  59.22400 18.18700 43.42600
H  58.64600 23.67800 44.04000
H  57.80300 25.38400 46.34800
H  59.99400 22.63300 45.77100
H  58.47900 22.25600 46.53100
H  59.42300 23.86700 46.68000
H  58.20800 27.25500 44.89500
H  57.89300 26.28700 43.47100
H  60.54200 26.67000 44.94600
H  60.24200 26.58000 43.23500
H  60.18400 25.07300 44.27600
H  53.17000 28.86200 46.52600
H  52.92300 29.65600 44.93100
H  54.54400 29.08800 45.53600
H  48.94700 25.85000 44.07700
H  48.04900 28.40900 40.91100
H  46.67800 27.28100 40.92700
H  48.18500 26.76900 40.05400
Mg -2.45700 34.30600 26.31800
C  -4.04000 32.45600 28.96200
C  -1.36100 36.58900 28.72000
C  -1.16500 36.25200 23.75100
C  -4.16700 32.35800 24.01000
N  -2.87500 34.56100 28.49900
C  -3.42200 33.67500 29.42100
C  -3.25100 34.14500 30.90500
C  -2.71700 35.62400 30.73900
C  -2.19400 35.58700 29.22400
C  -3.78100 36.73800 31.02300
C  -2.37900 33.16900 31.68900
C  -3.00600 32.54600 32.94200
H  -2.18900 32.46600 34.24300
N  -1.30000 36.03300 26.18400
C  -0.96000 36.77900 27.29300
C  0.01300 37.69000 26.88000
C  0.07400 37.71200 25.48800
C  -0.79500 36.64600 25.03900
C  0.75400 38.58600 27.92100
C  0.78300 38.60500 24.48400
O  0.76800 38.43100 23.27300
C  1.54800 39.82700 25.01200
N  -2.71000 34.35200 24.16400
C  -2.02000 35.15600 23.35600
C  -2.34100 34.86800 21.89700
C  -3.02300 33.48400 22.02200
C  -3.39400 33.41100 23.47600
C  -3.38600 35.95500 21.22700
C  -2.00100 32.41200 21.63300
C  -0.88500 31.88600 22.61100
N  -3.74900 32.71600 26.43000
C  -4.23500 31.97000 25.40100
C  -5.06400 30.87100 25.93900
C  -4.96600 31.03900 27.31100
C  -4.15200 32.11200 27.60500
C  -5.91800 29.84700 25.29600
C  -5.39600 30.44800 28.52800
O  -6.11100 29.47800 28.74800
C  -4.75600 31.32400 29.73700
C  -5.78900 31.73600 30.62400
O  -6.56600 32.65300 30.43400
O  -5.85000 30.88900 31.61800
C  -6.87800 31.26100 32.61400
H  -0.75500 37.02100 29.51900
H  -0.85400 36.85200 22.89300
H  -4.62600 31.56600 23.41400
H  -4.25000 34.11700 31.34000
H  -1.81300 35.82100 31.31400
H  -3.53700 36.99600 32.05400
H  -4.76000 36.26400 30.94400
H  -3.61600 37.62200 30.40900
H  -1.49200 33.68700 32.05600
H  -2.12600 32.34400 31.02300
H  -3.26800 31.50200 32.76800
H  -3.92600 33.09600 33.13900
H  1.82800 38.59800 27.73100
H  0.59500 38.25600 28.94700
H  0.43100 39.62300 27.82800
H  0.82300 40.46600 25.51600
H  2.01700 40.35400 24.18100
H  2.25300 39.53900 25.79100
H  -1.46000 34.92800 21.25800
H  -3.93500 33.35300 21.43900
H  -3.44900 36.87400 21.81000
H  -4.39500 35.58500 21.04600
H  -2.93900 36.09600 20.24200
H  -1.48000 32.90100 20.81000
H  -2.57200 31.55600 21.27300
H  0.06300 32.27000 22.23400
H  -0.80300 30.80400 22.50100
H  -1.09100 32.22000 23.62800
H  -5.89100 29.62700 24.22900
H  -6.96100 30.12800 25.44400
H  -5.65500 28.97900 25.90100
H  -4.03000 30.77800 30.33900
H  -6.35800 31.83200 33.38300
H  -7.12500 30.31500 33.09500
H  -7.81000 31.71800 32.28400

