158

Mg 40.79500 9.30200 29.24300
C  42.54600 10.63700 32.15500
C  38.61800 7.83500 31.34500
C  39.19200 8.36800 26.56300
C  43.48900 10.40300 27.34400
N  40.62400 9.26200 31.39400
C  41.36400 9.90200 32.40300
C  40.71400 9.77800 33.83800
C  39.65200 8.68300 33.51000
C  39.62500 8.57800 31.98400
C  40.05700 7.35500 34.23700
C  40.21700 11.20500 34.39500
C  40.39100 11.28800 35.97900
H  40.80300 12.64000 36.73800
N  39.15400 8.19400 28.96100
C  38.32100 7.64000 29.96100
C  37.21500 7.00300 29.38800
C  37.29100 7.37600 27.99500
C  38.57900 7.98000 27.72600
C  36.16400 6.36200 30.18200
C  36.24100 7.17900 26.87600
O  36.40000 7.51900 25.71700
C  34.87700 6.61400 27.26700
N  41.34600 9.35200 27.27100
C  40.39500 8.91700 26.32500
C  40.99900 9.01600 24.89100
C  42.36500 9.58400 25.16900
C  42.43700 9.81600 26.66000
C  40.88600 7.81100 23.99000
C  42.71900 10.79500 24.28200
C  42.14000 12.07800 24.90000
N  42.54100 10.43600 29.56500
C  43.55300 10.76800 28.66400
C  44.62100 11.47600 29.36000
C  44.25700 11.43000 30.71300
C  42.95800 10.86000 30.85000
C  45.95800 11.85200 28.74600
C  44.73000 11.78700 32.06100
O  45.79700 12.23600 32.36500
C  43.63200 11.39300 33.04200
C  44.07600 10.39000 34.03100
O  44.47400 9.24600 33.73400
O  43.81700 10.93600 35.28800
C  43.92700 9.94800 36.43900
H  37.96100 7.23400 31.97700
H  38.71900 7.93500 25.67900
H  44.36200 10.61200 26.72300
H  41.50900 9.36400 34.45700
H  38.67800 8.88600 33.95500
H  40.51300 6.77100 33.43800
H  39.19800 6.86900 34.69900
H  40.81500 7.55400 34.99400
H  39.13200 11.29600 34.34400
H  40.75300 12.09600 34.06800
H  41.09500 10.50700 36.26900
H  39.39400 11.06100 36.35700
H  36.55700 6.16300 31.17900
H  35.98100 5.33400 29.86800
H  35.23200 6.92700 30.20300
H  34.24500 6.28600 26.44200
H  34.44900 7.28100 28.01500
H  35.10600 5.70400 27.82200
H  40.44700 9.79400 24.36400
H  43.06500 8.78200 24.93500
H  41.80700 7.57600 23.45800
H  40.08100 7.97300 23.27300
H  40.59700 6.92700 24.55800
H  42.40900 10.70800 23.24000
H  43.79600 10.93400 24.18500
H  41.10400 11.91400 25.19700
H  42.09700 12.87200 24.15400
H  42.80000 12.42500 25.69500
H  46.08100 11.36600 27.77800
H  46.77800 11.37900 29.28600
H  46.12100 12.92900 28.71800
H  43.04500 12.20500 33.47100
H  43.46300 10.41600 37.30700
H  44.97200 9.74400 36.67400
H  43.38300 9.07100 36.08900
Mg 17.61800 51.64100 25.90900
C  19.29100 50.49900 28.93200
C  15.15600 52.93800 27.90000
C  15.94500 52.70000 23.11500
C  19.80300 49.78300 24.12500
N  17.27800 51.60300 28.30600
C  18.09000 51.15500 29.28000
C  17.61500 51.60700 30.65100
C  16.12100 52.11600 30.26200
C  16.13300 52.24000 28.74100
C  14.84500 51.37800 30.75500
C  18.52500 52.67200 31.31500
C  18.80800 52.47000 32.86600
H  17.79700 51.69700 33.64800
N  15.79500 52.68800 25.58200
C  14.94000 53.14200 26.53300
C  13.87600 53.87700 25.95500
C  14.07800 53.85300 24.53500
C  15.31500 53.05300 24.34500
C  12.68200 54.45900 26.68300
C  13.20400 54.28100 23.37000
O  13.41900 53.88200 22.20200
C  11.90900 55.12900 23.56600
N  17.73400 51.12300 23.90900
C  17.02400 51.79300 22.95200
C  17.50500 51.41300 21.51800
C  18.83400 50.63100 21.87000
C  18.80500 50.46300 23.40400
C  16.37700 50.80000 20.67200
C  20.17800 51.36400 21.40200
C  20.26100 52.86600 21.77500
N  19.32900 50.51200 26.35300
C  20.09700 49.81200 25.49300
C  21.26600 49.26300 26.17500
C  20.96700 49.50600 27.55400
C  19.74200 50.19500 27.61200
C  22.47800 48.55800 25.55500
C  21.44300 49.28800 28.89700
O  22.45400 48.74200 29.31700
C  20.44900 49.95900 29.88800
C  20.11600 48.90800 30.91500
O  19.32100 47.98200 30.77300
O  20.87900 49.08200 32.06600
C  20.71300 48.03400 33.16200
H  14.41300 53.39800 28.55500
H  15.57100 53.04200 22.14800
H  20.60600 49.32000 23.54800
H  17.67200 50.70800 31.26600
H  16.04500 53.11700 30.68600
H  15.10500 50.43900 31.24300
H  14.24100 51.14300 29.87800
H  14.34500 52.08000 31.42300
H  18.10600 53.65700 31.10800
H  19.50500 52.63500 30.83900
H  18.90600 53.47000 33.28900
H  19.83100 52.14200 33.05300
H  12.62200 55.54200 26.57700
H  12.68100 54.17600 27.73600
H  11.83200 53.93900 26.24200
H  11.98200 55.79300 24.42600
H  10.98800 54.54600 23.53800
H  11.87000 55.88300 22.78000
H  17.74600 52.27600 20.89600
H  18.95200 49.63600 21.44000
H  15.54600 51.49300 20.53600
H  15.97400 49.87000 21.07200
H  16.72000 50.73400 19.63900
H  20.26300 51.24800 20.32200
H  21.06000 50.86400 21.80400
H  20.68700 53.23200 20.84100
H  20.97600 53.15900 22.54400
H  19.35700 53.44000 21.98300
H  22.74600 49.12900 24.66600
H  22.15200 47.54900 25.30300
H  23.30500 48.50800 26.26200
H  21.06400 50.79100 30.23100
H  20.30900 48.49200 34.06400
H  21.69600 47.64500 33.42700
H  20.03600 47.23700 32.85300

