158

Mg 8.52400 2.02800 27.58500
C  10.19800 0.96500 30.42800
C  6.93000 4.35900 29.56500
C  7.07300 3.09800 24.79400
C  10.16000 -0.46200 25.78000
N  8.60000 2.57800 29.80000
C  9.31800 2.00700 30.73700
C  9.06200 2.67600 32.14300
C  8.05800 3.79200 31.79400
C  7.81000 3.60600 30.28800
C  6.81700 3.99700 32.57100
C  10.28100 3.15900 32.93100
C  10.07700 4.25600 34.07500
H  10.52400 3.89700 35.46400
N  7.23500 3.50700 27.20300
C  6.67300 4.33400 28.20000
C  5.73000 5.17600 27.53500
C  5.83300 4.92300 26.08200
C  6.67400 3.74900 25.99000
C  4.73100 6.14400 28.11700
C  5.03400 5.51600 24.92500
O  5.25300 5.13800 23.78700
C  3.90400 6.60600 25.09500
N  8.60800 1.46300 25.58200
C  7.94600 2.08500 24.60100
C  8.19600 1.49400 23.26100
C  9.10600 0.27700 23.57900
C  9.34300 0.43700 25.03900
C  6.87600 1.08500 22.45300
C  10.37400 0.18200 22.69000
C  10.15300 -0.32200 21.34000
N  9.86300 0.56300 27.97500
C  10.39700 -0.42600 27.14200
C  11.23500 -1.31800 27.87900
C  11.23000 -0.76500 29.20000
C  10.33000 0.33100 29.20100
C  12.03300 -2.54600 27.32600
C  11.71900 -0.87700 30.58800
O  12.51300 -1.66300 31.07800
C  11.06400 0.19300 31.43600
C  10.23500 -0.34900 32.48100
O  9.16000 -0.95300 32.31900
O  10.80400 -0.25500 33.76200
C  9.91000 -0.81600 34.88300
H  6.47800 5.12400 30.20100
H  6.62800 3.40600 23.84600
H  10.70200 -1.20600 25.19300
H  8.51000 2.03300 32.82900
H  8.60400 4.73600 31.78400
H  5.99700 3.54700 32.01000
H  6.59500 5.05200 32.73100
H  6.87700 3.55500 33.56500
H  10.95100 3.57100 32.17600
H  10.79000 2.28900 33.34500
H  9.03400 4.51100 34.26400
H  10.55900 5.15600 33.69200
H  4.98600 7.07800 27.61700
H  4.95000 6.21800 29.18200
H  3.67500 5.89200 28.01700
H  3.42800 6.96500 24.18200
H  4.27800 7.56900 25.44100
H  3.14600 6.21300 25.77300
H  8.74000 2.26800 22.72000
H  8.55700 -0.66500 23.59400
H  6.00800 1.10000 23.11200
H  6.86000 0.06200 22.07800
H  6.79100 1.74200 21.58700
H  11.02300 -0.54600 23.17600
H  10.83000 1.17100 22.63700
H  10.20300 0.45500 20.57700
H  9.14200 -0.70700 21.47300
H  10.85600 -1.10400 21.05200
H  11.34500 -3.33200 27.01400
H  12.65800 -2.76300 28.19300
H  12.74100 -2.14500 26.60000
H  11.79200 0.85600 31.90400
H  9.57300 0.07300 35.41700
H  10.57400 -1.30200 35.59800
H  9.05100 -1.44100 34.63900
Mg -10.80800 17.24300 42.68100
C  -7.41600 16.53000 42.84900
C  -9.94800 20.53900 42.15900
C  -13.99000 17.74500 41.81900
C  -11.42400 13.62300 42.62900
N  -8.82800 18.38800 42.63700
C  -7.63000 17.90700 42.65200
C  -6.56000 19.00300 42.32700
C  -7.42700 20.29000 42.37000
C  -8.84800 19.71800 42.41800
C  -7.06200 21.34000 43.49300
C  -5.68000 18.77700 41.00300
C  -6.42300 18.24500 39.69500
H  -5.65300 18.07000 38.40700
N  -11.85300 18.89700 42.01800
C  -11.32300 20.17000 41.93400
C  -12.42200 21.07500 41.48300
C  -13.51400 20.22900 41.29300
C  -13.14200 18.84600 41.73000
C  -12.14300 22.58300 41.18600
C  -14.86400 20.75100 40.77400
O  -15.10000 21.95200 40.73900
C  -16.01100 19.75200 40.28500
N  -12.44800 15.88100 42.17100
C  -13.70300 16.40000 42.03300
C  -14.74700 15.29000 41.96700
C  -13.89200 13.99300 42.14700
C  -12.50100 14.50800 42.38700
C  -16.04400 15.49600 42.84800
C  -14.01800 12.91700 41.06100
C  -14.54000 11.45500 41.38200
N  -9.69100 15.41000 42.98800
C  -10.06700 14.05600 42.87900
C  -8.82600 13.22100 42.96800
C  -7.77400 14.13600 42.98100
C  -8.34300 15.45500 42.95500
C  -8.86800 11.71500 42.96300
C  -6.38100 14.27200 43.01500
O  -5.53300 13.38400 43.06500
C  -6.05100 15.80800 42.94900
C  -5.31800 16.33300 44.09700
O  -4.23400 16.91400 44.00300
O  -5.92500 15.87700 45.23600
C  -5.20600 16.07500 46.51800
H  -9.73700 21.61000 42.20100
H  -15.07200 17.89200 41.81500
H  -11.66100 12.56400 42.51200
H  -5.82000 19.05200 43.12600
H  -7.38300 20.75600 41.38500
H  -6.77500 22.31500 43.09900
H  -6.26600 20.91300 44.10400
H  -7.88000 21.50100 44.19500
H  -4.92300 18.01800 41.19900
H  -5.22900 19.74900 40.80100
H  -7.16700 19.01000 39.47000
H  -6.82100 17.24500 39.86800
H  -12.79600 23.00000 40.41900
H  -11.13400 22.64500 40.77900
H  -12.12200 23.17000 42.10400
H  -16.66600 19.57600 41.13900
H  -15.64900 18.77100 39.97900
H  -16.46000 20.18000 39.38800
H  -15.15700 15.35500 40.95900
H  -14.16800 13.58600 43.11900
H  -16.78300 16.01000 42.23400
H  -15.68500 16.06500 43.70600
H  -16.45000 14.52100 43.11800
H  -13.08900 12.59500 40.59300
H  -14.62600 13.28900 40.23600
H  -15.26000 11.17300 40.61300
H  -15.19000 11.39600 42.25500
H  -13.78400 10.67100 41.36000
H  -8.00600 11.26700 42.46900
H  -9.69300 11.31700 42.37100
H  -8.87500 11.42300 44.01400
H  -5.34700 15.93400 42.12600
H  -4.47100 15.27100 46.49500
H  -5.97000 15.75400 47.22700
H  -4.63400 16.96700 46.77100

