158

Mg 47.20400 34.41600 27.67700
C  45.53700 32.62600 30.13100
C  47.51200 37.07900 29.95400
C  48.27500 36.25700 25.24700
C  46.24300 31.84500 25.36700
N  46.59300 34.74600 29.82300
C  45.96400 33.79900 30.63800
C  45.96400 34.25400 32.04900
C  46.32500 35.82400 31.95800
C  46.95100 35.86800 30.51900
C  45.15000 36.85000 32.20300
C  46.97000 33.41400 32.94300
C  46.72800 33.35600 34.50100
H  45.88200 34.51200 35.13700
N  47.77700 36.36400 27.58700
C  47.99400 37.31900 28.64000
C  48.60400 38.47100 28.13100
C  48.95500 38.16700 26.77300
C  48.33800 36.90000 26.49900
C  49.03400 39.63700 29.10300
C  49.77500 38.94200 25.83000
O  49.95400 38.68300 24.63000
C  50.43100 40.25000 26.29100
N  47.23700 34.07300 25.61100
C  47.73300 35.07300 24.80500
C  47.69500 34.57800 23.31200
C  46.94500 33.21300 23.34900
C  46.79200 33.00700 24.84400
C  47.04900 35.64500 22.45200
C  47.60600 32.04600 22.56900
C  48.73900 31.25900 23.31300
N  46.37200 32.46900 27.67900
C  45.95800 31.58600 26.74000
C  45.41600 30.39000 27.33600
C  45.14000 30.84000 28.65300
C  45.70800 32.10200 28.81000
C  44.96900 29.09200 26.67800
C  44.42200 30.50800 29.82400
O  43.79400 29.53400 30.10100
C  44.42100 31.70800 30.74400
C  44.38100 31.27700 32.12900
O  45.22700 30.58400 32.64400
O  43.21800 31.73800 32.70700
C  43.17000 31.75300 34.21300
H  47.43400 37.87500 30.69700
H  48.74800 36.74300 24.39100
H  46.06600 30.96700 24.74300
H  44.93400 34.19100 32.40200
H  47.09700 36.14700 32.65700
H  44.18500 36.34500 32.22700
H  44.99800 37.53300 31.36800
H  45.42300 37.29700 33.16000
H  48.01500 33.71600 32.86900
H  46.92800 32.40700 32.52700
H  47.68000 33.44400 35.02500
H  46.09400 32.52600 34.81500
H  48.54200 40.55100 28.77000
H  50.11700 39.76100 29.11600
H  48.79000 39.46800 30.15200
H  49.79100 40.86800 26.91900
H  50.63200 40.99100 25.51700
H  51.39500 40.00000 26.73600
H  48.73300 34.47600 22.99500
H  45.91800 33.37100 23.02000
H  47.84700 36.19400 21.95200
H  46.32600 36.22300 23.02900
H  46.50200 35.15300 21.64800
H  48.04800 32.45200 21.65900
H  46.90100 31.35500 22.10800
H  48.39800 30.29200 23.68100
H  49.19800 31.76900 24.16000
H  49.72100 31.23800 22.84100
H  44.37200 29.39100 25.81700
H  44.48200 28.46200 27.42300
H  45.87600 28.66000 26.25500
H  43.42100 32.06200 30.49400
H  42.33800 31.12500 34.53100
H  42.90300 32.77800 34.47000
H  44.07500 31.49800 34.76600
Mg 0.07000 43.29600 26.67000
C  2.21700 42.69800 29.39100
C  -2.62700 41.96100 28.48200
C  -1.80400 43.64400 23.91800
C  2.93800 44.14800 24.85800
N  -0.15800 42.41800 28.71000
C  0.84500 42.53000 29.66700
C  0.22000 42.23000 31.02600
C  -1.21200 41.75800 30.59500
C  -1.35000 42.04100 29.15800
C  -1.61800 40.29900 30.74600
C  0.26100 43.24400 32.15500
C  0.61600 42.76600 33.58200
H  0.00800 41.50300 34.12200
N  -1.96800 42.88200 26.29400
C  -2.88100 42.30300 27.11500
C  -4.18400 42.21300 26.47200
C  -3.98300 42.76300 25.14500
C  -2.51800 43.09000 25.08100
C  -5.44100 41.73400 27.09000
C  -4.94200 42.99500 24.01800
O  -4.56500 43.44500 22.93100
C  -6.52600 42.79700 24.23400
N  0.48600 43.84700 24.73900
C  -0.47700 43.99300 23.79900
C  0.01900 44.85000 22.58500
C  1.46100 45.13400 23.03700
C  1.70800 44.24300 24.28300
C  -0.10500 44.19800 21.23200
C  1.69600 46.63700 23.42900
C  1.45400 47.67500 22.39400
N  2.17300 43.41800 27.01400
C  3.18800 43.67800 26.17500
C  4.44300 43.50000 26.83900
C  4.10100 43.11600 28.17200
C  2.75800 43.01100 28.14400
C  5.79400 43.76000 26.32500
C  4.68400 42.77000 29.45700
O  5.88000 42.66100 29.77000
C  3.47100 42.70500 30.36200
C  3.51300 41.49200 31.28400
O  3.18400 40.32600 31.06000
O  3.96300 41.87200 32.52700
C  4.19200 40.84700 33.56000
H  -3.52500 41.63900 29.01400
H  -2.34000 43.85000 22.99000
H  3.85900 44.48100 24.37500
H  0.67700 41.33400 31.44600
H  -1.95500 42.44900 30.99300
H  -0.89100 39.78500 31.37500
H  -1.72100 39.73300 29.82000
H  -2.58500 40.24700 31.24700
H  -0.72800 43.66800 32.32900
H  0.92900 44.06900 31.90700
H  0.55500 43.55700 34.33000
H  1.67100 42.57600 33.38400
H  -6.01000 41.07200 26.43800
H  -6.08700 42.54900 27.41600
H  -5.24000 41.09500 27.95000
H  -6.96100 43.20000 25.14800
H  -6.70200 41.73300 24.07600
H  -7.05500 43.36500 23.46800
H  -0.52500 45.79300 22.54700
H  2.16800 44.92700 22.23400
H  0.90500 44.13800 20.82500
H  -0.64500 44.75500 20.46600
H  -0.50200 43.18500 21.17300
H  2.73200 46.67000 23.76700
H  1.16100 46.98300 24.31400
H  1.05300 47.13100 21.53900
H  2.40300 48.13300 22.11700
H  0.66100 48.37200 22.66800
H  5.77900 43.95100 25.25200
H  6.53000 42.96800 26.46500
H  6.13800 44.63600 26.87400
H  3.32700 43.60800 30.95700
H  5.18600 41.03200 33.96600
H  4.21700 39.78500 33.31400
H  3.51800 41.02500 34.39800

