158

Mg 34.39700 3.25700 30.08000
C  31.99700 3.98700 32.51300
C  36.86800 3.46600 32.45700
C  36.68600 2.82000 27.62700
C  31.90200 3.74200 27.56500
N  34.45000 3.83000 32.26500
C  33.32600 3.91900 33.03700
C  33.76300 3.81600 34.51300
C  35.33900 3.90600 34.47000
C  35.61300 3.63600 32.99200
C  36.07900 5.16600 34.97900
C  33.18400 2.56800 35.15600
C  32.95400 2.58800 36.65200
H  33.72400 3.63100 37.49800
N  36.50200 2.95000 30.05700
C  37.35600 3.22600 31.20800
C  38.74000 3.13900 30.80800
C  38.67100 2.71900 29.46400
C  37.24400 2.81800 28.97500
C  40.00200 3.16300 31.80100
C  39.82300 2.57000 28.47800
O  39.63300 2.15400 27.32300
C  41.24200 2.73300 28.89400
N  34.33000 3.35800 27.86600
C  35.39400 3.05400 27.07600
C  34.96000 3.04700 25.57500
C  33.39500 3.07700 25.68300
C  33.14500 3.42700 27.15800
C  35.55400 4.22800 24.79600
C  32.63600 1.76300 25.15100
C  31.54300 2.03800 24.09500
N  32.35300 3.87400 30.01200
C  31.51900 3.90700 28.92700
C  30.19800 4.11200 29.45700
C  30.29600 4.20300 30.86100
C  31.63800 3.99400 31.15300
C  29.01900 4.37400 28.59300
C  29.57100 4.50600 32.10400
O  28.45200 4.92700 32.28600
C  30.64800 4.30000 33.23000
C  30.73400 5.51000 34.09500
O  30.58100 6.70300 33.73400
O  30.78800 5.14500 35.41500
C  30.49300 6.05700 36.49800
H  37.63500 3.40200 33.23100
H  37.47800 2.65600 26.89200
H  31.18500 3.88900 26.75500
H  33.37400 4.64600 35.10200
H  35.77600 2.99400 34.87500
H  35.29600 5.87900 35.24000
H  36.50400 5.65700 34.10300
H  36.76200 5.07700 35.82400
H  33.92400 1.77400 35.05000
H  32.26600 2.26900 34.65000
H  33.26700 1.64100 37.09300
H  31.89000 2.62000 36.88500
H  40.70400 2.38100 31.51200
H  39.82300 2.78900 32.81000
H  40.50200 4.12000 31.95100
H  41.88700 2.50400 28.04600
H  41.29100 1.91900 29.61700
H  41.51700 3.61200 29.47800
H  35.28000 2.17400 25.00600
H  33.01500 3.88500 25.05900
H  34.82800 4.88900 24.32300
H  36.16800 3.87300 23.96800
H  36.11100 4.86100 25.48700
H  32.15400 1.28900 26.00700
H  33.30400 1.09000 24.61300
H  31.44800 3.08100 23.79300
H  30.61000 1.74100 24.57500
H  31.70000 1.47900 23.17300
H  28.93800 5.43900 28.37900
H  28.13400 4.08700 29.16100
H  29.05000 3.71800 27.72300
H  30.22600 3.44600 33.76000
H  29.49500 6.02000 36.93400
H  30.54200 7.08300 36.13300
H  31.22900 5.84900 37.27500
Mg 30.44700 57.46600 40.53800
C  27.67500 55.67100 39.58700
C  32.44600 55.01900 39.30300
C  33.07300 59.73500 40.35600
C  28.27300 60.32000 41.14700
N  30.01000 55.61500 39.34700
C  28.87400 55.00700 39.22200
C  29.05600 53.63700 38.54600
C  30.57000 53.32100 38.93700
C  31.05200 54.74100 39.22700
C  30.79400 52.33500 40.13600
C  28.71300 53.76000 37.01900
C  27.52500 52.96700 36.46600
H  26.57600 53.59600 35.46600
N  32.48900 57.38500 40.05700
C  33.09300 56.22700 39.67400
C  34.50300 56.44600 39.72900
C  34.74100 57.78800 40.07000
C  33.42700 58.41100 40.18700
C  35.54200 55.38500 39.28000
C  36.12700 58.44400 40.09100
O  37.14300 57.90400 39.66200
C  36.31300 59.77600 40.74400
N  30.59800 59.79300 40.64500
C  31.83900 60.39700 40.66300
C  31.68000 61.86500 41.10000
C  30.12200 61.99600 41.37000
C  29.63100 60.60300 41.05600
C  32.53800 62.31900 42.28200
C  29.43600 62.98500 40.52000
C  28.34300 63.81000 41.10100
N  28.34000 57.86300 40.61800
C  27.62800 59.10400 40.88100
C  26.22600 58.76600 40.82400
C  26.14200 57.42900 40.30300
C  27.49000 56.92400 40.18100
C  25.12100 59.70000 40.97300
C  25.32800 56.28300 39.81200
O  24.16300 56.23800 39.65100
C  26.25200 55.12900 39.44500
C  25.80500 54.02800 40.28900
O  25.85100 53.91300 41.47200
O  25.33200 53.07500 39.54500
C  24.82400 51.83900 40.05100
H  33.09300 54.17300 39.06400
H  33.88500 60.45900 40.45500
H  27.60500 61.12300 41.46300
H  28.39300 52.91800 39.02600
H  30.99200 52.86000 38.04400
H  31.51900 52.71300 40.85700
H  31.37500 51.48600 39.77500
H  29.90100 52.18000 40.74300
H  29.65900 53.49600 36.54700
H  28.43200 54.77600 36.74000
H  26.90300 52.56700 37.26600
H  27.95400 52.08700 35.98700
H  35.95800 55.62300 38.30000
H  35.07600 54.40000 39.27900
H  36.33000 55.28900 40.02600
H  35.53300 59.79800 41.50500
H  36.18500 60.51800 39.95600
H  37.32600 59.87300 41.13400
H  31.90400 62.60000 40.32600
H  29.90200 62.21100 42.41500
H  32.08500 62.54800 43.24600
H  32.98400 63.27100 41.99400
H  33.34300 61.60900 42.47300
H  28.99800 62.53500 39.62900
H  30.13900 63.69800 40.09000
H  28.03800 63.40500 42.06600
H  27.50500 63.84500 40.40500
H  28.61500 64.83000 41.37400
H  24.37000 59.13800 41.52900
H  24.89800 60.05000 39.96500
H  25.53200 60.52400 41.55500
H  26.01900 54.86800 38.41300
H  23.75600 51.63500 39.97700
H  25.02700 51.66900 41.10900
H  25.28200 50.99100 39.54300

