158

Mg 47.51000 25.81800 28.17500
C  48.41500 28.10000 30.65500
C  46.40000 23.66800 30.51700
C  46.64000 23.73800 25.66900
C  48.79600 28.08600 25.79700
N  47.36200 25.93100 30.38200
C  47.66000 27.04400 31.16800
C  47.13300 26.82600 32.64800
C  46.69800 25.28800 32.60200
C  46.82800 24.88900 31.05600
C  47.43500 24.30800 33.57500
C  45.99500 27.89900 33.11700
C  45.27800 27.48000 34.36900
H  45.18400 28.50000 35.59900
N  46.64500 23.91100 28.12200
C  46.30400 23.12100 29.15100
C  45.79600 21.81300 28.72400
C  45.83600 21.83500 27.25400
C  46.37400 23.17600 26.92800
C  45.27000 20.76800 29.66500
C  45.39200 20.77100 26.18600
O  45.46100 20.88900 24.98900
C  44.79600 19.51500 26.68500
N  47.78700 25.86700 26.09000
C  47.12300 24.97900 25.27300
C  47.10600 25.40600 23.78600
C  47.81100 26.81100 23.82700
C  48.20200 26.91800 25.32100
C  47.78200 24.42400 22.78200
C  46.93600 27.95900 23.26900
C  47.05600 28.27900 21.77200
N  48.67300 27.58500 28.18700
C  49.07400 28.40900 27.17300
C  49.66300 29.60300 27.67400
C  49.50100 29.50600 29.03600
C  48.82000 28.27300 29.31700
C  50.25900 30.74200 26.84000
C  49.75600 30.21500 30.28400
O  50.24100 31.28200 30.49400
C  48.96100 29.37000 31.36800
C  49.78300 29.00800 32.54100
O  50.71100 28.26500 32.50500
O  49.36500 29.71600 33.64500
C  50.14800 29.55500 34.93400
H  46.05400 23.04700 31.34600
H  46.26900 23.02300 24.93100
H  49.11000 28.76000 24.99800
H  47.96700 26.95100 33.33800
H  45.66100 25.23900 32.93300
H  47.57100 23.34900 33.07500
H  46.84700 24.05000 34.45600
H  48.46300 24.59300 33.80200
H  45.25000 28.09500 32.34600
H  46.50300 28.83900 33.33400
H  45.63600 26.55600 34.82400
H  44.28000 27.10500 34.14500
H  44.18700 20.63900 29.65800
H  45.56800 20.87300 30.70800
H  45.68900 19.79800 29.40000
H  44.00900 19.87000 27.35100
H  45.60700 19.03800 27.23500
H  44.36400 18.90000 25.89500
H  46.07600 25.55600 23.46200
H  48.67100 26.76400 23.15900
H  48.27700 23.63100 23.34300
H  48.45300 24.89000 22.06000
H  46.97600 23.84800 22.32700
H  47.09000 28.85800 23.86600
H  45.87900 27.75100 23.43900
H  47.79400 27.63900 21.28600
H  47.40900 29.29700 21.61100
H  46.08800 28.29000 21.27200
H  50.41200 31.59100 27.50700
H  49.54300 31.00800 26.06200
H  51.20000 30.35800 26.44500
H  48.15800 30.00800 31.73700
H  49.40800 29.15100 35.62500
H  50.53000 30.48400 35.35700
H  51.02200 28.94400 34.70800
Mg -10.55000 37.75000 41.40600
C  -8.28600 35.05200 40.99700
C  -8.26500 39.75700 39.54700
C  -12.86900 40.20900 41.22300
C  -12.83800 35.56500 42.65200
N  -8.54400 37.38000 40.22400
C  -7.85400 36.19000 40.31900
C  -6.57000 36.30300 39.39700
C  -6.42400 37.86100 39.18600
C  -7.81900 38.40100 39.70000
C  -5.23200 38.62300 39.85200
C  -6.64600 35.51100 38.02100
C  -5.36900 34.79800 37.53200
H  -4.57100 35.57100 36.47100
N  -10.50500 39.70900 40.66900
C  -9.47800 40.34300 39.89700
C  -9.87000 41.76200 39.79300
C  -11.14200 41.96800 40.42000
C  -11.58500 40.58600 40.79200
C  -9.00600 42.76400 39.04500
C  -11.92300 43.28200 40.45600
O  -11.38900 44.35800 40.10900
C  -13.39500 43.32100 40.62800
N  -12.66100 37.83500 41.65800
C  -13.37700 38.96300 41.58300
C  -14.74400 38.76000 42.24700
C  -14.74200 37.25500 42.76700
C  -13.33400 36.86000 42.41000
C  -15.16800 39.63000 43.49100
C  -15.76100 36.40700 42.07200
C  -16.79500 35.53800 42.83200
N  -10.62600 35.69900 41.86000
C  -11.58100 34.93700 42.43900
C  -11.12700 33.57000 42.54800
C  -9.84700 33.59700 41.99900
C  -9.62200 34.93400 41.62500
C  -11.74200 32.37000 43.18600
C  -8.73000 32.81000 41.73500
O  -8.51500 31.64000 41.97400
C  -7.66200 33.62600 41.01500
C  -6.29600 33.48600 41.83200
O  -5.55300 32.53100 41.69100
O  -6.03600 34.65000 42.49200
C  -4.84400 34.59200 43.33100
H  -7.62600 40.46800 39.02000
H  -13.55700 41.03700 41.40500
H  -13.54700 34.86400 43.09800
H  -5.73100 35.92600 39.98200
H  -6.31300 38.00000 38.11100
H  -4.61500 37.82700 40.26900
H  -5.43600 39.34100 40.64600
H  -4.83900 39.19000 39.00700
H  -7.11300 36.18000 37.29800
H  -7.37500 34.70700 38.12300
H  -5.56200 33.78400 37.18400
H  -4.72900 34.77700 38.41500
H  -8.13300 42.29500 38.59200
H  -8.66000 43.42000 39.84400
H  -9.48600 43.31600 38.23700
H  -13.67900 43.17700 41.67100
H  -13.90900 42.63700 39.95300
H  -13.65300 44.35500 40.40100
H  -15.40400 38.87700 41.38700
H  -14.81600 37.10900 43.84400
H  -15.51500 40.55300 43.02700
H  -14.28500 40.12200 43.90000
H  -15.95000 39.27100 44.16000
H  -15.16400 35.76300 41.42600
H  -16.48100 37.04700 41.56300
H  -16.59300 35.45500 43.90000
H  -16.75400 34.50300 42.49200
H  -17.83100 35.80800 42.63000
H  -12.82800 32.42800 43.11600
H  -11.51800 32.25100 44.24600
H  -11.50300 31.42700 42.69400
H  -7.33000 33.21500 40.06100
H  -4.42600 35.55700 43.61900
H  -3.94600 34.14600 42.90400
H  -5.13200 34.05300 44.23400

