158

Mg 35.54500 48.47500 25.31300
C  36.02300 46.48700 28.20100
C  34.43800 50.95100 27.28600
C  34.62000 49.94700 22.52100
C  36.90900 45.78100 23.35000
N  35.27100 48.68100 27.52600
C  35.57200 47.80000 28.51200
C  35.23900 48.39900 29.94700
C  34.77100 49.80200 29.57500
C  34.80600 49.81100 27.99300
C  33.41800 50.20400 30.20500
C  36.50500 48.48000 30.90700
C  36.26000 48.37200 32.41600
H  34.85300 48.64800 32.87500
N  34.80700 50.29600 24.91600
C  34.34400 51.17800 25.86600
C  33.85000 52.37400 25.15200
C  33.90600 52.11800 23.74700
C  34.43900 50.74200 23.65300
C  33.62500 53.66700 25.84800
C  33.70600 52.97200 22.51400
O  33.95900 52.63700 21.34000
C  33.21700 54.42800 22.61400
N  35.76100 47.95000 23.19600
C  35.22400 48.76200 22.24100
C  35.61700 48.18100 20.82700
C  36.62100 46.98300 21.11000
C  36.45500 46.86700 22.65500
C  34.34400 47.95000 19.99200
C  38.10800 47.13700 20.66900
C  38.93300 48.23800 21.35700
N  36.30900 46.53400 25.64500
C  36.75300 45.51000 24.77500
C  36.93000 44.29700 25.47000
C  36.61800 44.62200 26.83600
C  36.32300 46.02200 26.86400
C  37.34900 43.01500 24.79900
C  36.52600 44.00900 28.18700
O  36.57000 42.87700 28.57400
C  36.21300 45.28200 29.14700
C  35.07200 44.83000 29.95700
O  33.93200 44.82100 29.55900
O  35.36600 44.53300 31.20600
C  34.33300 44.42500 32.18500
H  34.21600 51.76700 27.97700
H  34.29600 50.29200 21.53600
H  37.42500 45.05300 22.72200
H  34.37700 47.89100 30.38000
H  35.50700 50.49900 29.97900
H  33.47000 51.18000 30.69000
H  33.01300 49.41700 30.84100
H  32.67300 50.32500 29.41900
H  37.08300 49.34300 30.57600
H  37.09000 47.58100 30.71300
H  36.97100 49.09600 32.81200
H  36.65900 47.40200 32.71400
H  34.16800 54.46700 25.34500
H  34.22100 53.52100 26.74900
H  32.58300 53.94700 25.99800
H  34.11300 55.04800 22.62000
H  32.56100 54.55300 23.47600
H  32.48400 54.57500 21.82100
H  36.05100 49.04200 20.31800
H  36.17400 46.09100 20.67100
H  33.85200 48.90400 19.80300
H  33.70400 47.25400 20.53400
H  34.79100 47.62100 19.05400
H  37.91100 47.51600 19.66600
H  38.65300 46.20400 20.53000
H  39.92200 47.88600 21.65300
H  38.43600 48.54000 22.27900
H  39.17000 49.08100 20.70900
H  36.60300 42.57600 24.13600
H  37.61300 42.45300 25.69500
H  38.30500 43.16400 24.29800
H  37.07800 45.50700 29.77100
H  33.45700 43.90300 31.80100
H  34.06000 45.43400 32.49500
H  34.74100 43.84800 33.01500
Mg 0.53400 42.45700 26.23900
C  1.83300 42.41800 29.51700
C  -2.28400 41.12700 27.37800
C  -0.21500 41.64800 23.11200
C  3.97800 43.09800 25.15500
N  -0.06300 41.77800 28.17100
C  0.48100 42.02600 29.40300
C  -0.45400 41.87200 30.58500
C  -1.72900 41.21800 29.89800
C  -1.38600 41.36300 28.37400
C  -1.97400 39.66400 30.15300
C  -0.80800 43.29800 31.21600
C  -0.50000 43.49400 32.75000
H  -0.71000 42.37500 33.74700
N  -1.14400 41.71900 25.34100
C  -2.26400 41.20600 26.00900
C  -3.28300 40.94100 25.00700
C  -2.61000 41.01200 23.70500
C  -1.27300 41.49500 23.97800
C  -4.69300 40.50300 25.46300
C  -3.22700 40.55800 22.34000
O  -2.59300 40.71300 21.33000
C  -4.71100 40.24300 22.30600
N  1.79700 42.27600 24.44700
C  1.13700 42.05700 23.27000
C  2.05700 42.37200 22.08800
C  3.22900 43.21100 22.71800
C  2.98300 42.87000 24.22300
C  2.32800 41.11200 21.17700
C  3.27200 44.81200 22.45700
C  4.11600 45.16700 21.21400
N  2.50700 42.76300 27.13200
C  3.76000 43.11100 26.56100
C  4.74400 43.17400 27.62500
C  4.07100 42.94200 28.84500
C  2.69700 42.68400 28.44400
C  6.19900 43.43300 27.54700
C  4.16900 42.88000 30.26800
O  5.13000 43.03600 31.03000
C  2.68500 42.68900 30.71900
C  2.83900 41.56600 31.64300
O  3.00200 40.39100 31.30300
O  3.01000 42.00700 32.95400
C  3.25000 40.94800 33.97400
H  -3.21000 40.80500 27.85800
H  -0.42300 41.33800 22.08600
H  4.95900 43.43400 24.81200
H  0.07300 41.28200 31.33500
H  -2.66900 41.74100 30.07600
H  -1.61900 39.35700 31.13700
H  -1.52600 39.04400 29.37700
H  -3.03800 39.44700 30.04800
H  -1.87600 43.44800 31.05200
H  -0.31800 44.09000 30.65000
H  -1.02300 44.37600 33.12000
H  0.57700 43.63700 32.82900
H  -4.88600 40.85900 26.47500
H  -4.66500 39.41300 25.47100
H  -5.54300 40.98700 24.98200
H  -4.93600 39.39900 22.95800
H  -4.97600 39.88000 21.31300
H  -5.32500 41.08000 22.63800
H  1.58000 43.13500 21.47400
H  4.15200 42.72100 22.40900
H  1.99700 40.27000 21.78500
H  3.37700 41.05700 20.88500
H  1.78800 41.21800 20.23600
H  3.55100 45.41400 23.32200
H  2.27200 45.09000 22.12200
H  3.53500 45.73300 20.48600
H  4.56400 44.26500 20.79700
H  4.88300 45.83900 21.59900
H  6.38100 44.48900 27.74500
H  6.65500 43.12300 26.60600
H  6.77400 42.87400 28.28600
H  2.33600 43.56400 31.26700
H  2.92700 39.96700 33.62500
H  2.66300 41.07300 34.88400
H  4.29600 40.79100 34.23700

