158

Mg 36.93200 49.16800 24.82600
C  37.00900 47.03600 27.58600
C  35.75500 51.60900 26.75100
C  36.16500 50.79000 21.91100
C  38.10200 46.40800 22.89000
N  36.26100 49.19900 26.89300
C  36.55700 48.32900 27.91100
C  36.10900 48.93800 29.26000
C  35.56200 50.31700 28.92800
C  35.90200 50.40400 27.43700
C  34.07800 50.66400 29.27600
C  37.44200 48.92600 30.17400
C  37.30600 48.71600 31.68500
H  35.91200 48.79000 32.29500
N  36.22700 51.02100 24.37100
C  35.84900 51.89500 25.33500
C  35.58100 53.16900 24.73200
C  35.49800 52.87900 23.29300
C  35.86400 51.49100 23.15500
C  35.27000 54.47400 25.46300
C  35.05100 53.81100 22.16500
O  34.97100 53.35400 21.02600
C  34.64500 55.25900 22.31400
N  36.87300 48.56400 22.68200
C  36.60000 49.44100 21.68100
C  37.04000 48.88900 20.33600
C  37.66000 47.44000 20.66900
C  37.48100 47.44300 22.20400
C  35.96700 48.79000 19.26700
C  39.19100 47.33900 20.17800
C  40.21500 48.26800 20.91000
N  37.49800 47.08500 25.03100
C  38.01900 46.13400 24.20500
C  38.15300 44.82700 24.95100
C  37.79500 45.20100 26.29200
C  37.35000 46.52000 26.24100
C  38.56300 43.47800 24.31600
C  37.63700 44.73200 27.77300
O  37.91500 43.64900 28.27900
C  37.26200 46.00900 28.63300
C  36.08300 45.53200 29.51900
O  34.91300 45.42100 29.18400
O  36.53200 45.19900 30.77100
C  35.56300 44.84700 31.77000
H  35.31900 52.39400 27.37200
H  36.07300 51.36500 20.98700
H  38.57500 45.58700 22.34600
H  35.31200 48.34600 29.71200
H  36.14100 51.05700 29.48100
H  33.40600 51.02200 28.49500
H  34.09100 51.30700 30.15600
H  33.61900 49.72300 29.57900
H  37.87600 49.92500 30.11800
H  38.21700 48.20200 29.92400
H  37.83100 49.44100 32.30700
H  37.55300 47.67800 31.90700
H  34.26700 54.89100 25.37500
H  35.88800 55.12500 24.84400
H  35.75700 54.37100 26.43300
H  34.04800 55.59500 21.46700
H  35.55200 55.86000 22.38600
H  34.02200 55.44500 23.18900
H  37.79800 49.50800 19.85500
H  37.09700 46.58500 20.29600
H  34.90900 48.81400 19.53000
H  36.06000 47.80200 18.81600
H  36.10700 49.49600 18.44900
H  39.21600 47.56600 19.11200
H  39.54100 46.30700 20.19900
H  40.95800 48.68700 20.23200
H  40.55200 47.67000 21.75600
H  39.60300 49.05400 21.35400
H  39.21800 43.65800 23.46300
H  37.71500 42.91700 23.92300
H  39.05700 43.02200 25.17400
H  38.05600 46.38900 29.27700
H  36.10400 44.91900 32.71300
H  35.23100 43.82100 31.61200
H  34.68200 45.48900 31.75900
Mg 9.71400 47.67900 25.69600
C  7.88600 48.04300 28.65800
C  12.39000 49.06000 27.35200
C  11.40900 47.33400 22.88900
C  6.86600 46.70300 24.08300
N  10.10200 48.38600 27.83100
C  9.24400 48.35300 28.92000
C  9.95000 48.84200 30.26200
C  11.24100 49.39900 29.64700
C  11.28800 48.84900 28.19800
C  11.28300 50.95800 29.68500
C  10.22200 47.63400 31.28500
C  9.56400 47.84700 32.71700
H  9.17900 46.67000 33.60800
N  11.65200 48.11900 25.15000
C  12.59300 48.67500 25.98600
C  13.86700 48.82800 25.28900
C  13.61400 48.28200 23.95700
C  12.20100 47.85300 23.94600
C  15.14200 49.24400 25.94000
C  14.57500 48.17500 22.80900
O  14.35200 47.77500 21.64100
C  15.98900 48.70300 22.99400
N  9.14500 47.16500 23.77500
C  10.08500 46.99100 22.74600
C  9.47800 46.45000 21.46900
C  8.09100 46.02600 21.94200
C  8.01300 46.59300 23.37900
C  9.58400 47.60300 20.43900
C  7.92600 44.47600 22.13500
C  8.87600 43.62300 23.00000
N  7.79100 47.44900 26.23000
C  6.66700 47.09900 25.42500
C  5.44300 47.28600 26.16300
C  5.88100 47.58600 27.47900
C  7.32700 47.73300 27.47300
C  4.01300 47.08700 25.71500
C  5.46500 47.88700 28.89600
O  4.35800 47.93100 29.33600
C  6.71900 48.18600 29.66000
C  6.67100 47.15900 30.71800
O  7.24300 46.02700 30.60500
O  5.98500 47.64200 31.81000
C  5.41500 46.64500 32.65100
H  13.23300 49.51500 27.87600
H  11.92300 47.19600 21.93500
H  5.95800 46.35700 23.58400
H  9.35800 49.60400 30.76800
H  12.10500 49.04400 30.20800
H  10.38100 51.27600 30.20900
H  11.24900 51.29600 28.65000
H  12.19300 51.29900 30.17900
H  11.27800 47.54400 31.53700
H  9.89700 46.71200 30.80300
H  8.60100 48.32500 32.53400
H  10.33500 48.52300 33.08800
H  15.86400 48.44600 26.11400
H  14.94100 49.50000 26.98000
H  15.75100 50.01900 25.47500
H  15.92000 49.75900 23.25600
H  16.64400 48.59700 22.12900
H  16.47200 48.16900 23.81300
H  10.07300 45.59000 21.16100
H  7.30500 46.49100 21.34800
H  10.15800 48.41300 20.88900
H  8.54800 47.82800 20.18700
H  10.10300 47.18200 19.57700
H  8.23100 44.04900 21.17900
H  6.87900 44.20000 22.26300
H  9.42900 42.90400 22.39600
H  8.31700 43.11100 23.78300
H  9.67400 44.17200 23.50000
H  3.39300 47.97500 25.58900
H  3.48200 46.58500 26.52400
H  4.09200 46.38400 24.88600
H  6.69400 49.17800 30.10900
H  4.86000 47.04400 33.49900
H  6.27000 46.12100 33.07800
H  4.79500 45.96900 32.06300

