158

Mg 30.13500 57.32600 38.89300
C  27.22200 55.62300 37.95300
C  31.93300 54.53100 38.20300
C  32.92600 59.21000 38.43300
C  28.24800 60.27000 39.12300
N  29.56600 55.36300 38.26100
C  28.34400 54.85700 37.91600
C  28.40200 53.28900 37.72800
C  29.88100 52.98800 38.17100
C  30.52100 54.33400 38.20600
C  30.00700 52.07000 39.44400
C  28.09300 52.79100 36.24000
C  28.82400 53.57400 35.16400
H  27.93400 54.53200 34.35200
N  32.23700 56.90300 38.57100
C  32.70800 55.69700 38.29300
C  34.12500 55.78400 38.00700
C  34.46800 57.13500 38.09600
C  33.22600 57.84500 38.40200
C  35.07500 54.56400 37.68300
C  35.80500 57.72600 37.77200
O  36.74800 56.93100 37.74200
C  36.14600 59.08700 37.62700
N  30.51300 59.41000 38.81100
C  31.77200 59.95100 38.70400
C  31.76400 61.49800 38.68000
C  30.30200 61.82500 39.17000
C  29.62800 60.41300 38.98800
C  32.92000 62.12000 39.62200
C  29.65100 63.06000 38.44400
C  29.42400 64.32200 39.30800
N  28.04600 57.89500 38.72600
C  27.48000 59.13700 38.87900
C  25.99300 59.02100 38.72700
C  25.88700 57.59400 38.38100
C  27.13000 56.99600 38.33500
C  24.96400 60.14300 38.74600
C  24.93700 56.52900 38.13600
O  23.72000 56.61700 38.12200
C  25.75500 55.27100 37.69500
C  25.40100 54.19000 38.66400
O  25.36900 54.25700 39.91100
O  25.10500 53.10400 37.94600
C  24.59500 51.95700 38.69500
H  32.41800 53.55800 38.10000
H  33.71700 59.96200 38.42100
H  27.85700 61.26300 39.35600
H  27.59200 52.92500 38.36000
H  30.34600 52.39900 37.38000
H  30.39400 52.66700 40.27000
H  30.74100 51.29600 39.21800
H  29.00400 51.69200 39.64400
H  27.02300 52.95800 36.12000
H  28.35100 51.73700 36.13600
H  29.22200 52.83900 34.46300
H  29.66200 54.12400 35.59200
H  35.55000 54.76100 36.72200
H  34.60100 53.58900 37.56900
H  35.81000 54.41100 38.47400
H  36.56300 59.42500 38.57600
H  35.26400 59.65400 37.32800
H  36.77000 59.27200 36.75200
H  31.84500 61.86100 37.65500
H  30.32700 61.97700 40.24900
H  33.25300 61.28000 40.23100
H  32.63800 62.80700 40.42000
H  33.77900 62.44700 39.03600
H  28.71700 62.58700 38.14000
H  30.28100 63.45000 37.64500
H  30.06600 64.26900 40.18700
H  28.38100 64.24500 39.61600
H  29.50900 65.16100 38.61700
H  24.45500 60.21700 37.78400
H  25.59200 61.02700 38.85000
H  24.19400 60.19700 39.51500
H  25.50200 55.04400 36.65900
H  24.05300 52.28900 39.58100
H  25.43200 51.34100 39.02500
H  24.01600 51.23000 38.12600
Mg -11.56400 38.52300 42.37500
C  -9.50600 35.81200 41.86900
C  -9.08100 40.50300 40.95900
C  -13.70200 41.17700 42.22100
C  -14.08500 36.40100 43.33000
N  -9.66700 38.16100 41.18700
C  -9.00900 36.95000 41.23000
C  -7.68600 37.01000 40.48200
C  -7.40700 38.52400 40.53100
C  -8.80600 39.09700 40.88300
C  -6.23300 38.98600 41.63000
C  -7.92000 36.35000 39.07900
C  -6.81400 35.64200 38.23800
H  -6.32600 36.36500 36.96300
N  -11.38000 40.60900 41.87500
C  -10.23100 41.19200 41.36900
C  -10.52900 42.60700 41.06600
C  -11.90600 42.86300 41.35600
C  -12.35800 41.55800 41.83100
C  -9.49600 43.57800 40.29400
C  -12.72800 44.07300 41.19600
O  -12.21400 45.15500 40.72900
C  -14.27200 44.16700 41.29300
N  -13.62700 38.74800 42.57300
C  -14.25100 39.94000 42.61300
C  -15.56000 39.81900 43.34400
C  -15.78000 38.25800 43.45900
C  -14.42000 37.73300 43.02000
C  -15.49200 40.64400 44.68500
C  -17.02900 37.64200 42.65200
C  -17.79700 36.66900 43.39900
N  -11.84100 36.51500 42.66600
C  -12.85700 35.80800 43.11200
C  -12.41900 34.51800 43.46400
C  -11.06300 34.38000 42.98600
C  -10.81900 35.69200 42.41100
C  -13.30900 33.39600 44.09200
C  -9.93100 33.58500 42.82900
O  -9.88500 32.41900 43.09900
C  -8.85200 34.43000 41.98500
C  -7.62900 34.44500 42.92300
O  -7.61100 34.62400 44.11700
O  -6.55000 34.10400 42.19600
C  -5.32600 33.89800 43.00000
H  -8.37600 41.22100 40.53500
H  -14.39700 41.99800 42.40900
H  -14.80100 35.75300 43.84000
H  -6.85700 36.49100 40.96200
H  -7.01600 38.88200 39.57900
H  -5.26600 39.14000 41.15200
H  -6.12400 38.23600 42.41300
H  -6.42400 39.94800 42.10500
H  -8.22500 37.22500 38.50600
H  -8.84500 35.77400 39.10500
H  -7.22400 34.65800 38.01100
H  -5.94900 35.62000 38.90100
H  -8.64900 43.01300 39.90300
H  -9.33600 44.43600 40.94800
H  -10.00300 43.98500 39.42000
H  -14.63100 43.35200 40.66500
H  -14.70600 45.14000 41.06700
H  -14.53000 44.06100 42.34700
H  -16.30300 40.18500 42.63500
H  -15.94800 38.07400 44.52000
H  -15.93400 40.14700 45.54900
H  -15.99000 41.61300 44.65100
H  -14.43900 40.85200 44.87300
H  -16.61100 37.16800 41.76400
H  -17.74600 38.39100 42.31600
H  -18.84500 36.93900 43.27400
H  -17.70200 36.75700 44.48100
H  -17.69000 35.64700 43.03500
H  -12.71200 32.53500 44.39200
H  -14.17200 33.08100 43.50600
H  -13.81800 33.83100 44.95200
H  -8.83900 34.03500 40.97000
H  -5.48200 33.02500 43.63300
H  -5.09500 34.65400 43.75100
H  -4.47200 33.67700 42.36100

