158

Mg 43.95000 5.08700 46.82500
C  42.10900 7.99100 46.90900
C  41.20000 3.20100 46.65600
C  45.95200 2.35800 46.32000
C  46.91900 7.08300 46.99900
N  41.88500 5.59300 46.75800
C  41.34400 6.83500 46.79400
C  39.78600 6.74200 46.76800
C  39.48200 5.19800 46.75100
C  40.87000 4.59600 46.73400
C  38.49400 4.69700 47.86000
C  39.04000 7.62800 45.69300
C  39.74300 7.40300 44.25000
H  38.96200 6.74400 43.12800
N  43.61900 3.04500 46.49600
C  42.42100 2.41900 46.47700
C  42.56600 1.00900 46.21700
C  43.92200 0.74600 46.00600
C  44.56300 2.11500 46.21600
C  41.37600 0.01200 46.02600
C  44.54000 -0.50800 45.45400
O  43.84600 -1.42700 45.22200
C  45.91700 -0.72100 45.15900
N  46.12900 4.77200 46.76000
C  46.61100 3.56300 46.49700
C  48.17600 3.61100 46.43000
C  48.48000 5.00300 47.01800
C  47.10500 5.68000 46.93700
C  48.92000 2.48900 47.03000
C  49.64700 5.77300 46.23300
C  50.93400 6.10400 46.98900
N  44.43900 7.09800 46.74000
C  45.67400 7.76100 46.92100
C  45.51500 9.16700 47.11700
C  44.12600 9.32400 47.15300
C  43.50300 8.07600 46.83700
C  46.64000 10.20500 47.33600
C  43.01300 10.26300 47.35300
O  42.98000 11.47000 47.59800
C  41.72500 9.42800 47.10100
C  40.83700 9.56400 48.23100
O  40.89700 8.98500 49.31300
O  39.95000 10.55800 47.96200
C  38.99100 10.99700 48.96200
H  40.26600 2.63600 46.63200
H  46.36800 1.36800 46.11900
H  47.83600 7.64500 47.18500
H  39.48700 7.14000 47.73700
H  39.22000 4.80100 45.77000
H  37.51200 4.53500 47.41600
H  38.40400 5.48700 48.60600
H  38.84600 3.87400 48.48200
H  39.02500 8.65100 46.07100
H  38.05100 7.17300 45.73200
H  40.78400 7.08600 44.31100
H  39.86400 8.40200 43.83100
H  41.53800 -0.57600 45.12200
H  40.40000 0.49600 46.00700
H  41.44200 -0.79200 46.75900
H  46.06200 -1.72700 44.76600
H  46.44900 -0.58100 46.10000
H  46.26200 -0.00800 44.40900
H  48.39600 3.42600 45.37900
H  48.70400 4.99900 48.08400
H  48.28400 1.99300 47.76200
H  49.75800 2.91800 47.57900
H  49.20300 1.82700 46.21200
H  49.28000 6.66500 45.72500
H  49.78200 5.05800 45.42000
H  51.00000 7.19200 46.95600
H  51.71700 5.56800 46.45300
H  50.91800 5.75800 48.02200
H  46.37300 11.26100 47.28800
H  47.40500 10.08800 46.56900
H  47.09400 10.07900 48.31900
H  41.27400 10.01300 46.29900
H  38.05100 10.73100 48.47900
H  38.97800 12.07200 49.14600
H  39.07100 10.54000 49.94800
Mg -11.06600 39.09400 41.23300
C  -9.45100 35.94300 40.86600
C  -8.32900 40.55000 39.67500
C  -12.95200 41.87100 40.75200
C  -13.95700 37.34700 42.05800
N  -9.07300 38.35400 40.39100
C  -8.67500 37.04200 40.40400
C  -7.36500 36.85100 39.60500
C  -6.96900 38.37000 39.43200
C  -8.19100 39.20800 39.86800
C  -5.55500 38.81700 40.02900
C  -7.64700 36.02800 38.23200
C  -6.96600 34.71200 37.95400
H  -5.87800 34.85100 36.84700
N  -10.61100 41.00900 40.52500
C  -9.45100 41.38000 39.96400
C  -9.53100 42.81000 39.73000
C  -10.88300 43.24300 39.85700
C  -11.55100 42.05200 40.38700
C  -8.35000 43.59400 39.20400
C  -11.38600 44.59900 39.62300
O  -10.66200 45.55000 39.16300
C  -12.80900 44.86500 39.69300
N  -13.10800 39.53800 41.54200
C  -13.66700 40.78600 41.34100
C  -15.20200 40.86100 41.61900
C  -15.50000 39.39200 42.05600
C  -14.09300 38.72700 41.89000
C  -15.56400 41.96500 42.66900
C  -16.78200 38.78600 41.27000
C  -18.09700 38.94000 41.99800
N  -11.54800 37.13900 41.55000
C  -12.78000 36.61400 41.91500
C  -12.67800 35.15500 42.13900
C  -11.36800 34.81800 41.80700
C  -10.78200 36.10200 41.34700
C  -13.71200 34.25800 42.84600
C  -10.28100 33.81900 41.70500
O  -10.34700 32.64100 42.10900
C  -9.08800 34.52300 40.98800
C  -7.95700 34.28000 41.94600
O  -7.25600 33.34300 41.82300
O  -7.84700 35.31800 42.80900
C  -6.56600 35.35600 43.50000
H  -7.44100 41.05200 39.28600
H  -13.67100 42.64100 40.46200
H  -14.75900 36.70200 42.42300
H  -6.65000 36.29300 40.21000
H  -6.84400 38.47000 38.35400
H  -4.94200 38.02300 40.45500
H  -5.72300 39.25400 41.01300
H  -5.06300 39.52600 39.36400
H  -7.36600 36.70100 37.42300
H  -8.72000 35.86800 38.12300
H  -7.63200 33.95000 37.55000
H  -6.46800 34.33100 38.84600
H  -8.37100 44.64600 39.48900
H  -8.22400 43.56500 38.12100
H  -7.49300 43.16100 39.72000
H  -13.15000 44.17000 38.92600
H  -13.16100 45.86100 39.42200
H  -13.23700 44.68800 40.68000
H  -15.74200 41.07900 40.69800
H  -15.75100 39.32900 43.11500
H  -16.03700 41.56000 43.56400
H  -16.27700 42.68100 42.25900
H  -14.68200 42.56900 42.88000
H  -16.63600 37.71400 41.13700
H  -16.64200 39.15000 40.25300
H  -18.74400 39.41700 41.26200
H  -18.09600 39.53400 42.91200
H  -18.48900 37.96800 42.29800
H  -13.50300 34.20100 43.91500
H  -13.52600 33.27600 42.41100
H  -14.76200 34.45900 42.63200
H  -8.90900 34.04400 40.02500
H  -6.27800 36.39300 43.32700
H  -5.71800 34.90300 42.98600
H  -6.62200 35.16400 44.57100

