158

Mg 54.34100 24.33100 44.80200
C  51.74000 26.61200 43.99200
C  52.51400 21.80000 43.32600
C  57.17400 22.51000 44.58200
C  56.28500 27.17500 45.45400
N  52.32600 24.24400 43.79800
C  51.44300 25.30200 43.50400
C  50.32400 24.76300 42.62400
C  50.36600 23.24000 42.86200
C  51.80000 23.01100 43.40400
C  49.31000 22.64400 43.88600
C  50.34100 25.22600 41.16600
C  51.65300 25.78500 40.66100
H  52.57600 24.81800 39.87100
N  54.77700 22.36600 44.13500
C  53.86100 21.53600 43.59100
C  54.62500 20.32800 43.21000
C  55.96500 20.38300 43.71700
C  56.02900 21.76700 44.12900
C  53.91800 19.19600 42.41000
C  57.02300 19.25800 43.65300
O  56.69200 18.11400 43.27600
C  58.54100 19.49200 43.83000
N  56.51400 24.78900 44.83700
C  57.38800 23.83700 44.88300
C  58.83200 24.34300 45.21200
C  58.54200 25.86400 45.55100
C  56.97500 25.96700 45.22100
C  59.56400 23.71900 46.41900
C  59.36200 26.97100 44.89900
C  58.91600 27.61800 43.56500
N  54.02900 26.44600 44.96100
C  54.91900 27.48000 45.32700
C  54.18600 28.72000 45.47300
C  52.94800 28.46300 44.87000
C  52.92300 27.04600 44.57400
C  54.70300 29.97800 46.10400
C  51.59800 29.01300 44.64400
O  51.07000 30.13200 44.83400
C  50.88400 27.84900 43.89700
C  50.55800 28.35400 42.55100
O  51.38000 28.87200 41.82600
O  49.23900 28.18000 42.27500
C  48.78300 28.51300 40.84800
H  52.03400 20.90000 42.93700
H  58.14800 22.01700 44.60800
H  57.00300 27.98500 45.60000
H  49.45200 25.18000 43.12800
H  50.31500 22.68400 41.92600
H  48.84700 21.74800 43.47200
H  48.60700 23.45200 44.08900
H  49.78800 22.34100 44.81700
H  49.49200 25.89700 41.03200
H  50.31200 24.39400 40.46200
H  52.27900 26.26200 41.41500
H  51.43700 26.56700 39.93300
H  54.64300 18.63300 41.82300
H  53.21900 19.50600 41.63200
H  53.44500 18.59300 43.18400
H  58.73200 20.44100 43.32900
H  59.04900 18.67600 43.31500
H  58.58800 19.54100 44.91800
H  59.48800 24.41400 44.34400
H  58.60500 26.03900 46.62500
H  60.39700 23.13800 46.02200
H  58.81800 23.02900 46.81500
H  59.99500 24.40100 47.15200
H  60.31700 26.47000 44.73900
H  59.65000 27.77400 45.57800
H  59.49800 27.23800 42.72500
H  59.13800 28.68300 43.63200
H  57.88800 27.35200 43.32000
H  55.52800 30.49100 45.61000
H  55.02000 29.70300 47.11000
H  53.86100 30.66800 46.15100
H  49.93600 27.62900 44.38600
H  49.49800 28.33800 40.04400
H  48.46900 29.55700 40.87300
H  47.88300 27.92900 40.66000
Mg -1.40000 34.17900 26.53400
C  -3.13100 32.54600 29.02300
C  -0.05500 36.27800 28.70700
C  0.00100 35.78700 23.94900
C  -3.11500 32.12800 24.14400
N  -1.77100 34.46500 28.61000
C  -2.38200 33.62800 29.46100
C  -2.01000 34.06900 30.91100
C  -1.26400 35.35500 30.69600
C  -0.95700 35.37600 29.23700
C  -2.14100 36.60900 30.92300
C  -1.37500 32.82200 31.72900
C  -2.06400 32.24800 32.94400
H  -1.37300 32.30700 34.25700
N  0.01300 35.65600 26.36000
C  0.44300 36.38100 27.41500
C  1.31500 37.40900 26.95700
C  1.32200 37.36800 25.49200
C  0.40300 36.19200 25.19800
C  2.06100 38.44500 27.85800
C  2.05400 38.21900 24.40000
O  2.06800 37.86400 23.18800
C  2.84000 39.35800 24.85500
N  -1.59100 33.95600 24.28400
C  -0.73500 34.68200 23.52200
C  -0.83100 34.23400 22.07200
C  -1.96400 33.22100 22.01000
C  -2.22000 33.09200 23.58400
C  -0.99400 35.40300 21.00800
C  -1.73900 31.88000 21.23300
C  -0.81000 30.91500 21.95400
N  -2.87000 32.60000 26.51600
C  -3.46400 31.94700 25.50500
C  -4.35800 31.00800 26.06500
C  -4.18600 31.16800 27.43700
C  -3.32000 32.18500 27.68400
C  -5.27200 30.08700 25.26900
C  -4.66700 30.59700 28.72200
O  -5.49200 29.69400 28.88800
C  -3.91200 31.48500 29.78400
C  -5.03700 31.94000 30.60600
O  -5.61800 33.02500 30.50400
O  -5.21800 31.05300 31.60300
C  -6.23200 31.42400 32.61500
H  0.53700 36.86200 29.41500
H  0.29600 36.37300 23.07600
H  -3.73600 31.63900 23.39100
H  -2.99300 34.34100 31.29500
H  -0.39100 35.36200 31.34900
H  -2.01400 36.93700 31.95400
H  -3.21300 36.52200 30.74600
H  -2.00800 37.47900 30.28000
H  -0.36300 33.08100 32.04200
H  -1.24600 32.02300 30.99800
H  -2.04600 31.18300 32.71200
H  -3.07700 32.63200 33.06400
H  3.11900 38.24000 27.69900
H  1.83200 38.45500 28.92400
H  1.71300 39.43700 27.57100
H  2.23800 40.00300 25.49600
H  3.27700 39.92500 24.03300
H  3.63600 39.01000 25.51300
H  0.14400 33.84100 21.78100
H  -2.82300 33.69900 21.53900
H  -1.38700 36.33500 21.41500
H  -1.70400 35.12300 20.23000
H  -0.06100 35.65300 20.50200
H  -1.28900 32.12000 20.27000
H  -2.70000 31.39400 21.06200
H  -1.19200 29.89400 21.94300
H  -0.77800 31.25000 22.99100
H  0.16300 30.82500 21.47100
H  -4.67100 29.18200 25.35600
H  -5.28400 30.34400 24.21000
H  -6.25700 30.09600 25.73500
H  -3.39400 30.81300 30.46800
H  -5.94500 32.25400 33.26200
H  -6.42100 30.52900 33.20700
H  -7.16500 31.63300 32.09300

