158

Mg 47.85000 16.06700 28.50400
C  45.89400 16.34200 31.40900
C  50.39200 17.77900 30.22900
C  49.48300 16.36000 25.54100
C  45.03600 15.08100 26.81200
N  48.06100 16.90600 30.62300
C  47.18500 16.81800 31.65600
C  47.89300 17.35500 32.86900
C  49.08200 18.20100 32.25100
C  49.22200 17.55000 30.91800
C  48.85300 19.75500 32.24600
C  48.47200 16.17100 33.84800
C  48.60600 16.48000 35.31500
H  48.55000 17.96500 35.82300
N  49.70400 16.84800 27.95600
C  50.62400 17.45900 28.80500
C  51.86600 17.61400 28.08400
C  51.61600 17.17900 26.69700
C  50.22100 16.75100 26.67700
C  53.18600 17.94200 28.83500
C  52.64200 17.07800 25.64500
O  52.34600 16.79700 24.50200
C  54.08100 17.48600 25.90000
N  47.36200 15.59400 26.53100
C  48.14300 15.94500 25.46500
C  47.42400 15.84200 24.14000
C  46.14200 15.17300 24.53600
C  46.10800 15.27400 26.02400
C  47.21700 17.09800 23.26400
C  46.09400 13.64200 24.12300
C  45.06400 13.29600 23.01800
N  45.88500 15.74600 28.97400
C  44.86700 15.33300 28.14600
C  43.74800 15.01500 28.96300
C  44.07300 15.37600 30.22100
C  45.36600 15.89800 30.15900
C  42.47400 14.26600 28.56000
C  43.54600 15.41900 31.54200
O  42.46600 15.03300 31.95400
C  44.78500 16.04500 32.39300
C  44.41800 17.28900 33.09100
O  44.43300 18.41300 32.59700
O  43.82700 16.90600 34.28000
C  43.27000 18.03700 35.00000
H  51.24300 18.29500 30.67900
H  49.97900 16.52300 24.58200
H  44.18300 14.66200 26.27400
H  47.19400 18.01500 33.38300
H  49.98000 18.05100 32.85100
H  47.97600 20.01700 32.83700
H  48.78800 20.05500 31.20000
H  49.70000 20.22700 32.74400
H  49.42800 15.82500 33.45500
H  47.85300 15.28500 33.70800
H  49.51900 16.13900 35.80300
H  47.80400 15.99400 35.87100
H  53.85600 17.08300 28.83000
H  53.03100 18.21700 29.87900
H  53.66000 18.76500 28.30000
H  54.12800 18.55000 26.13100
H  54.63700 17.40600 24.96600
H  54.53500 16.89600 26.69600
H  48.04200 15.15500 23.56300
H  45.35000 15.73700 24.04300
H  47.89700 17.02400 22.41500
H  47.43000 18.01100 23.82000
H  46.21300 17.28700 22.88300
H  45.99900 12.97700 24.98100
H  47.06500 13.35600 23.71900
H  45.66300 13.10400 22.12900
H  44.38500 14.12400 22.81500
H  44.46600 12.46100 23.38200
H  42.38300 14.33000 27.47600
H  41.52300 14.58300 28.98800
H  42.60900 13.21800 28.82700
H  45.03700 15.25700 33.10200
H  44.01800 18.81100 35.17000
H  42.77000 17.87500 35.95500
H  42.47200 18.44100 34.37700
Mg 35.29900 48.32400 25.82200
C  35.83400 46.45600 28.70600
C  34.06900 50.81000 27.76000
C  34.67800 49.99300 23.00800
C  36.25100 45.39800 23.90800
N  34.87400 48.50900 27.99200
C  35.38000 47.74800 29.01200
C  35.15400 48.38800 30.42000
C  34.29900 49.59000 30.05800
C  34.45300 49.65100 28.48400
C  32.85800 49.54100 30.62200
C  36.47800 48.63100 31.10200
C  36.41100 48.46700 32.69400
H  35.06200 48.59100 33.37000
N  34.62100 50.24500 25.44500
C  34.15100 51.13000 26.32400
C  33.94700 52.37000 25.68900
C  34.07300 52.13900 24.28200
C  34.38100 50.70800 24.19400
C  33.72100 53.62200 26.45000
C  33.90200 53.14900 23.09400
O  33.97000 52.82700 21.90400
C  33.59600 54.57000 23.40400
N  35.39200 47.75100 23.85700
C  35.16400 48.68300 22.82700
C  35.16000 48.01500 21.44600
C  35.99200 46.71900 21.77600
C  35.81300 46.57000 23.26500
C  33.75800 47.70700 20.84500
C  37.52000 46.89300 21.42700
C  38.08700 45.72400 20.62400
N  35.88200 46.33000 26.20900
C  36.30300 45.30400 25.33300
C  36.79200 44.23400 26.13800
C  36.62300 44.56300 27.47200
C  36.02300 45.87600 27.47200
C  37.40300 42.93800 25.69700
C  36.84100 44.14000 28.83500
O  37.20100 43.05800 29.28800
C  36.28500 45.30300 29.72200
C  35.26600 44.75700 30.60000
O  34.06800 44.75300 30.31100
O  35.72200 44.57100 31.84400
C  34.80200 44.42500 32.95500
H  33.67700 51.62200 28.37700
H  34.35100 50.49400 22.09400
H  36.80000 44.60600 23.39500
H  34.59800 47.67800 31.03100
H  34.67500 50.53100 30.46000
H  32.04800 49.45600 29.89800
H  32.57500 50.43500 31.17800
H  32.74800 48.73300 31.34600
H  36.89200 49.53500 30.65400
H  37.13200 47.84600 30.72400
H  36.96400 49.29000 33.14700
H  36.84600 47.51400 32.99200
H  34.48600 54.31400 26.09800
H  33.81300 53.42700 27.51800
H  32.76200 54.05600 26.17000
H  33.62900 55.21400 22.52600
H  34.32500 54.88200 24.15200
H  32.57900 54.45000 23.78000
H  35.64400 48.68000 20.73000
H  35.53700 45.81800 21.36500
H  33.72000 46.61900 20.80500
H  33.53400 48.15600 19.87700
H  32.93600 48.02000 21.48800
H  38.09100 46.85900 22.35500
H  37.64600 47.90100 21.03200
H  37.59100 45.71800 19.65300
H  37.81800 44.75800 21.05000
H  39.14400 45.97400 20.52800
H  36.71100 42.09600 25.69300
H  38.30500 42.67600 26.25000
H  37.73800 43.03800 24.66500
H  37.13300 45.55000 30.36100
H  35.24800 45.08000 33.70400
H  34.91700 43.39000 33.27500
H  33.73800 44.63200 32.83900

