158

Mg 47.95000 26.01300 29.25100
C  48.78300 28.16600 31.86100
C  46.51900 23.95100 31.59200
C  47.65400 23.60000 26.87300
C  49.85200 27.86300 27.12400
N  47.61600 26.14400 31.46000
C  48.01900 27.17700 32.33900
C  47.43600 26.96500 33.78700
C  46.87400 25.50800 33.62400
C  46.93000 25.13800 32.15000
C  47.47700 24.46500 34.54600
C  46.32500 28.07300 34.25600
C  46.33300 28.59800 35.64900
H  46.91900 27.77300 36.93800
N  47.24200 24.00200 29.21100
C  46.62800 23.44200 30.27700
C  46.15400 22.11400 29.89100
C  46.38400 22.04100 28.47100
C  47.15500 23.26900 28.12000
C  45.57700 21.10400 30.79100
C  45.97900 21.01800 27.45300
O  46.30000 21.01700 26.26500
C  45.16700 19.78800 28.04500
N  48.62200 25.79900 27.25800
C  48.42300 24.71900 26.46900
C  49.17900 24.84100 25.09800
C  49.50900 26.37300 25.09700
C  49.37100 26.71500 26.55600
C  50.33700 23.85800 25.03800
C  48.48200 27.24700 24.16500
C  49.16000 27.91200 23.01000
N  48.90800 27.78500 29.39600
C  49.71700 28.41500 28.39100
C  50.25700 29.63800 28.92800
C  49.93000 29.55600 30.36100
C  49.15400 28.40600 30.54300
C  51.15400 30.51100 28.23000
C  50.11200 30.16100 31.63800
O  50.69300 31.21700 31.98500
C  49.36800 29.34800 32.70100
C  50.39400 28.86300 33.70100
O  51.37800 28.15800 33.54500
O  50.12900 29.44900 34.89700
C  50.99400 28.96200 36.00200
H  46.03200 23.35600 32.36800
H  47.63300 22.82500 26.10400
H  50.28900 28.49700 26.35000
H  48.24200 26.96000 34.52100
H  45.82000 25.53800 33.89900
H  46.69400 24.00800 35.15100
H  48.31100 24.83200 35.14400
H  47.80900 23.63500 33.92200
H  45.33900 27.69800 33.98200
H  46.48000 28.88800 33.54900
H  45.28800 28.70200 35.93900
H  46.83600 29.56200 35.56600
H  44.51700 21.11200 30.53600
H  45.56000 21.27800 31.86700
H  45.98300 20.10400 30.63700
H  45.82800 19.46600 28.85000
H  44.91400 19.01900 27.31500
H  44.19800 19.99200 28.50000
H  48.45900 24.51800 24.34700
H  50.48700 26.63200 24.69100
H  51.33100 24.30300 24.99600
H  50.29600 23.13900 24.22000
H  50.37800 23.29800 25.97200
H  47.88700 27.94300 24.75700
H  47.70900 26.61900 23.72100
H  49.04800 27.21600 22.17800
H  50.21700 28.11200 23.18600
H  48.72500 28.85800 22.68800
H  52.05300 29.92400 28.04600
H  51.52900 31.33200 28.84100
H  50.71800 30.92300 27.32000
H  48.70500 29.96500 33.30600
H  52.00500 28.99100 35.59600
H  50.77900 27.95900 36.37100
H  50.86400 29.71300 36.78100
Mg -10.95400 37.25100 42.63400
C  -8.93800 34.97600 41.57300
C  -8.82000 39.76800 41.23100
C  -13.45100 39.52100 42.83400
C  -13.24100 34.73400 43.64800
N  -9.25600 37.40100 41.39000
C  -8.57400 36.22900 41.14200
C  -7.26600 36.52000 40.29400
C  -7.07100 38.10600 40.57200
C  -8.46100 38.45700 41.07400
C  -5.96500 38.56000 41.54400
C  -7.59400 36.01000 38.82000
C  -6.54500 35.34500 37.99100
H  -6.08300 36.10700 36.75300
N  -11.04000 39.36800 42.31100
C  -10.08400 40.19300 41.67300
C  -10.59300 41.52000 41.69400
C  -11.88300 41.52800 42.27200
C  -12.22500 40.12100 42.55700
C  -9.70600 42.65900 41.15900
C  -12.85300 42.74300 42.60900
O  -12.61200 43.82900 42.08900
C  -14.10300 42.55500 43.41600
N  -13.12200 37.09600 43.09200
C  -13.90100 38.21200 42.96900
C  -15.37000 37.78900 43.34900
C  -15.25400 36.26300 43.79900
C  -13.81200 35.97300 43.47600
C  -16.00100 38.63600 44.55100
C  -16.31900 35.29900 43.20800
C  -15.86300 34.44900 42.01100
N  -11.11400 35.26800 42.59300
C  -11.97000 34.39800 43.16900
C  -11.35500 33.07400 43.16500
C  -10.16400 33.26800 42.44500
C  -10.07500 34.63700 42.15600
C  -11.91100 31.75600 43.63900
C  -9.00800 32.53100 41.93500
O  -8.76700 31.29400 41.98500
C  -8.18300 33.66300 41.31900
C  -6.91600 33.64900 42.08600
O  -6.83100 33.97500 43.27300
O  -5.94000 33.07200 41.35700
C  -4.77100 32.62000 42.14000
H  -8.04800 40.50500 41.00200
H  -14.25400 40.19600 42.53100
H  -13.88000 33.94400 44.04700
H  -6.45900 35.93100 40.73100
H  -7.03900 38.70600 39.66200
H  -6.36600 39.11100 42.39500
H  -5.36300 39.30200 41.01900
H  -5.53500 37.68300 42.02800
H  -7.98500 36.91700 38.35900
H  -8.44700 35.33700 38.89900
H  -6.85300 34.32800 37.74600
H  -5.65900 35.20900 38.61000
H  -9.70100 42.45400 40.08900
H  -8.71200 42.69700 41.60400
H  -10.14100 43.65500 41.23900
H  -14.44100 43.49300 43.85800
H  -13.90200 41.78700 44.16300
H  -14.87300 42.12300 42.77700
H  -16.02200 37.79500 42.47600
H  -15.26600 36.06200 44.87000
H  -15.22200 39.32600 44.87700
H  -16.38500 37.97500 45.32800
H  -16.81400 39.20000 44.09400
H  -17.14300 36.00100 43.08300
H  -16.50600 34.55200 43.97900
H  -15.43800 33.55700 42.47100
H  -15.18900 34.90600 41.28700
H  -16.73500 34.14600 41.43000
H  -11.15200 30.97400 43.65600
H  -12.72100 31.53800 42.94400
H  -12.36200 31.76000 44.63200
H  -7.96500 33.41100 40.28200
H  -4.45900 31.64300 41.77200
H  -5.11900 32.57600 43.17200
H  -3.97800 33.33400 41.91800

