158

Mg 29.79300 57.87800 40.99400
C  27.20200 56.03000 39.44600
C  32.04300 55.78900 39.78800
C  32.34900 60.23100 41.69500
C  27.52000 60.33000 41.63200
N  29.59700 56.09900 39.88000
C  28.52000 55.40700 39.42100
C  28.89900 54.18600 38.59800
C  30.41000 53.95400 38.98700
C  30.74100 55.39500 39.56800
C  30.70300 52.76100 39.91300
C  28.78800 54.43200 37.08100
C  27.84700 53.55900 36.27300
H  26.78200 54.25600 35.33400
N  31.82700 57.99300 40.87900
C  32.58500 56.93300 40.38600
C  34.03200 57.19500 40.45100
C  34.17000 58.47900 41.13300
C  32.76200 58.95200 41.31900
C  35.14400 56.21400 39.97200
C  35.47700 59.11000 41.56600
O  36.53700 58.66100 41.12100
C  35.48700 60.37100 42.38800
N  29.95700 60.08900 41.61500
C  31.07100 60.81000 41.79300
C  30.78100 62.25900 42.02000
C  29.22500 62.18100 42.33400
C  28.87600 60.77400 41.81000
C  31.62500 62.99400 43.09700
C  28.48600 63.34300 41.75900
C  27.57000 64.12800 42.70200
N  27.72700 58.10100 40.78100
C  26.92700 59.17300 41.05700
C  25.55600 58.94900 40.70100
C  25.62200 57.69100 40.07500
C  26.95600 57.27000 40.04600
C  24.46800 59.85500 40.89100
C  24.79300 56.69800 39.46300
O  23.62300 56.70900 39.25900
C  25.75200 55.53200 39.12300
C  25.29800 54.37300 39.92300
O  25.60600 54.08300 41.03900
O  24.41500 53.66000 39.12000
C  23.94500 52.44100 39.70200
H  32.71000 54.98100 39.48200
H  33.16900 60.87600 42.01900
H  26.71300 61.05700 41.74300
H  28.38600 53.24400 38.79100
H  31.09600 53.71500 38.17400
H  31.08100 53.20800 40.83200
H  31.44500 52.11500 39.44200
H  29.81200 52.15100 40.06500
H  29.71400 54.55800 36.52000
H  28.45400 55.46400 36.97200
H  27.38100 52.80900 36.91200
H  28.54000 53.06900 35.58900
H  35.03000 56.16500 38.88900
H  34.87000 55.24000 40.37700
H  36.16700 56.34700 40.32300
H  35.10500 61.29400 41.95300
H  36.53600 60.42300 42.68200
H  34.94900 60.38700 43.33600
H  31.02000 62.56800 41.00200
H  29.22200 62.11700 43.42200
H  31.96600 63.98400 42.79500
H  32.48600 62.38100 43.36200
H  31.06400 63.06500 44.02900
H  27.87300 62.98300 40.93300
H  29.21300 64.06500 41.38800
H  26.59000 63.85500 42.30900
H  27.88000 65.16700 42.59900
H  27.60400 63.93300 43.77400
H  24.84300 60.86100 40.70500
H  24.19700 59.62100 41.92000
H  23.67000 59.73400 40.15900
H  25.64300 55.33900 38.05600
H  23.44500 52.65200 40.64800
H  24.72900 51.71300 39.91400
H  23.25300 51.99400 38.98900
Mg -5.26500 26.11600 26.91700
C  -4.21900 27.80400 29.82400
C  -7.34400 24.25800 28.80000
C  -5.89100 24.24800 24.13600
C  -2.90800 27.90600 25.16100
N  -5.65200 26.02000 29.09900
C  -5.25300 26.88500 30.10300
C  -6.01800 26.66700 31.36500
C  -6.84200 25.43600 31.08400
C  -6.55600 25.15800 29.58200
C  -6.52700 24.09900 31.94600
C  -6.87900 27.96200 31.69200
C  -7.47600 27.99500 33.09500
H  -7.15500 26.93900 34.17500
N  -6.60000 24.58200 26.46700
C  -7.38300 23.92800 27.41800
C  -8.19400 22.91100 26.71000
C  -7.80100 22.88000 25.36200
C  -6.67600 23.89000 25.27700
C  -9.32100 22.12700 27.41800
C  -8.19500 21.99300 24.22400
O  -7.68500 22.07900 23.15800
C  -9.22700 20.94000 24.48400
N  -4.70000 26.22100 24.89300
C  -4.96600 25.24000 23.95100
C  -4.29200 25.58800 22.60000
C  -3.42600 26.83500 22.95300
C  -3.68600 27.02500 24.44300
C  -3.58600 24.45700 21.85300
C  -3.74400 28.13600 22.12700
C  -3.27300 28.13000 20.63500
N  -3.80900 27.45800 27.36000
C  -2.97700 28.15700 26.51900
C  -2.22000 29.15800 27.28300
C  -2.75500 29.11300 28.49400
C  -3.66900 28.01600 28.55700
C  -1.33200 30.24900 26.78400
C  -2.61400 29.73200 29.79500
O  -1.90100 30.67600 30.13700
C  -3.57900 28.93800 30.73500
C  -2.70500 28.19200 31.73400
O  -1.77000 27.48600 31.39100
O  -3.17000 28.44600 32.99700
C  -2.45700 27.77300 34.01500
H  -7.97700 23.75100 29.53100
H  -6.12300 23.69800 23.22200
H  -2.04300 28.43800 24.75900
H  -5.36700 26.49000 32.22100
H  -7.90200 25.59100 31.28500
H  -6.38200 23.26200 31.26300
H  -7.48000 23.99100 32.46500
H  -5.71500 24.16900 32.66900
H  -7.64800 28.15100 30.94400
H  -6.14400 28.76000 31.80700
H  -8.55100 28.14900 33.00200
H  -7.07700 28.81300 33.69400
H  -8.89200 21.16900 27.71400
H  -10.15700 21.94600 26.74200
H  -9.66200 22.77600 28.22400
H  -10.16400 21.46100 24.68200
H  -9.03000 20.31400 25.35400
H  -9.24900 20.30600 23.59700
H  -4.98200 25.90200 21.81600
H  -2.38000 26.55500 22.82300
H  -2.51800 24.60200 21.68900
H  -4.02600 24.32200 20.86500
H  -3.62000 23.50200 22.37900
H  -3.50000 29.01600 22.72200
H  -4.82400 28.27300 22.07600
H  -2.64700 27.25400 20.46500
H  -2.57900 28.95700 20.48200
H  -4.08400 28.30300 19.92800
H  -1.93300 30.98600 26.25100
H  -0.62400 29.77000 26.10800
H  -0.85900 30.86100 27.55200
H  -4.34400 29.56300 31.19500
H  -1.50400 28.22600 34.28800
H  -2.18800 26.75300 33.73800
H  -3.01100 27.75400 34.95300

