158

Mg 40.77900 8.32500 30.02300
C  42.62100 9.83300 32.60000
C  38.48800 7.12500 32.08700
C  39.18100 7.26200 27.38100
C  43.62000 9.25600 27.91800
N  40.65700 8.39300 32.18700
C  41.39000 9.14600 33.02800
C  40.91100 8.94100 34.48600
C  39.58300 8.11600 34.27800
C  39.56600 7.82500 32.72600
C  39.58300 6.87400 35.23400
C  40.65200 10.32700 35.16400
C  39.72300 10.27100 36.46300
H  40.13000 11.32900 37.53800
N  39.01700 7.29800 29.82700
C  38.16600 6.89900 30.77300
C  37.05500 6.27300 30.14000
C  37.22700 6.40200 28.75800
C  38.56400 6.98600 28.62300
C  35.99500 5.50200 30.91300
C  36.32600 5.97300 27.67000
O  36.73000 5.93400 26.49700
C  34.89300 5.67300 27.93600
N  41.37300 8.10700 27.96900
C  40.48100 7.78200 27.04200
C  41.11800 7.87800 25.61900
C  42.45500 8.59100 25.83200
C  42.50800 8.65600 27.39200
C  41.22000 6.53000 24.91900
C  42.54400 9.90700 25.15200
C  41.57200 11.03600 25.62000
N  42.64600 9.46300 30.15100
C  43.67200 9.75500 29.22800
C  44.73600 10.51400 29.80500
C  44.37000 10.66200 31.13200
C  43.11600 9.90900 31.29800
C  46.03100 10.91300 29.17300
C  44.62800 11.17800 32.40200
O  45.53700 11.85200 32.79800
C  43.52200 10.67900 33.43600
C  44.18800 9.85000 34.46900
O  44.50200 8.69900 34.40100
O  44.44800 10.63100 35.61700
C  45.07900 9.92900 36.77800
H  37.76800 6.72300 32.80200
H  38.73300 6.90900 26.45000
H  44.44800 9.55500 27.27300
H  41.61600 8.25700 34.95900
H  38.68300 8.70500 34.45500
H  38.53200 6.74900 35.49300
H  40.10700 7.01000 36.18000
H  40.00700 6.03200 34.68700
H  40.31200 11.08400 34.45600
H  41.60400 10.64500 35.58900
H  39.71300 9.25400 36.85600
H  38.71200 10.56500 36.18300
H  35.04700 6.03400 30.83000
H  36.26200 5.43100 31.96700
H  36.00400 4.48600 30.51700
H  34.71900 4.82400 28.59800
H  34.41700 5.63500 26.95700
H  34.51200 6.54000 28.47700
H  40.36600 8.34400 24.98200
H  43.32100 8.01100 25.51500
H  42.24300 6.15400 24.91000
H  40.84900 6.65200 23.90100
H  40.63700 5.79900 25.48000
H  42.40100 9.71000 24.09000
H  43.54900 10.29000 25.32800
H  41.10300 10.75800 26.56400
H  40.83500 11.38900 24.89800
H  42.07400 11.97900 25.83700
H  46.01400 10.92700 28.08300
H  46.75200 10.16600 29.50700
H  46.21300 11.93600 29.50200
H  43.20200 11.62700 33.86800
H  45.62600 9.02600 36.50900
H  44.37300 9.54600 37.51500
H  45.78000 10.57100 37.31100
Mg -0.16300 44.35900 26.18400
C  2.00300 44.19400 28.97000
C  -2.78400 43.94500 28.30200
C  -2.03500 43.72100 23.40300
C  2.71500 44.46100 24.15300
N  -0.29900 44.03600 28.39100
C  0.63900 44.21800 29.32500
C  0.02900 44.00300 30.72800
C  -1.46700 43.90800 30.43600
C  -1.50900 43.94900 28.90500
C  -2.20000 42.67800 31.02700
C  0.45900 45.17900 31.68200
C  1.28600 44.94000 32.97300
H  0.67900 43.79500 33.91400
N  -2.20700 44.06700 25.90500
C  -3.09300 43.93800 26.90900
C  -4.42600 43.73300 26.34600
C  -4.24500 43.62000 24.94500
C  -2.76700 43.80100 24.66700
C  -5.65800 43.78100 27.26200
C  -5.29700 43.33500 23.88400
O  -4.96500 43.27000 22.68300
C  -6.65900 43.06400 24.22300
N  0.27100 44.10900 24.11000
C  -0.64900 43.80300 23.16100
C  -0.03600 43.58600 21.67200
C  1.39400 43.95500 22.04200
C  1.49100 44.30100 23.51000
C  -0.21200 42.09200 21.33000
C  1.93600 45.19800 21.20400
C  1.59500 46.50500 21.75400
N  1.90700 44.45500 26.43300
C  2.94100 44.42300 25.50100
C  4.21700 44.28900 26.21800
C  3.88300 44.24100 27.59300
C  2.47400 44.31300 27.66100
C  5.63900 44.27400 25.68400
C  4.49700 44.02400 28.86700
O  5.63100 43.79200 29.20200
C  3.28900 43.99000 29.87100
C  3.32400 42.69900 30.60900
O  2.97100 41.63700 30.19300
O  3.90900 42.88900 31.85600
C  4.13900 41.71800 32.76500
H  -3.55600 43.80900 29.06200
H  -2.68000 43.59700 22.53000
H  3.56400 44.61700 23.48400
H  0.54000 43.16100 31.19600
H  -2.05800 44.78200 30.71200
H  -3.23200 42.96000 31.23100
H  -1.68400 42.45600 31.96200
H  -2.28600 41.78800 30.40400
H  -0.40800 45.79700 31.91800
H  1.09400 45.83100 31.08200
H  1.40600 45.79900 33.63400
H  2.33100 44.69700 32.78200
H  -5.66100 42.82100 27.77700
H  -6.58300 43.98000 26.72000
H  -5.56600 44.64300 27.92300
H  -7.20300 42.78300 23.32200
H  -7.18300 43.86000 24.75200
H  -6.70500 42.24800 24.94500
H  -0.54500 44.31300 21.03900
H  2.07000 43.14100 21.78300
H  -0.60300 41.52200 22.17300
H  0.76100 41.64200 21.13600
H  -0.97100 41.99800 20.55400
H  1.51900 45.23600 20.19700
H  3.02200 45.20700 21.10800
H  2.47800 46.94600 22.21600
H  0.75000 46.45400 22.44100
H  1.28200 47.21000 20.98400
H  5.73500 44.03500 24.62500
H  6.27400 43.53000 26.16600
H  5.95800 45.27600 25.97000
H  3.43700 44.78500 30.60200
H  3.74700 41.92600 33.76100
H  5.21800 41.70200 32.92000
H  3.84700 40.74100 32.38000

