158

Mg 49.60800 46.08400 42.70400
C  46.76000 47.70900 41.65600
C  48.47600 43.21900 41.12200
C  52.87000 45.00700 42.50300
C  50.78900 49.24400 43.80600
N  47.83200 45.58700 41.58500
C  46.84700 46.41800 41.16500
C  45.74900 45.69600 40.33900
C  46.16600 44.27000 40.46300
C  47.60900 44.37700 41.06600
C  45.14800 43.36900 41.16300
C  45.61000 46.14600 38.78500
C  44.15500 46.40500 38.28800
H  43.78100 46.18200 36.80700
N  50.54600 44.29000 41.92500
C  49.87100 43.23500 41.40300
C  50.83900 42.13300 41.23300
C  52.07900 42.61000 41.68900
C  51.89100 44.02100 42.02500
C  50.31500 40.75400 40.73500
C  53.33700 41.74100 41.63200
O  53.29400 40.59800 41.17000
C  54.67600 42.43500 41.80500
N  51.57000 47.05000 42.88100
C  52.69300 46.30600 42.96400
C  53.84800 47.05100 43.67900
C  53.22900 48.43900 44.04400
C  51.78700 48.27800 43.54500
C  54.60000 46.32300 44.84600
C  53.93700 49.72300 43.40000
C  54.17400 50.83700 44.41500
N  48.96400 48.05200 42.88100
C  49.48500 49.20700 43.32100
C  48.51700 50.21200 43.40200
C  47.33500 49.66200 42.74500
C  47.72700 48.33700 42.45400
C  48.72700 51.55800 44.02100
C  46.05300 49.96800 42.20000
O  45.35300 50.99600 42.22100
C  45.60600 48.69300 41.46300
C  44.39600 48.26300 42.07500
O  44.29100 47.61100 43.10100
O  43.35500 48.60300 41.27600
C  42.04500 48.16400 41.58700
H  47.92700 42.41800 40.62300
H  53.81800 44.59300 42.85300
H  51.01600 50.17200 44.33300
H  44.82900 45.87400 40.89600
H  46.36700 43.81400 39.49400
H  45.33200 43.36800 42.23700
H  45.04800 42.37100 40.73500
H  44.16200 43.82200 41.06500
H  46.19200 45.62900 38.02200
H  46.05000 47.14100 38.72700
H  43.78400 47.35300 38.67700
H  43.42700 45.78300 38.81000
H  49.30800 40.77700 40.31900
H  50.47700 39.96900 41.47400
H  50.83400 40.60100 39.78800
H  54.79300 43.41000 41.33200
H  55.43200 41.83100 41.30400
H  54.92900 42.53600 42.86000
H  54.68800 47.17600 42.99500
H  53.28700 48.60000 45.12000
H  54.29100 45.34600 45.21900
H  54.75200 47.04100 45.65100
H  55.59000 46.08500 44.45700
H  53.37100 50.04100 42.52500
H  54.86700 49.44100 42.90700
H  55.17300 51.27300 44.39400
H  53.88800 50.59300 45.43800
H  53.49800 51.66600 44.20800
H  49.33800 52.20300 43.38900
H  49.27400 51.46400 44.95900
H  47.82300 52.12400 44.24500
H  45.43500 48.97600 40.42400
H  41.48100 48.28200 40.66200
H  41.58000 48.73600 42.39000
H  42.12300 47.09200 41.76800
Mg 35.97800 48.99200 24.88500
C  36.14200 46.96000 27.67000
C  34.40300 51.38200 26.81700
C  34.89700 50.63600 22.06000
C  36.91000 46.25900 22.96000
N  35.34400 49.13300 26.96200
C  35.62300 48.19300 27.90900
C  35.36800 48.77300 29.29000
C  34.44000 49.96100 28.99300
C  34.71800 50.18200 27.50900
C  32.86800 49.81800 29.23000
C  36.74900 49.30800 29.93600
C  36.71500 49.15300 31.46800
H  35.37700 48.91800 32.15600
N  35.03100 50.79400 24.47600
C  34.52600 51.62000 25.43200
C  34.20400 52.88400 24.87700
C  34.34100 52.78000 23.44400
C  34.71600 51.28800 23.25100
C  33.77100 54.09300 25.68000
C  34.27200 53.78600 22.30000
O  34.79500 53.60400 21.23200
C  33.83600 55.18800 22.57500
N  35.84700 48.45600 22.78300
C  35.46800 49.35800 21.85600
C  35.86100 48.85000 20.42900
C  36.77500 47.64200 20.72500
C  36.54800 47.44600 22.24900
C  34.52000 48.56100 19.62400
C  38.25100 47.82700 20.30000
C  39.36500 47.62300 21.41600
N  36.54000 47.00600 25.17900
C  36.95300 46.04400 24.31100
C  37.42400 44.86900 25.03700
C  37.13300 45.15700 26.40100
C  36.52000 46.43500 26.36900
C  38.05300 43.66100 24.53200
C  37.08000 44.68000 27.81400
O  37.39300 43.62400 28.36100
C  36.57400 45.90900 28.63100
C  35.56100 45.43200 29.52900
O  34.37400 45.42300 29.26100
O  36.14300 45.10400 30.72100
C  35.18500 44.55100 31.73300
H  34.03900 52.17000 27.47900
H  34.75400 51.18000 21.12400
H  37.41000 45.46600 22.40000
H  34.87900 48.00000 29.88300
H  34.70000 50.76500 29.68100
H  32.29200 49.66100 28.31800
H  32.52600 50.74400 29.69200
H  32.64300 48.96100 29.86500
H  36.93000 50.35100 29.67400
H  37.48600 48.59000 29.57500
H  37.06600 50.14600 31.74900
H  37.33600 48.31500 31.78500
H  33.49900 53.74700 26.67700
H  32.90100 54.56100 25.21900
H  34.60000 54.79900 25.71800
H  32.99800 55.15100 23.27200
H  33.39600 55.60500 21.66900
H  34.65000 55.80100 22.96100
H  36.45800 49.65300 19.99700
H  36.39000 46.72100 20.28700
H  33.63900 48.75600 20.23600
H  34.44900 47.53900 19.25100
H  34.53700 49.36600 18.88800
H  38.34800 48.89600 20.10700
H  38.48200 47.19300 19.44400
H  39.19900 46.69300 21.96000
H  39.37100 48.36600 22.21400
H  40.34900 47.55700 20.95100
H  38.08700 42.86100 25.27200
H  39.05500 43.99300 24.26200
H  37.54200 43.23500 23.66900
H  37.35400 46.22500 29.32300
H  34.23600 44.15700 31.36800
H  34.92600 45.34600 32.43200
H  35.60300 43.71700 32.29700

