158

Mg 0.62700 7.65900 27.00600
C  1.27600 9.78700 29.63400
C  0.69000 4.94700 29.24700
C  0.16800 5.52600 24.44100
C  1.35200 10.24500 24.75900
N  0.87700 7.40100 29.14700
C  1.09200 8.42400 30.00800
C  1.52200 7.94200 31.43300
C  1.27500 6.37200 31.31700
C  0.97800 6.16300 29.81600
C  2.24800 5.36700 31.92200
C  0.64400 8.58400 32.64400
C  1.16700 8.52300 34.01900
H  0.21800 8.03500 35.13200
N  0.48000 5.46400 26.79900
C  0.55600 4.61900 27.89200
C  0.23100 3.27000 27.36900
C  -0.04600 3.41200 25.93500
C  0.15900 4.85300 25.67200
C  0.32200 2.03600 28.23600
C  -0.41200 2.35600 24.91700
O  -0.55100 2.58300 23.70200
C  -0.71000 0.97600 25.40100
N  0.80500 7.83700 24.87900
C  0.42000 6.81500 24.10800
C  0.28700 7.24900 22.61800
C  0.50600 8.87000 22.77100
C  0.89000 9.02500 24.18200
C  1.37300 6.59800 21.73400
C  -0.79500 9.57500 22.33100
C  -0.58500 10.67200 21.23200
N  1.01600 9.68400 27.06800
C  1.37100 10.64700 26.12100
C  1.68900 11.89600 26.68800
C  1.70100 11.59100 28.08900
C  1.26800 10.24800 28.21600
C  2.00300 13.19200 25.97000
C  2.06300 12.15300 29.39000
O  2.53200 13.18800 29.75400
C  1.67600 10.96000 30.40600
C  2.81600 10.71600 31.35800
O  3.87200 10.12700 31.06000
O  2.74500 11.58400 32.40900
C  3.92600 11.89600 33.22700
H  0.44800 4.07300 29.85500
H  0.09900 4.82900 23.60300
H  1.49100 11.05300 24.03900
H  2.58500 7.86900 31.66400
H  0.33100 6.03500 31.74500
H  2.89000 5.12400 31.07500
H  1.63400 4.55800 32.31600
H  2.88800 5.90900 32.61800
H  -0.32000 8.07600 32.67500
H  0.42000 9.62200 32.39400
H  1.51400 9.50800 34.33300
H  1.99300 7.81300 34.02000
H  -0.66200 1.57300 28.15600
H  0.58500 2.17800 29.28400
H  1.07100 1.37000 27.80700
H  0.23600 0.46000 25.56100
H  -1.16300 0.46500 24.55100
H  -1.43700 0.87100 26.20600
H  -0.70800 6.99700 22.25000
H  1.38300 9.18500 22.20600
H  1.82300 5.81500 22.34400
H  2.08700 7.40100 21.54900
H  0.95100 6.32000 20.76900
H  -1.28200 10.06500 23.17500
H  -1.54500 8.84100 22.03600
H  -1.38500 10.40500 20.54100
H  0.40100 10.58400 20.77700
H  -0.70900 11.66100 21.67400
H  2.21600 12.96800 24.92400
H  2.75600 13.73100 26.54300
H  1.03400 13.68300 26.06300
H  0.82800 11.36200 30.96100
H  3.84200 12.90600 33.62800
H  4.85000 11.73700 32.67100
H  3.77800 11.15300 34.01100
Mg 43.06000 41.38300 26.01600
C  41.87600 43.53800 28.43500
C  43.97200 39.21600 28.47800
C  44.34100 39.40000 23.71400
C  42.40900 43.83200 23.52000
N  42.96300 41.41200 28.24300
C  42.33500 42.37000 29.01600
C  42.52700 42.14200 30.58900
C  43.33400 40.77500 30.51600
C  43.47100 40.47600 29.03100
C  44.67200 40.80500 31.26500
C  41.15100 42.11700 31.32100
C  41.02900 42.83600 32.67800
H  40.55900 42.09700 33.94200
N  43.95800 39.49600 26.08600
C  44.19700 38.78500 27.20000
C  44.74200 37.51700 26.75600
C  44.83200 37.45400 25.36300
C  44.35900 38.81200 24.99000
C  45.06500 36.41000 27.75100
C  45.29200 36.34600 24.43900
O  45.31300 36.44200 23.20100
C  45.85600 35.09400 24.98600
N  43.62500 41.76100 23.96000
C  44.00700 40.65500 23.25900
C  43.82600 40.84300 21.79100
C  43.16000 42.28900 21.67100
C  43.04200 42.64000 23.07300
C  44.95900 40.57200 20.83100
C  41.84500 42.34100 20.86600
C  41.60300 43.69800 20.13300
N  42.32900 43.32500 25.94900
C  42.12400 44.18700 24.87500
C  41.62700 45.36500 25.33900
C  41.53300 45.23800 26.72100
C  41.90200 43.95400 27.05100
C  41.04700 46.48800 24.49700
C  41.21600 45.85900 27.98200
O  40.77800 46.99300 28.21000
C  41.48600 44.81800 29.17200
C  42.59400 45.34200 30.02300
O  43.80800 45.32100 29.64200
O  42.13000 45.85300 31.26000
C  43.21600 46.24300 32.21300
H  44.14600 38.48800 29.27300
H  44.75700 38.61100 23.08400
H  42.15800 44.54500 22.73200
H  43.03000 43.02700 30.98000
H  42.71700 39.97300 30.92200
H  45.48500 40.71500 30.54500
H  44.66900 39.98200 31.97900
H  44.65800 41.78300 31.74500
H  40.90000 41.10500 31.64000
H  40.41300 42.44400 30.58900
H  40.20800 43.55200 32.66000
H  41.89300 43.39900 33.03000
H  44.80900 36.57600 28.79800
H  46.13900 36.24500 27.66600
H  44.48600 35.53600 27.45100
H  46.62200 35.35100 25.71800
H  46.16200 34.29500 24.31200
H  44.94500 34.74200 25.47000
H  43.04000 40.13600 21.52400
H  43.89100 42.99300 21.27100
H  44.54500 39.77900 20.20800
H  45.97900 40.46300 21.19900
H  45.12600 41.46900 20.23500
H  40.99300 42.14000 21.51600
H  41.93600 41.54500 20.12600
H  41.17600 44.47800 20.76300
H  40.90700 43.39800 19.34900
H  42.51100 44.05200 19.64600
H  40.14000 46.91000 24.92800
H  40.78300 45.97400 23.57300
H  41.76600 47.27400 24.26400
H  40.59900 44.69200 29.79300
H  44.24400 46.31200 31.85800
H  43.15700 45.61600 33.10200
H  43.01300 47.26600 32.53100

