158

Mg 49.84300 46.94500 43.63200
C  46.37000 47.07700 43.00300
C  49.84800 43.81300 42.08400
C  53.21600 47.17500 43.43000
C  49.72400 50.35300 44.32700
N  48.25800 45.58800 42.73200
C  46.95300 45.87800 42.51500
C  46.22900 44.63900 41.93700
C  47.25000 43.45700 42.21600
C  48.55400 44.28500 42.30300
C  46.98000 42.69700 43.55900
C  45.71900 44.88500 40.50700
C  44.16800 44.72900 40.37400
H  43.58600 45.24000 39.03900
N  51.37600 45.61700 42.99700
C  51.11700 44.43400 42.34000
C  52.36900 43.82600 41.84200
C  53.37200 44.77700 42.27900
C  52.66200 45.93700 42.92200
C  52.47200 42.45800 41.17700
C  54.93800 44.63900 42.03200
O  55.33400 43.60600 41.43400
C  55.91400 45.65900 42.53800
N  51.25300 48.45100 43.94800
C  52.57100 48.26300 43.99400
C  53.28300 49.41900 44.61800
C  52.32500 50.56000 44.75700
C  50.99500 49.75200 44.40000
C  54.01800 49.03900 45.90300
C  52.73700 51.81600 43.93000
C  52.30500 53.19700 44.64900
N  48.38300 48.47700 43.61300
C  48.47100 49.79600 43.96800
C  47.12900 50.36700 44.04000
C  46.30400 49.35700 43.63200
C  47.10500 48.23300 43.41800
C  46.72800 51.77400 44.31900
C  44.96900 48.98900 43.31600
O  43.89200 49.58800 43.33400
C  44.93200 47.48800 42.93100
C  44.17800 46.73900 43.96400
O  44.63500 46.03300 44.86500
O  42.88800 46.79100 43.55600
C  41.88700 45.94000 44.21000
H  49.82200 42.75100 41.83100
H  54.29800 47.31800 43.38300
H  49.71500 51.36600 44.73500
H  45.36700 44.38700 42.55500
H  47.30200 42.76000 41.38000
H  47.78200 42.68200 44.29800
H  46.93300 41.61800 43.41600
H  45.97200 42.96300 43.87700
H  46.23000 44.15500 39.87900
H  46.01800 45.85800 40.11500
H  43.70600 45.27200 41.19800
H  43.96100 43.66700 40.50400
H  53.34200 41.99500 41.64300
H  52.84000 42.47300 40.15100
H  51.63100 41.77500 41.29700
H  55.67100 46.57600 42.00000
H  56.93100 45.29700 42.39000
H  55.67600 45.87400 43.58000
H  54.06500 49.72300 43.92200
H  52.02000 50.80600 45.77400
H  53.80600 48.03000 46.25700
H  53.83400 49.68500 46.76200
H  55.07400 49.10000 45.64000
H  52.26800 51.78400 42.94600
H  53.81500 51.83700 43.77200
H  51.67400 53.68800 43.90900
H  53.12900 53.90300 44.75800
H  51.64100 53.15800 45.51300
H  47.30200 52.21600 45.13300
H  45.65400 51.75000 44.50200
H  46.89500 52.51000 43.53200
H  44.60900 47.28500 41.91000
H  41.34100 45.45900 43.39900
H  41.25800 46.59200 44.81700
H  42.23800 45.09500 44.80100
Mg 36.18000 49.55500 25.52900
C  35.87900 47.47700 28.33200
C  35.39800 52.20600 27.68300
C  35.98800 51.53500 22.89600
C  36.82000 46.74100 23.53000
N  35.36300 49.79600 27.73300
C  35.51300 48.82900 28.67700
C  35.38700 49.35700 30.11700
C  34.98000 50.81900 29.84800
C  35.32700 50.98300 28.31800
C  33.53400 51.29700 30.06400
C  36.66900 49.20100 31.02500
C  36.32700 48.89900 32.50400
H  34.95400 49.31400 33.15200
N  35.83700 51.56300 25.31400
C  35.64400 52.53400 26.31300
C  35.61400 53.86200 25.70000
C  35.57000 53.58500 24.33200
C  35.79000 52.21000 24.10200
C  35.54400 55.19400 26.44300
C  35.36000 54.57700 23.19200
O  35.22100 54.24800 22.00300
C  35.51600 56.01600 23.44300
N  36.20800 49.13000 23.51500
C  36.23100 50.13600 22.64900
C  36.23500 49.58800 21.22500
C  36.78200 48.12700 21.39800
C  36.71700 47.99300 22.94200
C  34.92000 49.55300 20.46900
C  38.23000 47.87200 20.90700
C  39.43900 48.44900 21.84900
N  36.28000 47.52000 25.78200
C  36.61100 46.50100 24.92700
C  36.72600 45.22600 25.70700
C  36.45900 45.62400 27.00400
C  36.19100 46.98100 27.06000
C  37.10300 43.85600 25.23900
C  36.34800 45.05700 28.27800
O  36.49500 43.89500 28.67400
C  35.99600 46.23100 29.24800
C  34.75400 46.05900 30.04800
O  33.62900 46.50500 29.83500
O  35.12400 45.31800 31.15900
C  34.01600 45.14800 32.11300
H  35.27000 53.05500 28.35800
H  35.94400 51.94800 21.88700
H  36.90900 45.79700 22.98800
H  34.58200 48.81700 30.61400
H  35.66900 51.50700 30.33900
H  32.88000 50.56300 30.53400
H  33.10200 51.68700 29.14200
H  33.67100 52.19600 30.66500
H  37.23600 50.13100 31.07000
H  37.26700 48.40800 30.57600
H  37.15900 49.31500 33.07200
H  36.45900 47.81800 32.55200
H  36.20200 55.97300 26.05700
H  35.86400 55.02300 27.47100
H  34.52300 55.57700 26.41300
H  36.52800 56.22200 23.79100
H  34.79600 56.32400 24.20100
H  35.33600 56.46900 22.46800
H  36.82600 50.30500 20.65500
H  36.06700 47.33800 21.16500
H  34.51800 48.55300 20.30900
H  34.98000 49.96100 19.46000
H  34.26900 50.27200 20.96700
H  38.34400 48.23100 19.88400
H  38.31200 46.80400 21.11200
H  39.90000 47.65800 22.44100
H  39.14600 49.24400 22.53500
H  40.28800 48.82100 21.27700
H  36.89700 43.77000 24.17200
H  36.49900 43.09800 25.73900
H  38.15100 43.76200 25.52300
H  36.71100 46.51100 30.02200
H  33.13900 44.78500 31.57600
H  33.92100 46.08400 32.66500
H  34.29800 44.31000 32.75000

