158

Mg 40.81200 40.27600 27.69800
C  40.52900 42.99100 29.99200
C  41.80800 38.33700 30.39700
C  41.52300 37.88800 25.54200
C  40.09000 42.51100 25.18400
N  41.21700 40.71400 29.91900
C  40.93200 41.80800 30.63800
C  41.07500 41.61900 32.14000
C  41.66700 40.19400 32.17900
C  41.55600 39.68700 30.77200
C  43.08400 40.08600 32.78200
C  39.65500 41.64700 32.80900
C  39.57600 42.66400 34.04300
H  38.86400 42.20000 35.35100
N  41.50900 38.29300 27.93400
C  41.84200 37.67900 29.11300
C  42.16800 36.32600 28.78400
C  42.29600 36.21800 27.35100
C  41.78500 37.46500 26.85700
C  42.45000 35.28600 29.85100
C  42.73600 35.08200 26.48000
O  42.78200 35.09600 25.25300
C  43.11200 33.78600 27.09800
N  40.93000 40.15500 25.68500
C  41.02000 39.02800 24.99600
C  40.83900 39.27700 23.50400
C  40.22000 40.66500 23.46600
C  40.49000 41.18200 24.86300
C  42.05100 39.11200 22.66900
C  38.71400 40.77800 23.05500
C  37.67600 39.93000 23.79000
N  40.39100 42.37500 27.51500
C  40.05300 43.08800 26.42800
C  39.73100 44.40900 26.85800
C  39.83600 44.48200 28.24900
C  40.29100 43.16900 28.60100
C  39.40100 45.56500 25.93100
C  39.73400 45.31800 29.50600
O  39.50600 46.54500 29.60200
C  40.04400 44.35900 30.68100
C  41.07500 44.89500 31.52900
O  42.24800 44.69700 31.35100
O  40.61600 45.60500 32.52400
C  41.59100 46.09500 33.51000
H  41.93600 37.64200 31.23000
H  41.57200 37.00500 24.90300
H  39.87400 43.18700 24.35400
H  41.75000 42.37900 32.53500
H  41.07600 39.57800 32.85700
H  43.76600 40.88400 32.48600
H  43.49600 39.08500 32.65200
H  42.90800 40.18700 33.85300
H  39.26800 40.68900 33.15700
H  38.96800 42.05500 32.06600
H  39.07600 43.57900 33.72800
H  40.58800 42.86600 34.39600
H  41.86200 35.39600 30.76100
H  43.49600 35.44700 30.11500
H  42.26100 34.24200 29.60000
H  42.28300 33.33700 27.64500
H  43.99700 33.97100 27.70800
H  43.41800 33.13300 26.28100
H  40.16600 38.46300 23.23500
H  40.86900 41.27100 22.83400
H  42.89400 38.74300 23.25200
H  42.35600 40.02400 22.15700
H  41.96500 38.36700 21.87700
H  38.74300 40.30000 22.07600
H  38.55300 41.84500 22.90300
H  36.82500 40.60200 23.89700
H  37.95700 39.83100 24.83900
H  37.36100 39.02500 23.27100
H  39.74700 45.25300 24.94600
H  39.94000 46.47600 26.19200
H  38.34500 45.82300 25.85000
H  39.06600 44.36800 31.16200
H  42.30600 46.83100 33.14200
H  42.07200 45.27500 34.04400
H  41.08600 46.55900 34.35800
Mg 35.00400 48.04700 26.54100
C  35.40000 46.25200 29.47600
C  33.99900 50.78100 28.41400
C  34.22200 49.51000 23.53600
C  35.78600 45.04600 24.71100
N  34.69000 48.41400 28.63700
C  35.05300 47.56500 29.68500
C  34.79700 48.21600 31.04500
C  33.99400 49.47200 30.62700
C  34.24400 49.58400 29.16600
C  32.41200 49.22200 30.90200
C  36.18800 48.57700 31.67600
C  36.35700 48.24600 33.17100
H  36.22200 49.39400 34.11900
N  34.28100 49.92600 26.03700
C  33.98800 50.91400 26.96500
C  33.86200 52.10900 26.11500
C  33.78200 51.78000 24.70800
C  34.07800 50.33800 24.68000
C  33.67500 53.47400 26.71600
C  33.58900 52.67900 23.48500
O  33.62000 52.21700 22.34200
C  33.32200 54.26000 23.72000
N  34.91100 47.33100 24.41600
C  34.56000 48.19600 23.39800
C  34.82200 47.57200 22.00200
C  35.41800 46.12800 22.35700
C  35.34100 46.14200 23.90900
C  33.56500 47.48700 21.04400
C  36.80300 45.91000 21.76600
C  36.74000 45.07600 20.38900
N  35.45400 46.03700 26.93300
C  35.71300 44.92200 26.11500
C  36.04800 43.77700 26.95600
C  35.92300 44.25100 28.26000
C  35.53500 45.60300 28.22500
C  36.45200 42.43300 26.61500
C  35.93200 43.88700 29.64200
O  36.07900 42.86600 30.22900
C  35.71900 45.18400 30.44400
C  34.56500 44.95300 31.37200
O  33.38300 44.96600 31.13600
O  35.12300 44.90700 32.63800
C  34.19200 44.85700 33.75800
H  33.62000 51.65100 28.95500
H  34.12400 49.86900 22.50900
H  36.07800 44.20700 24.07600
H  34.23900 47.46600 31.60600
H  34.26000 50.41200 31.11000
H  31.75600 49.30100 30.03500
H  32.38100 50.06200 31.59600
H  32.21200 48.32200 31.48200
H  36.41700 49.63500 31.55200
H  36.97400 48.06100 31.12500
H  37.36300 47.89000 33.39500
H  35.73700 47.43700 33.55600
H  32.72000 53.93500 26.46400
H  34.43900 54.18200 26.39500
H  33.80100 53.46200 27.79900
H  33.22700 54.74400 22.74800
H  34.23200 54.68900 24.13800
H  32.44000 54.40200 24.34500
H  35.55600 48.17900 21.47100
H  34.69800 45.35600 22.08700
H  33.77300 47.84900 20.03700
H  32.77200 48.01600 21.57300
H  33.28100 46.43700 20.96400
H  37.51000 45.33600 22.36500
H  37.29300 46.87500 21.63600
H  37.41300 45.44500 19.61500
H  35.72800 45.22200 20.01200
H  37.00100 44.05000 20.64900
H  37.48100 42.32400 26.95900
H  36.49400 42.36800 25.52800
H  35.79600 41.71200 27.10300
H  36.65900 45.34000 30.97200
H  34.62400 44.22500 34.53400
H  33.25600 44.40900 33.42600
H  33.95400 45.84600 34.15000

