158

Mg 45.10500 4.06000 47.00800
C  43.26500 7.12600 46.51300
C  42.37000 2.49600 45.91500
C  46.93500 1.29000 47.01700
C  48.06400 6.06800 46.96100
N  43.02100 4.74000 46.44400
C  42.50400 6.01300 46.39100
C  41.00300 5.99600 46.13000
C  40.75600 4.48700 45.93000
C  42.12100 3.87900 45.99400
C  39.91100 3.77600 47.11600
C  40.53200 6.85100 44.86000
C  41.45500 6.94600 43.57200
H  40.69000 6.80700 42.22900
N  44.66200 2.11300 46.75000
C  43.46000 1.65100 46.28900
C  43.56100 0.18300 46.15900
C  44.87800 -0.23200 46.33500
C  45.62800 1.05800 46.67200
C  42.44700 -0.69200 45.65300
C  45.48500 -1.66100 46.39400
O  44.78700 -2.61000 46.07600
C  46.94700 -2.01800 46.75800
N  47.17100 3.73100 46.86100
C  47.62400 2.46500 47.03800
C  49.16700 2.39600 47.04900
C  49.58400 3.93000 47.09900
C  48.20600 4.67500 46.88600
C  49.93900 1.58700 48.17800
C  50.68100 4.41200 46.12700
C  51.76100 5.29100 46.66800
N  45.59400 6.13300 46.88900
C  46.83000 6.75000 46.88600
C  46.61900 8.18400 46.98600
C  45.26100 8.38400 46.90500
C  44.64600 7.16300 46.75300
C  47.70100 9.22800 47.09700
C  44.19700 9.36500 46.87700
O  44.36700 10.59200 46.83700
C  42.81300 8.60000 46.67000
C  42.02100 8.70500 47.88600
O  41.99700 7.96700 48.82200
O  41.20900 9.82100 47.79000
C  40.19200 9.96100 48.83600
H  41.44400 2.05100 45.54300
H  47.69100 0.50200 46.98800
H  48.94200 6.71600 47.01400
H  40.57500 6.39500 47.05000
H  40.32000 4.21700 44.96800
H  39.38900 4.57000 47.65000
H  40.58800 3.15700 47.70400
H  39.18700 3.21800 46.52400
H  40.40000 7.87900 45.19600
H  39.58100 6.42700 44.53700
H  42.18000 6.13300 43.61300
H  41.96800 7.90400 43.48200
H  41.50500 -0.14600 45.70800
H  42.39200 -1.55600 46.31500
H  42.72200 -1.01600 44.64900
H  46.83700 -3.09600 46.87600
H  47.13300 -1.60200 47.74900
H  47.71500 -1.89700 45.99400
H  49.54200 1.99100 46.10900
H  49.91300 4.09300 48.12500
H  50.33400 0.68200 47.71600
H  49.14500 1.27800 48.85800
H  50.76000 2.04900 48.72700
H  50.08300 4.97100 45.40600
H  51.11800 3.53700 45.64600
H  51.73400 6.21300 46.08600
H  52.73700 4.81600 46.57300
H  51.59200 5.66200 47.67900
H  47.43600 9.61400 48.08100
H  47.65400 10.06700 46.40300
H  48.70100 8.80100 47.03000
H  42.25600 8.98700 45.81700
H  40.21200 9.33000 49.72400
H  39.29000 9.70200 48.28100
H  40.21800 10.99300 49.18800
Mg -1.77900 34.27800 26.46600
C  -3.92800 32.77000 28.94300
C  -0.86200 36.48200 28.88300
C  -0.42100 36.08700 24.12800
C  -3.58800 32.49800 24.05000
N  -2.43100 34.62200 28.60700
C  -3.15300 33.81300 29.41900
C  -2.94300 34.20400 30.90600
C  -2.16700 35.56000 30.80800
C  -1.79100 35.58800 29.38100
C  -2.89600 36.83700 31.24500
C  -2.23600 33.09600 31.85600
C  -2.84500 32.66400 33.23100
H  -1.99500 32.39900 34.42600
N  -0.67400 36.07300 26.46800
C  -0.39100 36.77400 27.55800
C  0.62200 37.82400 27.16700
C  0.81200 37.65200 25.74600
C  -0.10800 36.59000 25.37900
C  1.18200 38.85500 28.06200
C  1.62200 38.46100 24.82700
O  1.57000 38.36600 23.56500
C  2.60200 39.46900 25.26900
N  -2.16000 34.44600 24.41200
C  -1.26300 35.15300 23.62600
C  -1.30700 34.77400 22.11600
C  -2.44400 33.72600 22.04500
C  -2.81900 33.58400 23.58100
C  -1.37700 35.94500 21.10400
C  -2.06300 32.40800 21.35700
C  -3.19900 31.74300 20.49200
N  -3.28500 32.76400 26.44600
C  -3.91200 32.11800 25.38500
C  -4.83800 31.17300 25.89600
C  -4.86000 31.39500 27.31600
C  -3.92900 32.39000 27.57700
C  -5.52700 30.15900 25.00700
C  -5.41900 30.85700 28.56200
O  -6.18000 29.92700 28.72000
C  -4.77200 31.75300 29.68900
C  -5.96500 32.21000 30.49000
O  -6.70000 33.14300 30.17900
O  -5.97300 31.56000 31.72000
C  -6.94600 32.15400 32.70500
H  -0.36800 37.08800 29.64500
H  0.18500 36.46300 23.30100
H  -4.02700 31.79900 23.33500
H  -3.87400 34.52800 31.37200
H  -1.30500 35.48600 31.47100
H  -3.94500 36.70900 31.51000
H  -2.86100 37.61900 30.48700
H  -2.49600 37.28900 32.15200
H  -1.24000 33.44900 32.12200
H  -2.14500 32.13600 31.35000
H  -3.50800 31.80100 33.17000
H  -3.62700 33.39000 33.45600
H  2.27000 38.78400 28.07900
H  0.75300 38.67500 29.04700
H  0.98100 39.90200 27.83700
H  3.11300 40.04400 24.49700
H  3.30700 38.73400 25.65900
H  2.09300 40.17300 25.92700
H  -0.37000 34.28100 21.85900
H  -3.27100 34.20100 21.51700
H  -1.37700 36.91700 21.59700
H  -2.28400 35.97200 20.50100
H  -0.48800 36.02700 20.47800
H  -1.88200 31.62900 22.09700
H  -1.21600 32.53000 20.68200
H  -3.83500 32.43600 19.94100
H  -3.84000 31.18400 21.17300
H  -2.65800 31.09200 19.80500
H  -6.53800 30.53400 24.84700
H  -5.52600 29.23400 25.58400
H  -5.12100 30.01900 24.00500
H  -4.17800 31.24200 30.44700
H  -6.62700 33.16700 32.95000
H  -6.88700 31.71600 33.70200
H  -7.96500 32.10200 32.32300

