158

Mg 2.22300 -1.78900 43.01000
C  5.69900 -1.42100 42.51500
C  1.70900 1.08700 41.16600
C  -1.15300 -2.49500 42.77600
C  2.75000 -4.98800 44.07500
N  3.56700 -0.29000 41.93800
C  4.98900 -0.34500 41.92500
C  5.50100 0.86200 41.17200
C  4.17700 1.64900 40.80800
C  3.04900 0.79000 41.35800
C  4.19300 3.12400 41.28700
C  6.40800 0.54900 39.99700
C  5.90900 -0.62700 39.06900
H  5.65200 -0.43500 37.63400
N  0.46000 -0.74900 42.26300
C  0.51900 0.41500 41.55500
C  -0.77900 0.93100 41.35200
C  -1.68600 -0.08100 41.76300
C  -0.83800 -1.14500 42.29300
C  -1.13700 2.30100 40.80400
C  -3.17200 0.04200 41.66500
O  -3.78600 1.07700 41.29000
C  -3.95600 -1.15600 42.07600
N  0.99300 -3.52800 43.25800
C  -0.37500 -3.56200 43.14200
C  -0.87100 -5.01700 43.40500
C  0.28900 -5.71700 44.09500
C  1.44100 -4.67700 43.80600
C  -2.30900 -5.32800 43.94700
C  0.51700 -7.19800 43.67400
C  0.55800 -8.31600 44.80400
N  3.86900 -3.05300 43.26000
C  3.96000 -4.26900 43.87700
C  5.38900 -4.62000 44.01800
C  6.07700 -3.54400 43.50800
C  5.10100 -2.61400 43.01800
C  5.90100 -5.82400 44.68200
C  7.38500 -2.91800 43.30300
O  8.46300 -3.43200 43.66700
C  7.20300 -1.61400 42.44800
C  8.00800 -0.52400 43.09400
O  8.94900 0.08000 42.57900
O  7.51100 -0.24700 44.38100
C  8.36600 0.59100 45.26700
H  1.47700 1.96500 40.56000
H  -2.16900 -2.85800 42.94600
H  2.89200 -5.90900 44.64400
H  6.12100 1.43600 41.86000
H  4.18400 1.65400 39.71800
H  4.31300 3.85000 40.48300
H  4.97000 3.22400 42.04400
H  3.22700 3.40700 41.70500
H  7.44900 0.30300 40.20900
H  6.62700 1.49000 39.49300
H  4.91200 -0.94900 39.36800
H  6.65900 -1.41700 39.12200
H  -1.25500 2.97900 41.65000
H  -2.12000 2.26200 40.33500
H  -0.37800 2.58600 40.07600
H  -5.02400 -1.01600 41.90600
H  -3.63900 -1.21600 43.11700
H  -3.60200 -1.98300 41.46000
H  -0.81600 -5.43900 42.40100
H  0.13000 -5.74000 45.17300
H  -2.92900 -4.49800 44.28600
H  -2.33400 -5.90400 44.87200
H  -2.97500 -5.78100 43.21400
H  1.45900 -7.29400 43.13500
H  -0.24900 -7.54700 42.98100
H  0.35200 -9.29900 44.38100
H  -0.07600 -8.04400 45.64900
H  1.59100 -8.36300 45.14800
H  6.81700 -5.58000 45.22100
H  6.18200 -6.62600 43.99900
H  5.13200 -6.32500 45.27000
H  7.59800 -1.90000 41.47300
H  7.79500 1.49600 45.47800
H  9.39800 0.74000 44.94900
H  8.43800 0.04200 46.20600
Mg -4.24000 25.52700 26.89100
C  -2.94000 27.01500 29.76700
C  -6.24400 23.53700 28.84400
C  -4.84600 23.70900 24.04300
C  -1.91400 27.30200 25.04400
N  -4.56200 25.33700 29.12100
C  -3.87000 25.97600 30.13400
C  -4.49200 25.61700 31.53400
C  -5.35100 24.29600 31.20900
C  -5.40700 24.35500 29.65400
C  -4.67100 22.91100 31.71200
C  -5.45500 26.80000 32.01200
C  -5.60400 26.91300 33.54800
H  -5.31200 25.75400 34.59500
N  -5.41400 24.04200 26.51400
C  -6.22700 23.36800 27.43800
C  -7.16600 22.72600 26.63700
C  -6.84300 22.72600 25.29900
C  -5.60500 23.52300 25.23000
C  -8.20700 21.84200 27.27700
C  -7.57500 22.10700 24.13600
O  -7.25500 22.23100 23.01900
C  -8.91300 21.28600 24.29700
N  -3.45500 25.46800 24.88700
C  -3.77800 24.63900 23.89200
C  -2.94000 24.84700 22.59200
C  -2.18000 26.20300 22.88200
C  -2.54000 26.34500 24.38500
C  -1.99000 23.73800 22.20300
C  -2.79300 27.36700 22.02200
C  -1.95200 28.46100 21.48400
N  -2.78900 26.92500 27.25400
C  -1.99700 27.63700 26.43000
C  -1.25400 28.61700 27.12800
C  -1.54700 28.34200 28.44600
C  -2.51600 27.33900 28.48000
C  -0.27700 29.52800 26.54200
C  -1.37000 28.79300 29.79700
O  -0.61600 29.69900 30.18200
C  -2.18300 27.89400 30.74100
C  -1.42400 27.39300 31.83900
O  -0.42800 26.65200 31.83500
O  -1.94900 27.84500 33.00700
C  -1.44900 27.19500 34.22400
H  -6.75200 22.84300 29.51700
H  -5.02600 23.05800 23.18600
H  -1.14400 27.86500 24.51100
H  -3.68100 25.25900 32.16900
H  -6.33900 24.34300 31.66500
H  -4.23700 22.92800 32.71200
H  -3.92600 22.57800 30.98900
H  -5.39000 22.09200 31.69600
H  -6.46700 26.70800 31.61700
H  -5.15000 27.78100 31.64900
H  -6.60000 27.30900 33.75000
H  -4.95000 27.72300 33.87200
H  -7.88300 20.83100 27.02900
H  -9.13700 22.04500 26.74600
H  -8.35500 22.05100 28.33600
H  -9.74900 21.88800 24.65400
H  -8.74000 20.50500 25.03700
H  -9.16600 20.83200 23.33900
H  -3.68400 24.92400 21.79900
H  -1.09100 26.14900 22.87000
H  -1.01400 24.17700 22.41000
H  -2.12000 23.55300 21.13700
H  -2.17300 22.92400 22.90400
H  -3.66000 27.80400 22.51700
H  -3.19600 26.89700 21.12500
H  -0.92400 28.24800 21.77900
H  -2.16900 29.49400 21.75700
H  -1.91300 28.39700 20.39700
H  -0.36400 29.60800 25.45900
H  0.72800 29.22900 26.84100
H  -0.41100 30.52600 26.95900
H  -2.87800 28.63000 31.14500
H  -0.39400 27.39800 34.41000
H  -1.67600 26.13400 34.12500
H  -1.94700 27.62200 35.09500

