158

Mg 40.63600 10.04700 30.18900
C  42.76100 11.23400 32.74800
C  38.64700 8.70300 32.54900
C  38.89000 8.67000 27.71900
C  43.07900 11.04600 27.85300
N  40.78800 10.03200 32.48400
C  41.64800 10.54500 33.34700
C  41.23500 10.18900 34.79600
C  40.01800 9.14700 34.58900
C  39.73500 9.31300 33.12000
C  40.26400 7.65500 34.80100
C  40.91100 11.45000 35.64100
C  40.26600 11.23600 37.10100
H  40.79100 12.11100 38.20300
N  38.90000 8.98200 30.15400
C  38.22200 8.49400 31.22700
C  37.12500 7.62500 30.75900
C  37.16300 7.64100 29.30400
C  38.38000 8.44400 29.00400
C  36.34400 6.85300 31.70400
C  36.16200 7.02200 28.37300
O  36.40900 6.79600 27.17500
C  34.88900 6.50100 28.87700
N  40.91800 9.82600 28.16400
C  40.00900 9.29600 27.34800
C  40.35500 9.47700 25.92400
C  41.67600 10.21500 25.92400
C  41.90100 10.39400 27.40100
C  40.24000 8.14500 25.08000
C  41.55300 11.53800 25.19700
C  41.02200 12.80800 25.93800
N  42.49200 11.08300 30.20600
C  43.39700 11.36600 29.17500
C  44.59200 11.98500 29.83200
C  44.32200 12.07100 31.22300
C  43.11200 11.38100 31.38400
C  45.79300 12.40200 29.17700
C  44.87200 12.47800 32.48500
O  45.94600 12.98400 32.78600
C  43.80100 12.04500 33.54100
C  44.50900 11.29600 34.57300
O  44.92000 10.16100 34.49900
O  44.44100 12.02600 35.76700
C  44.65500 11.25500 37.02800
H  37.95400 8.21900 33.24000
H  38.23600 8.37900 26.89400
H  43.88000 11.31700 27.16300
H  42.15000 9.74900 35.19100
H  39.13600 9.47200 35.14100
H  41.30900 7.68500 35.10900
H  40.17000 7.06700 33.88700
H  39.50100 7.18500 35.42100
H  40.30200 12.20700 35.14800
H  41.90400 11.85200 35.84000
H  40.40300 10.17300 37.30100
H  39.17900 11.30100 37.05100
H  36.56000 5.80000 31.52300
H  35.27800 7.06900 31.63600
H  36.43800 7.09900 32.76200
H  35.12900 5.59700 29.43700
H  34.24800 6.29100 28.02100
H  34.43200 7.18400 29.59300
H  39.60500 10.15000 25.50900
H  42.44300 9.59500 25.46100
H  41.18100 7.96800 24.55800
H  39.59700 8.48800 24.26900
H  39.89800 7.22900 25.56100
H  40.84200 11.36700 24.38900
H  42.45900 11.80700 24.65400
H  41.91400 13.42600 26.04000
H  40.53800 12.45200 26.84700
H  40.22600 13.28300 25.36400
H  46.46700 12.71400 29.97500
H  45.53400 13.17700 28.45600
H  46.34900 11.62700 28.64900
H  43.34200 12.95000 33.94000
H  44.36000 10.20600 37.06900
H  44.19400 11.69900 37.91000
H  45.72900 11.30400 37.21200
Mg 49.63300 34.98700 28.03100
C  47.44700 33.80000 30.34800
C  49.83800 37.89500 29.98700
C  51.65200 36.37200 25.66100
C  48.68800 32.67400 25.68500
N  48.91400 35.67500 30.01100
C  48.13800 34.89900 30.84100
C  47.99800 35.55300 32.22900
C  48.36000 37.07700 31.87600
C  49.15000 36.91700 30.54300
C  47.23000 38.14800 31.72100
C  49.07700 34.92400 33.19900
C  48.64500 34.62900 34.65700
H  49.17500 35.57900 35.72800
N  50.83000 36.80000 27.93000
C  50.72800 37.82400 28.80100
C  51.62700 38.91400 28.33900
C  52.23300 38.44100 27.12100
C  51.60500 37.10800 26.85400
C  51.70300 40.23400 29.03400
C  53.22800 39.14000 26.18400
O  53.75100 38.51900 25.26800
C  53.67600 40.57800 26.46200
N  50.05800 34.59000 25.89500
C  50.99900 35.26000 25.20100
C  51.08700 34.70600 23.69400
C  50.32700 33.35600 23.83100
C  49.68900 33.49600 25.25800
C  50.48900 35.71900 22.69400
C  51.27000 32.22800 23.72100
C  51.84800 32.01900 22.29400
N  48.36200 33.46400 28.02000
C  48.06200 32.55200 26.99600
C  47.02700 31.68900 27.45100
C  46.68000 32.20100 28.71000
C  47.62200 33.20700 29.07900
C  46.27400 30.62600 26.67600
C  45.80100 31.96400 29.85200
O  44.86700 31.15900 30.06700
C  46.30200 32.92500 31.00300
C  46.82400 31.98800 32.06100
O  47.94800 31.62000 32.28000
O  45.85800 31.66000 32.86600
C  46.12300 30.80500 34.00200
H  50.03700 38.86500 30.44800
H  52.29500 36.73800 24.85800
H  48.46300 31.85000 25.00400
H  46.99900 35.48800 32.65900
H  49.09900 37.25500 32.65700
H  46.23100 37.71100 31.75000
H  47.18900 38.57500 30.71900
H  47.23500 38.96600 32.44100
H  50.04100 35.43400 33.19200
H  49.27100 33.94200 32.76900
H  48.72800 33.65000 35.12900
H  47.55800 34.69500 34.61400
H  52.33800 40.98900 28.57100
H  52.04400 39.99800 30.04200
H  50.68800 40.62100 29.11800
H  52.84400 41.27800 26.53400
H  54.29200 40.86000 25.60800
H  54.35100 40.56300 27.31800
H  52.14100 34.54500 23.46600
H  49.47900 33.31400 23.14700
H  50.39400 36.73200 23.08700
H  49.51900 35.30700 22.41500
H  51.21100 35.77100 21.87900
H  50.79700 31.30900 24.06600
H  52.09500 32.39700 24.41400
H  51.35400 32.70200 21.60400
H  51.59800 31.01500 21.95100
H  52.91400 32.24600 22.32200
H  45.33100 30.38000 27.16400
H  46.81700 29.68500 26.58200
H  45.93200 30.82900 25.66100
H  45.48000 33.49800 31.43200
H  47.10900 30.95500 34.44300
H  46.03800 29.75600 33.71600
H  45.40000 30.92300 34.80900

