158

Mg 24.68200 -5.54200 45.91900
C  27.23700 -3.63600 44.38800
C  22.52000 -4.35200 43.60300
C  22.59700 -8.11300 46.68300
C  27.26000 -7.13800 47.73600
N  24.85900 -4.10200 44.24600
C  25.92400 -3.40200 43.86000
C  25.58700 -2.50200 42.66600
C  24.05300 -2.48700 42.76600
C  23.74200 -3.69100 43.61900
C  23.43100 -1.20800 43.48200
C  26.06100 -3.12000 41.36800
C  27.08700 -2.32200 40.51500
H  26.57900 -2.08600 39.02200
N  22.72900 -6.11600 45.31600
C  22.04900 -5.49300 44.34700
C  20.72000 -6.13800 44.13100
C  20.75300 -7.26800 45.06000
C  22.08600 -7.19400 45.75600
C  19.60000 -5.67200 43.20300
C  19.64800 -8.35500 45.14100
O  18.62500 -8.22100 44.49100
C  19.85200 -9.58700 45.87900
N  24.90900 -7.32900 47.00000
C  23.86900 -8.17300 47.28200
C  24.25300 -9.32600 48.19300
C  25.75700 -9.02500 48.55800
C  26.01300 -7.72700 47.73200
C  23.33400 -9.51700 49.40800
C  26.64400 -10.25400 48.42900
C  27.03500 -11.06800 49.65900
N  26.78900 -5.40800 46.14500
C  27.61500 -6.03900 46.97600
C  28.89500 -5.45500 46.89600
C  28.83200 -4.44900 45.87200
C  27.52900 -4.52800 45.46500
C  29.99400 -5.80900 47.79800
C  29.51100 -3.40800 45.13500
O  30.58100 -2.97400 45.24100
C  28.49700 -2.85800 44.02200
C  28.22000 -1.38300 44.22200
O  27.29600 -0.86700 44.75300
O  29.24500 -0.62900 43.68700
C  29.21600 0.83900 44.11100
H  21.71900 -3.96900 42.96700
H  21.91900 -8.87400 47.07500
H  27.96500 -7.61900 48.41800
H  26.03200 -1.51000 42.74500
H  23.58200 -2.59900 41.78900
H  22.91000 -1.38100 44.42300
H  22.67700 -0.72200 42.86300
H  24.17300 -0.45700 43.75200
H  25.30900 -3.34600 40.61200
H  26.51600 -4.08500 41.58900
H  28.05800 -2.80100 40.38900
H  27.41800 -1.37200 40.93400
H  18.93700 -6.47700 42.88500
H  20.13800 -5.40600 42.29300
H  18.92500 -4.90200 43.57600
H  19.09800 -10.30000 45.54600
H  19.74700 -9.50400 46.96100
H  20.80600 -10.02400 45.58500
H  24.26100 -10.20800 47.55300
H  25.80600 -8.63800 49.57500
H  22.45200 -8.87700 49.43500
H  23.96800 -9.40900 50.28800
H  22.78400 -10.45600 49.35100
H  27.63300 -9.95900 48.08100
H  26.23600 -10.95400 47.70100
H  26.87800 -12.11200 49.38800
H  26.43600 -10.93900 50.56000
H  28.05800 -10.82100 49.94200
H  29.69200 -6.62600 48.45300
H  30.16400 -5.01500 48.52400
H  30.97300 -5.96300 47.34400
H  28.81800 -3.11500 43.01300
H  28.40000 1.20100 43.48600
H  30.20000 1.20600 43.82000
H  28.89300 0.98200 45.14200
Mg 41.24100 41.36900 26.67300
C  40.74700 44.11800 29.01900
C  41.87100 39.31700 29.35900
C  42.06500 39.10400 24.52000
C  41.14300 43.77200 24.19000
N  41.27500 41.73900 28.92600
C  40.91900 42.80900 29.64100
C  40.96600 42.55500 31.10700
C  41.43700 41.02600 31.32500
C  41.63600 40.70700 29.80200
C  42.74500 40.60500 32.12800
C  39.64700 42.86300 31.92500
C  39.81400 43.78900 33.19400
H  39.32100 43.25900 34.54800
N  41.80500 39.48300 26.93000
C  42.00500 38.80600 28.08700
C  42.41300 37.45800 27.82800
C  42.38400 37.33000 26.42300
C  42.07600 38.70300 25.88200
C  42.90200 36.42200 28.90400
C  42.58400 36.14000 25.53000
O  42.46600 36.17500 24.31700
C  43.12900 34.89700 26.08000
N  41.69200 41.39000 24.65000
C  41.85600 40.31200 23.94900
C  41.67800 40.56600 22.43500
C  41.35700 42.10600 22.35000
C  41.41600 42.48000 23.82900
C  42.90400 40.10300 21.57500
C  40.01100 42.48300 21.69700
C  38.69300 42.26200 22.46500
N  40.94900 43.53400 26.56500
C  41.00500 44.31700 25.45000
C  40.83100 45.66500 25.90600
C  40.78000 45.62500 27.31500
C  40.84100 44.32300 27.66700
C  40.79200 46.85300 25.09700
C  40.70600 46.40800 28.46600
O  40.69100 47.61900 28.62500
C  40.68600 45.42300 29.65800
C  41.81700 45.79500 30.52900
O  42.96600 45.34000 30.40400
O  41.42100 46.79900 31.37600
C  42.56200 47.30500 32.17500
H  42.06300 38.79000 30.29600
H  42.11900 38.45200 23.64600
H  41.05200 44.57000 23.45000
H  41.77400 43.09500 31.60000
H  40.67700 40.33200 31.68300
H  42.69300 39.60800 32.56500
H  42.70700 41.36100 32.91200
H  43.59500 40.70600 31.45200
H  39.26800 41.92100 32.32100
H  38.89300 43.39400 31.34300
H  39.15900 44.64900 33.05800
H  40.86100 43.98700 33.42400
H  43.92300 36.07400 28.74100
H  42.32200 35.50500 29.01100
H  42.89500 36.87400 29.89600
H  42.41600 34.49600 26.80000
H  44.01000 35.08700 26.69400
H  43.38000 34.22100 25.26200
H  40.76300 40.02000 22.20500
H  42.15900 42.62000 21.82000
H  43.64400 39.53700 22.14000
H  43.57300 40.77500 21.03700
H  42.52200 39.33300 20.90500
H  39.85400 42.01000 20.72800
H  40.06500 43.52700 21.38700
H  38.80100 42.03500 23.52600
H  38.17300 41.48800 21.90000
H  38.15800 43.20300 22.34300
H  40.04300 47.57100 25.42900
H  40.57100 46.69100 24.04200
H  41.75800 47.34700 24.98800
H  39.69700 45.61000 30.07500
H  43.34900 47.72400 31.54800
H  43.06900 46.48900 32.69000
H  42.28500 48.11200 32.85300

