158

Mg 17.92800 -1.91200 28.01300
C  16.69600 0.06600 30.69100
C  19.89000 -3.63900 30.20300
C  19.45900 -3.37800 25.45600
C  16.49700 0.47400 25.75100
N  18.35700 -1.67700 30.24000
C  17.66200 -0.90700 31.12100
C  17.99900 -1.39300 32.57700
C  19.22200 -2.34600 32.33400
C  19.11700 -2.59600 30.86400
C  20.60500 -1.80000 32.68600
C  16.85400 -2.16000 33.33500
C  16.31100 -1.44900 34.62300
H  17.19000 -0.85800 35.62100
N  19.36100 -3.41800 27.78000
C  20.02100 -4.02400 28.84100
C  20.73300 -5.17000 28.32200
C  20.60400 -5.18700 26.94800
C  19.79000 -3.96900 26.67500
C  21.41100 -6.07100 29.25000
C  21.12300 -6.00300 25.86800
O  20.64400 -6.02100 24.73100
C  22.25300 -6.85600 26.14400
N  17.94100 -1.53600 25.92100
C  18.76100 -2.26800 25.10600
C  18.81700 -1.72300 23.73500
C  17.78500 -0.57000 23.79900
C  17.33200 -0.54400 25.22900
C  20.16100 -1.26800 23.09900
C  16.53500 -0.64400 22.81400
C  16.38700 0.53400 21.78600
N  16.70500 -0.17700 28.14400
C  16.05000 0.60300 27.15500
C  15.17200 1.46500 27.80700
C  15.33500 1.34000 29.13800
C  16.36900 0.29000 29.34100
C  14.45700 2.59800 27.01400
C  14.93000 1.87800 30.43200
O  14.14700 2.79600 30.67400
C  15.67400 0.91700 31.54400
C  16.38400 1.77600 32.48900
O  17.44000 2.36300 32.27100
O  15.58900 1.95600 33.60300
C  16.13600 3.01400 34.52100
H  20.29300 -4.38800 30.88800
H  19.89700 -3.88600 24.59400
H  16.10400 1.24100 25.08100
H  18.18000 -0.46900 33.12700
H  19.18700 -3.35400 32.74600
H  20.71600 -0.74600 32.94100
H  21.24600 -2.02700 31.83500
H  20.86500 -2.17500 33.67600
H  17.16500 -3.15700 33.64900
H  15.94800 -2.25200 32.73500
H  15.95500 -2.34700 35.12900
H  15.37700 -0.90200 34.50000
H  22.30600 -5.64900 29.70700
H  21.73000 -6.95800 28.70200
H  20.78300 -6.41800 30.07000
H  22.63200 -7.20200 25.18300
H  21.78300 -7.69400 26.66000
H  23.03900 -6.26500 26.61500
H  18.44600 -2.55500 23.13600
H  18.29800 0.34900 23.51600
H  20.01400 -1.12700 22.02800
H  20.90100 -2.05400 23.25100
H  20.40200 -0.27200 23.47100
H  15.59200 -0.68700 23.35800
H  16.50200 -1.62600 22.34300
H  15.47000 0.46400 21.20000
H  17.28300 0.58700 21.16700
H  16.35200 1.44900 22.37600
H  13.80400 2.18100 26.24800
H  15.25500 3.22100 26.61000
H  13.82800 3.27800 27.58800
H  14.95200 0.36900 32.14900
H  15.38200 3.22600 35.27900
H  16.35100 3.95800 34.02000
H  17.05100 2.68600 35.01500
Mg 25.79400 0.59200 29.29700
C  27.79400 0.20600 32.11700
C  23.13500 1.31800 31.42700
C  23.90600 0.48000 26.68300
C  28.57100 -0.39400 27.32500
N  25.57600 0.93800 31.51100
C  26.54900 0.75400 32.47000
C  26.00400 1.14500 33.86800
C  24.46500 1.32700 33.61200
C  24.39800 1.16100 32.10300
C  23.39100 0.36100 34.29300
C  26.57000 2.38600 34.51800
C  27.06000 2.11900 35.94500
H  26.70400 3.12600 36.98700
N  23.76800 0.85200 29.07700
C  22.83700 1.16700 30.03400
C  21.53600 1.34800 29.41300
C  21.70300 1.17700 28.03600
C  23.17700 0.79500 27.86800
C  20.32800 1.56100 30.31200
C  20.72400 1.31800 26.86400
O  21.04300 1.13800 25.65900
C  19.39700 1.78700 27.23700
N  26.19800 -0.04400 27.27700
C  25.22200 0.20100 26.36800
C  25.78300 -0.03300 24.90800
C  27.31900 0.18700 25.16900
C  27.36900 -0.16500 26.69700
C  25.51400 -1.43000 24.28200
C  27.92200 1.57900 24.78900
C  28.77500 1.45200 23.51900
N  27.84000 0.02400 29.62000
C  28.82100 -0.44400 28.74400
C  30.00500 -0.70600 29.45900
C  29.67000 -0.38900 30.80400
C  28.35200 -0.03300 30.81100
C  31.30200 -1.26700 28.80600
C  30.18100 -0.27700 32.14100
O  31.30700 -0.47100 32.61700
C  29.03300 0.19100 33.01300
C  28.94500 -0.83300 34.10900
O  28.76500 -2.01200 33.87700
O  29.28200 -0.33300 35.29000
C  29.37900 -1.21800 36.40200
H  22.34000 1.58400 32.12700
H  23.34000 0.46800 25.74900
H  29.41700 -0.49600 26.64300
H  26.17100 0.31800 34.55800
H  23.99500 2.28300 33.84300
H  22.63800 0.99600 34.75900
H  23.77000 -0.20100 35.14600
H  22.86400 -0.29700 33.60200
H  25.73500 3.08700 34.50800
H  27.38400 2.85100 33.96100
H  28.14900 2.11900 35.99500
H  26.73400 1.12500 36.25300
H  19.47800 0.90400 30.12300
H  19.93700 2.56600 30.15200
H  20.54400 1.61900 31.37900
H  19.00900 1.09200 27.98200
H  18.72900 1.63000 26.39000
H  19.40900 2.84800 27.48700
H  25.43300 0.83800 24.35400
H  27.78300 -0.65600 24.65700
H  25.12400 -2.05200 25.08700
H  26.32600 -1.98200 23.80900
H  24.86900 -1.29300 23.41500
H  28.59200 1.82600 25.61300
H  27.28400 2.45300 24.65600
H  29.76500 1.77800 23.83700
H  28.38000 2.15200 22.78300
H  28.75200 0.45800 23.07100
H  30.96100 -1.99900 28.07400
H  31.99400 -1.62800 29.56700
H  31.73500 -0.49600 28.16900
H  29.28000 1.15900 33.45000
H  29.46500 -2.26600 36.11400
H  28.49300 -1.27600 37.03500
H  30.26100 -0.89600 36.95700

