158

Mg 43.97500 6.11300 47.97200
C  41.94300 8.74200 47.41800
C  41.37400 3.93200 47.45800
C  46.26100 3.42200 47.95500
C  46.67400 8.34400 47.95000
N  41.90500 6.26300 47.56900
C  41.30800 7.50200 47.30800
C  39.79200 7.25000 46.94600
C  39.65600 5.68800 47.25800
C  41.04200 5.21500 47.52600
C  38.68800 5.39500 48.42800
C  39.36200 7.74100 45.46900
C  40.45400 7.76500 44.33100
H  39.96300 8.21300 42.86600
N  43.83100 3.98400 47.72900
C  42.63900 3.30100 47.56000
C  42.91500 1.93000 47.27800
C  44.32300 1.68800 47.43000
C  44.87700 3.07000 47.71000
C  41.83600 0.88800 47.00600
C  44.93300 0.38200 47.23400
O  44.31600 -0.66000 46.85300
C  46.30400 0.16000 47.60200
N  46.20900 5.93900 47.80100
C  46.87900 4.73200 48.02900
C  48.35200 4.94900 48.31000
C  48.47900 6.53500 48.19900
C  47.01100 6.99900 47.94000
C  48.72100 4.39800 49.70200
C  49.46000 6.93100 47.02200
C  50.76400 7.62700 47.41700
N  44.32000 8.13500 47.69700
C  45.42600 8.89900 47.72500
C  45.20700 10.29600 47.48300
C  43.75400 10.29100 47.36400
C  43.32100 8.96400 47.56600
C  46.25500 11.37800 47.44500
C  42.57700 11.12900 47.15600
O  42.46500 12.30200 47.02400
C  41.32800 10.14000 47.21600
C  40.39200 10.35900 48.32200
O  40.53500 10.06200 49.47400
O  39.26200 11.02300 47.86700
C  38.11700 11.29200 48.78700
H  40.59900 3.21800 47.17000
H  47.05800 2.67900 48.03000
H  47.54400 8.95500 48.19800
H  39.17800 7.78500 47.67000
H  39.30200 5.18000 46.36100
H  38.10600 6.29500 48.62800
H  39.14600 4.99200 49.33100
H  37.86200 4.72700 48.18300
H  38.99800 8.76800 45.50700
H  38.54200 7.09600 45.15200
H  40.91800 6.79100 44.17400
H  41.31700 8.40000 44.53200
H  41.96200 0.52600 45.98600
H  40.82400 1.27700 47.11300
H  41.91600 0.05500 47.70400
H  46.96100 0.70800 46.92500
H  46.66900 -0.85300 47.43400
H  46.49400 0.58300 48.58800
H  48.93400 4.36400 47.59700
H  48.87200 7.00400 49.10100
H  48.01700 4.48400 50.52900
H  49.63500 4.84000 50.09900
H  49.00000 3.35700 49.53700
H  48.89100 7.63200 46.41200
H  49.42800 6.12600 46.28900
H  51.43800 7.35200 46.60500
H  51.02200 7.25200 48.40700
H  50.59700 8.70400 47.46000
H  46.69100 11.53900 48.43100
H  45.78700 12.26300 47.01500
H  46.99400 11.07700 46.70200
H  40.84400 10.20000 46.24100
H  37.34500 10.72900 48.26200
H  37.85000 12.34500 48.69000
H  38.22600 11.10300 49.85500
Mg -5.93500 24.86000 25.90300
C  -4.45900 26.01400 28.94100
C  -7.88300 22.85800 27.86500
C  -7.06300 23.54800 23.13700
C  -3.35300 26.58200 24.13900
N  -6.02800 24.34700 28.24000
C  -5.49700 25.09400 29.23700
C  -6.07600 24.77400 30.55800
C  -6.94000 23.46300 30.21600
C  -6.99000 23.59500 28.66200
C  -6.28500 22.09700 30.53800
C  -6.93900 25.98200 31.15900
C  -6.52200 26.36200 32.56800
H  -5.86200 25.31700 33.49800
N  -7.36500 23.41300 25.51200
C  -8.04700 22.67000 26.44400
C  -8.83500 21.76800 25.75600
C  -8.74100 21.97100 24.36600
C  -7.72200 23.06700 24.25800
C  -9.67100 20.67200 26.46300
C  -9.38200 21.33600 23.25600
O  -9.14200 21.70300 22.10300
C  -10.38400 20.22200 23.46200
N  -5.32600 25.08800 23.94500
C  -5.94900 24.40100 22.94900
C  -5.44500 24.83000 21.55600
C  -4.30100 25.79800 21.88500
C  -4.32300 25.83300 23.42400
C  -4.87800 23.62900 20.77300
C  -4.51400 27.24100 21.27900
C  -3.47800 27.58100 20.20200
N  -4.40100 26.10500 26.34500
C  -3.40000 26.70400 25.54300
C  -2.50800 27.45100 26.35700
C  -2.92600 27.26400 27.68800
C  -4.05000 26.43200 27.62600
C  -1.34200 28.35000 25.86700
C  -2.72600 27.60900 29.11200
O  -1.88200 28.33900 29.67300
C  -3.72600 26.78600 29.97400
C  -2.85700 25.98900 30.90300
O  -2.34700 24.90100 30.61400
O  -2.62500 26.66600 32.04100
C  -1.52600 26.32800 32.93500
H  -8.44600 22.09800 28.41100
H  -7.37600 23.12800 22.17900
H  -2.64000 27.10900 23.50100
H  -5.32900 24.49200 31.30000
H  -7.96800 23.44900 30.57600
H  -7.05700 21.55000 31.08000
H  -5.48600 22.30200 31.25000
H  -6.03900 21.54400 29.63100
H  -7.99700 25.72900 31.22100
H  -6.91800 26.83800 30.48500
H  -7.25200 26.81400 33.23800
H  -5.73500 27.07000 32.30700
H  -10.73500 20.89200 26.37100
H  -9.38700 20.58900 27.51200
H  -9.41900 19.71000 26.01900
H  -10.71200 20.06900 22.43400
H  -11.24800 20.63100 23.98600
H  -10.03900 19.27300 23.87300
H  -6.18600 25.36600 20.96300
H  -3.35000 25.30800 21.67500
H  -5.21000 23.71500 19.73800
H  -5.30600 22.72200 21.19900
H  -3.79300 23.52500 20.78300
H  -4.48900 28.06400 21.99300
H  -5.44100 27.36300 20.72000
H  -2.72500 26.79600 20.13400
H  -2.99900 28.54300 20.37900
H  -4.00100 27.61800 19.24600
H  -1.68200 29.34800 25.59300
H  -0.85400 27.98100 24.96400
H  -0.80500 28.39300 26.81500
H  -4.23300 27.56300 30.54700
H  -0.73000 27.04800 32.74700
H  -1.15100 25.32900 32.71200
H  -1.85000 26.37800 33.97400

