158

Mg 48.50800 16.67200 29.61500
C  46.19000 16.07000 32.17200
C  50.33800 18.64400 31.89100
C  50.64400 17.39500 27.18100
C  46.25300 15.25900 27.37000
N  48.18800 17.39700 31.69600
C  47.32400 16.74200 32.54900
C  47.78700 17.03300 33.99800
C  48.72900 18.27700 33.89600
C  49.13500 18.08600 32.39500
C  47.95200 19.68300 34.09700
C  48.41600 15.72700 34.63100
C  48.12400 15.36900 36.07800
H  48.11800 16.54600 37.05300
N  50.27400 17.68500 29.57700
C  50.90100 18.47900 30.63000
C  52.21200 18.96100 30.18300
C  52.39200 18.48200 28.85600
C  51.03700 17.88200 28.44500
C  53.05600 19.80300 31.13600
C  53.57800 18.72200 27.88400
O  53.55300 18.39000 26.70000
C  54.84000 19.28000 28.40700
N  48.48100 16.47000 27.59700
C  49.48000 16.74300 26.73000
C  49.28400 16.18800 25.31500
C  47.97800 15.41000 25.47500
C  47.54200 15.66900 26.91300
C  49.20300 17.34500 24.20600
C  48.09900 13.82800 25.19200
C  47.03300 13.19300 24.26500
N  46.49800 15.87600 29.72900
C  45.76100 15.31000 28.69100
C  44.54500 14.78700 29.24500
C  44.67000 15.07500 30.63400
C  45.84400 15.70200 30.82100
C  43.46800 14.08500 28.51300
C  44.09500 14.84800 31.95600
O  43.05200 14.33300 32.35300
C  45.03900 15.56300 33.00100
C  44.38100 16.64900 33.73600
O  43.99200 17.71600 33.22900
O  44.31900 16.31800 35.06200
C  43.71000 17.27100 35.95700
H  50.89900 19.22600 32.62500
H  51.33400 17.43000 26.33500
H  45.55000 14.71500 26.73600
H  46.87300 17.28900 34.53300
H  49.56500 18.19000 34.59100
H  47.94500 20.22200 33.15000
H  48.44500 20.29100 34.85600
H  46.96400 19.42300 34.47800
H  49.49100 15.90200 34.59000
H  48.24300 14.87500 33.97400
H  48.99400 14.77500 36.35700
H  47.20100 14.79700 36.17600
H  54.02500 19.99100 30.67300
H  53.28100 19.27700 32.06400
H  52.51000 20.69900 31.43200
H  54.56400 20.32200 28.57200
H  55.60200 19.24300 27.62900
H  55.03700 18.60500 29.24000
H  50.14400 15.56300 25.07400
H  47.14900 15.85300 24.92300
H  49.29400 18.36400 24.58100
H  48.32300 17.15500 23.59300
H  50.00400 17.24600 23.47300
H  48.06900 13.27800 26.13300
H  49.09100 13.70900 24.75700
H  47.50500 12.84700 23.34600
H  46.31400 13.96400 23.98700
H  46.54400 12.29500 24.64200
H  43.83800 13.41700 27.73500
H  42.67300 14.65800 28.03700
H  42.99100 13.47200 29.27800
H  45.31300 14.82000 33.75100
H  43.62900 18.33500 35.73400
H  44.19500 17.18600 36.92900
H  42.68600 16.95300 36.15300
Mg 41.27500 40.93100 26.93700
C  40.76500 43.32100 29.54800
C  42.79700 39.06100 29.25200
C  42.07100 38.98000 24.41400
C  40.42800 43.51000 24.61700
N  41.79000 41.27600 29.13900
C  41.35000 42.17900 30.01700
C  41.57100 41.76400 31.52100
C  42.52800 40.52100 31.30000
C  42.38600 40.23500 29.79300
C  43.98400 40.74300 31.75800
C  40.19500 41.51300 32.19600
C  39.96600 42.34400 33.43800
H  39.18000 41.84100 34.58800
N  42.22000 39.16100 26.88300
C  42.83200 38.50400 27.90900
C  43.34500 37.26800 27.51000
C  43.17400 37.20000 26.08300
C  42.43900 38.47900 25.73000
C  44.05200 36.24900 28.49000
C  43.52200 36.11200 25.08300
O  43.37500 36.22100 23.86300
C  44.27000 34.86900 25.57200
N  41.30200 41.20300 24.80200
C  41.67000 40.19200 23.98700
C  41.46600 40.64800 22.47900
C  40.73000 42.02200 22.62400
C  40.81700 42.27000 24.09300
C  42.78800 40.60500 21.59800
C  39.24800 41.92300 22.02600
C  38.20400 41.09200 22.84000
N  40.60900 42.92500 26.98600
C  40.32500 43.83300 26.00000
C  39.89700 45.11700 26.57000
C  40.02300 44.99300 27.92100
C  40.57900 43.66400 28.13900
C  39.39700 46.31900 25.74600
C  39.84200 45.60900 29.24100
O  39.39700 46.74400 29.44000
C  40.28200 44.49600 30.34300
C  41.36300 45.04300 31.25600
O  42.57100 45.07300 30.97200
O  40.78800 45.53700 32.46000
C  41.61600 46.19800 33.39000
H  43.23200 38.37100 29.97700
H  42.41300 38.38000 23.56900
H  40.05400 44.20800 23.86600
H  42.10900 42.53000 32.08000
H  42.10100 39.61500 31.72800
H  44.10400 40.09800 32.62900
H  44.17300 41.77800 32.04300
H  44.63100 40.49400 30.91700
H  40.22800 40.49500 32.58400
H  39.32100 41.61600 31.55200
H  39.44300 43.26600 33.18500
H  40.93700 42.64800 33.82900
H  45.08200 35.98600 28.25200
H  43.58400 35.26400 28.47300
H  44.03500 36.68800 29.48700
H  43.77700 34.44600 26.44700
H  45.28000 35.14400 25.87700
H  44.26600 34.03000 24.87600
H  40.79100 39.88600 22.09000
H  41.37500 42.68900 22.05100
H  43.38700 41.51400 21.64700
H  42.46700 40.58300 20.55700
H  43.25800 39.68800 21.95400
H  39.21900 41.54500 21.00300
H  38.91300 42.94500 21.84700
H  37.65900 41.70700 23.55600
H  38.69100 40.21600 23.26800
H  37.38200 40.83300 22.17300
H  39.18800 45.93200 24.74900
H  40.20500 47.04600 25.66300
H  38.65700 46.80900 26.37800
H  39.43900 44.28900 31.00200
H  42.01500 45.43200 34.05500
H  41.02000 46.95500 33.90000
H  42.42300 46.75000 32.90900

