158

Mg 48.67400 44.41600 42.90600
C  45.26100 44.22200 42.72200
C  48.69600 40.95200 42.42900
C  52.12100 44.43700 42.97500
C  48.59600 47.87900 42.43500
N  47.14900 42.74200 42.72700
C  45.77300 42.94400 42.61800
C  44.95600 41.62500 42.65800
C  46.14700 40.62000 42.84500
C  47.42200 41.48100 42.62200
C  46.07700 39.96400 44.25500
C  44.04800 41.41600 41.40300
C  44.26000 42.25200 40.10000
H  44.73600 41.52300 38.85000
N  50.16700 42.94500 42.84100
C  49.99100 41.54400 42.55200
C  51.35200 40.91800 42.52400
C  52.28300 41.85700 42.91400
C  51.53500 43.14000 42.97500
C  51.63600 39.43200 42.19800
C  53.74500 41.49700 43.13200
O  54.17200 40.34400 42.96500
C  54.74800 42.47800 43.63100
N  50.17500 45.96700 42.67400
C  51.50700 45.71000 42.81900
C  52.25500 47.06600 42.88500
C  51.13600 48.17800 42.86800
C  49.87400 47.28800 42.61900
C  53.23100 47.12500 44.18300
C  51.31500 49.50000 42.00100
C  51.29900 50.86400 42.72800
N  47.30000 45.84000 42.56100
C  47.32700 47.19800 42.43100
C  46.03400 47.79300 42.41400
C  45.16700 46.63900 42.49500
C  45.96500 45.44100 42.58500
C  45.68100 49.25300 42.46900
C  43.75900 46.27400 42.57300
O  42.73800 46.97400 42.62300
C  43.79600 44.63000 42.75400
C  43.08800 44.35700 43.95500
O  42.07100 43.72700 43.97700
O  43.83800 44.75000 45.03300
C  43.41400 44.09500 46.29400
H  48.73500 39.88700 42.19100
H  53.20800 44.54000 42.95000
H  48.43900 48.95900 42.44600
H  44.32700 41.63600 43.54700
H  46.02300 39.84900 42.08500
H  47.06200 40.08000 44.70800
H  45.83600 38.91500 44.08100
H  45.28000 40.44900 44.81900
H  43.02200 41.30300 41.75300
H  44.32300 40.39900 41.12300
H  44.93200 43.08100 40.32200
H  43.33700 42.74800 39.80100
H  52.31800 39.32500 41.35400
H  50.69000 38.92400 42.01000
H  52.16300 38.98100 43.03900
H  55.17300 43.14300 42.87900
H  55.63400 41.97200 44.01200
H  54.27800 42.88600 44.52600
H  52.79000 47.21200 41.94700
H  51.00400 48.36300 43.93400
H  53.18500 46.17400 44.71400
H  52.78800 47.88500 44.82700
H  54.22300 47.43700 43.85700
H  50.55800 49.51800 41.21700
H  52.26400 49.52600 41.46500
H  52.26400 51.35300 42.60000
H  51.09100 50.67800 43.78200
H  50.56200 51.47200 42.20300
H  45.60900 49.67300 41.46600
H  46.42200 49.79600 43.05600
H  44.74600 49.44900 42.99400
H  43.32500 44.12100 41.91300
H  44.03000 43.19600 46.33300
H  42.35600 43.86400 46.41400
H  43.63800 44.67000 47.19300
Mg -1.58500 34.51100 26.70800
C  -3.28900 32.54300 28.99800
C  -0.85100 36.66500 29.24600
C  -0.14600 36.69400 24.45600
C  -2.76700 32.56500 24.23200
N  -2.18300 34.63400 28.90600
C  -2.76100 33.66200 29.63900
C  -2.59800 33.89700 31.14100
C  -1.84900 35.27600 31.22900
C  -1.59700 35.56300 29.69200
C  -2.60100 36.49100 31.93600
C  -1.68900 32.75300 31.80800
C  -2.16900 32.30200 33.23200
H  -1.13000 32.44500 34.38600
N  -0.47400 36.37400 26.88900
C  -0.31800 37.08400 28.00900
C  0.50000 38.25900 27.67600
C  0.75000 38.26900 26.30100
C  0.08000 37.07200 25.83300
C  1.03400 39.23800 28.74400
C  1.40300 39.42700 25.37900
O  1.25500 39.43700 24.14200
C  2.05100 40.60600 26.04400
N  -1.49300 34.73500 24.62600
C  -0.77100 35.60200 23.90300
C  -0.92600 35.34900 22.44600
C  -1.58300 33.94600 22.36300
C  -2.02800 33.73700 23.82400
C  -1.81900 36.48200 21.75400
C  -0.61400 32.81400 21.85800
C  0.61800 32.32300 22.69800
N  -2.86800 32.89300 26.58000
C  -3.27700 32.20000 25.49900
C  -4.10200 31.09000 25.76400
C  -4.08300 31.11600 27.18600
C  -3.35600 32.24100 27.62300
C  -4.70300 30.25300 24.79300
C  -4.56600 30.44500 28.37400
O  -5.23700 29.45800 28.58500
C  -4.05400 31.29200 29.59600
C  -5.15700 31.56800 30.63400
O  -6.11500 32.26500 30.39500
O  -4.83800 31.07700 31.86100
C  -5.86900 31.38000 32.83600
H  -0.57000 37.29500 30.09300
H  0.35200 37.28200 23.68200
H  -2.99600 31.73700 23.55800
H  -3.55700 33.95300 31.65600
H  -0.92100 35.19200 31.79500
H  -3.25000 36.83400 31.13000
H  -1.93400 37.23200 32.37700
H  -3.11700 36.10800 32.81600
H  -0.67100 33.13300 31.90100
H  -1.63500 31.88400 31.15200
H  -2.48800 31.28700 32.99400
H  -3.08800 32.80800 33.52800
H  0.67000 40.22500 28.46000
H  2.12200 39.19500 28.80500
H  0.61900 39.02000 29.72800
H  1.15800 41.13800 26.36900
H  2.51800 41.15100 25.22400
H  2.67500 40.22500 26.85200
H  0.01800 35.38100 21.90200
H  -2.52500 33.81200 21.83000
H  -1.27100 37.17800 21.11900
H  -2.28700 37.18900 22.44000
H  -2.58100 35.98100 21.15700
H  -0.37800 33.16900 20.85500
H  -1.24900 31.98200 21.55500
H  0.34400 31.35300 23.11400
H  0.88600 32.87000 23.60200
H  1.46600 32.22800 22.02000
H  -5.59200 29.79300 25.22300
H  -3.90600 29.55500 24.53700
H  -4.85000 30.88100 23.91400
H  -3.29400 30.72000 30.12900
H  -6.53400 30.52800 32.70000
H  -6.39700 32.32600 32.71900
H  -5.41200 31.35400 33.82600

