158

Mg 1.81200 42.42100 25.48600
C  3.25000 42.63200 28.69100
C  -1.16600 41.22200 26.96200
C  0.57600 41.66900 22.50500
C  4.99300 43.05500 24.17900
N  1.13100 42.01000 27.56200
C  1.87300 42.18300 28.71400
C  1.03500 41.80300 29.88800
C  -0.25700 41.14100 29.30600
C  -0.06800 41.45700 27.80000
C  -0.42100 39.61900 29.64400
C  0.82300 43.18100 30.68400
C  0.69100 43.12100 32.23500
H  0.26300 41.71800 32.68500
N  -0.06200 41.75400 24.79200
C  -1.19400 41.33600 25.56000
C  -2.32600 41.07400 24.65000
C  -1.90800 41.22900 23.31000
C  -0.41900 41.54500 23.45200
C  -3.86600 40.81900 25.17300
C  -2.58800 41.08800 21.95200
O  -2.05800 41.43000 20.87100
C  -3.94900 40.54500 21.93600
N  2.65100 42.35000 23.68000
C  1.99400 41.93500 22.59700
C  2.88500 42.01200 21.36100
C  4.05900 42.88000 21.83300
C  3.94000 42.78900 23.30700
C  3.30300 40.56000 20.94500
C  4.04700 44.35000 21.38500
C  3.29000 45.44700 22.20700
N  3.73800 42.89000 26.28400
C  4.92500 43.17700 25.61700
C  5.95100 43.40000 26.54700
C  5.34100 43.22600 27.77000
C  4.02300 42.93000 27.56100
C  7.42500 43.75900 26.36200
C  5.61600 43.10300 29.18600
O  6.61400 43.38300 29.80700
C  4.24300 42.69100 29.83100
C  4.40100 41.37700 30.52300
O  4.40900 40.28100 30.02100
O  4.66600 41.63700 31.82700
C  5.37800 40.60100 32.55900
H  -2.04400 40.90000 27.52500
H  0.27900 41.41500 21.48500
H  5.98800 43.19400 23.75000
H  1.56000 41.12600 30.56200
H  -1.12900 41.67500 29.68600
H  -1.45900 39.42800 29.91500
H  0.23900 39.38300 30.47900
H  -0.31500 38.98400 28.76400
H  -0.08900 43.60300 30.26100
H  1.60700 43.91500 30.49200
H  -0.11800 43.77200 32.56900
H  1.57500 43.47300 32.76600
H  -3.81400 40.90500 26.25800
H  -4.21700 39.86500 24.78100
H  -4.51800 41.59000 24.76300
H  -4.52200 41.39200 22.31300
H  -3.91800 39.64900 22.55700
H  -4.26000 40.25200 20.93300
H  2.33100 42.46600 20.54000
H  5.04100 42.47700 21.58300
H  2.71000 39.81700 21.47900
H  4.38900 40.46700 20.93200
H  3.00900 40.35100 19.91700
H  3.74300 44.34700 20.33900
H  5.11800 44.53600 21.45200
H  2.59000 45.03200 22.93200
H  2.64600 46.05300 21.57000
H  3.94400 46.11500 22.76700
H  7.91300 43.77400 27.33600
H  7.41500 44.69300 25.80000
H  7.74200 42.96200 25.69000
H  3.91800 43.46100 30.53000
H  5.90000 39.87600 31.93500
H  4.55800 40.08300 33.05600
H  6.04000 41.04600 33.30300
Mg -4.96900 25.02900 26.58900
C  -3.46900 26.42500 29.53100
C  -6.81400 23.06200 28.71600
C  -6.22600 23.52300 23.95100
C  -2.52300 26.75800 24.64200
N  -4.99000 24.76700 28.89300
C  -4.40500 25.49900 29.86700
C  -4.99500 25.16000 31.23800
C  -5.85600 23.85200 30.98600
C  -5.87000 23.88600 29.39500
C  -5.27500 22.49800 31.63800
C  -5.72000 26.36600 31.80300
C  -6.12400 26.42700 33.31900
H  -5.75500 25.17300 34.18500
N  -6.30200 23.54300 26.35200
C  -7.00900 22.87600 27.36900
C  -8.03500 22.08200 26.80200
C  -7.94800 22.20600 25.39500
C  -6.77300 23.04600 25.18400
C  -9.09100 21.36200 27.64400
C  -8.77200 21.53500 24.33900
O  -8.66500 21.73500 23.15700
C  -9.90700 20.62700 24.75100
N  -4.53500 25.19000 24.56200
C  -5.17400 24.40100 23.65800
C  -4.42100 24.48400 22.23400
C  -3.31600 25.55800 22.48700
C  -3.46500 25.93400 23.96600
C  -3.95100 23.18500 21.48600
C  -3.35300 26.87400 21.68000
C  -1.97800 27.26200 20.97900
N  -3.40400 26.32900 26.94600
C  -2.56600 27.03000 26.05100
C  -1.75000 27.93300 26.81100
C  -1.98400 27.71800 28.16000
C  -3.02200 26.70200 28.21100
C  -0.71300 28.88100 26.28000
C  -1.75400 28.16800 29.48600
O  -1.08600 29.05300 29.96600
C  -2.81900 27.43100 30.47400
C  -2.06500 26.78000 31.61200
O  -1.45800 25.69700 31.56300
O  -2.30100 27.51200 32.81600
C  -1.83300 26.96200 34.09900
H  -7.44300 22.47700 29.39000
H  -6.57500 23.18700 22.97300
H  -1.75200 27.24800 24.04400
H  -4.19200 24.95900 31.94700
H  -6.84800 23.92100 31.43200
H  -6.06400 21.77700 31.85200
H  -4.57100 22.65800 32.45500
H  -4.62700 22.08700 30.86400
H  -6.65700 26.48400 31.25900
H  -5.13500 27.27700 31.67900
H  -7.16500 26.72300 33.45000
H  -5.46400 27.18900 33.73500
H  -9.09000 20.27700 27.54000
H  -10.09700 21.60600 27.30300
H  -9.10400 21.55300 28.71700
H  -9.58200 19.70100 25.22500
H  -10.48600 20.40900 23.85300
H  -10.56800 21.24300 25.36100
H  -5.19100 24.95100 21.62000
H  -2.39900 25.01800 22.24900
H  -2.92700 23.17100 21.11100
H  -4.48200 23.13600 20.53600
H  -4.20100 22.30200 22.07500
H  -3.72700 27.74900 22.21300
H  -4.10400 26.75100 20.89900
H  -1.18600 26.62900 21.38000
H  -1.72100 28.32100 21.00400
H  -2.12600 27.13700 19.90600
H  0.19800 28.91000 26.87700
H  -1.15200 29.86700 26.12500
H  -0.43600 28.51100 25.29300
H  -3.48900 28.22700 30.79800
H  -2.07800 25.94400 34.40000
H  -2.15300 27.64100 34.88900
H  -0.74400 26.94200 34.15000

