158

Mg -1.65300 18.22800 27.67300
C  -2.37700 16.12600 30.43500
C  -2.59400 20.82000 29.63400
C  -1.42200 20.14300 24.93700
C  -1.62800 15.31400 25.70800
N  -2.42800 18.39900 29.79500
C  -2.38600 17.45000 30.79000
C  -2.54800 17.97200 32.20800
C  -2.90900 19.48600 31.85400
C  -2.64700 19.59800 30.36700
C  -4.44100 19.89100 32.20000
C  -1.32900 17.78700 33.12400
C  -1.81200 17.29600 34.48700
H  -0.82200 17.28400 35.66400
N  -1.82700 20.21900 27.38400
C  -2.23200 21.08600 28.28800
C  -2.14700 22.48200 27.72400
C  -1.85100 22.31800 26.32600
C  -1.75000 20.85700 26.12000
C  -2.39200 23.76800 28.51600
C  -1.58500 23.36500 25.32100
O  -1.37900 23.16600 24.10700
C  -1.21900 24.66800 25.82600
N  -1.49000 17.83800 25.56300
C  -1.31900 18.80100 24.67100
C  -1.34700 18.20400 23.23000
C  -1.09200 16.68200 23.51900
C  -1.47500 16.57300 25.08000
C  -2.60500 18.46500 22.38500
C  0.31000 16.05100 23.19400
C  1.45600 16.59200 24.00500
N  -1.76600 16.10900 28.01700
C  -1.75000 15.08400 27.11700
C  -1.80400 13.88500 27.78000
C  -2.07900 14.21500 29.11000
C  -2.05400 15.61500 29.19300
C  -1.90600 12.58000 27.20300
C  -2.36500 13.58400 30.35100
O  -2.52300 12.42900 30.67000
C  -2.48800 14.86000 31.34600
C  -1.45800 14.51100 32.37200
O  -0.28300 14.83100 32.31200
O  -2.09000 13.71500 33.28800
C  -1.36700 13.12200 34.38200
H  -2.75400 21.71300 30.24100
H  -1.37200 20.73700 24.02200
H  -1.77800 14.46200 25.04200
H  -3.41200 17.46400 32.63700
H  -2.18300 20.15200 32.32000
H  -4.99100 19.15200 32.78200
H  -5.04000 19.98000 31.29400
H  -4.43400 20.81800 32.77400
H  -0.93500 18.77800 33.34600
H  -0.60400 17.07800 32.72300
H  -2.19400 16.28100 34.38000
H  -2.57500 18.02200 34.76700
H  -1.41300 24.10900 28.85200
H  -3.03700 23.63800 29.38500
H  -2.88600 24.46700 27.84100
H  -0.62500 24.43500 26.71000
H  -2.18300 25.11100 26.07500
H  -0.69800 25.27800 25.08700
H  -0.42100 18.51900 22.75000
H  -1.86200 16.07300 23.04600
H  -3.29700 17.64500 22.57400
H  -2.29700 18.55600 21.34300
H  -3.03600 19.42700 22.66100
H  0.52100 16.13900 22.12800
H  0.30500 14.97600 23.37800
H  1.12600 17.45700 24.58000
H  2.21100 16.85400 23.26400
H  1.86300 15.80800 24.64400
H  -0.94200 12.20700 26.85800
H  -2.45900 12.64100 26.26500
H  -2.44000 11.97800 27.93800
H  -3.47700 14.87500 31.80500
H  -0.35300 12.94300 34.02400
H  -1.74500 12.15000 34.69700
H  -1.46700 13.80400 35.22600
Mg 47.67100 15.79600 28.13600
C  45.79200 15.40800 31.01800
C  49.80300 17.94400 29.90600
C  49.40300 16.02100 25.30800
C  45.28000 13.92100 26.41100
N  47.75000 16.63300 30.13200
C  46.97900 16.19100 31.15600
C  47.56800 16.56700 32.46300
C  48.56500 17.65000 32.11900
C  48.75300 17.37100 30.62000
C  48.12800 19.08300 32.45100
C  48.09100 15.30700 33.27400
C  47.73100 15.39600 34.76800
H  47.54900 16.76500 35.52000
N  49.45300 16.68200 27.68600
C  50.10500 17.59800 28.53300
C  51.35100 17.99200 27.79200
C  51.27400 17.44900 26.46500
C  49.98000 16.69400 26.42300
C  52.34900 18.87100 28.52600
C  52.35000 17.60300 25.39100
O  52.19200 17.04200 24.25800
C  53.66400 18.36700 25.63800
N  47.26800 15.26500 26.00700
C  48.16100 15.46400 25.12400
C  47.71800 14.97000 23.72000
C  46.41900 14.16700 24.14200
C  46.33500 14.43200 25.60000
C  47.44400 16.02300 22.66300
C  46.62100 12.66100 23.79800
C  47.59500 11.91700 24.79700
N  45.74400 15.01200 28.50800
C  44.98600 14.02500 27.74700
C  43.88300 13.58800 28.64400
C  44.24900 13.96300 29.93100
C  45.33400 14.88200 29.77800
C  42.60200 12.75800 28.37300
C  43.97500 13.91200 31.33300
O  43.10800 13.26100 31.90700
C  44.84600 14.85500 32.08700
C  44.03800 15.93300 32.73100
O  43.35100 16.79400 32.16600
O  44.18200 15.71000 34.09600
C  43.32100 16.51600 35.01300
H  50.50500 18.49100 30.53900
H  49.91700 16.10800 24.34800
H  44.54400 13.27500 25.92800
H  46.70900 16.96300 33.00400
H  49.50100 17.55400 32.66900
H  47.06000 19.27700 32.35700
H  48.50900 19.84900 31.77500
H  48.57000 19.32500 33.41700
H  49.16100 15.10100 33.25600
H  47.62300 14.38600 32.92500
H  48.42600 14.80100 35.36000
H  46.73700 14.97000 34.90100
H  51.85800 19.42700 29.32500
H  52.82500 19.63700 27.91400
H  53.20800 18.29500 28.87100
H  54.15000 17.89300 26.49000
H  53.50600 19.42900 25.82400
H  54.29500 18.44000 24.75300
H  48.58000 14.40300 23.36700
H  45.61300 14.59700 23.54600
H  47.34800 17.00900 23.11700
H  46.63200 15.80600 21.97000
H  48.39700 16.31900 22.22500
H  46.96700 12.43500 22.78900
H  45.61600 12.24200 23.78800
H  48.37800 12.49400 25.28800
H  48.13400 11.19200 24.18600
H  47.10200 11.31100 25.55700
H  42.83400 12.05200 27.57600
H  41.74400 13.40800 28.20400
H  42.46600 12.13900 29.26000
H  45.34400 14.20200 32.80300
H  42.73200 17.19500 34.39700
H  43.81500 17.15000 35.74900
H  42.58300 15.89300 35.51800

