158

Mg 42.75600 41.82600 26.12100
C  42.13900 44.11000 28.73600
C  44.28000 39.80100 28.44600
C  43.79300 39.97000 23.56600
C  41.70300 44.38500 23.88400
N  43.18200 42.03300 28.29800
C  42.78200 42.98600 29.16400
C  42.96900 42.52000 30.61200
C  43.88300 41.24500 30.52500
C  43.84000 41.00900 28.97000
C  45.39900 41.45700 31.04300
C  41.63300 42.35400 31.43000
C  41.50200 43.26300 32.71200
H  42.41000 42.77400 33.83200
N  43.77900 40.11800 26.00400
C  44.31000 39.40500 27.05900
C  44.95400 38.22100 26.55100
C  44.89600 38.30500 25.13000
C  44.07000 39.46500 24.81500
C  45.64500 37.19300 27.32600
C  45.51500 37.38100 24.15900
O  45.29200 37.43500 22.97000
C  46.49100 36.26400 24.51400
N  42.80100 42.18900 24.08200
C  43.08000 41.17200 23.24700
C  42.93800 41.59600 21.72900
C  42.23100 42.99100 21.91000
C  42.31500 43.24500 23.36400
C  44.26800 41.72900 20.93700
C  40.83000 43.04400 21.38500
C  39.81800 41.92900 21.87300
N  41.98800 43.86400 26.19800
C  41.52000 44.66600 25.22400
C  40.88100 45.89000 25.82700
C  41.15500 45.68400 27.22800
C  41.81300 44.44100 27.37400
C  40.54900 47.19300 25.20400
C  41.06800 46.27200 28.49600
O  40.63900 47.42600 28.82800
C  41.65300 45.31100 29.57100
C  42.81700 45.99500 30.15000
O  43.91300 46.18600 29.68000
O  42.46300 46.33100 31.40800
C  43.57300 46.74400 32.29400
H  44.72800 39.13300 29.18500
H  43.98100 39.28700 22.73500
H  41.42800 45.19200 23.20200
H  43.44500 43.38800 31.06900
H  43.48900 40.43500 31.13900
H  45.58600 42.47100 31.39700
H  46.14100 41.29600 30.26100
H  45.55700 40.87000 31.94700
H  41.68700 41.28200 31.62200
H  40.78600 42.66100 30.81700
H  40.48000 43.15700 33.07700
H  41.76100 44.30600 32.53100
H  46.71400 37.39600 27.26500
H  45.27200 36.21500 27.02100
H  45.30600 37.24400 28.36000
H  45.86900 35.44200 24.86900
H  47.20800 36.61200 25.25700
H  47.00600 36.01500 23.58500
H  42.24500 40.87300 21.29900
H  42.77300 43.73100 21.32200
H  45.09500 41.46900 21.59800
H  44.33100 42.67100 20.39200
H  44.31600 40.89600 20.23700
H  41.04100 42.96300 20.31900
H  40.39200 44.03500 21.49800
H  40.34200 41.45800 22.70500
H  39.48400 41.30000 21.04800
H  38.90700 42.34500 22.30400
H  40.39000 47.09100 24.13100
H  41.29600 47.95400 25.43300
H  39.63200 47.55000 25.67200
H  40.88900 45.05200 30.30300
H  43.95700 47.63600 31.79900
H  44.32100 45.95200 32.33900
H  43.07700 46.90300 33.25100
Mg -11.57300 38.69700 42.57300
C  -9.96700 35.79200 41.42000
C  -9.12300 40.51200 40.79700
C  -13.56200 41.38400 42.59600
C  -14.20300 36.67900 43.46900
N  -9.90300 38.18100 41.28300
C  -9.46600 36.95400 40.87800
C  -8.19500 37.02400 40.11600
C  -7.76200 38.51600 40.22200
C  -9.01200 39.16200 40.76400
C  -6.42400 38.75900 41.05400
C  -8.41600 36.54500 38.66900
C  -7.26700 35.45400 38.34500
H  -5.99300 35.95300 37.64500
N  -11.35200 40.65800 41.86200
C  -10.23500 41.21400 41.24300
C  -10.42100 42.67900 41.09300
C  -11.68300 42.99600 41.73800
C  -12.23400 41.68200 42.12800
C  -9.38700 43.47700 40.46700
C  -12.26000 44.45500 41.89400
O  -11.65100 45.38100 41.27600
C  -13.48200 44.80500 42.66300
N  -13.63000 39.03700 42.82000
C  -14.14600 40.25300 43.03200
C  -15.48300 40.18600 43.66500
C  -15.82600 38.71900 43.67900
C  -14.41900 38.08400 43.43600
C  -15.50500 40.80700 45.13600
C  -16.75000 38.29600 42.62200
C  -18.17800 38.23200 43.25000
N  -11.92900 36.67500 42.82800
C  -13.00000 36.01200 43.14000
C  -12.80400 34.57100 43.18600
C  -11.47300 34.42300 42.53600
C  -11.07500 35.71500 42.24600
C  -13.84900 33.61100 43.59700
C  -10.45200 33.50700 42.07500
O  -10.32700 32.28600 42.15000
C  -9.52700 34.30800 41.30400
C  -8.28800 34.21200 42.14900
O  -8.20400 34.63100 43.29900
O  -7.32800 33.51800 41.44200
C  -5.95800 33.45500 41.95200
H  -8.27700 41.04400 40.35600
H  -14.12300 42.31800 42.65900
H  -15.03200 36.03100 43.76200
H  -7.55100 36.38900 40.72400
H  -7.57000 38.92400 39.23000
H  -5.86400 37.82900 41.15700
H  -6.55700 39.23000 42.02700
H  -5.80000 39.37900 40.41000
H  -8.37300 37.42300 38.02400
H  -9.39400 36.07900 38.55200
H  -7.87100 34.92300 37.60900
H  -7.02700 34.69400 39.08800
H  -8.39800 43.12800 40.76300
H  -9.41500 44.48600 40.87800
H  -9.44600 43.54100 39.38000
H  -14.31000 44.36000 42.11200
H  -13.64600 45.88300 42.66200
H  -13.37200 44.39700 43.66800
H  -16.12300 40.71900 42.96100
H  -16.15100 38.33000 44.64400
H  -14.53000 41.04700 45.56100
H  -16.05600 40.16800 45.82700
H  -16.06100 41.74000 45.23200
H  -16.55600 37.40900 42.01900
H  -16.75600 39.13400 41.92500
H  -18.57500 37.23900 43.04100
H  -18.64600 39.06000 42.71700
H  -18.29500 38.50300 44.30000
H  -14.46700 33.95900 44.42500
H  -13.36100 32.70700 43.96200
H  -14.45700 33.42300 42.71300
H  -9.43400 33.99500 40.26400
H  -5.30600 33.07000 41.16700
H  -5.93300 32.71400 42.75000
H  -5.56800 34.41500 42.29200

