158

Mg 54.72400 22.87400 45.00400
C  52.64600 25.64100 44.39900
C  52.23200 20.77500 44.00800
C  57.06900 20.46800 44.81400
C  57.34700 25.27100 45.81100
N  52.79500 23.18400 44.07600
C  52.01700 24.37700 44.05200
C  50.56300 24.05400 43.48700
C  50.42700 22.58800 44.02200
C  51.90400 22.08800 44.00000
C  49.63400 22.31400 45.33400
C  50.39200 24.19200 41.95800
C  49.01600 24.81700 41.58000
H  48.19800 24.26800 40.39000
N  54.61200 20.89700 44.50000
C  53.52800 20.19700 44.13500
C  53.79000 18.80900 44.14300
C  55.18700 18.68100 44.30900
C  55.70700 20.07100 44.49600
C  52.71200 17.81500 43.98600
C  55.97900 17.33000 44.30500
O  55.45300 16.21300 44.19900
C  57.53300 17.34400 44.27200
N  56.94000 22.89300 45.21300
C  57.60200 21.70700 45.20700
C  58.99100 21.88400 45.74500
C  59.13100 23.46500 45.93200
C  57.71900 23.91800 45.62200
C  59.47200 20.89800 46.88900
C  60.23500 24.15700 45.08700
C  61.39900 24.91800 45.75300
N  55.02300 24.96700 45.11800
C  56.07400 25.79700 45.59600
C  55.65200 27.11500 45.58700
C  54.31700 27.08500 45.27000
C  53.99400 25.77000 44.85400
C  56.47100 28.37700 45.85200
C  53.19200 27.92800 45.13400
O  53.03100 29.09100 45.41800
C  52.07200 27.00400 44.42600
C  51.93300 27.57400 43.08700
O  52.62900 27.54200 42.12300
O  50.65100 28.10400 43.02400
C  50.19500 28.68600 41.80600
H  51.39000 20.10300 43.83000
H  57.88500 19.74300 44.81000
H  58.08700 26.03600 46.05500
H  49.92100 24.79000 43.97100
H  49.81700 22.03400 43.30700
H  49.09700 23.19700 45.68200
H  50.25000 21.97100 46.16500
H  48.93600 21.50700 45.10900
H  50.55700 23.19800 41.54100
H  51.19300 24.83300 41.59000
H  49.15200 25.87900 41.37800
H  48.29300 24.79900 42.39400
H  52.99400 16.77900 43.80000
H  52.00000 18.14200 43.22800
H  52.16000 17.87900 44.92300
H  57.85100 17.96600 43.43600
H  57.90400 16.32600 44.15100
H  57.93800 17.82800 45.16000
H  59.65000 21.62800 44.91600
H  59.30400 23.62700 46.99600
H  59.91600 21.36200 47.77000
H  60.30100 20.23700 46.63800
H  58.60900 20.34500 47.26300
H  59.85000 24.82500 44.31700
H  60.79600 23.39500 44.54500
H  61.20100 25.02200 46.82000
H  61.49000 25.86600 45.22300
H  62.34300 24.37800 45.68500
H  55.75000 29.04600 46.32100
H  57.09600 28.74700 45.03800
H  57.29500 28.09000 46.50600
H  51.08300 26.88600 44.86900
H  50.39900 27.97400 41.00600
H  50.68000 29.65200 41.66900
H  49.11800 28.82000 41.89900
Mg 9.43400 48.79800 24.65300
C  7.31300 49.46300 27.36500
C  12.04700 50.05900 26.49500
C  11.38500 48.38800 21.96900
C  6.60100 48.09300 22.65300
N  9.58700 49.59000 26.67600
C  8.65300 49.61500 27.70200
C  9.32800 50.07000 29.00500
C  10.57800 50.78800 28.48200
C  10.76100 50.11100 27.15000
C  10.45300 52.31400 28.27400
C  9.56200 48.87600 29.97000
C  8.75500 48.91400 31.26100
H  8.22200 47.54200 31.81300
N  11.52300 48.96300 24.25600
C  12.42500 49.47900 25.20700
C  13.79300 49.41200 24.53400
C  13.60200 48.81200 23.24800
C  12.12300 48.64800 23.14400
C  15.06400 49.66200 25.38700
C  14.57200 48.33800 22.14300
O  14.16000 47.73100 21.21400
C  16.05100 48.54600 22.23400
N  9.11600 48.46900 22.64200
C  10.08600 48.25600 21.68000
C  9.53900 47.92200 20.30600
C  8.03100 47.60200 20.65100
C  7.87400 48.14000 22.03200
C  9.81500 48.87100 19.17900
C  7.55500 46.05900 20.46700
C  8.25300 45.04300 21.34300
N  7.40800 48.95200 24.82400
C  6.38100 48.59700 23.95100
C  5.09900 48.71500 24.65600
C  5.39500 49.05400 25.92200
C  6.83900 49.15800 26.02000
C  3.74100 48.44500 24.12200
C  4.81700 49.25800 27.23600
O  3.66300 49.24300 27.64600
C  6.05700 49.59000 28.19300
C  5.91400 48.55600 29.25100
O  5.89800 47.33100 29.08400
O  5.58700 49.21400 30.43300
C  5.00700 48.39900 31.52200
H  12.86700 50.58100 26.99200
H  12.08500 48.27400 21.13900
H  5.78800 47.66300 22.06600
H  8.70400 50.78500 29.54100
H  11.33500 50.44200 29.18500
H  9.43700 52.54700 27.95600
H  11.12500 52.75200 27.53600
H  10.57100 52.92800 29.16700
H  10.58700 48.77000 30.32600
H  9.28400 47.97800 29.41800
H  7.86000 49.52500 31.14800
H  9.25300 49.49700 32.03600
H  14.85800 49.85500 26.44000
H  15.55000 50.59500 25.10000
H  15.79300 48.85400 25.33900
H  16.30500 48.69700 23.28400
H  16.41500 49.43800 21.72500
H  16.48800 47.60900 21.89000
H  9.96000 46.98400 19.94300
H  7.37900 48.15700 19.97500
H  10.43000 49.68400 19.56300
H  8.88700 49.35500 18.87600
H  10.28800 48.47100 18.28200
H  7.73300 45.81600 19.41900
H  6.48400 45.91700 20.61200
H  8.57900 45.45500 22.29800
H  9.15200 44.61400 20.90100
H  7.61700 44.17300 21.50300
H  3.67700 48.13400 23.07900
H  3.10400 49.32300 24.22800
H  3.17200 47.65200 24.60700
H  5.90800 50.58300 28.61700
H  5.58400 47.47500 31.56900
H  3.95900 48.23500 31.27200
H  5.12400 48.94500 32.45900

