158

Mg 47.09000 15.82500 28.70700
C  44.57700 15.75900 31.33100
C  49.30000 16.95400 30.96700
C  48.88100 16.93200 26.12400
C  44.59300 14.79900 26.53700
N  46.85700 16.47400 30.89900
C  45.87600 16.23700 31.82900
C  46.42600 16.31600 33.32600
C  47.75700 17.00000 33.05600
C  48.00400 16.78300 31.53300
C  47.88900 18.45300 33.42400
C  46.40200 14.98400 34.23100
C  45.92400 15.09600 35.74100
H  45.64000 16.44800 36.38100
N  48.92800 16.64000 28.54000
C  49.71400 16.99900 29.62900
C  50.95700 17.33400 29.16100
C  50.93900 17.33500 27.74500
C  49.54700 17.00900 27.36200
C  52.10700 17.73000 30.11500
C  52.02300 17.60500 26.82700
O  51.89000 17.60500 25.60600
C  53.42400 17.85400 27.33000
N  46.71800 15.92600 26.69300
C  47.65400 16.34600 25.76700
C  47.34900 15.92700 24.35900
C  46.16500 15.00400 24.53000
C  45.77800 15.21800 26.00600
C  47.23600 17.05500 23.25900
C  46.26500 13.48300 24.15800
C  45.40600 12.85100 23.05900
N  44.97500 15.28700 28.87700
C  44.13600 14.93400 27.92700
C  42.89200 14.60200 28.41800
C  43.04100 14.90400 29.76900
C  44.29700 15.34500 30.00800
C  41.78500 14.02100 27.69900
C  42.29300 14.87400 30.97800
O  41.15300 14.49900 31.20400
C  43.36000 15.38600 32.05900
C  42.71800 16.55700 32.75700
O  42.36900 17.62300 32.22900
O  42.55600 16.34300 34.06700
C  41.84800 17.39800 34.81100
H  50.02900 17.14000 31.75900
H  49.56000 17.28400 25.34400
H  43.81800 14.39400 25.88300
H  45.81300 16.95000 33.96700
H  48.46400 16.32600 33.54100
H  47.30200 18.87200 34.24100
H  47.66400 19.04200 32.53600
H  48.94200 18.64100 33.63300
H  47.32500 14.41700 34.11200
H  45.63800 14.46600 33.65100
H  46.62700 14.46800 36.28700
H  45.01600 14.49400 35.77200
H  52.90200 16.98500 30.08300
H  51.75100 17.70400 31.14500
H  52.39000 18.77100 29.96100
H  53.34100 18.68600 28.02900
H  53.99700 18.11100 26.43900
H  53.79500 16.97800 27.86400
H  48.17000 15.23800 24.16100
H  45.29400 15.29300 23.94100
H  46.44100 16.79300 22.56200
H  48.24500 17.19200 22.87000
H  46.84300 17.97200 23.70000
H  46.17000 12.78700 24.99000
H  47.29000 13.37800 23.80200
H  45.00300 11.87400 23.32500
H  45.92500 12.71700 22.11000
H  44.56300 13.52100 22.89000
H  41.92600 13.09000 27.15100
H  41.24100 14.69400 27.03700
H  41.09000 13.67500 28.46400
H  43.44900 14.55900 32.76300
H  41.35400 18.08600 34.12600
H  42.49200 17.95600 35.49100
H  41.09900 16.93500 35.45400
Mg -11.47300 16.00900 41.95200
C  -7.90400 16.13500 41.79800
C  -11.29500 19.43800 41.30600
C  -14.60900 15.78200 41.16800
C  -11.19100 12.42500 42.14200
N  -9.73700 17.60900 41.58300
C  -8.42400 17.40800 41.61200
C  -7.65100 18.69800 41.52300
C  -8.73700 19.75400 41.74300
C  -10.01600 18.92500 41.62900
C  -8.78000 20.45300 43.19000
C  -6.98600 18.95100 40.08600
C  -5.45400 19.07200 40.04400
H  -4.76700 18.45800 38.77000
N  -12.75100 17.41400 41.26700
C  -12.53400 18.75800 41.14000
C  -13.78400 19.42600 40.71100
C  -14.75900 18.38900 40.70900
C  -14.08000 17.12500 41.06700
C  -13.88800 20.90100 40.31100
C  -16.29300 18.59200 40.58400
O  -16.72800 19.71600 40.28600
C  -17.24300 17.54500 40.88400
N  -12.64500 14.30000 41.53500
C  -13.99000 14.55900 41.38200
C  -14.72700 13.22800 41.38500
C  -13.65300 12.13800 41.46300
C  -12.39100 12.95800 41.67600
C  -15.79200 13.18600 42.51200
C  -13.47800 11.15100 40.24900
C  -13.11700 9.62000 40.41800
N  -9.94400 14.54100 42.09100
C  -10.02700 13.17600 42.25800
C  -8.67100 12.71900 42.54900
C  -7.85400 13.84800 42.38700
C  -8.64100 14.90700 42.04100
C  -8.18700 11.32700 42.88700
C  -6.52300 14.31700 42.43400
O  -5.57900 13.61400 42.66100
C  -6.43600 15.84900 42.12200
C  -5.96300 16.41400 43.46200
O  -6.70900 16.70600 44.41200
O  -4.68300 16.96300 43.34500
C  -4.38400 18.04600 44.36200
H  -11.23000 20.52400 41.21800
H  -15.66800 15.54700 41.04400
H  -11.18200 11.34100 42.26900
H  -6.87600 18.80300 42.28200
H  -8.86700 20.48200 40.94200
H  -9.74200 20.28900 43.67400
H  -8.53800 21.50200 43.01800
H  -7.94600 19.93400 43.66300
H  -7.45200 19.78400 39.56000
H  -7.15200 18.07800 39.45500
H  -4.91400 18.68600 40.90900
H  -5.25900 20.14100 40.12500
H  -14.53800 21.05300 39.44900
H  -13.01700 21.50700 40.06100
H  -14.43600 21.35100 41.13800
H  -18.26500 17.92200 40.87200
H  -16.87200 17.06300 41.78800
H  -17.30000 16.81700 40.07500
H  -15.28900 13.04000 40.47000
H  -13.73500 11.54100 42.37100
H  -15.70100 12.29800 43.13600
H  -16.82900 13.25600 42.18200
H  -15.58200 14.08000 43.09900
H  -12.70200 11.62900 39.65100
H  -14.42500 11.22500 39.71600
H  -12.56100 9.38700 41.32700
H  -12.48200 9.41500 39.55600
H  -13.94700 8.91700 40.35500
H  -8.99900 10.63000 43.09800
H  -7.49400 11.47700 43.71500
H  -7.61900 10.84800 42.09000
H  -5.77200 16.15800 41.31500
H  -3.71200 18.82200 43.99500
H  -3.86300 17.52000 45.16200
H  -5.28300 18.56900 44.68600

