158

Mg 42.90800 4.29200 48.26600
C  40.96200 6.93000 47.71900
C  40.20200 2.16900 47.95500
C  44.97200 1.65900 48.03500
C  45.83300 6.37700 47.51300
N  40.83000 4.52700 47.60200
C  40.25100 5.72800 47.51300
C  38.76300 5.59800 47.16800
C  38.48900 4.09700 47.63900
C  39.95600 3.56900 47.77900
C  37.75800 3.89800 48.99900
C  38.29000 5.80800 45.68600
C  37.08000 6.78400 45.54800
H  36.55200 6.76800 44.15200
N  42.61300 2.30600 48.13900
C  41.42600 1.60100 48.03300
C  41.64100 0.20900 48.09700
C  43.05300 -0.01600 48.30800
C  43.64100 1.34300 48.17500
C  40.59400 -0.83200 47.68700
C  43.70000 -1.37600 48.38900
O  43.07000 -2.41500 48.57100
C  45.16600 -1.56600 48.38300
N  45.13700 4.09600 47.75000
C  45.69000 2.88300 47.80700
C  47.21700 2.91800 47.62600
C  47.42900 4.41000 47.41600
C  46.09900 5.00300 47.57800
C  47.89900 2.41600 48.92800
C  48.07800 4.77500 46.03100
C  49.53400 4.48600 45.89600
N  43.40000 6.28700 48.04900
C  44.54300 6.99100 47.78500
C  44.20900 8.42300 47.74500
C  42.78900 8.42000 47.80400
C  42.37200 7.11000 47.88200
C  45.16700 9.61600 47.63300
C  41.58500 9.31800 47.66800
O  41.41100 10.55300 47.64200
C  40.38400 8.34400 47.63800
C  39.60600 8.58700 48.83400
O  39.99700 8.35700 49.98400
O  38.27900 8.72100 48.40000
C  37.33600 8.57400 49.52700
H  39.31000 1.54300 48.02100
H  45.68400 0.84800 47.86900
H  46.66300 7.05400 47.29900
H  38.29500 6.22400 47.92700
H  37.93100 3.52500 46.89800
H  37.48900 4.87900 49.39100
H  38.35400 3.31200 49.69900
H  36.86400 3.36500 48.67700
H  38.00200 4.90100 45.15500
H  39.12900 6.17100 45.09200
H  37.45800 7.75000 45.88400
H  36.32600 6.41600 46.24400
H  40.24700 -1.47200 48.49800
H  41.00600 -1.41200 46.86100
H  39.74400 -0.37700 47.17800
H  45.67300 -0.89000 49.07200
H  45.61900 -1.32000 47.42200
H  45.47800 -2.59200 48.57800
H  47.39500 2.27700 46.76300
H  48.03600 4.92900 48.15700
H  47.17500 2.32300 49.73700
H  48.68400 3.00300 49.40300
H  48.26200 1.41000 48.71700
H  47.90200 5.82200 45.78200
H  47.53000 4.18500 45.29700
H  50.06300 5.43400 45.79900
H  49.69900 3.88800 45.00000
H  49.86900 3.95500 46.78700
H  45.13500 10.11400 46.66400
H  46.12800 9.13600 47.81600
H  44.99300 10.35400 48.41600
H  39.77200 8.59000 46.77000
H  36.94100 9.50300 49.93700
H  37.64600 7.96700 50.37700
H  36.62700 7.90900 49.03500
Mg 35.25700 1.74300 30.82500
C  32.66100 3.09600 32.78800
C  37.03000 1.39000 33.61400
C  37.77900 0.75700 28.84500
C  33.18100 1.99200 27.96600
N  34.80000 2.07900 33.03100
C  33.69700 2.67200 33.57200
C  33.88100 2.77500 35.14100
C  35.40700 2.37100 35.31400
C  35.75200 1.91100 33.89500
C  36.28100 3.44800 35.92800
C  32.99900 1.76100 35.85500
C  32.11100 2.34700 36.98500
H  32.62100 3.48500 37.89500
N  37.16200 1.11700 31.18800
C  37.75400 1.05700 32.39200
C  39.15700 0.64400 32.25600
C  39.41700 0.55600 30.83500
C  38.06100 0.76100 30.22600
C  40.05700 0.38500 33.45300
C  40.69900 0.19300 30.07700
O  40.71000 -0.06200 28.90700
C  41.98900 0.18900 30.84400
N  35.40500 1.27500 28.68600
C  36.59500 0.94800 28.13000
C  36.49900 1.03100 26.56300
C  34.98000 0.98300 26.38300
C  34.44300 1.46100 27.75600
C  37.18300 2.26900 25.91100
C  34.42300 -0.40000 25.96100
C  32.98900 -0.93500 26.34700
N  33.36300 2.45700 30.42600
C  32.68200 2.50400 29.23300
C  31.36800 3.11600 29.45500
C  31.33200 3.46300 30.81500
C  32.53500 2.93000 31.38600
C  30.27000 3.22700 28.40900
C  30.56400 4.04500 31.85700
O  29.50900 4.62800 31.79900
C  31.41600 3.90700 33.21600
C  31.78000 5.22300 33.69100
O  32.72800 5.87100 33.33700
O  30.86700 5.61800 34.68200
C  31.22000 6.97400 35.25400
H  37.67200 1.28700 34.49200
H  38.57300 0.55300 28.12300
H  32.69700 2.02800 26.98700
H  33.59600 3.81600 35.29400
H  35.60200 1.44700 35.86000
H  35.71700 4.17900 36.50700
H  36.77700 3.91400 35.07700
H  36.92400 2.86600 36.58800
H  33.59300 0.99800 36.35900
H  32.30800 1.30500 35.14600
H  31.91300 1.55700 37.71000
H  31.20000 2.57400 36.43200
H  39.56700 0.29300 34.42200
H  40.87100 1.10800 33.51400
H  40.43600 -0.61000 33.22100
H  41.94900 -0.40500 31.75700
H  42.23700 1.18600 31.20900
H  42.87100 -0.09900 30.27300
H  37.02800 0.16700 26.16200
H  34.63800 1.65200 25.59300
H  38.09900 1.92200 25.43300
H  37.39200 2.99000 26.70100
H  36.54700 2.74600 25.16500
H  35.10400 -1.09900 26.44700
H  34.65200 -0.63500 24.92200
H  32.24100 -0.18400 26.59700
H  33.10200 -1.65900 27.15400
H  32.69000 -1.56000 25.50600
H  29.58100 4.02400 28.68900
H  29.74400 2.28500 28.26000
H  30.68900 3.52000 27.44600
H  30.72800 3.44100 33.92100
H  30.33600 7.25000 35.83000
H  31.55000 7.69400 34.50500
H  32.09300 6.83300 35.89100

