158

Mg -2.59100 16.63400 26.88800
C  -3.11600 14.34500 29.61000
C  -3.04500 19.20100 29.12000
C  -2.58800 18.74200 24.36200
C  -2.77700 13.94900 24.63900
N  -3.04300 16.75000 29.11600
C  -3.25100 15.71000 30.01800
C  -3.52500 16.28500 31.48000
C  -3.40900 17.86100 31.30100
C  -3.20800 17.93800 29.75300
C  -4.54200 18.74900 31.91200
C  -2.54500 15.65500 32.55100
C  -2.14600 16.46000 33.77200
H  -2.03200 15.94300 35.20200
N  -2.74300 18.66700 26.72500
C  -2.83300 19.56400 27.76000
C  -2.68000 20.87500 27.31600
C  -2.49800 20.79200 25.94800
C  -2.61100 19.32100 25.60500
C  -2.60800 22.09000 28.29800
C  -2.25900 21.85600 24.94200
O  -2.00600 21.66000 23.74300
C  -2.11300 23.28200 25.40900
N  -2.88400 16.40200 24.78900
C  -2.61700 17.38200 23.93300
C  -2.56000 16.88100 22.47800
C  -2.60200 15.34300 22.61800
C  -2.79500 15.21400 24.13100
C  -3.63400 17.40500 21.47800
C  -1.31500 14.62100 22.11600
C  -0.08300 14.75100 23.08800
N  -2.84600 14.62100 27.06800
C  -2.95700 13.65400 26.05500
C  -2.91100 12.34200 26.69000
C  -2.95700 12.58000 28.05200
C  -2.96200 13.95900 28.22700
C  -2.97100 10.99500 25.98400
C  -3.15000 11.93600 29.34700
O  -3.14000 10.79800 29.68800
C  -3.22600 13.12500 30.38900
C  -2.06800 12.93500 31.31300
O  -0.94400 13.20500 31.10800
O  -2.62100 12.39500 32.45700
C  -1.63700 12.09200 33.51800
H  -3.00100 19.96000 29.90500
H  -2.24900 19.42100 23.57600
H  -2.63900 13.15500 23.90300
H  -4.52900 15.89100 31.63600
H  -2.43900 18.14800 31.70800
H  -5.17400 18.16200 32.57800
H  -5.12500 19.14200 31.07900
H  -4.06100 19.56800 32.44600
H  -1.63600 15.39000 32.01100
H  -3.09700 14.80200 32.94600
H  -2.65000 17.42600 33.74500
H  -1.09100 16.66700 33.59200
H  -3.32800 22.82900 27.94700
H  -1.55300 22.28700 28.10700
H  -2.84300 21.96600 29.35500
H  -3.08000 23.56600 25.82300
H  -1.87900 23.90600 24.54600
H  -1.39100 23.26900 26.22500
H  -1.54600 17.07100 22.12500
H  -3.42000 14.82300 22.12200
H  -4.32800 18.14900 21.87000
H  -4.30300 16.63200 21.10000
H  -2.96600 17.78900 20.70700
H  -1.20800 14.95700 21.08400
H  -1.53200 13.55500 22.05800
H  -0.42200 15.16500 24.03800
H  0.61400 15.39900 22.55700
H  0.48600 13.83200 23.23100
H  -2.70200 11.10300 24.93300
H  -3.91500 10.45500 25.90800
H  -2.19300 10.37600 26.43000
H  -4.18500 13.20100 30.90000
H  -1.85700 11.09200 33.89100
H  -1.82100 12.67200 34.42300
H  -0.56100 12.17700 33.37000
Mg 42.46000 41.90600 26.85000
C  41.32600 44.09300 29.33700
C  43.15400 39.66300 29.25300
C  43.74400 39.92300 24.48600
C  42.09900 44.43000 24.47200
N  42.20000 41.83200 29.04400
C  41.63800 42.82900 29.81300
C  41.57400 42.38000 31.24500
C  42.22300 40.92400 31.22800
C  42.56400 40.81500 29.77900
C  43.37200 40.65200 32.28500
C  40.15100 42.39400 31.84900
C  39.80200 43.15800 33.07600
H  39.33700 42.27400 34.24800
N  43.33700 40.06600 26.85800
C  43.44200 39.20700 27.95000
C  44.10400 37.99400 27.63600
C  44.34900 38.14000 26.25700
C  43.85800 39.43900 25.79800
C  44.52700 36.92200 28.60800
C  44.95200 37.10600 25.27300
O  45.22400 37.24600 24.05700
C  45.30200 35.84700 25.79900
N  42.71100 42.07000 24.72400
C  43.21600 41.10300 23.96200
C  43.20400 41.54700 22.44100
C  42.58200 42.98100 22.51300
C  42.44600 43.15900 23.99300
C  44.56600 41.35800 21.66900
C  41.23100 43.06100 21.74700
C  41.22800 43.60700 20.25800
N  41.81400 43.84300 26.82700
C  41.79400 44.73100 25.79400
C  41.37600 45.98400 26.37900
C  41.12100 45.76500 27.70000
C  41.39500 44.45300 27.99700
C  41.23500 47.24700 25.70400
C  40.66400 46.36800 29.03800
O  40.30300 47.50500 29.34100
C  40.78800 45.31200 30.11900
C  41.82500 45.88600 31.05200
O  43.00600 46.11700 30.67300
O  41.21300 46.33400 32.18700
C  42.17100 46.83600 33.17700
H  43.19100 38.86400 29.99700
H  43.95600 39.21900 23.67700
H  42.08400 45.30900 23.82500
H  42.27500 42.97200 31.83400
H  41.45900 40.14900 31.28300
H  43.51700 41.43900 33.02500
H  44.28800 40.70700 31.69700
H  43.41000 39.67700 32.77000
H  39.76100 41.40000 32.06800
H  39.66400 42.99000 31.07700
H  39.02500 43.87400 32.80700
H  40.72600 43.57200 33.48000
H  43.97800 35.98800 28.48800
H  44.47800 37.33000 29.61700
H  45.57700 36.68300 28.43900
H  45.41100 35.09400 25.01900
H  44.56900 35.33200 26.42000
H  46.23200 35.98300 26.35100
H  42.48300 40.86500 21.98900
H  43.33700 43.67000 22.13400
H  45.14300 42.27500 21.78300
H  44.35400 41.35700 20.60000
H  45.24400 40.56800 21.99100
H  40.54500 43.64700 22.36000
H  40.76600 42.07600 21.74300
H  42.08100 44.25000 20.04100
H  40.28600 44.14500 20.15300
H  41.25700 42.72700 19.61600
H  41.77300 47.34200 24.76100
H  41.35400 48.10500 26.36600
H  40.16900 47.22500 25.47500
H  39.78700 45.28800 30.54900
H  42.89100 47.58500 32.84800
H  42.68400 45.95200 33.55600
H  41.82100 47.38000 34.05400

