158

Mg 25.81700 -0.39300 29.98000
C  27.57900 -0.32700 32.84400
C  22.89300 0.25800 31.63400
C  24.12700 -0.41900 26.90200
C  28.81400 -1.12200 28.09700
N  25.31300 -0.02300 31.96300
C  26.21600 -0.05400 33.08000
C  25.60900 0.31400 34.38700
C  24.12400 0.54400 33.97300
C  24.07600 0.18700 32.41200
C  23.02100 -0.18900 34.79700
C  26.30500 1.56200 35.12900
C  26.82700 1.25600 36.56800
H  26.55200 2.39800 37.57300
N  23.72300 -0.19000 29.36000
C  22.68500 0.17000 30.19800
C  21.48800 0.32000 29.43100
C  21.81500 -0.04300 28.09900
C  23.26300 -0.30000 28.06700
C  20.12400 0.75700 30.04900
C  20.87400 -0.02900 26.78200
O  21.31300 -0.17200 25.68400
C  19.44100 0.27600 26.89900
N  26.39000 -0.74800 27.84600
C  25.53600 -0.54100 26.81000
C  26.21600 -0.50800 25.43500
C  27.72300 -0.59400 25.80500
C  27.65000 -0.89400 27.33900
C  25.68700 -1.61600 24.46000
C  28.56900 0.59400 25.38500
C  27.95100 1.96400 25.07700
N  27.72400 -0.71000 30.34700
C  28.86800 -1.05300 29.50900
C  30.06300 -1.08500 30.44600
C  29.57100 -0.79400 31.68400
C  28.16900 -0.60500 31.57900
C  31.50200 -1.41000 30.10200
C  30.03700 -0.67200 33.09900
O  31.19100 -0.72700 33.48600
C  28.75900 -0.36600 33.89400
C  28.62000 -1.46300 34.87500
O  27.71300 -2.25400 34.93300
O  29.62700 -1.35200 35.81100
C  29.45000 -1.99700 37.11400
H  22.01000 0.53800 32.21300
H  23.61600 -0.16200 25.97200
H  29.84200 -1.21900 27.74300
H  25.70000 -0.52900 35.07100
H  23.89500 1.60700 34.03600
H  23.40500 -0.35900 35.80300
H  22.80500 -1.15300 34.33600
H  22.09700 0.37100 34.93900
H  25.59000 2.37500 35.25700
H  27.09100 2.02400 34.53000
H  27.91600 1.21100 36.58500
H  26.53400 0.25200 36.87700
H  19.24200 0.18100 29.76900
H  19.89300 1.77300 29.72700
H  20.18500 0.84400 31.13400
H  18.89500 -0.46100 27.48700
H  19.12300 0.55600 25.89500
H  19.37700 1.21200 27.45400
H  25.97200 0.41700 24.91200
H  28.22200 -1.45500 25.36000
H  25.50600 -2.59600 24.90200
H  26.47300 -1.68100 23.70800
H  24.79300 -1.22400 23.97500
H  29.04300 0.32900 24.44000
H  29.38500 0.75900 26.08900
H  28.20000 2.36500 24.09500
H  28.41700 2.69600 25.73700
H  26.86800 2.05000 25.15500
H  31.52400 -1.90200 29.13000
H  31.91700 -2.21400 30.71000
H  32.07600 -0.48400 30.06600
H  28.94100 0.55100 34.45400
H  29.48700 -3.08600 37.07800
H  28.60800 -1.64900 37.71200
H  30.27800 -1.76200 37.78300
Mg 46.65500 24.41000 28.57600
C  47.21600 26.98900 30.88000
C  45.63300 22.33500 31.04800
C  46.57600 22.10700 26.26900
C  47.82900 26.68900 26.06800
N  46.34400 24.69900 30.72100
C  46.61300 25.83300 31.49200
C  46.32800 25.52400 32.96500
C  45.55600 24.10200 32.89900
C  45.89700 23.66900 31.47200
C  45.88700 23.02900 33.92300
C  45.55600 26.65500 33.73000
C  44.50500 26.17400 34.82400
H  44.34400 26.87800 36.21100
N  46.14500 22.46400 28.61200
C  45.79100 21.78600 29.72400
C  45.70400 20.38300 29.35400
C  46.00600 20.20700 28.02500
C  46.25600 21.63600 27.53200
C  45.34700 19.40400 30.50400
C  45.94300 19.03400 27.08200
O  46.19000 19.04500 25.90300
C  45.48200 17.72100 27.65100
N  46.93800 24.49900 26.42800
C  46.80100 23.32500 25.72100
C  47.13300 23.53700 24.26200
C  47.44500 25.08100 24.26000
C  47.44900 25.47200 25.65300
C  48.28800 22.71300 23.67000
C  46.33000 25.90300 23.43900
C  44.95400 25.91400 24.13800
N  47.34500 26.41300 28.45500
C  47.85900 27.16500 27.37600
C  48.40500 28.37100 27.84000
C  48.20000 28.35200 29.22500
C  47.55700 27.12700 29.55800
C  49.13900 29.40300 27.13500
C  48.39700 29.04300 30.44300
O  48.95100 30.09900 30.61500
C  47.72200 28.20200 31.55900
C  48.63900 27.99800 32.64800
O  49.48300 27.12000 32.78800
O  48.34500 28.89700 33.58400
C  48.96100 28.75900 34.91100
H  45.08000 21.72300 31.76400
H  46.66300 21.34700 25.49000
H  48.20200 27.32600 25.26400
H  47.28000 25.47700 33.49200
H  44.49100 24.32100 32.96700
H  46.70700 22.35700 33.66800
H  45.08600 22.41000 34.32800
H  46.24900 23.60200 34.77600
H  45.21900 27.49100 33.11700
H  46.39800 27.04100 34.30300
H  44.68600 25.11700 35.02200
H  43.53700 26.12700 34.32700
H  44.32300 19.50800 30.86200
H  46.11300 19.48400 31.27600
H  45.35500 18.39000 30.10400
H  45.19000 16.96800 26.92000
H  44.60200 17.98300 28.23900
H  46.27300 17.31900 28.28400
H  46.19400 23.47300 23.71200
H  48.46400 25.31300 23.95000
H  47.94000 22.10500 22.83500
H  48.59500 22.08000 24.50200
H  49.21400 23.19300 23.35200
H  46.21200 25.35200 22.50500
H  46.70300 26.91200 23.26300
H  44.99700 26.54400 25.02600
H  44.77200 24.88100 24.43500
H  44.16700 26.43200 23.59100
H  48.69200 29.63800 26.16900
H  50.14400 28.99800 27.01700
H  49.21800 30.20200 27.87100
H  46.86200 28.74100 31.95800
H  49.96800 29.16200 34.80300
H  48.89400 27.74100 35.29500
H  48.49600 29.42000 35.64200

