158

Mg 47.14400 16.18800 28.12200
C  44.95400 15.65800 30.86200
C  48.97100 18.34900 29.91800
C  49.25600 16.37500 25.40600
C  45.03000 14.11900 26.19200
N  46.89700 17.08000 30.13800
C  46.03900 16.59600 31.15400
C  46.36700 17.30200 32.45400
C  47.53800 18.26400 32.03800
C  47.89400 17.85000 30.55600
C  47.20500 19.80600 32.08800
C  46.80400 16.29200 33.52600
C  46.56000 16.51700 35.06300
H  47.73900 16.26500 36.05900
N  48.82600 17.28700 27.72400
C  49.49000 18.14500 28.59500
C  50.50100 18.84400 27.83600
C  50.42200 18.32400 26.48700
C  49.49300 17.26900 26.50400
C  51.34500 19.92200 28.36800
C  51.23900 18.77400 25.31500
O  50.94600 18.35500 24.20200
C  52.39300 19.79900 25.44000
N  47.04500 15.47100 26.11900
C  48.09000 15.63100 25.24700
C  47.75500 14.96400 23.99200
C  46.69200 13.93600 24.36100
C  46.22800 14.53200 25.63800
C  47.32700 15.99800 22.87100
C  47.10100 12.46000 24.59300
C  46.11500 11.33700 24.01200
N  45.32200 15.18300 28.39400
C  44.56700 14.43200 27.50100
C  43.36200 13.85200 28.21500
C  43.49900 14.29100 29.47000
C  44.71000 15.11600 29.57200
C  42.31400 13.03900 27.55900
C  42.84700 14.22500 30.77800
O  41.84000 13.63700 31.10500
C  43.85600 15.01900 31.79900
C  43.06800 16.06200 32.48600
O  42.43800 16.98400 32.00900
O  43.08100 15.83900 33.83500
C  42.34400 16.62100 34.83900
H  49.56200 19.09800 30.45000
H  49.93000 16.11200 24.58800
H  44.37300 13.41400 25.67800
H  45.56200 17.92400 32.84700
H  48.42900 18.08900 32.64100
H  46.34500 20.11600 32.68300
H  47.03200 20.13900 31.06500
H  48.03900 20.43800 32.39200
H  47.85700 16.03100 33.42100
H  46.20500 15.42100 33.26200
H  45.77300 15.80800 35.31800
H  46.21200 17.50500 35.36600
H  50.93000 20.79100 27.85800
H  52.41500 19.80800 28.19200
H  51.19500 20.00000 29.44500
H  53.08400 19.50300 26.22900
H  51.99400 20.73300 25.83800
H  52.82700 20.01200 24.46300
H  48.63200 14.34300 23.80700
H  45.77500 14.08100 23.78900
H  46.33300 15.69100 22.54500
H  48.01400 16.13400 22.03600
H  47.24400 16.99500 23.30300
H  47.19800 12.32200 25.67000
H  48.01000 12.18100 24.06100
H  45.27100 11.84100 23.54200
H  45.75000 10.65600 24.78100
H  46.62000 10.66600 23.31700
H  42.48500 11.98600 27.78400
H  42.31600 13.10000 26.47100
H  41.38200 13.51400 27.86500
H  44.30500 14.40500 32.57900
H  43.12800 17.07000 35.44800
H  41.73500 16.05200 35.54100
H  41.82700 17.43000 34.32300
Mg -8.55900 40.46600 42.79400
C  -7.35200 37.35000 41.72300
C  -6.06100 41.92500 40.75000
C  -10.08800 43.55200 43.14300
C  -11.53600 38.91200 43.76000
N  -6.89500 39.71700 41.33500
C  -6.55200 38.44800 41.21100
C  -5.18900 38.25700 40.41800
C  -4.70900 39.75100 40.17000
C  -5.90200 40.50900 40.90400
C  -3.29800 40.22300 40.84200
C  -5.54200 37.34700 39.13800
C  -4.54600 36.11400 39.02200
H  -4.89300 34.97300 38.04800
N  -8.07600 42.46600 42.22600
C  -6.99600 42.79100 41.38300
C  -6.90700 44.14700 41.30000
C  -8.04200 44.77700 41.85800
C  -8.84000 43.61100 42.41100
C  -5.70400 44.82900 40.51700
C  -8.42900 46.24100 41.71500
O  -7.75100 47.01300 41.04700
C  -9.81300 46.75400 42.19100
N  -10.52200 41.11000 43.42000
C  -10.85700 42.37800 43.56700
C  -12.36500 42.53900 43.94500
C  -12.82800 41.03100 44.10300
C  -11.60700 40.29000 43.78000
C  -12.55000 43.46400 45.20000
C  -14.05500 40.65300 43.32900
C  -15.05600 39.80100 44.11400
N  -9.25700 38.52900 42.87400
C  -10.44500 38.04300 43.32800
C  -10.45100 36.61500 43.24400
C  -9.21500 36.21600 42.74700
C  -8.59300 37.46100 42.43400
C  -11.53900 35.74100 43.78600
C  -8.35500 35.11300 42.41200
O  -8.49200 33.93500 42.66400
C  -7.08400 35.76700 41.76700
C  -5.87400 35.36100 42.54400
O  -5.47200 36.11700 43.45100
O  -5.39900 34.13500 42.21200
C  -4.30500 33.57000 43.01200
H  -5.19700 42.32300 40.21400
H  -10.60500 44.49700 43.32300
H  -12.47700 38.48000 44.10800
H  -4.47000 37.70100 41.02000
H  -4.77400 39.89700 39.09100
H  -3.34800 41.28400 41.08800
H  -2.54300 40.17100 40.05800
H  -3.08000 39.58500 41.69900
H  -5.47200 38.00100 38.26900
H  -6.54000 36.91100 39.15600
H  -4.58800 35.64700 40.00600
H  -3.53000 36.48300 38.87700
H  -5.99400 45.01500 39.48300
H  -4.78400 44.24500 40.51500
H  -5.38100 45.73700 41.02600
H  -9.99000 47.79800 41.93300
H  -9.82200 46.66000 43.27700
H  -10.56500 46.08200 41.77800
H  -12.80000 42.95500 43.03600
H  -12.91000 40.79700 45.16500
H  -12.88700 42.95000 46.10100
H  -13.26800 44.27200 45.06400
H  -11.59600 43.92500 45.45500
H  -13.69000 40.21500 42.40000
H  -14.63700 41.50300 42.97300
H  -14.88100 39.89200 45.18600
H  -15.03900 38.81000 43.66100
H  -16.02800 40.24200 43.89600
H  -11.28600 34.69300 43.62500
H  -12.44700 35.98200 43.23200
H  -11.70600 35.94500 44.84300
H  -6.91000 35.24200 40.82700
H  -4.47400 33.89400 44.03900
H  -3.28300 33.85100 42.75700
H  -4.42500 32.49200 43.11300

