158

Mg 25.23400 -0.42000 29.15700
C  27.30400 -0.40700 32.17100
C  22.53700 -0.33700 31.05800
C  23.70100 -0.72800 26.28400
C  28.48900 -1.10200 27.53200
N  25.00100 -0.36100 31.34700
C  25.90100 -0.26200 32.36800
C  25.19000 -0.05300 33.74600
C  23.69200 -0.39300 33.36500
C  23.73100 -0.41700 31.82800
C  22.88300 -1.54200 34.16500
C  25.49400 1.29200 34.47100
C  26.22300 1.24000 35.84300
H  25.86000 2.22100 36.95800
N  23.37800 -0.31700 28.67700
C  22.35000 -0.38900 29.62500
C  21.09100 -0.37500 28.84100
C  21.38800 -0.34300 27.40900
C  22.86700 -0.42100 27.39100
C  19.73900 -0.28100 29.58100
C  20.37100 -0.20800 26.17500
O  20.78200 -0.20900 25.05800
C  18.87700 -0.25700 26.47700
N  26.03500 -0.87800 27.20200
C  25.10200 -0.87400 26.14400
C  25.76300 -0.84100 24.78400
C  27.27900 -0.94600 25.21200
C  27.31500 -0.94100 26.73600
C  25.29500 -1.92500 23.77900
C  27.97200 0.36300 24.70700
C  27.73700 1.74400 25.47000
N  27.43300 -0.68000 29.72400
C  28.56300 -0.89500 28.92900
C  29.77500 -0.90800 29.76900
C  29.27400 -0.74400 31.01500
C  27.95100 -0.55300 30.94300
C  31.16800 -1.03400 29.26200
C  29.70800 -0.66100 32.44800
O  30.80200 -0.95000 32.95200
C  28.35200 -0.44000 33.26500
C  28.15600 -1.66100 34.16900
O  27.89300 -2.79100 33.80200
O  28.35800 -1.22200 35.47100
C  28.40500 -2.18400 36.57400
H  21.63100 -0.36300 31.66700
H  23.03400 -0.85700 25.42900
H  29.36800 -1.36000 26.93800
H  25.55100 -0.86000 34.38400
H  23.19100 0.56100 33.52900
H  22.27300 -2.19500 33.54000
H  22.11700 -1.08400 34.79000
H  23.61700 -2.05100 34.79000
H  24.50100 1.73100 34.56700
H  26.13500 1.90000 33.83300
H  27.20700 1.57700 35.51700
H  26.26800 0.24600 36.28700
H  19.36100 0.73300 29.45300
H  19.88300 -0.48800 30.64200
H  19.10700 -1.08100 29.19600
H  18.65400 -1.24500 26.88100
H  18.46200 -0.07200 25.48600
H  18.56300 0.57000 27.11400
H  25.48600 0.13100 24.37600
H  27.78400 -1.81800 24.79800
H  25.94000 -2.74500 23.46400
H  24.98400 -1.49000 22.82900
H  24.41500 -2.45500 24.14400
H  27.62900 0.55900 23.69100
H  29.05300 0.22900 24.66800
H  27.56400 1.53900 26.52600
H  26.93900 2.31000 24.98800
H  28.68100 2.27400 25.59700
H  31.19100 -2.02900 28.81700
H  31.83700 -0.82800 30.09700
H  31.44700 -0.29500 28.51100
H  28.41200 0.52700 33.76500
H  29.27800 -1.89400 37.15900
H  28.47000 -3.18500 36.14700
H  27.51800 -2.09700 37.20100
Mg -1.54900 34.72700 26.72700
C  -3.02100 32.69100 29.38000
C  -0.30500 36.77300 29.11500
C  -0.60800 36.67200 24.35300
C  -3.29300 32.63700 24.49000
N  -1.65600 34.65100 28.98800
C  -2.28900 33.76400 29.90300
C  -1.87800 34.05500 31.35100
C  -1.11000 35.46300 31.18200
C  -1.04500 35.66900 29.64400
C  -1.75700 36.76400 31.81400
C  -0.94600 32.90400 32.00400
C  -1.55300 32.07200 33.21200
H  -0.63800 32.02300 34.50100
N  -0.56500 36.46800 26.70700
C  -0.02400 37.08700 27.75800
C  0.87500 38.13000 27.33500
C  0.79700 38.18100 25.90700
C  -0.14000 37.06100 25.59500
C  1.68800 39.05300 28.32800
C  1.55100 39.06800 24.87000
O  1.37100 38.96100 23.67800
C  2.56200 40.08500 25.32700
N  -1.86200 34.65300 24.71200
C  -1.39200 35.58200 23.92300
C  -1.87900 35.55400 22.52100
C  -2.65800 34.18600 22.55700
C  -2.68800 33.80000 24.05900
C  -2.64500 36.77100 21.94000
C  -2.17600 32.97100 21.67000
C  -0.68700 32.55300 21.91500
N  -2.72700 32.97200 26.82000
C  -3.37800 32.23100 25.83600
C  -4.21000 31.20500 26.35400
C  -3.97400 31.31700 27.74000
C  -3.23900 32.44700 27.99500
C  -5.00300 30.11500 25.72800
C  -4.21200 30.62700 29.01500
O  -4.79300 29.54100 29.19500
C  -3.71400 31.59200 30.19400
C  -4.86700 32.03800 31.05900
O  -5.79000 32.76400 30.74600
O  -4.81400 31.31400 32.15300
C  -5.77700 31.59300 33.20300
H  0.16100 37.41000 29.87000
H  -0.19000 37.27900 23.54700
H  -4.00100 32.17200 23.80100
H  -2.71600 34.20700 32.03200
H  -0.13000 35.40800 31.65800
H  -1.11700 37.39400 32.43100
H  -2.55900 36.42500 32.47000
H  -2.15200 37.39300 31.01600
H  -0.00100 33.38200 32.26400
H  -0.76900 32.19200 31.19800
H  -1.68600 31.04200 32.88000
H  -2.57000 32.42200 33.39100
H  1.97000 38.58400 29.27000
H  0.96600 39.82800 28.58700
H  2.55200 39.51700 27.85300
H  3.36100 39.65900 25.93400
H  2.15200 40.85200 25.98500
H  3.12700 40.40400 24.45100
H  -1.00800 35.48100 21.86900
H  -3.71300 34.34600 22.33400
H  -3.43300 36.43300 21.26700
H  -1.94200 37.36400 21.35400
H  -3.02900 37.34900 22.78100
H  -2.23800 33.27500 20.62500
H  -2.81500 32.09000 21.72800
H  -0.05500 33.01400 21.15600
H  -0.61600 31.46700 21.98700
H  -0.42000 32.87900 22.92000
H  -4.46700 29.66300 24.89400
H  -5.88900 30.53600 25.25400
H  -5.11300 29.28800 26.42900
H  -3.02400 30.97300 30.76800
H  -6.70200 31.83800 32.68200
H  -5.40500 32.37000 33.87200
H  -5.94300 30.69200 33.79300

