158

Mg 28.32900 56.64200 40.69300
C  26.71800 53.68000 39.81600
C  31.27200 55.34600 39.32300
C  29.83900 59.53000 41.42400
C  25.16600 58.03000 41.36600
N  28.90700 54.70300 39.67900
C  28.05000 53.67700 39.39200
C  28.73800 52.51500 38.78700
C  30.22600 52.92300 38.83300
C  30.17800 54.39600 39.39200
C  31.32500 51.96800 39.58700
C  28.16000 51.93500 37.38100
C  27.67700 53.08600 36.45800
H  27.94400 53.01400 34.94800
N  30.34200 57.37100 40.36200
C  31.34000 56.71300 39.78300
C  32.50400 57.63300 39.70600
C  32.15200 58.83700 40.38500
C  30.73600 58.61300 40.78900
C  33.86100 57.22200 39.09200
C  33.05100 60.01900 40.58300
O  34.22300 59.89900 40.27000
C  32.67000 61.27600 41.32000
N  27.59000 58.54800 41.03400
C  28.41500 59.50400 41.50500
C  27.64800 60.75200 42.06200
C  26.14900 60.36400 41.83900
C  26.24600 58.87500 41.39100
C  28.01500 61.02800 43.52900
C  25.46800 61.20300 40.71100
C  26.31100 61.54500 39.51100
N  26.29200 56.00000 40.75200
C  25.12100 56.65300 41.01500
C  23.92500 55.76100 40.87500
C  24.53700 54.60000 40.45400
C  25.96900 54.79100 40.34300
C  22.53400 56.09400 41.26100
C  24.31600 53.21900 40.05700
O  23.29000 52.59500 39.99000
C  25.72000 52.52400 39.81700
C  25.93000 51.51300 40.87500
O  25.74500 51.69200 42.08200
O  26.58900 50.50900 40.31700
C  27.35000 49.58900 41.20000
H  32.25900 55.00400 39.00200
H  30.36900 60.38700 41.84600
H  24.24200 58.31400 41.87300
H  28.63000 51.66400 39.45900
H  30.51400 53.06200 37.79100
H  32.22000 51.87200 38.97300
H  30.79900 51.06000 39.88200
H  31.66100 52.47900 40.49000
H  27.33500 51.26400 37.62400
H  28.93900 51.35500 36.88600
H  28.21800 54.00500 36.68300
H  26.62700 53.29800 36.65800
H  34.21800 58.01300 38.43300
H  33.80700 56.22400 38.65800
H  34.60800 57.07100 39.87200
H  32.23500 60.97800 42.27400
H  31.97200 61.87300 40.73400
H  33.52900 61.82700 41.70300
H  27.89900 61.67000 41.53100
H  25.59700 60.36900 42.77900
H  27.13100 61.10200 44.16100
H  28.51300 61.98700 43.67400
H  28.54000 60.21500 44.03200
H  25.14200 62.13100 41.17900
H  24.57200 60.77400 40.26100
H  27.15500 60.88300 39.31700
H  26.68300 62.54700 39.72600
H  25.69500 61.53800 38.61200
H  22.25900 57.10500 40.96000
H  22.49400 55.97000 42.34400
H  21.91200 55.32500 40.80400
H  25.53200 51.98600 38.88800
H  28.38000 49.45900 40.86700
H  26.85900 48.63000 41.36200
H  27.47200 50.06300 42.17400
Mg -10.40400 39.57500 39.70800
C  -9.82500 36.20000 39.05500
C  -6.99900 40.21000 38.82100
C  -11.15900 42.70500 39.12700
C  -13.76600 38.75200 40.36100
N  -8.69700 38.34600 38.72600
C  -8.71900 36.94400 38.66300
C  -7.33100 36.45700 38.24700
C  -6.45600 37.70600 38.59600
C  -7.41700 38.84300 38.67400
C  -5.76300 37.56600 39.95900
C  -7.29300 35.99300 36.76500
C  -7.70100 36.97300 35.59800
H  -8.91000 36.69400 34.83300
N  -9.30800 41.24800 39.17000
C  -7.91800 41.32900 38.87800
C  -7.54000 42.68600 38.65700
C  -8.68300 43.44100 38.78000
C  -9.78300 42.45900 39.04100
C  -6.22900 43.13100 38.28700
C  -8.67400 44.94900 38.60900
O  -7.71800 45.60200 38.14400
C  -9.76300 45.70800 39.07200
N  -12.22700 40.59700 39.72000
C  -12.26300 41.91700 39.50300
C  -13.71200 42.34800 39.50300
C  -14.47300 41.10700 40.01300
C  -13.45700 40.05500 40.07000
C  -14.05500 43.65400 40.26700
C  -15.69500 40.77800 39.08200
C  -16.98700 41.47200 39.47500
N  -11.59400 37.83800 39.76800
C  -12.94500 37.64600 40.08600
C  -13.19900 36.22300 40.09000
C  -11.97400 35.61200 39.72300
C  -11.07500 36.66700 39.58000
C  -14.57800 35.54500 40.40900
C  -11.38800 34.36400 39.44300
O  -11.87100 33.24600 39.35500
C  -9.97400 34.71800 38.94000
C  -8.97900 33.94200 39.78800
O  -8.95600 33.93900 40.99800
O  -8.12500 33.27500 38.97700
C  -7.21000 32.32000 39.73200
H  -5.93800 40.43000 38.68400
H  -11.54600 43.70100 38.90000
H  -14.79900 38.48900 40.59900
H  -7.01700 35.62700 38.88000
H  -5.70800 38.03400 37.87500
H  -6.06400 36.66000 40.48500
H  -5.96900 38.45000 40.56200
H  -4.70100 37.52300 39.71700
H  -7.95300 35.12600 36.73800
H  -6.23300 35.77300 36.63600
H  -6.85200 37.15800 34.94000
H  -7.88200 37.95100 36.04400
H  -6.01100 44.09800 38.74100
H  -6.12200 43.17700 37.20300
H  -5.44700 42.44200 38.60500
H  -10.21000 45.18500 39.91800
H  -10.51800 45.86800 38.30200
H  -9.40200 46.65100 39.48100
H  -14.01600 42.57200 38.48100
H  -14.85200 41.34200 41.00700
H  -13.10100 44.10400 40.54000
H  -14.63900 43.39800 41.15200
H  -14.62900 44.24900 39.55600
H  -15.88800 39.71400 38.94100
H  -15.37600 41.08700 38.08700
H  -17.54500 40.72200 40.03500
H  -17.62000 41.77700 38.64100
H  -16.85700 42.40400 40.02600
H  -15.10200 36.19900 41.10500
H  -14.49700 34.58500 40.92000
H  -15.16400 35.41900 39.49800
H  -9.92400 34.40200 37.89900
H  -7.48500 31.31100 39.42500
H  -7.18100 32.40500 40.81800
H  -6.15000 32.45300 39.51600

