158

Mg 30.64900 58.91000 39.85100
C  27.69600 56.90900 39.27700
C  32.52100 56.10000 38.81200
C  33.25400 60.85100 39.81500
C  28.49600 61.68400 40.05600
N  30.18800 56.75900 39.14800
C  28.90200 56.21000 39.04400
C  29.03700 54.85400 38.36700
C  30.58800 54.43100 38.69000
C  31.14100 55.83400 38.84200
C  30.80500 53.51700 39.85700
C  28.74600 54.87800 36.83900
C  27.65200 53.96900 36.25300
H  26.58200 54.67100 35.34200
N  32.73400 58.48000 39.44000
C  33.28100 57.27800 39.06500
C  34.67700 57.47200 38.94500
C  34.92800 58.85400 39.29600
C  33.63400 59.52200 39.49600
C  35.68000 56.32600 38.65400
C  36.29200 59.45100 39.46400
O  37.31200 58.81900 39.06900
C  36.51200 60.88800 40.01100
N  30.80200 60.98500 40.04000
C  32.04200 61.51200 40.07300
C  32.02300 63.10300 40.02300
C  30.46500 63.33600 40.22500
C  29.87600 61.94500 40.05700
C  32.90700 63.79800 41.10300
C  29.93300 64.54800 39.41400
C  28.71800 65.34900 40.07400
N  28.55100 59.25800 39.92500
C  27.88700 60.42200 39.99700
C  26.42300 60.16800 40.17400
C  26.32300 58.82300 39.70600
C  27.69400 58.28900 39.62400
C  25.31900 61.10700 40.34000
C  25.41300 57.77900 39.43500
O  24.20100 57.75900 39.44500
C  26.19700 56.51200 39.09800
C  25.75700 55.38000 40.00100
O  25.34400 55.52900 41.15400
O  25.78400 54.17400 39.40500
C  25.30400 53.07100 40.28000
H  33.01200 55.15300 38.58000
H  34.01100 61.62700 39.68800
H  27.87100 62.57900 40.02300
H  28.34100 54.15800 38.83500
H  31.17000 54.00300 37.87500
H  31.16700 54.10900 40.69700
H  31.62000 52.87400 39.52500
H  29.89100 52.93600 39.98400
H  29.59300 54.62200 36.20200
H  28.55700 55.93400 36.64600
H  27.13800 53.51600 37.10100
H  28.12200 53.14500 35.71600
H  35.17000 55.37400 38.50900
H  36.44100 56.20300 39.42500
H  36.06100 56.56300 37.66100
H  35.92800 61.01600 40.92200
H  36.20000 61.50300 39.16700
H  37.55100 61.10100 40.26200
H  32.22800 63.46900 39.01700
H  30.28800 63.72500 41.22800
H  33.75500 64.31200 40.65100
H  33.31000 63.13300 41.86700
H  32.38400 64.57900 41.65700
H  29.72800 64.23200 38.39100
H  30.80900 65.19400 39.35000
H  28.22600 64.63600 40.73500
H  27.87800 65.57000 39.41600
H  29.08600 66.18100 40.67400
H  24.47000 60.69500 40.88500
H  25.13200 61.38200 39.30200
H  25.65400 62.02700 40.82000
H  25.88900 56.24400 38.08700
H  25.44000 52.23100 39.59900
H  24.26200 53.11300 40.59600
H  25.97600 52.94000 41.12800
Mg 17.25900 52.61900 25.68300
C  18.58600 51.08000 28.59000
C  14.72400 53.89300 27.68900
C  15.73600 53.64800 22.87900
C  19.68300 50.97800 23.76400
N  16.70800 52.44200 27.93900
C  17.42300 51.81600 28.92600
C  16.75800 51.95100 30.26400
C  15.44500 52.70400 29.90900
C  15.60400 53.01000 28.38800
C  14.05500 51.99900 30.37200
C  17.61100 52.53800 31.37500
C  17.69800 51.88800 32.80100
H  16.45900 51.00100 33.09900
N  15.52800 53.54000 25.36300
C  14.56100 53.92800 26.33400
C  13.43700 54.65200 25.64900
C  13.71500 54.56600 24.26300
C  15.01200 53.82600 24.09700
C  12.29700 55.30900 26.44200
C  13.00900 55.20900 23.16800
O  13.41100 55.11600 22.01100
C  11.82700 56.07900 23.49500
N  17.56900 52.16500 23.59300
C  16.91600 52.88200 22.70700
C  17.56800 52.87400 21.27500
C  18.80300 51.96700 21.60600
C  18.68600 51.65400 23.06900
C  16.72000 52.25500 20.13300
C  20.18100 52.66600 21.18500
C  21.43800 51.82100 20.95000
N  18.89500 51.36200 26.08000
C  19.78700 50.79500 25.18700
C  20.79200 49.95400 25.95200
C  20.33600 50.02300 27.28300
C  19.19400 50.90200 27.27900
C  21.93600 49.20500 25.30900
C  20.58200 49.56900 28.66500
O  21.43800 48.80200 29.08100
C  19.47500 50.29800 29.58100
C  18.83900 49.17300 30.37500
O  17.88100 48.47500 30.04500
O  19.54700 49.01700 31.56300
C  19.13800 47.88700 32.37200
H  13.98500 54.42700 28.28900
H  15.23500 53.93800 21.95300
H  20.54300 50.58400 23.21900
H  16.48100 50.91000 30.43400
H  15.30700 53.69000 30.35300
H  14.32200 51.02300 30.77600
H  13.42100 51.85900 29.49700
H  13.54600 52.54700 31.16500
H  17.08800 53.47700 31.55300
H  18.63400 52.77700 31.08500
H  17.82000 52.61200 33.60600
H  18.55700 51.22300 32.88800
H  11.28600 55.04800 26.12800
H  12.29700 56.39600 26.36300
H  12.44900 55.21600 27.51700
H  11.04500 55.46400 23.94100
H  11.41100 56.48800 22.57400
H  12.09700 56.92000 24.13200
H  17.71700 53.91700 20.99500
H  18.83800 50.94400 21.22900
H  16.02500 51.46300 20.41400
H  17.32800 51.78300 19.36100
H  16.00300 52.99200 19.77100
H  20.58600 53.22000 22.03200
H  19.94300 53.35800 20.37700
H  21.74100 51.98700 19.91600
H  21.31400 50.73900 20.99500
H  22.22300 52.10800 21.64900
H  22.16700 48.24900 25.78000
H  22.85800 49.69700 25.62100
H  21.93800 49.16800 24.22000
H  19.96700 51.01900 30.23300
H  18.10800 47.87500 32.72900
H  19.93500 47.89800 33.11500
H  19.37900 47.09100 31.66700

