158

Mg 47.62500 15.40800 28.56800
C  45.54000 15.62900 31.29900
C  50.03200 17.26500 30.49100
C  49.67400 15.51300 26.03700
C  44.96000 14.29200 26.66400
N  47.68000 16.35800 30.58600
C  46.76300 16.22900 31.60500
C  47.31200 16.64300 32.97700
C  48.63300 17.36000 32.60500
C  48.83500 16.93000 31.10700
C  48.62600 18.91500 32.89700
C  47.44200 15.42200 33.92400
C  47.24500 15.67800 35.44600
H  46.78400 17.07000 35.89100
N  49.63400 16.10300 28.25700
C  50.41000 16.82500 29.17400
C  51.64900 17.09700 28.58000
C  51.67000 16.51700 27.28000
C  50.30000 15.99500 27.16800
C  52.77100 17.85900 29.30500
C  52.79100 16.31400 26.22000
O  52.64500 15.88600 25.11900
C  54.13900 16.83900 26.49700
N  47.37100 14.87100 26.62600
C  48.41300 14.94100 25.76800
C  47.90000 14.66500 24.38300
C  46.53200 14.04300 24.56800
C  46.22500 14.44500 26.01000
C  47.93500 15.87000 23.41700
C  46.47600 12.47100 24.42000
C  47.43300 11.60300 25.24500
N  45.63900 14.97400 28.83700
C  44.68100 14.46400 28.03600
C  43.47800 14.22800 28.74700
C  43.71000 14.64500 30.09400
C  45.05000 15.09000 30.09600
C  42.27200 13.62400 28.14000
C  43.22800 14.70900 31.44000
O  42.18500 14.29700 31.92200
C  44.40700 15.29800 32.29300
C  43.87400 16.48800 33.02700
O  44.04900 17.66500 32.71800
O  43.14100 16.08300 34.10500
C  42.27300 16.97000 34.84100
H  50.74300 17.88600 31.03900
H  50.30100 15.64300 25.15200
H  44.21200 13.74500 26.08600
H  46.55100 17.33800 33.33300
H  49.45900 16.99800 33.21600
H  49.43000 19.30400 33.52200
H  47.71700 19.28400 33.37100
H  48.75300 19.43000 31.94500
H  48.40900 14.94800 33.75300
H  46.65600 14.72800 33.62600
H  48.07700 15.43300 36.10600
H  46.54300 14.91700 35.78600
H  53.57400 18.25700 28.68400
H  52.99000 17.28700 30.20600
H  52.25400 18.76000 29.63700
H  54.25800 17.89700 26.26600
H  54.82900 16.37200 25.79400
H  54.42600 16.64800 27.53100
H  48.55200 13.92100 23.92700
H  45.76800 14.54200 23.97100
H  48.17000 16.72400 24.05200
H  46.95900 16.00100 22.95000
H  48.70100 15.76100 22.65000
H  46.61900 12.19100 23.37600
H  45.46200 12.12000 24.61000
H  48.05600 11.05700 24.53700
H  46.89300 10.86600 25.84100
H  48.03200 12.18300 25.94700
H  42.21900 13.74400 27.05800
H  41.43700 13.92900 28.77000
H  42.38900 12.54000 28.14400
H  44.71700 14.59700 33.06800
H  42.41900 17.99400 34.49500
H  42.58200 17.01900 35.88500
H  41.21100 16.74200 34.75500
Mg 42.18700 41.09800 27.05300
C  41.36300 43.35000 29.45300
C  43.00800 38.71300 29.12200
C  42.91500 38.99300 24.34600
C  41.29500 43.52300 24.58500
N  42.40000 41.15900 29.11900
C  41.93700 42.12900 29.95800
C  41.96200 41.70600 31.45300
C  42.58300 40.17800 31.31100
C  42.64500 39.96600 29.77200
C  43.86900 39.81500 32.00400
C  40.58600 41.88600 32.22000
C  40.58200 42.71800 33.56100
H  39.85400 42.12400 34.78400
N  42.97200 39.15500 26.79800
C  43.21700 38.31500 27.83300
C  43.65900 37.01700 27.32100
C  43.80900 37.11100 25.94800
C  43.25000 38.51100 25.63500
C  43.90100 35.85200 28.29000
C  44.34800 36.21000 24.89900
O  44.69200 36.56300 23.76300
C  44.67600 34.85000 25.24600
N  42.14400 41.26500 24.76600
C  42.29300 40.19200 23.97400
C  42.04900 40.54300 22.46500
C  41.51900 42.04100 22.54000
C  41.60700 42.30800 24.06200
C  43.34700 40.43400 21.46300
C  40.11200 42.24800 21.91700
C  40.11400 42.25400 20.41900
N  41.62200 43.07300 26.97400
C  41.22900 43.86000 25.88500
C  40.68900 45.11600 26.40600
C  40.71400 44.95600 27.78900
C  41.33000 43.73100 28.10200
C  40.10700 46.27200 25.60500
C  40.38700 45.59300 28.98400
O  39.88600 46.73000 29.23800
C  40.77900 44.55700 30.18400
C  41.71600 45.07200 31.16100
O  42.89200 45.18500 31.01800
O  41.08100 45.47700 32.27400
C  41.88300 46.22600 33.22600
H  43.08000 37.88300 29.82800
H  42.91700 38.23400 23.56100
H  40.79400 44.23500 23.92600
H  42.80400 42.19500 31.94300
H  41.89500 39.37700 31.58300
H  43.94900 40.44100 32.89300
H  44.73800 39.86000 31.34900
H  43.87600 38.76900 32.31000
H  40.23900 40.87900 32.45200
H  39.88500 42.36600 31.53600
H  39.97100 43.61900 33.50400
H  41.57600 43.04900 33.86200
H  43.41200 34.96800 27.88000
H  43.62600 36.02400 29.33100
H  44.97400 35.69100 28.39200
H  45.07900 34.81500 26.25800
H  45.39400 34.31800 24.62200
H  43.68100 34.40900 25.29500
H  41.33800 39.79000 22.12600
H  42.11500 42.72800 21.94000
H  44.29600 40.40400 21.99800
H  43.41000 41.31200 20.82000
H  43.23600 39.52200 20.87600
H  39.78200 43.19400 22.34800
H  39.40700 41.49100 22.26100
H  39.50200 43.08300 20.06600
H  39.62600 41.37300 20.00000
H  41.05700 42.38500 19.88900
H  39.22000 45.97900 25.04300
H  40.77400 46.55300 24.79000
H  40.03900 47.17200 26.21500
H  39.82000 44.24800 30.60100
H  41.19900 46.73700 33.90300
H  42.44000 46.98700 32.68000
H  42.44500 45.42700 33.70900

