158

Mg 44.99500 2.38000 46.79700
C  43.25000 5.47700 46.14600
C  41.97600 0.82200 46.57000
C  46.59800 -0.46100 46.74900
C  47.90000 4.19100 46.40800
N  42.93000 3.06800 46.33900
C  42.40400 4.37500 46.19100
C  40.88100 4.44200 46.04700
C  40.53600 2.96300 46.60900
C  41.87900 2.23700 46.54200
C  39.78000 2.92100 48.02500
C  40.38500 4.58500 44.53600
C  39.42300 5.74700 44.36000
H  38.55400 5.69900 43.14700
N  44.35700 0.41700 46.72300
C  43.09100 -0.01800 46.75200
C  43.13200 -1.48300 46.83400
C  44.47200 -1.90400 46.70300
C  45.24500 -0.64200 46.65300
C  41.92900 -2.35300 46.93700
C  44.93100 -3.37400 46.69900
O  44.16300 -4.32000 46.58200
C  46.46900 -3.68900 46.72000
N  46.97100 1.99300 46.63600
C  47.37600 0.74000 46.71700
C  48.94700 0.61800 46.70700
C  49.39500 2.10500 46.47000
C  47.99300 2.84800 46.47200
C  49.51600 -0.05000 48.04500
C  50.17300 2.39400 45.11900
C  51.44100 3.24600 45.22200
N  45.57400 4.46000 46.43300
C  46.77300 4.99400 46.28900
C  46.66400 6.41100 46.30800
C  45.26500 6.72300 46.18200
C  44.65300 5.46300 46.27200
C  47.89000 7.34000 46.31800
C  44.20600 7.70200 45.96500
O  44.27000 8.94200 45.83800
C  42.82300 6.89200 46.07500
C  42.19200 7.33900 47.36500
O  42.73900 7.25400 48.45000
O  40.96000 7.84000 47.11000
C  40.13600 8.20100 48.29300
H  41.10300 0.20600 46.79700
H  47.23000 -1.35000 46.81100
H  48.83200 4.75700 46.47800
H  40.34500 5.13200 46.69900
H  39.85300 2.46700 45.91900
H  40.08800 3.69400 48.72800
H  40.06700 1.97600 48.48600
H  38.73000 2.98100 47.73900
H  39.81900 3.69200 44.27400
H  41.19200 4.74600 43.82100
H  40.12100 6.56500 44.17900
H  38.75300 5.85300 45.21300
H  41.25100 -1.77300 47.56300
H  42.02700 -3.37200 47.31200
H  41.41800 -2.38100 45.97500
H  46.99400 -3.30000 45.84800
H  46.70100 -4.75300 46.68400
H  46.89900 -3.31000 47.64800
H  49.28300 0.12500 45.79400
H  49.93200 2.51000 47.32800
H  50.12000 0.59900 48.67900
H  50.10900 -0.94700 47.86600
H  48.62000 -0.22900 48.63900
H  49.52200 2.89000 44.40000
H  50.46100 1.48200 44.59700
H  52.26200 2.63700 44.84300
H  51.58600 3.51100 46.27000
H  51.35900 4.17500 44.65900
H  48.51000 7.21500 45.43000
H  48.53200 6.99800 47.13000
H  47.58000 8.38200 46.39600
H  42.19500 7.12000 45.21400
H  40.71000 8.45000 49.18500
H  39.36200 7.50500 48.61500
H  39.80800 9.18400 47.95600
Mg 46.75000 24.60400 28.21800
C  47.40900 27.01000 30.80400
C  45.70400 22.41100 30.58300
C  46.68900 22.29200 25.78300
C  47.88200 27.05700 25.92600
N  46.54700 24.76700 30.43600
C  46.98400 25.76800 31.28500
C  46.74800 25.35200 32.77400
C  46.30400 23.83700 32.68600
C  46.20000 23.62400 31.16500
C  47.21700 22.77700 33.23400
C  45.66000 26.22300 33.58800
C  46.01700 26.41000 35.08800
H  44.89400 26.32000 36.11300
N  45.89900 22.70000 28.08800
C  45.57900 21.96300 29.21700
C  45.23100 20.58300 28.74500
C  45.61900 20.50000 27.33900
C  46.07100 21.87300 26.98400
C  44.74500 19.45600 29.70800
C  45.68500 19.22100 26.47600
O  46.05700 19.24900 25.30300
C  45.30500 17.89400 27.07900
N  47.35400 24.65200 26.20900
C  47.29400 23.55000 25.41200
C  47.66000 23.89100 23.93300
C  47.76100 25.43400 23.92200
C  47.70200 25.73200 25.43600
C  48.89000 23.10600 23.31000
C  46.78100 26.27500 23.06500
C  45.30000 26.44500 23.59800
N  47.68400 26.51500 28.26300
C  47.92800 27.40700 27.25000
C  48.31600 28.73000 27.79000
C  48.05500 28.64000 29.17900
C  47.65400 27.27900 29.40200
C  48.83600 29.90200 26.98300
C  48.05500 29.39400 30.47000
O  48.27400 30.56100 30.76800
C  47.71900 28.26600 31.54700
C  48.86000 28.14900 32.47300
O  49.95500 27.77800 32.15400
O  48.57900 28.70900 33.63500
C  49.60700 28.67300 34.69800
H  45.42400 21.72400 31.38400
H  46.85600 21.58000 24.97200
H  48.14100 27.85200 25.22300
H  47.71400 25.44300 33.27200
H  45.30500 23.63200 33.07300
H  47.93300 23.32800 33.84300
H  47.92300 22.25900 32.58500
H  46.64100 22.18600 33.94700
H  44.70800 25.71900 33.41900
H  45.62000 27.15100 33.01900
H  46.31800 27.45600 35.14900
H  46.93100 25.84000 35.25300
H  45.52900 18.69800 29.71700
H  43.85700 19.06200 29.21400
H  44.48100 19.87000 30.68100
H  45.79400 17.56000 27.99400
H  45.59000 17.09800 26.39100
H  44.22600 18.00500 27.19400
H  46.81200 23.61600 23.30600
H  48.76600 25.79200 23.69900
H  48.45400 22.70200 22.39700
H  49.28600 22.38500 24.02500
H  49.57600 23.90200 23.02100
H  46.69100 25.75200 22.11300
H  47.35000 27.18900 22.89400
H  44.57400 26.23500 22.81300
H  45.08600 27.47300 23.88800
H  45.02200 25.92500 24.51500
H  48.02500 30.29300 26.36900
H  49.71600 29.69800 26.37400
H  48.88200 30.69900 27.72500
H  46.94800 28.71000 32.17700
H  49.41800 27.73200 35.21500
H  49.50100 29.52000 35.37600
H  50.64900 28.66200 34.37700

