158

Mg 49.39300 45.09200 43.81700
C  46.42300 46.05100 42.13200
C  49.09300 41.98400 42.36000
C  52.76600 44.74900 44.13800
C  49.73300 48.54600 44.66800
N  48.04200 44.24700 42.26900
C  46.85400 44.74100 41.87700
C  46.07200 43.76700 40.99000
C  46.86900 42.46100 41.08800
C  48.03900 42.84600 42.03300
C  46.08200 41.20900 41.58800
C  45.73900 44.28600 39.48600
C  44.26500 44.32500 39.07500
H  43.67000 43.43200 37.97600
N  50.72500 43.49400 43.43600
C  50.43100 42.30100 42.83500
C  51.62200 41.49800 42.76600
C  52.69100 42.28600 43.29000
C  52.09300 43.59200 43.64000
C  51.67200 40.09900 42.15100
C  54.11000 41.80200 43.64400
O  54.45700 40.70200 43.29900
C  55.11200 42.54400 44.42000
N  51.00400 46.48900 44.34000
C  52.22700 46.01300 44.59200
C  53.18600 47.07700 45.18500
C  52.13400 48.12200 45.55700
C  50.89100 47.72700 44.79000
C  54.16200 46.54000 46.34800
C  52.53900 49.69400 45.48800
C  52.71300 50.34000 46.86900
N  48.30900 46.92600 43.64200
C  48.54600 48.14800 44.11900
C  47.43900 49.02300 43.74600
C  46.55200 48.23700 43.08500
C  47.19200 46.98100 42.94000
C  47.32500 50.54300 43.94400
C  45.30000 48.20600 42.44300
O  44.48100 49.12000 42.40100
C  45.15100 46.80400 41.72400
C  43.98700 46.07200 42.16100
O  43.83200 45.38300 43.14000
O  43.03900 46.37000 41.21700
C  41.65800 45.84800 41.36500
H  49.00800 41.01800 41.85700
H  53.85100 44.69200 44.24400
H  49.87300 49.56100 45.04400
H  45.07900 43.55900 41.39100
H  47.14300 42.27100 40.05000
H  46.29700 41.01100 42.63800
H  46.49100 40.37900 41.01200
H  45.00900 41.27300 41.40800
H  46.19900 43.66100 38.72100
H  46.32700 45.19200 39.33900
H  44.19600 45.37600 38.79400
H  43.60700 44.25900 39.94100
H  50.64900 39.73600 42.04500
H  52.19900 39.27400 42.63100
H  52.05700 40.18000 41.13500
H  54.78200 42.98600 45.36000
H  55.71200 43.09600 43.69700
H  55.76600 41.75300 44.78900
H  53.76700 47.55400 44.39600
H  51.64500 48.02200 46.52600
H  53.95300 46.95900 47.33300
H  55.18100 46.73000 46.01100
H  54.09400 45.49200 46.64000
H  51.79300 50.28900 44.96200
H  53.45900 49.94300 44.96000
H  53.75300 50.66600 46.84300
H  52.53100 49.60500 47.65300
H  52.15600 51.26300 47.03400
H  47.89100 50.96400 43.11300
H  47.73000 50.83200 44.91400
H  46.28700 50.83600 43.79100
H  45.09700 46.86500 40.63800
H  41.67200 44.78100 41.58700
H  41.02600 45.92700 40.48000
H  41.06600 46.33100 42.14200
Mg 35.28100 48.59800 26.24000
C  35.49900 46.73000 29.25900
C  34.24600 51.20100 28.14900
C  34.84600 50.36500 23.35600
C  36.33500 45.82300 24.44300
N  35.05600 48.88400 28.51500
C  35.17300 48.05400 29.53000
C  35.24700 48.79500 30.88500
C  34.53000 50.16300 30.50900
C  34.65800 50.10900 28.96400
C  32.98100 50.28300 30.84200
C  36.73300 49.01200 31.37900
C  37.19100 48.36300 32.73600
H  37.33800 49.40300 33.84200
N  34.53900 50.40500 25.77200
C  34.10000 51.27900 26.72600
C  33.58600 52.43700 26.02800
C  33.59000 52.23700 24.59800
C  34.37400 50.99700 24.53300
C  32.84500 53.57500 26.70900
C  33.12700 53.07600 23.36000
O  33.28000 52.78800 22.16700
C  32.45500 54.43200 23.57300
N  35.60100 48.24900 24.21300
C  35.44100 49.10800 23.11500
C  35.58600 48.44900 21.76200
C  36.18600 47.06300 22.27200
C  36.14200 47.07200 23.74900
C  34.33500 48.38700 20.84800
C  37.68600 46.70000 21.85600
C  37.79700 45.39900 21.10100
N  35.78100 46.70300 26.70600
C  36.19100 45.70500 25.86100
C  36.35700 44.47200 26.64300
C  36.17000 44.81900 27.95500
C  35.72100 46.19600 27.97800
C  36.81000 43.12500 26.17400
C  36.22300 44.34000 29.31500
O  36.50600 43.26800 29.76800
C  35.66900 45.56100 30.20500
C  34.39300 45.18800 30.88900
O  33.37600 44.79000 30.37000
O  34.57600 45.30300 32.20700
C  33.41200 44.96300 33.00000
H  33.88900 52.00600 28.79400
H  34.72900 50.97100 22.45500
H  36.59600 44.90800 23.90600
H  34.61400 48.37200 31.66500
H  35.11400 50.99600 30.90000
H  32.69100 50.84900 31.72800
H  32.72600 49.24600 31.05900
H  32.30800 50.64800 30.06600
H  36.94300 50.08100 31.40200
H  37.36400 48.48400 30.66500
H  38.16200 47.88000 32.62800
H  36.45100 47.64900 33.10000
H  31.79900 53.68100 26.42100
H  33.31600 54.51200 26.41000
H  32.77800 53.50700 27.79500
H  32.15000 54.81900 22.60100
H  33.12600 55.17700 24.00000
H  31.55600 54.34100 24.18300
H  36.36100 49.01200 21.24100
H  35.52200 46.24100 22.00400
H  34.03900 47.35300 20.66900
H  34.55700 48.83900 19.88100
H  33.54900 49.03100 21.24300
H  38.28700 46.56400 22.75400
H  38.03300 47.44400 21.13900
H  38.58700 44.75200 21.48400
H  38.11600 45.68800 20.10000
H  36.81400 44.93800 21.00500
H  36.11100 42.40800 26.60400
H  37.79400 42.97400 26.61800
H  36.84300 43.06200 25.08600
H  36.43500 45.91100 30.89700
H  32.42700 45.08600 32.55000
H  33.49600 45.38400 34.00200
H  33.43900 43.88300 33.14700

