158

Mg 47.63800 25.20000 28.22700
C  48.69600 27.39700 30.77300
C  46.75500 22.98000 30.64100
C  46.87300 23.01300 25.73700
C  48.61100 27.58600 25.78500
N  47.75100 25.24800 30.47100
C  48.05600 26.30500 31.31000
C  47.71200 26.05500 32.74800
C  47.18800 24.55700 32.61400
C  47.30900 24.18000 31.19600
C  47.78100 23.56100 33.65200
C  46.70900 26.96100 33.45500
C  47.02500 27.20300 34.99200
H  46.00000 27.77800 35.99600
N  46.94400 23.24800 28.21600
C  46.66000 22.46400 29.32900
C  46.11900 21.18100 28.88400
C  46.11800 21.20400 27.42200
C  46.67700 22.53800 27.08800
C  45.65800 20.09700 29.80600
C  45.70200 20.15400 26.39300
O  45.79200 20.34100 25.13800
C  45.32600 18.81200 26.77900
N  47.87600 25.23800 26.11200
C  47.44900 24.23000 25.31700
C  47.65300 24.56700 23.78800
C  47.93800 26.09100 23.84900
C  48.26200 26.36900 25.34300
C  48.71000 23.70200 23.05300
C  46.80500 27.04500 23.31700
C  45.61100 27.31100 24.26800
N  48.69900 26.98900 28.18800
C  48.88000 27.89300 27.14100
C  49.35900 29.14300 27.67500
C  49.33300 28.97600 29.07900
C  48.91200 27.67000 29.40200
C  49.74400 30.32600 26.93300
C  49.57200 29.69100 30.38500
O  50.07500 30.81400 30.58200
C  49.02800 28.65700 31.47800
C  50.07000 28.56000 32.55300
O  50.97400 27.71100 32.63100
O  49.74800 29.39800 33.55000
C  50.63900 29.16200 34.79300
H  46.26800 22.34600 31.38500
H  46.50300 22.39100 24.92000
H  48.83100 28.31800 25.00500
H  48.61500 26.10500 33.35700
H  46.13900 24.66300 32.89000
H  48.71600 23.10900 33.32400
H  46.99700 22.84900 33.91000
H  47.93600 24.03100 34.62400
H  45.68200 26.59700 33.44600
H  46.71000 27.91600 32.92900
H  47.83400 27.93200 35.03300
H  47.39400 26.25200 35.37700
H  44.56900 20.14900 29.83500
H  45.97200 20.35300 30.81800
H  45.99600 19.12000 29.46000
H  45.93200 18.43700 27.60300
H  45.49600 18.13500 25.94200
H  44.30600 18.82700 27.16300
H  46.69400 24.41100 23.29300
H  48.80400 26.39200 23.25900
H  48.26000 23.16300 22.21900
H  49.11600 23.01600 23.79600
H  49.60200 24.15200 22.61600
H  46.50200 26.64500 22.34900
H  47.26800 27.97800 22.99600
H  45.77100 26.94200 25.28100
H  44.72000 26.80500 23.89600
H  45.32100 28.36100 24.23700
H  50.76800 30.26600 26.56200
H  49.71100 31.20000 27.58200
H  49.07600 30.44700 26.08100
H  48.13400 29.13000 31.88600
H  49.94200 28.78300 35.54000
H  51.00900 30.11800 35.16200
H  51.51100 28.51700 34.68400
Mg 0.23300 42.83900 25.86300
C  1.40400 42.74900 29.15200
C  -2.82700 41.79400 27.20400
C  -0.87300 42.58400 22.77400
C  3.38900 43.71100 24.81600
N  -0.60200 42.37300 28.01900
C  0.06100 42.51400 29.15000
C  -0.85300 42.42000 30.45700
C  -2.24100 41.98500 29.79100
C  -1.92100 42.02400 28.27400
C  -2.71800 40.53000 30.17600
C  -0.93100 43.82100 31.16100
C  -0.92900 43.80300 32.71800
H  -1.60700 42.62900 33.51000
N  -1.55300 42.21700 25.06300
C  -2.71000 41.94000 25.79200
C  -3.76800 41.62200 24.83100
C  -3.27600 41.77800 23.49600
C  -1.86600 42.21300 23.77100
C  -5.15500 41.05700 25.21800
C  -4.00800 41.55700 22.12400
O  -3.42200 41.57500 20.97600
C  -5.49000 41.25700 22.05600
N  1.13200 43.08600 24.07000
C  0.46400 42.85300 22.91700
C  1.43400 43.02400 21.73800
C  2.62300 43.80900 22.34000
C  2.40200 43.55000 23.87200
C  1.79400 41.74200 20.96100
C  2.66200 45.36700 22.02500
C  3.60200 45.83900 20.87700
N  2.09900 43.00400 26.71100
C  3.27300 43.34800 26.13200
C  4.34400 43.44600 27.19000
C  3.63000 43.17800 28.39600
C  2.29600 42.93400 28.04200
C  5.83600 43.65800 27.09700
C  3.78100 43.01500 29.78200
O  4.77300 43.10600 30.51400
C  2.33400 42.88800 30.34200
C  2.29600 41.69900 31.27300
O  2.43000 40.54100 30.90700
O  2.25300 42.17100 32.54900
C  2.55200 41.17200 33.59000
H  -3.79900 41.52200 27.62000
H  -1.21600 42.47700 21.74300
H  4.30200 44.14900 24.40700
H  -0.49200 41.57800 31.04800
H  -3.03200 42.72200 29.93500
H  -2.82100 39.75800 29.41400
H  -3.65300 40.62700 30.72900
H  -2.10000 39.98100 30.88600
H  -1.79900 44.36700 30.79000
H  0.00500 44.36100 31.01900
H  -1.32100 44.69500 33.20700
H  0.09000 43.87100 33.09900
H  -5.90200 41.53800 24.58700
H  -5.37200 41.19200 26.27800
H  -5.16800 40.00100 24.94900
H  -5.75000 40.39800 22.67400
H  -5.72800 41.04500 21.01300
H  -6.16100 42.09100 22.26200
H  1.03900 43.69400 20.97500
H  3.58600 43.40400 22.02800
H  1.02800 40.99500 21.17200
H  2.77000 41.28900 21.13400
H  1.72100 41.90500 19.88500
H  3.01200 45.88400 22.91900
H  1.60700 45.54100 21.81300
H  3.04800 46.44400 20.15900
H  3.93100 44.96300 20.31800
H  4.37300 46.54000 21.19800
H  6.17400 43.40000 26.09300
H  6.30300 43.18100 27.95900
H  6.00600 44.72100 27.26500
H  2.12100 43.81200 30.88100
H  3.33700 41.54300 34.24900
H  2.89900 40.21200 33.20800
H  1.62600 41.11300 34.16200

