158

Mg 49.21200 35.62700 27.09500
C  47.44000 34.02400 29.64400
C  49.22100 38.54200 28.93200
C  50.83500 37.00200 24.59200
C  48.25600 32.88600 24.85400
N  48.50700 36.18800 29.12000
C  47.90500 35.35300 30.01800
C  47.91500 36.04200 31.33700
C  48.13800 37.57700 30.99700
C  48.59200 37.43700 29.56700
C  46.87900 38.52500 30.96700
C  48.99500 35.31400 32.25300
C  48.57700 35.02900 33.75600
H  48.13400 36.20200 34.73400
N  50.11700 37.41800 26.93500
C  49.93800 38.53500 27.75200
C  50.70600 39.63300 27.18500
C  51.39500 39.10100 26.01200
C  50.79900 37.76000 25.82400
C  50.79200 41.07900 27.64100
C  52.48100 39.73500 25.13900
O  52.87200 39.08000 24.15300
C  53.11200 41.08700 25.43600
N  49.66300 34.96000 25.02600
C  50.27000 35.76900 24.16500
C  50.28100 35.27300 22.74700
C  49.50000 33.88200 22.86700
C  49.15700 33.86700 24.40200
C  49.60000 36.27300 21.75200
C  50.25400 32.57200 22.40800
C  51.72200 32.57500 22.41700
N  48.12400 33.81900 27.16000
C  47.81500 32.83700 26.22800
C  47.01900 31.82900 26.83100
C  46.75100 32.31200 28.12300
C  47.58400 33.44400 28.33400
C  46.48800 30.57400 26.24800
C  46.05200 32.01500 29.27200
O  45.23800 31.07800 29.55700
C  46.27200 33.21200 30.32500
C  46.68400 32.67000 31.68400
O  47.78700 32.17900 31.98000
O  45.61200 32.61700 32.50600
C  45.76100 32.08400 33.87400
H  49.36600 39.47200 29.48600
H  51.31600 37.55200 23.78100
H  47.84800 32.20100 24.10800
H  46.91100 36.11100 31.75800
H  48.85900 38.06600 31.65300
H  46.91000 39.33700 30.24000
H  46.75700 38.92200 31.97500
H  45.99700 37.92300 30.75200
H  49.91000 35.90500 32.23600
H  49.23900 34.36600 31.77300
H  49.34800 34.63700 34.42000
H  47.71300 34.36700 33.81600
H  49.96300 41.28700 28.31800
H  50.53000 41.67400 26.76500
H  51.77000 41.22500 28.09800
H  52.35600 41.86600 25.33800
H  53.94500 41.18400 24.74000
H  53.44100 40.99200 26.47100
H  51.29700 35.20200 22.36100
H  48.55500 33.97900 22.33300
H  48.55100 36.01200 21.61800
H  50.06700 36.30500 20.76700
H  49.60800 37.31200 22.08000
H  49.87100 32.39700 21.40300
H  49.78600 31.70500 22.87500
H  52.06100 32.51600 21.38300
H  52.06200 31.72000 23.00100
H  52.04200 33.49700 22.90200
H  46.32100 29.90200 27.08900
H  47.15000 30.07900 25.53800
H  45.46900 30.85800 25.98400
H  45.39600 33.85000 30.44100
H  44.80000 31.69500 34.21000
H  46.11900 32.92900 34.46100
H  46.60100 31.39200 33.93000
Mg 30.66000 58.61000 41.67000
C  27.80300 56.99000 40.74000
C  32.46700 56.05700 40.17400
C  33.53300 60.50200 42.03400
C  28.81800 61.52400 42.39600
N  30.13500 56.92500 40.38600
C  28.90300 56.38700 40.28400
C  28.96000 54.98200 39.56600
C  30.44600 54.51100 39.87300
C  31.05700 55.90300 40.21600
C  30.44900 53.60800 41.06000
C  28.57000 54.98900 38.13200
C  27.39000 54.14500 37.64100
H  26.61500 54.79200 36.46300
N  32.70000 58.32900 41.09300
C  33.23400 57.15100 40.56500
C  34.66400 57.32500 40.49300
C  34.97100 58.57200 41.03100
C  33.73100 59.22600 41.40500
C  35.56800 56.23400 40.07300
C  36.37200 59.16800 41.16200
O  37.39300 58.46500 41.10200
C  36.62900 60.63900 41.41400
N  31.18000 60.69800 42.20500
C  32.36800 61.20100 42.28200
C  32.43900 62.65600 42.73400
C  30.89800 62.98200 42.79800
C  30.22400 61.66400 42.46600
C  33.43600 63.05700 43.83300
C  30.53500 64.18300 42.00800
C  29.48000 65.12700 42.62500
N  28.75700 59.16000 41.86200
C  28.10800 60.36100 42.11400
C  26.67700 60.20300 42.03000
C  26.49900 58.83600 41.41600
C  27.79700 58.28500 41.32500
C  25.60100 61.25700 42.37500
C  25.50100 57.88200 40.95700
O  24.29500 57.99700 40.95000
C  26.26400 56.57600 40.54400
C  25.99000 55.43400 41.48900
O  26.82800 55.00000 42.31000
O  24.75900 54.83200 41.25500
C  24.53100 53.63700 42.03100
H  33.06700 55.21100 39.83100
H  34.34300 61.21500 42.20200
H  28.16900 62.39500 42.51300
H  28.15700 54.38300 39.99500
H  30.93600 54.07100 39.00400
H  31.31200 53.75100 41.71000
H  30.59100 52.62800 40.60300
H  29.53800 53.50200 41.64800
H  29.38000 54.64900 37.48700
H  28.31300 56.02700 37.92000
H  26.72000 54.01500 38.49000
H  27.70300 53.18300 37.23700
H  35.86300 56.25100 39.02400
H  35.11900 55.27500 40.33200
H  36.54600 56.17200 40.55100
H  36.40200 60.96200 42.43000
H  35.93600 61.22700 40.81300
H  37.70000 60.83600 41.38100
H  32.87100 63.31200 41.97800
H  30.61600 63.15500 43.83700
H  32.91000 63.44800 44.70400
H  34.06500 63.87900 43.49300
H  34.03900 62.18700 44.09500
H  30.20400 63.83700 41.02900
H  31.34400 64.85400 41.72100
H  28.63700 65.10200 41.93400
H  29.78100 66.17200 42.70000
H  29.18200 64.85000 43.63600
H  24.58200 60.91000 42.20500
H  25.67200 62.08900 41.67400
H  25.60700 61.62900 43.40000
H  25.86000 56.20400 39.60200
H  25.31100 52.88000 41.96000
H  23.54700 53.21700 41.82000
H  24.37900 53.89800 43.07800

