158

Mg 26.93500 50.46700 25.61200
C  24.86100 51.71300 28.07500
C  29.24100 49.81100 27.94700
C  28.82100 49.30200 23.14400
C  24.63700 51.84400 23.16800
N  27.02500 50.86600 27.78500
C  26.00600 51.19500 28.61100
C  26.30200 50.98000 30.14600
C  27.82700 50.49500 29.95600
C  28.09700 50.44800 28.46000
C  28.82600 51.43000 30.62300
C  25.41300 49.85500 30.61100
C  25.81100 49.30100 32.03200
H  24.96200 49.66500 33.20100
N  28.76900 49.74200 25.62200
C  29.62000 49.49400 26.65900
C  30.83400 48.80200 26.17200
C  30.77100 48.63000 24.78600
C  29.41800 49.21300 24.44100
C  31.93500 48.36800 27.14000
C  31.74800 48.00100 23.79000
O  31.49800 47.93000 22.62200
C  33.04200 47.33800 24.33900
N  26.67400 50.50300 23.50300
C  27.61900 49.91200 22.72500
C  27.02900 49.68600 21.31200
C  26.00400 50.79000 21.21300
C  25.72100 51.13800 22.67500
C  28.02600 49.59400 20.11600
C  24.67200 50.39400 20.50800
C  23.83600 49.37700 21.17900
N  25.14600 51.55800 25.54000
C  24.34200 52.05200 24.54300
C  23.17000 52.71100 25.13500
C  23.35800 52.56900 26.48000
C  24.53200 51.89900 26.72500
C  22.04100 53.41200 24.48100
C  22.78400 52.90100 27.76500
O  21.75300 53.52000 27.97400
C  23.62900 52.28500 28.80800
C  24.07300 53.26000 29.82300
O  24.93000 54.12500 29.64500
O  23.39200 53.02200 31.05600
C  23.70500 53.99100 32.14300
H  29.94000 49.53500 28.73900
H  29.45500 48.87400 22.36400
H  23.90100 52.31200 22.51100
H  26.17500 51.85200 30.78800
H  27.93200 49.46900 30.30700
H  28.41200 52.26000 31.19500
H  29.45100 51.87800 29.85100
H  29.38200 50.73700 31.25500
H  25.50700 49.09100 29.83900
H  24.39100 50.23100 30.65700
H  26.79600 49.67900 32.30800
H  25.90700 48.23000 31.85700
H  31.97000 47.27900 27.11900
H  31.64200 48.69800 28.13700
H  32.95500 48.73700 27.02800
H  33.40800 48.12100 25.00300
H  33.71100 47.08800 23.51500
H  32.72000 46.41900 24.82900
H  26.56600 48.71700 21.50100
H  26.34300 51.68700 20.69600
H  28.38800 48.56700 20.06200
H  28.90100 50.19100 20.37500
H  27.66000 50.01600 19.18000
H  24.97200 50.02100 19.52900
H  24.01200 51.24100 20.32500
H  24.26000 49.06800 22.13500
H  23.81100 48.53900 20.48200
H  22.81600 49.67100 21.43000
H  21.80600 52.86700 23.56700
H  22.26700 54.47600 24.41200
H  21.25500 53.34500 25.23300
H  23.03200 51.58000 29.38800
H  22.92100 54.02800 32.89900
H  23.67200 55.04900 31.88500
H  24.74200 53.82100 32.43300
Mg -10.17700 39.31100 40.24400
C  -9.38100 35.99400 39.13400
C  -7.01900 40.26200 39.29700
C  -11.38000 42.49100 40.14200
C  -13.52600 38.28100 40.92500
N  -8.46100 38.21000 39.09800
C  -8.32000 36.90900 38.94700
C  -6.91700 36.58700 38.53000
C  -6.08700 37.90500 38.90200
C  -7.27600 38.83800 39.15600
C  -5.22900 37.83600 40.14800
C  -6.86400 36.23100 36.99700
C  -7.49300 37.11100 35.94200
H  -8.68200 36.55700 35.16100
N  -9.30100 41.15600 39.90100
C  -7.97600 41.35000 39.51600
C  -7.79100 42.80100 39.29100
C  -8.98500 43.48100 39.55700
C  -9.96400 42.39500 39.96800
C  -6.43800 43.31600 38.73200
C  -9.16800 44.98100 39.19500
O  -8.22300 45.61700 38.74200
C  -10.48500 45.67400 39.31300
N  -12.11600 40.17900 40.53500
C  -12.34500 41.51600 40.42000
C  -13.86300 41.84900 40.68100
C  -14.49400 40.42500 40.81300
C  -13.32400 39.60600 40.79000
C  -14.03700 42.80700 41.90900
C  -15.67600 40.14300 39.72800
C  -17.07200 40.54100 40.15800
N  -11.23200 37.59000 40.15900
C  -12.58800 37.26500 40.49200
C  -12.81500 35.86700 40.31400
C  -11.62100 35.35400 39.81900
C  -10.64200 36.42200 39.68600
C  -14.03000 35.08000 40.89800
C  -10.87700 34.11800 39.33800
O  -11.28900 32.96200 39.13100
C  -9.48200 34.55000 38.95200
C  -8.44800 33.66400 39.62800
O  -8.34200 33.61600 40.87000
O  -7.50100 33.25100 38.73400
C  -6.33200 32.57100 39.23900
H  -6.00000 40.55300 39.03400
H  -11.82500 43.48800 40.11000
H  -14.47100 37.87300 41.29200
H  -6.47300 35.72700 39.03200
H  -5.47400 38.22400 38.06000
H  -4.29700 38.35000 39.91300
H  -5.08200 36.77700 40.36200
H  -5.70200 38.28100 41.02300
H  -7.27100 35.22400 36.90600
H  -5.78800 36.13600 36.85500
H  -6.69900 37.17700 35.19900
H  -7.56000 38.10100 36.39400
H  -6.42600 43.28200 37.64300
H  -5.73500 42.57400 39.11100
H  -6.24600 44.32200 39.10400
H  -10.83700 45.69000 40.34500
H  -11.28700 45.14500 38.79900
H  -10.50900 46.65300 38.83500
H  -14.21900 42.27500 39.74300
H  -14.93000 40.31400 41.80600
H  -13.03600 43.01700 42.28700
H  -14.61000 42.30400 42.68800
H  -14.46700 43.78500 41.69600
H  -15.61700 39.15100 39.28100
H  -15.48900 40.83900 38.90900
H  -17.67100 39.63300 40.10100
H  -17.46100 41.34500 39.53300
H  -17.21200 40.80700 41.20600
H  -14.93100 35.18000 40.29300
H  -14.29100 35.31900 41.92900
H  -13.65500 34.05800 40.94300
H  -9.22200 34.32900 37.91700
H  -6.58600 32.05600 40.16600
H  -5.48800 33.22700 39.44800
H  -6.10100 31.81500 38.48900

