158

Mg 25.98400 50.10000 26.57600
C  23.96400 51.43000 29.06800
C  28.08300 48.79900 29.13500
C  28.17300 49.01500 24.26400
C  24.03400 51.66800 24.18600
N  26.01700 50.13500 28.86800
C  25.02600 50.71200 29.67300
C  25.35200 50.44200 31.14300
C  26.80100 49.81400 31.12600
C  26.98800 49.54900 29.62300
C  27.94500 50.43400 31.91600
C  24.22200 49.42200 31.68000
C  24.27800 49.16300 33.20300
H  25.06500 50.18600 34.09200
N  27.83600 49.12700 26.66400
C  28.48900 48.68100 27.76700
C  29.69900 48.03400 27.45600
C  29.73600 48.02400 26.06600
C  28.61600 48.75600 25.59200
C  30.62100 47.29300 28.39800
C  30.76100 47.38600 25.10100
O  30.72400 47.44900 23.88600
C  31.84400 46.55500 25.67600
N  26.13100 50.29500 24.50800
C  27.08300 49.76400 23.79000
C  26.74400 49.92200 22.30200
C  25.40600 50.60100 22.27400
C  25.15400 50.89000 23.73200
C  27.84100 50.76700 21.48800
C  24.23900 49.74700 21.68400
C  22.95800 50.59900 21.23000
N  24.29100 51.23200 26.55800
C  23.55500 51.76600 25.46200
C  22.45100 52.55600 26.02000
C  22.53000 52.43500 27.38000
C  23.70200 51.64300 27.65200
C  21.44500 53.32700 25.20800
C  22.01600 52.82200 28.65700
O  21.02600 53.50500 28.92100
C  22.86300 52.17700 29.72400
C  23.28100 53.21800 30.66600
O  24.02600 54.08600 30.47700
O  22.65300 52.92400 31.83500
C  22.94100 53.90000 32.89700
H  28.75200 48.42300 29.91200
H  28.83700 48.61000 23.49800
H  23.56000 52.31700 23.44600
H  25.21300 51.43800 31.56300
H  26.65200 48.79300 31.47800
H  27.63600 51.39100 32.33700
H  28.78000 50.55000 31.22500
H  28.25500 49.88100 32.80200
H  24.43400 48.51700 31.11200
H  23.20000 49.76300 31.51300
H  24.49100 48.10300 33.34000
H  23.30800 49.28200 33.68600
H  30.73200 46.22300 28.22600
H  30.39900 47.22600 29.46300
H  31.65300 47.59200 28.21300
H  32.49200 47.25200 26.20700
H  32.38300 46.15500 24.81700
H  31.40200 45.74600 26.25800
H  26.68900 48.91000 21.90100
H  25.41800 51.59100 21.81600
H  28.74900 50.94100 22.06500
H  27.42600 51.74300 21.23900
H  28.12400 50.20900 20.59500
H  23.72200 49.28900 22.52700
H  24.48800 48.96700 20.96400
H  22.11900 50.62700 21.92600
H  22.62800 50.02500 20.36400
H  23.39400 51.56700 20.98400
H  21.36700 52.82600 24.24300
H  21.70900 54.38400 25.16500
H  20.51600 53.17300 25.75600
H  22.27100 51.46400 30.29800
H  23.14400 54.93100 32.60700
H  23.85300 53.56500 33.39000
H  22.08800 53.90300 33.57600
Mg -0.41900 43.98000 26.03000
C  1.53100 43.61100 28.84100
C  -3.22400 42.88800 27.96400
C  -2.29200 43.57100 23.21100
C  2.43100 44.50600 24.18200
N  -0.82000 43.26500 28.05400
C  0.15400 43.43600 29.07800
C  -0.44400 43.26400 30.46400
C  -1.90700 42.84500 30.13700
C  -1.97000 42.92600 28.60600
C  -2.28900 41.38000 30.66200
C  -0.27000 44.54300 31.34600
C  0.21800 44.33800 32.80000
H  -0.10600 43.08000 33.51400
N  -2.53500 43.52700 25.64900
C  -3.50800 43.20000 26.58600
C  -4.78000 43.03200 25.88900
C  -4.53000 43.23300 24.54000
C  -3.03700 43.45700 24.36200
C  -6.04700 42.75200 26.57900
C  -5.40900 43.16900 23.36600
O  -5.03000 43.44400 22.20500
C  -6.83500 42.80400 23.61300
N  0.00100 44.06400 24.07700
C  -0.89600 43.91900 23.08700
C  -0.25900 44.10800 21.71400
C  1.09600 44.66600 22.05900
C  1.22800 44.33700 23.57700
C  -0.22900 42.83500 20.89700
C  1.22600 46.16200 21.84300
C  1.31700 46.53100 20.36300
N  1.59700 44.11800 26.42400
C  2.65100 44.39600 25.62200
C  3.84100 44.63500 26.36200
C  3.42400 44.29400 27.67200
C  2.10800 43.95800 27.63700
C  5.08200 45.15200 25.85700
C  3.92700 44.14300 29.03100
O  4.99900 44.29600 29.55900
C  2.60100 43.86200 29.89000
C  2.87100 42.62000 30.78700
O  2.56300 41.45900 30.56000
O  3.70000 42.95100 31.85900
C  4.13300 41.84000 32.77100
H  -4.14800 42.55700 28.44300
H  -2.60800 43.48700 22.16900
H  3.41400 44.63200 23.72300
H  -0.06300 42.34600 30.91400
H  -2.59300 43.57200 30.57200
H  -2.98600 41.71000 31.43200
H  -1.48800 40.93400 31.25100
H  -2.75000 40.68000 29.96500
H  -1.25300 45.01300 31.39000
H  0.43200 45.23000 30.87400
H  -0.23600 45.14700 33.37200
H  1.28100 44.56600 32.87100
H  -6.95400 43.25900 26.25000
H  -6.07200 43.03400 27.63200
H  -6.17600 41.67300 26.66600
H  -7.07500 42.01600 24.32700
H  -7.24500 42.58700 22.62600
H  -7.37400 43.65600 24.02700
H  -0.92800 44.76400 21.15800
H  1.95300 44.23600 21.54000
H  -0.92800 42.09800 21.29300
H  0.69700 42.26100 20.91900
H  -0.54300 43.13200 19.89700
H  2.10500 46.56700 22.34500
H  0.39000 46.68300 22.30900
H  0.63200 47.34100 20.11200
H  1.21900 45.69700 19.66700
H  2.31400 46.91700 20.15100
H  4.93500 45.50200 24.83600
H  5.85300 44.38300 25.90800
H  5.48800 45.91500 26.52100
H  2.57700 44.79600 30.45000
H  4.84600 42.43500 33.34100
H  4.59200 41.06900 32.15200
H  3.39300 41.36200 33.41300

