158

Mg 43.19900 41.55100 26.74500
C  42.36300 43.66800 29.46400
C  44.40000 39.29900 28.84700
C  44.21700 39.77800 24.05700
C  42.76800 44.30400 24.64500
N  43.32400 41.58800 28.90500
C  42.86900 42.43400 29.81000
C  42.98500 41.87000 31.19500
C  43.71100 40.49000 31.04100
C  43.81500 40.40200 29.47700
C  45.13900 40.28400 31.68200
C  41.52600 41.84500 31.95200
C  41.43400 42.64000 33.24000
H  40.90200 42.03900 34.61400
N  44.10000 39.76300 26.46400
C  44.40700 38.91300 27.49900
C  44.87400 37.63600 26.96000
C  44.79700 37.75600 25.58800
C  44.37300 39.11400 25.27900
C  45.45300 36.53700 27.83100
C  45.18300 36.74600 24.53900
O  45.32800 37.02500 23.34200
C  45.66200 35.28300 24.87700
N  43.80600 42.06800 24.60900
C  43.94900 41.09400 23.72000
C  43.89100 41.66300 22.23400
C  43.28200 43.06300 22.47600
C  43.30600 43.17300 23.99300
C  45.28800 41.83700 21.36200
C  41.92200 43.40200 21.81400
C  41.67300 44.89400 21.55800
N  42.55500 43.53100 26.90000
C  42.38200 44.52700 25.95200
C  41.71800 45.74400 26.53800
C  41.71500 45.41400 27.93100
C  42.28900 44.10300 28.10300
C  41.45400 47.07000 25.89200
C  41.51400 45.88200 29.26900
O  41.14800 46.98900 29.60100
C  41.91000 44.81500 30.26700
C  43.00000 45.42900 31.11100
O  44.16300 45.57600 30.74300
O  42.43400 45.77700 32.31300
C  43.43300 46.07200 33.32300
H  44.70600 38.58300 29.61300
H  44.24000 39.14300 23.17000
H  42.52900 45.15400 24.00300
H  43.67300 42.47000 31.79100
H  43.08500 39.68400 31.42200
H  45.89300 40.13300 30.90900
H  44.94800 39.33700 32.18600
H  45.46400 41.02000 32.41700
H  41.25400 40.79400 32.05200
H  40.78100 42.19200 31.23600
H  40.85800 43.52700 32.97600
H  42.43100 42.99400 33.50100
H  45.35400 36.66900 28.90800
H  46.52700 36.41500 27.68600
H  44.93300 35.61500 27.57100
H  46.13800 35.32700 25.85600
H  46.37400 34.93200 24.12900
H  44.82000 34.59400 24.93100
H  43.18900 41.05500 21.66300
H  43.94300 43.84500 22.10200
H  46.05900 41.42200 22.01200
H  45.52200 42.90100 21.32800
H  45.47300 41.30400 20.42900
H  41.18100 43.04500 22.53000
H  41.74400 42.81000 20.91600
H  41.31300 44.98500 20.53300
H  42.55800 45.49200 21.77600
H  40.84600 45.25400 22.17000
H  42.07100 47.13800 24.99700
H  41.59600 47.87900 26.60900
H  40.42500 47.01700 25.53600
H  41.02800 44.52800 30.83900
H  44.12900 45.24800 33.16600
H  43.00000 46.10900 34.32300
H  43.84800 47.07900 33.38400
Mg 36.92600 49.29400 25.44200
C  37.01200 47.10500 28.25700
C  34.87100 51.32000 27.40100
C  36.06900 50.91000 22.67100
C  38.15000 46.61100 23.48100
N  36.13700 49.18400 27.60400
C  36.43200 48.33000 28.62400
C  36.03300 48.74800 30.02100
C  35.07300 49.91100 29.61700
C  35.37100 50.20400 28.15200
C  33.54300 49.76400 30.04000
C  37.35300 49.16200 30.63500
C  37.63200 48.63000 32.01900
H  36.38600 48.51200 32.93200
N  35.83200 50.96100 25.14400
C  35.16600 51.67600 26.06500
C  34.77600 53.02100 25.49300
C  35.05400 52.92500 24.07100
C  35.67800 51.55000 23.90800
C  34.42400 54.23200 26.38300
C  34.84100 53.88900 23.00300
O  35.04500 53.54600 21.84700
C  34.45900 55.31600 23.27000
N  37.17100 48.80500 23.44700
C  36.68200 49.67000 22.45900
C  36.96800 49.17700 21.04600
C  37.83700 47.88600 21.36600
C  37.69100 47.71800 22.80900
C  35.75400 48.99800 20.13700
C  39.34200 48.06100 20.89900
C  40.44700 48.60600 21.84500
N  37.52300 47.30800 25.74800
C  38.09400 46.41500 24.87700
C  38.35900 45.18700 25.60000
C  38.04000 45.48800 26.96700
C  37.47200 46.67500 26.98300
C  38.68500 43.86200 25.03300
C  37.94700 44.87400 28.25500
O  38.16300 43.73200 28.55900
C  37.51700 45.99800 29.20300
C  36.41300 45.39400 30.04300
O  35.26200 45.28800 29.67800
O  36.89400 45.08100 31.30200
C  35.89100 44.78400 32.32000
H  34.24600 51.96400 28.02300
H  35.88500 51.42100 21.72300
H  38.73500 45.87000 22.93200
H  35.45600 47.99400 30.55600
H  35.39200 50.80600 30.15200
H  32.87400 49.78000 29.17900
H  33.39900 50.72200 30.54000
H  33.29200 48.94600 30.71400
H  37.49000 50.23900 30.73400
H  38.17700 48.81000 30.01400
H  38.19000 49.38200 32.57700
H  38.31000 47.77900 32.07900
H  33.82300 54.97300 25.85500
H  35.27900 54.72900 26.84100
H  33.79700 53.93000 27.22200
H  35.18300 55.74700 23.96200
H  33.44400 55.32800 23.66800
H  34.47600 55.81500 22.30100
H  37.57000 49.96200 20.58900
H  37.56100 47.00500 20.78800
H  35.83400 48.19400 19.40600
H  35.51600 49.90500 19.58100
H  34.86600 48.80100 20.73800
H  39.38100 48.61400 19.96100
H  39.70800 47.06900 20.63600
H  39.96300 48.96800 22.75200
H  41.08000 49.33900 21.34400
H  40.96600 47.66400 22.02200
H  39.07300 43.22900 25.83100
H  39.50600 43.92400 24.31900
H  37.85800 43.41200 24.48300
H  38.38900 46.38400 29.73200
H  35.54500 43.75400 32.24500
H  34.97800 45.37400 32.24300
H  36.36100 45.12500 33.24300

