158

Mg 43.96400 5.11900 47.06700
C  42.04100 8.08200 46.78200
C  41.02200 3.38700 46.56100
C  45.88700 2.39100 46.56100
C  46.90100 7.06700 46.74800
N  41.77200 5.65800 46.77400
C  41.25200 6.90700 46.63500
C  39.75000 6.81500 46.42200
C  39.43100 5.36100 46.83900
C  40.81000 4.74300 46.72100
C  38.79000 5.09700 48.23900
C  39.42700 7.09300 44.93200
C  38.75900 8.42200 44.58300
H  39.29600 9.30100 43.41400
N  43.49100 3.17300 46.77200
C  42.27900 2.63000 46.61700
C  42.38600 1.18400 46.40700
C  43.73300 0.88100 46.68300
C  44.51000 2.19300 46.58800
C  41.28000 0.29900 46.16100
C  44.30100 -0.53100 47.11800
O  43.61600 -1.53800 47.13500
C  45.70800 -0.58000 47.36900
N  46.11500 4.81400 46.52900
C  46.63300 3.52700 46.49800
C  48.21400 3.58000 46.44500
C  48.50000 5.11700 46.45400
C  47.06600 5.67800 46.55800
C  48.92300 2.89500 47.60700
C  49.36200 5.57700 45.24900
C  50.61300 6.33800 45.50400
N  44.49000 7.19400 46.84700
C  45.71400 7.83800 46.86900
C  45.46700 9.28100 46.92300
C  44.02100 9.44800 46.99400
C  43.49800 8.13000 46.90800
C  46.52200 10.37900 46.77300
C  42.91100 10.38200 47.03500
O  42.83500 11.59400 47.14800
C  41.63600 9.54100 46.76200
C  40.71800 9.84200 47.90900
O  40.79400 9.51700 49.12100
O  39.94100 10.78500 47.49800
C  39.09300 11.38300 48.51900
H  40.19000 2.71000 46.35300
H  46.48300 1.48400 46.43900
H  47.88700 7.53600 46.76900
H  39.17200 7.48000 47.06400
H  38.79200 4.85000 46.12000
H  39.36500 4.52900 48.97000
H  37.83700 4.61500 48.02300
H  38.74800 6.10200 48.66000
H  38.84100 6.29300 44.48000
H  40.37800 7.14200 44.40200
H  38.71000 9.05700 45.46800
H  37.74700 8.06600 44.39200
H  40.56900 0.48200 46.96700
H  41.54300 -0.75700 46.09200
H  40.75300 0.63300 45.26700
H  46.26600 -0.65800 46.43600
H  45.98000 -1.46500 47.94400
H  45.99500 0.27700 47.97800
H  48.43000 3.17100 45.45800
H  48.92000 5.44600 47.40400
H  49.31100 1.90300 47.37800
H  48.34600 2.84800 48.53100
H  49.81400 3.47200 47.85500
H  48.74100 6.28100 44.69500
H  49.67800 4.70700 44.67300
H  51.41500 6.08700 44.81100
H  50.89400 6.20700 46.54900
H  50.40600 7.39400 45.32900
H  46.17600 11.28800 46.28000
H  47.33900 9.90200 46.23200
H  46.95200 10.48000 47.76900
H  41.28700 9.96700 45.82200
H  38.83800 12.41500 48.27700
H  39.71200 11.46900 49.41200
H  38.21400 10.76200 48.68900
Mg 54.31900 24.45300 43.60800
C  51.66800 26.70900 43.50700
C  52.17300 21.92100 43.04900
C  56.96700 22.47300 43.08400
C  56.50400 27.17700 44.12500
N  52.20700 24.38200 43.02800
C  51.31800 25.37300 43.09600
C  49.96100 24.88500 42.80700
C  49.99700 23.39000 43.16200
C  51.56400 23.18300 43.04300
C  49.30200 22.99300 44.47400
C  49.67800 25.17300 41.27600
C  48.31700 24.98100 40.78800
H  48.18300 24.65200 39.34200
N  54.51500 22.48200 43.06000
C  53.54800 21.58700 42.90400
C  54.08200 20.27900 42.73700
C  55.46200 20.34900 42.77100
C  55.69800 21.79500 42.97800
C  53.29200 19.01000 42.48100
C  56.51400 19.19900 42.69300
O  56.22400 18.05200 42.57700
C  57.98700 19.49000 42.67900
N  56.44300 24.83700 43.52500
C  57.32600 23.84500 43.39000
C  58.78900 24.32100 43.47000
C  58.58600 25.81700 43.82900
C  57.08100 25.94600 43.73800
C  59.72000 23.64600 44.49100
C  59.43200 26.81900 42.94200
C  58.84200 27.19300 41.55200
N  54.16200 26.49400 43.92200
C  55.09000 27.44100 44.26800
C  54.45200 28.68700 44.59600
C  53.09400 28.43100 44.36400
C  52.98700 27.15000 43.82400
C  55.14900 29.95900 45.14600
C  51.79300 28.99700 44.27700
O  51.33900 30.09600 44.49300
C  50.86800 27.96100 43.70300
C  50.34400 28.40600 42.39700
O  51.02600 28.66500 41.40800
O  48.94300 28.46500 42.40200
C  48.31600 28.91300 41.14000
H  51.49300 21.08300 42.88600
H  57.85600 21.84200 43.14500
H  57.20600 28.01300 44.14500
H  49.30000 25.40900 43.49700
H  49.54000 22.85400 42.33000
H  48.39400 22.43400 44.24600
H  49.05200 23.89500 45.03300
H  49.97700 22.46400 45.14700
H  50.43300 24.59000 40.74800
H  49.90300 26.22700 41.11800
H  47.90100 25.97500 40.95300
H  47.89800 24.14900 41.35500
H  52.59700 18.98800 41.64100
H  52.66600 18.76700 43.33900
H  53.79300 18.06200 42.28800
H  58.50000 18.56800 42.40600
H  58.25400 19.90600 43.65100
H  58.13300 20.16600 41.83700
H  59.33900 24.24000 42.53200
H  58.93400 26.05200 44.83500
H  59.92700 24.27600 45.35700
H  60.70100 23.55700 44.02400
H  59.25300 22.70700 44.78700
H  60.37600 26.30900 42.75400
H  59.73900 27.65700 43.56800
H  58.39400 28.18200 41.45700
H  58.14100 26.42800 41.21900
H  59.74100 27.06400 40.95000
H  54.74800 30.29900 46.10000
H  54.98600 30.78000 44.44800
H  56.23000 29.82800 45.19800
H  50.03700 27.91300 44.40700
H  48.66000 28.26700 40.33200
H  48.68600 29.93000 41.01100
H  47.24200 28.83700 41.31100

