158

Mg 8.56400 2.84900 26.62300
C  9.90600 1.36200 29.53500
C  6.71200 4.98800 28.70100
C  7.22800 4.07700 23.97300
C  10.12600 0.21200 24.70700
N  8.27100 3.09600 28.85600
C  9.04100 2.47700 29.86700
C  8.69900 3.08900 31.24000
C  7.55000 4.06700 30.95400
C  7.51400 4.12900 29.37400
C  6.26000 3.74800 31.67000
C  9.96200 3.61100 31.96000
C  9.81800 4.64000 33.11500
H  10.69000 4.19900 34.31900
N  7.24200 4.35800 26.37900
C  6.52800 5.10200 27.31800
C  5.68700 6.05900 26.63300
C  5.85200 5.84900 25.20000
C  6.82800 4.75200 25.15300
C  4.82400 7.09200 27.35900
C  5.17800 6.63000 24.03400
O  5.44700 6.40900 22.89600
C  4.27500 7.75800 24.30900
N  8.72500 2.23300 24.74000
C  8.01100 2.97000 23.77400
C  8.07200 2.32600 22.45300
C  9.06600 1.23600 22.69000
C  9.29100 1.15100 24.11300
C  6.63600 1.81600 22.06000
C  10.45300 1.30600 21.93000
C  10.87000 0.01600 21.15800
N  9.79400 1.14400 26.99000
C  10.39000 0.22800 26.10700
C  11.21900 -0.68100 26.88500
C  11.03000 -0.31900 28.25200
C  10.17000 0.77000 28.25700
C  12.09600 -1.85400 26.36200
C  11.36500 -0.61900 29.65800
O  12.01400 -1.50600 30.16300
C  10.63500 0.40100 30.49500
C  9.70400 -0.34500 31.34500
O  8.64400 -0.86100 30.97300
O  10.16300 -0.28100 32.68300
C  9.33300 -1.00200 33.65200
H  6.20200 5.74400 29.30100
H  6.75200 4.42200 23.05200
H  10.45900 -0.59300 24.04900
H  8.38800 2.21000 31.80500
H  7.83500 5.06100 31.29800
H  6.19200 2.67300 31.83500
H  5.40200 4.00300 31.04800
H  6.00100 4.34000 32.54800
H  10.62500 4.08400 31.23600
H  10.49400 2.72500 32.30700
H  8.76900 4.64500 33.41400
H  10.13800 5.62500 32.77700
H  4.95000 7.27300 28.42700
H  3.74900 6.97600 27.22200
H  4.98200 8.09500 26.96400
H  3.87800 8.04500 23.33600
H  4.73900 8.58400 24.84800
H  3.50500 7.39800 24.99100
H  8.40400 2.97800 21.64500
H  8.58500 0.27700 22.49800
H  6.53200 0.74500 21.88200
H  6.42800 2.37200 21.14600
H  5.85800 1.99500 22.80100
H  11.23900 1.58200 22.63300
H  10.30100 2.04600 21.14500
H  11.18900 0.23700 20.14000
H  10.01200 -0.62000 20.93800
H  11.66700 -0.48400 21.70900
H  11.55800 -2.44400 25.62000
H  12.52300 -2.47500 27.15000
H  13.04700 -1.52300 25.94300
H  11.32700 1.00300 31.08400
H  9.61800 -2.04900 33.55000
H  8.24900 -0.89200 33.65500
H  9.63800 -0.67800 34.64700
Mg 53.37400 23.93500 44.55200
C  50.96100 26.28300 43.69200
C  51.40200 21.38900 43.30800
C  56.07200 21.70900 44.66800
C  55.33600 26.53000 45.56300
N  51.38800 23.86200 43.49400
C  50.57500 24.96400 43.34600
C  49.30300 24.47800 42.62900
C  49.39100 22.91500 42.92200
C  50.79400 22.70300 43.32000
C  48.41900 22.41000 43.97100
C  49.11900 24.69900 41.09800
C  50.34100 25.02800 40.24900
H  50.01500 25.58100 38.83700
N  53.67700 21.80900 44.02900
C  52.73100 20.97400 43.51100
C  53.32400 19.66200 43.26300
C  54.67200 19.74100 43.73600
C  54.85200 21.06800 44.27200
C  52.64500 18.56400 42.52500
C  55.56200 18.51600 43.69600
O  55.30200 17.52200 43.04900
C  56.77800 18.46600 44.48200
N  55.43400 24.17500 44.94000
C  56.31500 23.08000 44.94000
C  57.66700 23.55200 45.44700
C  57.49200 25.08600 45.60000
C  56.03000 25.29500 45.38100
C  58.16500 22.87400 46.75400
C  58.49400 25.87900 44.63900
C  59.56300 26.74900 45.34500
N  53.22900 25.98900 44.71000
C  54.09500 26.90700 45.16000
C  53.43100 28.18900 45.19900
C  52.16600 28.02300 44.60100
C  52.13600 26.63500 44.37400
C  53.98100 29.45900 45.74800
C  50.90500 28.66200 44.23500
O  50.49900 29.83300 44.31400
C  50.03800 27.50800 43.57200
C  49.73500 28.08600 42.17100
O  50.50900 28.36100 41.28200
O  48.36000 28.15500 42.12800
C  47.60700 28.29700 40.89900
H  50.67800 20.59800 43.10100
H  56.97400 21.12600 44.46800
H  55.97100 27.34100 45.92600
H  48.46700 24.95600 43.14000
H  49.25800 22.28300 42.04400
H  48.01200 23.21900 44.57700
H  48.87300 21.76500 44.72300
H  47.52600 22.02600 43.47700
H  48.41900 25.53300 41.03300
H  48.61800 23.81200 40.71100
H  50.84900 24.06700 40.17600
H  51.01100 25.81600 40.59400
H  53.15700 18.24200 41.61800
H  51.61400 18.83900 42.30200
H  52.59200 17.66300 43.13600
H  56.91300 17.40400 44.68700
H  56.74500 18.98500 45.44000
H  57.59800 18.92200 43.92700
H  58.52400 23.44400 44.78200
H  57.80200 25.33900 46.61400
H  57.90000 21.81700 46.74400
H  57.74600 23.43300 47.59000
H  59.23900 22.97700 46.90700
H  57.82800 26.58600 44.14300
H  59.01200 25.27600 43.89300
H  59.73000 26.46600 46.38500
H  59.52000 27.82700 45.18700
H  60.55400 26.56800 44.93000
H  55.05400 29.56400 45.58800
H  53.79800 29.45200 46.82200
H  53.58700 30.38500 45.32800
H  49.14000 27.39800 44.18000
H  48.26500 28.18100 40.03800
H  47.07500 29.23900 41.03600
H  46.82800 27.53800 40.82600

