158

Mg -1.27300 16.74500 26.17000
C  -1.50100 14.59600 28.98300
C  -1.88200 19.36600 28.25100
C  -1.57100 18.71200 23.40500
C  -0.68700 14.01200 24.12700
N  -1.48600 17.00800 28.40700
C  -1.48800 15.96900 29.32400
C  -1.84000 16.48900 30.80200
C  -2.18800 18.02700 30.50400
C  -1.87500 18.13500 28.95900
C  -3.60700 18.44100 30.77200
C  -0.73500 16.40900 31.90100
C  -1.09300 15.72100 33.21700
H  -1.92500 16.34600 34.34800
N  -1.45600 18.79400 25.91000
C  -1.76000 19.74100 26.89200
C  -1.73900 21.00700 26.30100
C  -1.56600 20.85000 24.93700
C  -1.55400 19.37400 24.65700
C  -1.92700 22.29300 27.12500
C  -1.35500 21.87700 23.85300
O  -1.37500 21.60400 22.63800
C  -0.99100 23.34400 24.23300
N  -1.24400 16.41000 24.05600
C  -1.24000 17.37200 23.14500
C  -1.15000 16.79000 21.79500
C  -0.53600 15.39400 21.99500
C  -0.86400 15.24000 23.52000
C  -2.49000 16.95000 20.98900
C  1.01500 15.19900 21.62100
C  2.08200 15.57100 22.57900
N  -1.21300 14.68200 26.43500
C  -1.00700 13.67300 25.50000
C  -1.00700 12.43100 26.15600
C  -1.28300 12.72000 27.49500
C  -1.33600 14.09300 27.65400
C  -0.89000 11.10900 25.53200
C  -1.52500 12.14600 28.78900
O  -1.56900 10.96400 29.13500
C  -1.77600 13.35500 29.81700
C  -0.95200 13.00900 30.96900
O  0.18700 13.27500 31.14100
O  -1.71000 12.30900 31.86100
C  -1.09500 12.12600 33.18300
H  -2.36800 20.10800 28.88800
H  -1.64000 19.38000 22.54500
H  -0.43100 13.12200 23.54800
H  -2.74600 15.95200 31.08300
H  -1.60100 18.74700 31.07300
H  -4.01100 17.89500 31.62500
H  -4.20700 18.25100 29.88200
H  -3.67400 19.48900 31.06400
H  -0.47200 17.42000 32.21400
H  0.20700 15.99000 31.54700
H  -0.22600 15.13200 33.51600
H  -1.71800 14.85500 32.99800
H  -2.62600 22.94100 26.59500
H  -1.08200 22.93700 27.37000
H  -2.24000 21.95600 28.11300
H  -0.15100 23.36300 24.92800
H  -1.89700 23.83100 24.59100
H  -0.67600 23.85500 23.32300
H  -0.42400 17.45500 21.32800
H  -1.19100 14.62200 21.59200
H  -3.21100 17.45900 21.62800
H  -2.93500 16.02300 20.62800
H  -2.22300 17.72000 20.26500
H  1.32300 15.77300 20.74700
H  1.03400 14.14300 21.35200
H  1.72300 16.00500 23.51300
H  2.74300 16.32700 22.15500
H  2.74700 14.71600 22.70000
H  -0.23200 11.26200 24.67600
H  -1.87200 10.72900 25.25100
H  -0.29900 10.49400 26.21000
H  -2.83200 13.37200 30.08700
H  -1.41300 12.98100 33.78000
H  -0.02900 11.91500 33.10200
H  -1.45400 11.20300 33.63700
Mg 15.45600 52.21700 26.25400
C  17.67300 51.46500 28.77200
C  12.94100 52.62400 28.53700
C  13.23900 52.38000 23.70600
C  18.05300 51.28600 23.89900
N  15.34600 51.91200 28.36700
C  16.36000 51.68800 29.25100
C  15.94900 52.01700 30.65400
C  14.40500 51.83900 30.53300
C  14.19700 52.19500 29.05100
C  13.88300 50.45200 30.99300
C  16.54100 53.40100 31.11900
C  16.56500 53.78900 32.57500
H  15.72900 52.90500 33.49900
N  13.37000 52.47400 26.09900
C  12.56600 52.74300 27.13200
C  11.21800 53.12600 26.69700
C  11.27900 52.99700 25.26700
C  12.64300 52.47200 24.96900
C  10.14400 53.66100 27.62100
C  10.15000 53.22000 24.27900
O  10.33900 52.94700 23.12100
C  8.87900 53.72800 24.70900
N  15.58600 51.98100 24.14200
C  14.54500 52.18900 23.31500
C  14.95800 52.12900 21.90300
C  16.48200 51.78200 21.90900
C  16.72400 51.65600 23.38500
C  14.01700 51.15000 21.06700
C  17.34600 52.88700 21.22400
C  18.18200 52.52100 20.01700
N  17.54300 51.57600 26.29500
C  18.48100 51.26600 25.25600
C  19.68000 50.78300 25.89100
C  19.39800 50.89400 27.25800
C  18.10900 51.44400 27.47100
C  20.97000 50.37200 25.28700
C  19.96100 50.71900 28.59500
O  21.06000 50.25600 28.92000
C  18.93900 51.12900 29.62600
C  18.76400 50.02300 30.62600
O  18.48900 48.84800 30.41600
O  18.93400 50.54300 31.91600
C  18.81600 49.61300 32.99700
H  12.17300 52.80700 29.29100
H  12.72600 52.68200 22.79100
H  18.83100 50.95400 23.20900
H  16.42800 51.27300 31.29100
H  13.81300 52.58400 31.06500
H  14.65200 49.69000 30.86500
H  12.97600 50.20300 30.44200
H  13.67000 50.64000 32.04500
H  15.97800 54.15700 30.57100
H  17.54100 53.34400 30.69000
H  16.26600 54.83500 32.65500
H  17.62000 53.75400 32.84800
H  10.23300 53.20100 28.60600
H  9.18300 53.19600 27.40000
H  10.12500 54.75100 27.63300
H  8.54900 52.98600 25.43700
H  8.17500 53.78700 23.87900
H  9.01300 54.69900 25.18400
H  14.55400 53.08000 21.55800
H  16.52100 50.75300 21.55000
H  14.57300 50.58000 20.32200
H  13.21300 51.74500 20.63300
H  13.67600 50.41800 21.79900
H  18.09100 53.36700 21.85900
H  16.67800 53.73900 21.10400
H  18.00000 51.48200 19.74000
H  19.23300 52.56600 20.30400
H  17.93900 53.28800 19.28100
H  20.92500 50.75500 24.26800
H  20.90800 49.28400 25.33300
H  21.78500 50.79900 25.87100
H  19.20400 51.96200 30.27700
H  17.87000 49.07400 32.94600
H  18.83900 50.16500 33.93600
H  19.65200 48.91500 33.03400

