158

Mg 36.07000 2.52400 30.72800
C  33.43400 3.95300 32.60600
C  38.08500 2.86200 33.50000
C  38.69900 1.81700 28.85900
C  34.06600 2.81600 27.85300
N  35.79200 3.37500 32.83200
C  34.59900 3.73700 33.38400
C  34.74200 3.80300 34.92300
C  36.32900 3.94200 35.09400
C  36.79700 3.31100 33.76500
C  36.79900 5.45600 35.20200
C  34.25800 2.49600 35.46300
C  33.55400 2.74100 36.87000
H  33.96600 3.81800 37.84200
N  38.09800 2.43300 31.07500
C  38.66700 2.52700 32.29500
C  40.07900 2.28600 32.13400
C  40.35800 1.90400 30.77200
C  39.04000 2.01800 30.18400
C  40.97400 2.45100 33.34200
C  41.53600 1.42100 30.07600
O  41.63400 1.21900 28.89000
C  42.82700 1.14300 30.83700
N  36.33600 2.48200 28.66200
C  37.54500 1.96300 28.20900
C  37.50700 1.64700 26.70500
C  35.90900 1.70200 26.37500
C  35.37500 2.33700 27.68900
C  38.31600 2.64000 25.88400
C  35.18600 0.43600 25.85700
C  34.59000 0.54000 24.54500
N  34.08500 3.19200 30.24800
C  33.44300 3.26300 29.01000
C  31.97200 3.65300 29.28900
C  31.97700 3.95200 30.66100
C  33.21000 3.61100 31.21800
C  30.81000 3.83900 28.30500
C  31.23300 4.41600 31.77000
O  30.05000 4.79100 31.87100
C  32.14100 4.35600 33.07200
C  32.14500 5.63100 33.72900
O  32.80100 6.65700 33.43400
O  31.36100 5.48800 34.89200
C  31.31600 6.69400 35.70700
H  38.72700 2.96600 34.37700
H  39.47900 1.35700 28.25000
H  33.43000 2.65700 26.98000
H  34.27200 4.70000 35.32700
H  36.74500 3.37200 35.92400
H  37.24600 5.50800 36.19500
H  36.01000 6.20600 35.24500
H  37.63500 5.68400 34.54100
H  35.05000 1.74900 35.52400
H  33.51900 2.14900 34.74100
H  33.83400 1.85800 37.44400
H  32.47300 2.66700 36.75000
H  41.94800 2.33900 32.86600
H  40.76700 1.70400 34.10900
H  40.74200 3.39300 33.83800
H  42.78500 0.46200 31.68700
H  43.35900 2.03400 31.16800
H  43.49300 0.54000 30.22000
H  38.01600 0.69500 26.55300
H  35.67000 2.51000 25.68300
H  37.65900 3.47500 25.64000
H  38.79500 2.18800 25.01500
H  39.08000 3.12400 26.49200
H  34.35900 0.20700 26.52900
H  35.92000 -0.36500 25.94200
H  35.16600 -0.20400 23.99500
H  34.74200 1.54900 24.16100
H  33.53400 0.27400 24.51500
H  30.82400 3.10900 27.49600
H  30.74700 4.80200 27.79800
H  29.85100 3.72400 28.80900
H  31.77600 3.61600 33.78500
H  32.30800 7.03200 36.00700
H  30.65600 6.54500 36.56200
H  30.85100 7.50300 35.14400
Mg 41.51200 8.70400 29.67800
C  43.42600 10.04200 32.05300
C  39.33600 7.47100 31.97700
C  39.54400 7.64200 27.08400
C  43.99700 9.56400 27.30300
N  41.43700 8.80100 31.79500
C  42.31800 9.43800 32.63500
C  41.82200 9.36500 34.07600
C  40.74000 8.21500 33.97400
C  40.46500 8.15300 32.45800
C  41.10800 6.80600 34.59200
C  41.36100 10.73700 34.62700
C  40.75300 10.93700 36.06400
H  41.42200 11.82700 37.11800
N  39.63300 7.80600 29.58100
C  38.87300 7.35800 30.63600
C  37.60100 6.84600 30.15300
C  37.59900 7.03400 28.73200
C  38.97500 7.50700 28.42900
C  36.72600 6.03800 31.00700
C  36.47300 6.74600 27.72800
O  36.48200 6.79900 26.49100
C  35.17800 6.24500 28.29300
N  41.70900 8.68700 27.46300
C  40.81500 8.11700 26.64900
C  41.34900 8.05000 25.16700
C  42.60100 9.00500 25.22500
C  42.82100 9.12700 26.76600
C  41.44700 6.61200 24.68200
C  42.48500 10.43600 24.55500
C  43.68700 10.89300 23.67100
N  43.36600 9.57200 29.67000
C  44.24900 9.84200 28.62200
C  45.40300 10.52200 29.16700
C  45.10000 10.66400 30.51600
C  43.87200 10.05400 30.70900
C  46.57500 11.13400 28.47000
C  45.57700 11.19100 31.82100
O  46.57300 11.79600 32.19800
C  44.42000 10.89200 32.80300
C  45.08100 10.14800 33.96400
O  45.71900 9.11500 33.87300
O  44.97500 10.89400 35.08100
C  45.51100 10.26400 36.29700
H  38.78800 7.01200 32.80200
H  38.82700 7.30300 26.33300
H  44.71300 9.71300 26.49200
H  42.66200 8.96200 34.64200
H  39.85500 8.64200 34.44500
H  42.11800 6.84100 35.00000
H  40.93900 6.00700 33.87000
H  40.49100 6.67200 35.48100
H  40.79700 11.22800 33.83500
H  42.34500 11.20300 34.57100
H  40.63700 9.98500 36.58300
H  39.79500 11.43500 35.91400
H  37.00400 6.03000 32.06100
H  36.66400 5.02800 30.60400
H  35.78800 6.59100 30.95900
H  34.37200 6.29500 27.56100
H  34.90500 6.93900 29.08800
H  35.26300 5.21000 28.62100
H  40.57400 8.53000 24.56900
H  43.50800 8.46700 24.94900
H  41.04800 5.94200 25.44400
H  42.51200 6.40900 24.56500
H  40.84300 6.50600 23.78100
H  42.39900 11.21400 25.31400
H  41.56700 10.54600 23.97800
H  43.39800 11.35000 22.72400
H  44.32200 10.00800 23.65300
H  44.21900 11.69400 24.18500
H  47.00900 10.58300 27.63500
H  47.33400 11.41800 29.19900
H  46.22200 12.08800 28.07700
H  44.00700 11.84500 33.13400
H  44.64400 9.96200 36.88400
H  45.91700 11.12600 36.82600
H  46.34600 9.56600 36.25100

