158

Mg 6.42200 53.97400 41.36100
C  5.70000 50.58600 41.22000
C  9.63400 53.18900 40.46700
C  6.71500 57.23300 40.48200
C  3.06500 54.56900 41.82900
N  7.51700 52.04900 40.72500
C  7.04300 50.76000 40.82200
C  8.14900 49.75500 40.65100
C  9.42400 50.66300 40.68500
C  8.81600 52.08500 40.58700
C  10.18500 50.55000 41.96600
C  8.01600 49.02800 39.28000
C  7.76200 49.89100 38.00100
H  6.72100 49.27100 37.01300
N  7.98700 55.06900 40.54800
C  9.28000 54.58800 40.32300
C  10.11600 55.67400 39.97100
C  9.27200 56.81000 39.89700
C  7.89700 56.40200 40.34600
C  11.63300 55.64200 39.82500
C  9.70200 58.14300 39.54300
O  10.81300 58.25100 38.99200
C  8.96900 59.44800 39.81400
N  5.03300 55.61400 40.94900
C  5.41500 56.91200 40.74700
C  4.30000 57.91600 40.97100
C  3.06800 57.06700 41.40700
C  3.69400 55.62000 41.31000
C  4.48900 59.14800 41.78700
C  1.78800 57.25900 40.55200
C  0.63800 58.10000 41.11900
N  4.78800 52.85800 41.54600
C  3.52600 53.22300 41.85800
C  2.71400 52.10200 42.23400
C  3.54000 51.03200 41.91600
C  4.75700 51.54600 41.54700
C  1.24400 51.99300 42.61800
C  3.56600 49.64600 41.92000
O  2.81200 48.74500 42.23400
C  4.97200 49.26400 41.35700
C  4.69300 48.65800 40.05100
O  4.25800 49.24300 39.01200
O  5.00100 47.33700 40.11200
C  4.54100 46.52600 38.93300
H  10.68400 52.97200 40.26000
H  6.70600 58.30600 40.28000
H  2.01500 54.61400 42.12700
H  8.25400 49.01900 41.44900
H  10.09500 50.56600 39.83200
H  10.22600 51.58100 42.31900
H  11.23500 50.29400 41.82700
H  9.67200 49.96100 42.72600
H  7.28400 48.22100 39.25000
H  9.00800 48.59900 39.13900
H  8.64500 49.76200 37.37500
H  7.74000 50.97100 38.14300
H  12.02700 56.52700 40.32500
H  12.01000 55.55900 38.80600
H  12.01700 54.78500 40.38000
H  8.22600 59.59300 39.03000
H  9.69500 60.24300 39.64100
H  8.67600 59.56900 40.85600
H  4.13800 58.28600 39.95900
H  2.74000 57.18600 42.44000
H  4.48300 60.06100 41.19100
H  5.42500 59.08200 42.34200
H  3.69300 59.19800 42.53100
H  1.44500 56.24700 40.33600
H  2.08500 57.68700 39.59500
H  0.61500 59.11800 40.73000
H  0.63400 58.18700 42.20500
H  -0.31800 57.61900 40.91000
H  0.60200 51.41600 41.95400
H  0.84500 53.00500 42.54400
H  1.18500 51.46600 43.57000
H  5.43000 48.51200 42.00000
H  4.47000 47.08100 37.99800
H  3.53300 46.16700 39.14200
H  5.24400 45.71900 38.73100
Mg -0.64500 44.11800 26.80900
C  1.63000 44.11700 29.43900
C  -3.09100 42.92500 28.98100
C  -2.82500 43.74700 24.18300
C  1.86400 44.82000 24.61800
N  -0.68900 43.59500 28.98900
C  0.30000 43.88600 29.87600
C  -0.17900 43.57900 31.25400
C  -1.56400 42.89500 31.02400
C  -1.86100 43.12000 29.56900
C  -1.64400 41.33000 31.40200
C  -0.28300 44.90100 32.14000
C  0.00200 44.78300 33.60000
H  0.15700 43.47500 34.24700
N  -2.70100 43.52800 26.65000
C  -3.46800 43.02500 27.59500
C  -4.71600 42.57300 27.04100
C  -4.73400 42.92700 25.64300
C  -3.36300 43.44600 25.42500
C  -5.73100 41.78700 27.93800
C  -5.80700 42.68500 24.57500
O  -5.67700 42.93200 23.39900
C  -7.09900 42.16200 25.06000
N  -0.51500 44.36200 24.68200
C  -1.51100 44.24800 23.84300
C  -1.11700 44.54800 22.36600
C  0.23500 45.24400 22.62900
C  0.57200 44.78300 24.05900
C  -1.15500 43.21900 21.44600
C  0.19200 46.76800 22.67500
C  1.34700 47.41900 21.92600
N  1.47000 44.45300 26.96300
C  2.29600 44.68900 25.96200
C  3.64400 44.74000 26.54400
C  3.47900 44.57100 27.93400
C  2.12100 44.38200 28.08500
C  4.95800 44.86400 25.83800
C  4.12800 44.44200 29.22300
O  5.29600 44.56400 29.58900
C  2.95900 44.09200 30.23900
C  3.19800 42.73400 30.74800
O  3.16200 41.72100 30.06400
O  3.56400 42.75400 32.05800
C  3.76100 41.40400 32.63800
H  -3.80600 42.52600 29.70300
H  -3.50500 43.56100 23.35000
H  2.67200 45.03400 23.91500
H  0.54500 42.87200 31.66000
H  -2.30400 43.46100 31.59000
H  -0.83700 41.01600 32.06500
H  -1.57000 40.67400 30.53500
H  -2.49900 41.18900 32.06400
H  -1.28300 45.31500 32.01400
H  0.39500 45.67400 31.77900
H  -0.80000 45.37800 34.03700
H  0.94600 45.30900 33.74400
H  -6.78600 41.98300 27.74500
H  -5.64500 42.15600 28.96000
H  -5.60800 40.71000 28.04300
H  -7.63400 41.89100 24.15000
H  -7.62700 42.93000 25.62500
H  -7.02300 41.28300 25.70000
H  -1.71200 45.34000 21.91100
H  0.89500 44.75300 21.91400
H  -0.19000 42.92600 21.03300
H  -1.91600 43.45200 20.70100
H  -1.55300 42.37700 22.01200
H  0.16800 47.08700 23.71700
H  -0.72700 47.15500 22.23500
H  2.08500 46.66000 21.66800
H  1.85200 48.20100 22.49300
H  0.83700 47.89600 21.08800
H  5.00400 43.97700 25.20600
H  5.84300 44.87200 26.47600
H  4.90200 45.74700 25.20200
H  2.90500 44.78100 31.08200
H  2.92300 41.01000 33.21200
H  4.56100 41.32000 33.37300
H  4.12400 40.68700 31.90200

