158

Mg 41.38800 41.53500 27.25000
C  40.62700 43.92900 29.63400
C  42.00500 39.13400 29.68100
C  42.30900 39.37900 24.76700
C  41.10100 44.00700 24.72200
N  41.36800 41.56100 29.51700
C  40.90400 42.63100 30.19400
C  40.82900 42.22600 31.67800
C  41.57100 40.78300 31.74100
C  41.68000 40.44300 30.20800
C  43.04100 40.65100 32.39300
C  39.43000 42.27000 32.36900
C  39.35900 41.74400 33.81600
H  38.76400 42.66500 34.85800
N  41.99600 39.59600 27.22800
C  42.17300 38.72000 28.33200
C  42.63100 37.45400 27.87500
C  42.59600 37.41200 26.47000
C  42.26200 38.82400 26.04600
C  43.19300 36.42900 28.86200
C  42.91700 36.26200 25.58900
O  42.88700 36.36900 24.37800
C  43.23500 34.86400 26.09600
N  41.61500 41.64800 25.05700
C  41.97800 40.64300 24.27800
C  41.99000 41.00600 22.77300
C  41.24300 42.39800 22.71300
C  41.36600 42.75700 24.21600
C  43.45500 40.99800 22.17100
C  39.79100 42.29400 22.24900
C  38.86000 41.33700 22.93100
N  41.16000 43.59600 27.17900
C  41.00300 44.45900 26.08800
C  40.69100 45.74800 26.64300
C  40.54600 45.57700 28.02100
C  40.78100 44.24000 28.27100
C  40.51100 46.99300 25.86300
C  40.27700 46.34600 29.24700
O  40.01200 47.53300 29.51700
C  40.33900 45.23800 30.36300
C  41.37700 45.61900 31.42800
O  42.58500 45.85000 31.29200
O  40.73000 45.50600 32.65900
C  41.57300 45.59300 33.77000
H  42.21300 38.41200 30.47300
H  42.53400 38.78000 23.88200
H  40.98000 44.82300 24.00700
H  41.48300 42.89500 32.23900
H  40.88900 40.03900 32.15400
H  43.90400 40.72300 31.73100
H  43.19400 39.70800 32.91800
H  43.16500 41.47600 33.09500
H  38.78100 41.60700 31.79500
H  38.97900 43.25800 32.27300
H  40.30200 41.31100 34.15100
H  38.76200 40.83600 33.90900
H  43.33600 36.76800 29.88800
H  44.16000 36.09300 28.48700
H  42.46600 35.63200 29.01300
H  44.12300 34.77400 26.72200
H  43.38700 34.29300 25.17900
H  42.51100 34.46500 26.80700
H  41.46500 40.20300 22.25700
H  41.79200 43.04700 22.03000
H  43.98500 41.89600 22.48900
H  43.38400 40.89600 21.08800
H  43.96400 40.18400 22.68600
H  39.85700 41.92200 21.22700
H  39.30900 43.26400 22.12400
H  39.31600 40.35300 23.04300
H  37.98000 41.18300 22.30600
H  38.63400 41.65600 23.94800
H  39.66900 46.89900 25.17600
H  41.43300 47.16300 25.30700
H  40.33200 47.85800 26.50200
H  39.36800 45.31700 30.85400
H  42.30100 44.78400 33.70700
H  40.96300 45.55200 34.67200
H  42.13000 46.53000 33.81000
Mg 36.62200 50.39300 25.78700
C  36.07300 48.15900 28.44700
C  35.92500 53.03700 27.86000
C  36.53000 52.39600 23.01500
C  37.08600 47.66600 23.64800
N  35.90300 50.56300 27.92500
C  35.93800 49.56500 28.83400
C  35.76200 50.10900 30.25000
C  35.42900 51.58200 29.97800
C  35.77300 51.77800 28.51400
C  33.92800 52.00000 30.29300
C  37.15800 49.94600 31.11700
C  36.98800 50.16000 32.59000
H  35.58500 50.27300 33.15900
N  36.38200 52.46000 25.49400
C  36.16900 53.40800 26.51400
C  36.31700 54.72300 25.94700
C  36.36200 54.62700 24.49100
C  36.46800 53.15500 24.25700
C  36.32200 55.96100 26.88300
C  36.39800 55.75900 23.48800
O  36.53600 55.53200 22.30200
C  36.47100 57.09100 23.90500
N  36.75600 50.05600 23.58500
C  36.62000 51.04000 22.68800
C  36.78100 50.54600 21.17500
C  37.17400 49.03900 21.46200
C  37.03700 48.85900 22.98300
C  35.47300 50.64000 20.37700
C  38.68400 48.90300 20.99100
C  39.13600 47.49200 20.45500
N  36.57800 48.30600 25.99200
C  36.87000 47.34600 25.00700
C  37.02400 46.03700 25.69600
C  36.57500 46.30300 27.01200
C  36.34400 47.68900 27.14200
C  37.42900 44.70100 25.15000
C  36.37800 45.70600 28.33800
O  36.45500 44.51600 28.63800
C  36.01500 46.88000 29.31500
C  34.73600 46.57000 29.93900
O  33.65600 46.87700 29.39000
O  34.88600 46.09700 31.17300
C  33.62600 45.96300 32.05000
H  35.72600 53.84100 28.57100
H  36.62800 52.97500 22.09400
H  37.09200 46.74500 23.06200
H  34.95000 49.50700 30.65900
H  36.09200 52.23200 30.54900
H  33.81600 52.49600 31.25700
H  33.20800 51.18200 30.31000
H  33.57600 52.67000 29.50900
H  37.84100 50.68000 30.68800
H  37.50200 48.91800 31.00400
H  37.51700 51.07400 32.86100
H  37.52400 49.30700 33.00500
H  37.22200 56.57100 26.81000
H  36.23400 55.64700 27.92300
H  35.43300 56.57700 26.74900
H  36.31600 57.85000 23.13800
H  37.42700 57.20000 24.41600
H  35.63300 57.27900 24.57500
H  37.56600 51.04100 20.60300
H  36.59000 48.34300 20.86000
H  35.08100 51.65100 20.48600
H  34.70700 49.88900 20.56700
H  35.67300 50.54200 19.31000
H  39.24000 49.19000 21.88400
H  38.85400 49.53200 20.11800
H  38.33700 46.75700 20.55100
H  39.98400 47.16600 21.05700
H  39.45700 47.56400 19.41500
H  37.61100 43.89700 25.86300
H  38.16900 44.88100 24.37000
H  36.54800 44.27900 24.66800
H  36.75600 46.90200 30.11500
H  33.05000 46.88500 31.96900
H  33.93900 45.91100 33.09200
H  33.14600 45.01700 31.80100

