158

Mg 47.93800 35.48800 28.77200
C  46.04300 33.30200 30.85400
C  47.40700 37.97200 31.20000
C  49.01700 37.81300 26.67600
C  47.39100 33.21500 26.07500
N  46.87400 35.55500 30.81700
C  46.38000 34.50700 31.50200
C  46.32400 34.91700 33.00700
C  46.18400 36.44900 32.96100
C  46.83900 36.69200 31.57400
C  44.83800 37.08600 33.29400
C  47.65200 34.22800 33.64400
C  47.58700 33.85500 35.16700
H  46.56400 34.65500 35.91200
N  48.54800 37.50000 29.01900
C  48.22800 38.33100 30.07200
C  48.91800 39.62400 29.84000
C  49.46300 39.54400 28.51300
C  48.93500 38.26400 27.97000
C  49.00500 40.61200 30.94900
C  50.53700 40.45200 27.94000
O  51.14700 40.17900 26.88100
C  51.04600 41.74800 28.67000
N  48.17000 35.48200 26.53800
C  48.70700 36.57900 25.98600
C  48.83900 36.27400 24.49800
C  48.52500 34.75000 24.34300
C  48.02100 34.44600 25.71400
C  47.94300 37.14700 23.58300
C  49.68800 33.78800 24.00700
C  50.78400 33.47600 25.00600
N  47.01900 33.67400 28.47800
C  46.91700 32.78200 27.33800
C  46.25800 31.56100 27.72300
C  46.00600 31.62500 29.13500
C  46.43500 33.01700 29.51300
C  46.01300 30.34400 26.87500
C  45.38600 30.99500 30.33100
O  44.77000 29.96700 30.47100
C  45.42900 31.99500 31.43700
C  45.95200 31.48000 32.77700
O  47.10500 31.02900 33.03100
O  44.95000 31.45100 33.70900
C  45.26700 30.90800 34.99900
H  47.13800 38.71100 31.95800
H  49.37400 38.45900 25.87100
H  47.35400 32.48600 25.26300
H  45.50300 34.44200 33.54300
H  46.88800 36.68100 33.76000
H  44.32000 37.65600 32.52300
H  44.99100 37.74400 34.14900
H  44.04000 36.41400 33.60900
H  48.54300 34.83800 33.49400
H  47.88200 33.34900 33.04200
H  48.56100 34.10700 35.58500
H  47.41700 32.81100 35.43000
H  48.73400 41.62300 30.64400
H  50.06500 40.58700 31.20500
H  48.34900 40.31700 31.76800
H  51.99100 42.05800 28.22400
H  51.23900 41.61400 29.73400
H  50.33000 42.55800 28.53600
H  49.89100 36.45800 24.27800
H  47.73200 34.58900 23.61300
H  47.49800 37.97600 24.13300
H  47.09900 36.62500 23.13200
H  48.62400 37.37500 22.76300
H  50.20100 34.26900 23.17400
H  49.24800 32.82900 23.73300
H  51.65200 33.24400 24.38700
H  50.34100 32.73200 25.66700
H  50.98400 34.32700 25.65700
H  45.26400 30.46400 26.09200
H  45.60500 29.52300 27.46600
H  46.88000 29.97500 26.32800
H  44.37500 32.17500 31.64900
H  44.40500 30.39800 35.42800
H  45.54500 31.74200 35.64300
H  46.04900 30.14900 34.96200
Mg -0.44900 42.43700 25.91500
C  2.09500 41.97900 28.17400
C  -2.73600 41.52500 28.48500
C  -2.92000 42.48800 23.60300
C  1.87200 42.76300 23.29300
N  -0.31500 41.90600 28.10300
C  0.82500 41.89300 28.80000
C  0.61100 41.71000 30.28600
C  -0.86600 41.29700 30.32900
C  -1.35200 41.61000 28.88200
C  -1.12500 39.80500 30.59200
C  0.79200 43.03900 31.06400
C  0.89700 42.96000 32.54800
H  0.36000 41.76100 33.21100
N  -2.53400 42.02900 26.06000
C  -3.31000 41.83200 27.24100
C  -4.70000 41.81400 26.79400
C  -4.75800 42.20300 25.42100
C  -3.34000 42.23300 24.93500
C  -5.81800 41.49000 27.78000
C  -6.03500 42.36800 24.51600
O  -5.91900 42.65500 23.27900
C  -7.45200 42.29400 25.11700
N  -0.51000 42.58000 23.73800
C  -1.65000 42.52300 23.01200
C  -1.45200 42.80300 21.47600
C  0.10900 43.06300 21.47400
C  0.53500 42.73000 22.91500
C  -1.98900 41.60400 20.71600
C  0.57700 44.53700 21.06900
C  -0.10400 45.73900 21.88700
N  1.54800 42.39200 25.75700
C  2.37000 42.52100 24.60500
C  3.72200 42.42100 25.02800
C  3.70900 42.17600 26.44500
C  2.35700 42.30100 26.78500
C  4.97700 42.59500 24.12300
C  4.48000 41.84400 27.62100
O  5.63900 41.56300 27.74100
C  3.51000 41.94000 28.82100
C  3.73600 40.75800 29.75100
O  3.23300 39.71600 29.65300
O  4.58700 41.12800 30.77700
C  4.84700 40.28800 31.94100
H  -3.33300 41.44500 29.39500
H  -3.61000 42.63500 22.77000
H  2.67900 42.82500 22.55900
H  1.19300 40.84400 30.59900
H  -1.46300 41.88000 31.03000
H  -1.74700 39.78500 31.48700
H  -0.19100 39.33200 30.89700
H  -1.75800 39.23900 29.90900
H  -0.12000 43.61500 30.90600
H  1.64400 43.45800 30.52800
H  0.49800 43.85300 33.03000
H  1.96900 42.96200 32.75000
H  -5.61800 40.92300 28.68900
H  -6.58800 40.90600 27.27600
H  -6.23200 42.44800 28.09300
H  -8.13900 42.79300 24.43400
H  -7.36000 42.92600 26.00000
H  -7.74800 41.25900 25.29000
H  -1.91500 43.67400 21.01200
H  0.63600 42.41700 20.77100
H  -2.88100 41.87700 20.15200
H  -2.14500 40.70500 21.31200
H  -1.26600 41.41300 19.92300
H  0.42400 44.66300 19.99800
H  1.63300 44.71200 21.27400
H  -0.71700 46.42400 21.30000
H  0.76300 46.27600 22.27200
H  -0.71500 45.28800 22.66900
H  4.92400 43.58800 23.67700
H  4.92600 41.90100 23.28400
H  5.92000 42.47100 24.65600
H  3.73000 42.89500 29.29900
H  4.43300 40.75800 32.83400
H  5.91900 40.09300 31.96500
H  4.43500 39.29000 31.79000

