158

Mg 23.22600 -6.35200 45.84600
C  25.43300 -3.92600 44.85200
C  20.88800 -5.06700 43.66700
C  21.21700 -9.10800 46.34800
C  25.89400 -8.09500 47.29800
N  23.12800 -4.66600 44.54000
C  24.16300 -3.78600 44.33000
C  23.73700 -2.71100 43.33400
C  22.17600 -2.89700 43.24800
C  22.08000 -4.26800 43.81800
C  21.36600 -1.83800 44.02400
C  24.51800 -2.62400 41.97500
C  25.11700 -1.13400 41.59600
H  24.59200 -0.41000 40.40600
N  21.18800 -6.96600 45.21600
C  20.43800 -6.34900 44.23200
C  19.17400 -7.09900 44.03800
C  19.24600 -8.32100 44.78100
C  20.57900 -8.19400 45.49900
C  18.18100 -6.51400 43.07300
C  18.15200 -9.33200 44.86400
O  17.19700 -9.26400 44.07200
C  18.19800 -10.49600 45.83400
N  23.52700 -8.33500 46.75700
C  22.49300 -9.19800 46.92900
C  22.91700 -10.43300 47.64300
C  24.43600 -10.05600 47.95900
C  24.64700 -8.73800 47.35900
C  22.00600 -10.74800 48.85400
C  25.50400 -11.06700 47.60400
C  26.55300 -11.27800 48.63200
N  25.25500 -6.11300 46.15300
C  26.23800 -6.90900 46.69000
C  27.49200 -6.14300 46.74100
C  27.22700 -4.98000 46.03100
C  25.86300 -4.96800 45.70100
C  28.80600 -6.64900 47.42700
C  27.78000 -3.78600 45.48600
O  28.91100 -3.28200 45.59200
C  26.65700 -3.05200 44.75100
C  26.51000 -1.76200 45.46800
O  25.88400 -1.64800 46.52400
O  27.16900 -0.67200 44.88700
C  26.97700 0.53000 45.62500
H  20.11300 -4.55500 43.09100
H  20.64100 -9.95000 46.73800
H  26.72500 -8.61800 47.77700
H  23.92800 -1.82500 43.93900
H  21.72600 -3.00300 42.26100
H  20.38400 -2.22700 44.29200
H  21.24600 -1.07600 43.25300
H  21.92200 -1.42900 44.86800
H  23.81500 -2.79200 41.16000
H  25.24000 -3.42600 41.81700
H  26.18800 -1.29500 41.46900
H  24.99900 -0.44000 42.42800
H  18.24300 -7.07000 42.13700
H  18.38200 -5.50300 42.71700
H  17.16800 -6.66500 43.44400
H  17.28200 -11.07000 45.97200
H  18.50200 -10.21900 46.84400
H  19.02700 -11.14000 45.54300
H  22.87600 -11.20700 46.87700
H  24.44900 -9.82300 49.02300
H  21.14200 -10.08700 48.92700
H  22.60100 -10.85800 49.76100
H  21.60800 -11.75100 48.69900
H  26.02900 -10.72200 46.71300
H  25.16200 -12.05600 47.29700
H  27.53100 -10.87000 48.37800
H  26.66400 -12.34800 48.81100
H  26.21200 -10.80800 49.55400
H  28.98700 -7.70300 47.21300
H  28.67200 -6.55200 48.50500
H  29.55600 -6.00300 46.97000
H  27.00900 -2.81000 43.74800
H  27.59600 1.27300 45.12200
H  27.41500 0.50200 46.62200
H  25.92600 0.78500 45.48400
Mg 17.13400 51.17200 26.18400
C  19.07000 50.22700 28.82700
C  14.70100 52.20600 28.45200
C  15.24200 52.12800 23.53300
C  19.73100 50.52900 23.91800
N  16.86000 51.10300 28.43400
C  17.88000 50.79400 29.27000
C  17.55100 51.27400 30.75300
C  16.00300 51.49700 30.63500
C  15.82500 51.57500 29.08500
C  15.18100 50.40000 31.33100
C  18.43700 52.37500 31.48500
C  18.72900 52.12800 32.98600
H  17.74100 51.38300 33.84100
N  15.20400 51.92500 26.04500
C  14.40700 52.47000 27.09500
C  13.28800 53.18400 26.54500
C  13.38100 53.14800 25.13300
C  14.70000 52.46000 24.89900
C  12.27700 53.85700 27.48100
C  12.48700 53.78800 24.05200
O  12.62600 53.54600 22.88000
C  11.37400 54.64500 24.42000
N  17.39700 51.19700 23.97600
C  16.46700 51.59400 23.09500
C  16.93000 51.55200 21.65300
C  18.50600 51.35600 21.91500
C  18.60600 51.01900 23.38000
C  16.22700 50.52100 20.73300
C  19.46600 52.40700 21.43100
C  19.57800 53.67900 22.38600
N  18.97200 50.34700 26.24400
C  19.93700 50.18000 25.30900
C  21.07800 49.70400 25.95200
C  20.76400 49.65300 27.32900
C  19.44200 50.10400 27.45800
C  22.40600 49.40200 25.34100
C  21.31800 49.40700 28.63700
O  22.42600 49.06800 28.96500
C  20.21600 49.67300 29.64300
C  19.81000 48.43300 30.39100
O  19.02200 47.56900 30.04900
O  20.39000 48.62000 31.66400
C  20.07000 47.59100 32.71800
H  14.08700 52.61500 29.25800
H  14.68400 52.54200 22.69100
H  20.58800 50.32800 23.27100
H  17.75900 50.41400 31.39000
H  15.70900 52.48800 30.98200
H  15.78700 49.69200 31.89600
H  14.71100 49.78800 30.56100
H  14.47800 50.83100 32.04300
H  17.99300 53.36700 31.55800
H  19.41600 52.40100 31.00600
H  18.73000 53.15600 33.35000
H  19.75300 51.75700 32.94400
H  11.51500 54.46100 26.98800
H  12.89000 54.44000 28.16800
H  11.77200 53.27300 28.25000
H  10.52000 54.15300 24.88500
H  10.88900 55.19200 23.61200
H  11.62500 55.48200 25.07200
H  16.77700 52.54300 21.22700
H  18.83200 50.41200 21.47700
H  15.16600 50.76800 20.77100
H  16.47400 49.55200 21.16700
H  16.64400 50.58300 19.72800
H  19.07900 52.70100 20.45500
H  20.40600 51.86900 21.30500
H  18.72400 53.79900 23.05200
H  19.49300 54.58900 21.79300
H  20.48200 53.54800 22.98200
H  22.52300 48.46600 24.79400
H  23.16000 49.41000 26.12700
H  22.68700 50.12400 24.57400
H  20.61600 50.52700 30.18900
H  19.47500 46.75900 32.34100
H  19.47400 48.13600 33.45000
H  20.95000 47.21000 33.23600

