158

Mg 0.73900 8.16200 25.84300
C  1.56500 10.10300 28.63000
C  0.68400 5.44700 27.93200
C  0.10200 6.18100 23.10600
C  1.01200 10.90700 23.76400
N  1.30900 7.79100 28.05800
C  1.47500 8.71600 29.02000
C  1.40200 8.19500 30.50300
C  1.32400 6.64700 30.18000
C  1.12100 6.60300 28.61700
C  2.43200 5.68000 30.72200
C  0.30000 8.78500 31.40900
C  0.61500 8.84700 32.87700
H  1.61100 7.90100 33.53700
N  0.37200 6.08400 25.57300
C  0.34800 5.16100 26.60600
C  -0.05300 3.88100 26.09100
C  -0.31500 4.10200 24.67100
C  0.10200 5.48400 24.37800
C  -0.25700 2.66300 26.93900
C  -0.81500 3.11400 23.71800
O  -1.11000 3.38400 22.58200
C  -0.95900 1.62000 24.08500
N  0.45000 8.52400 23.68500
C  0.23000 7.52900 22.79100
C  0.32500 8.04400 21.37400
C  0.25800 9.59900 21.63800
C  0.56700 9.72000 23.11000
C  1.57300 7.46900 20.61500
C  -1.14300 10.34100 21.33900
C  -0.99100 11.47900 20.28500
N  1.22300 10.03800 26.04200
C  1.27800 11.12500 25.08500
C  1.60700 12.34300 25.73900
C  1.72300 11.95700 27.10000
C  1.48900 10.57900 27.22800
C  1.62800 13.77100 25.07500
C  1.92500 12.52000 28.45500
O  2.13700 13.69800 28.73100
C  1.85700 11.29000 29.46600
C  3.22300 11.11400 29.89500
O  4.32300 11.13900 29.29400
O  3.06700 10.84100 31.20900
C  4.36500 10.48800 31.92300
H  0.55900 4.53100 28.51300
H  -0.07700 5.50600 22.26600
H  0.90500 11.80100 23.14600
H  2.40200 8.40700 30.88100
H  0.41600 6.22000 30.60500
H  2.98500 6.05600 31.58300
H  3.14600 5.50900 29.91700
H  1.97200 4.69300 30.76000
H  -0.58200 8.18100 31.19400
H  0.11500 9.83100 31.16200
H  -0.33800 8.81400 33.40500
H  1.06000 9.83900 32.96600
H  -1.33900 2.63200 26.81200
H  -0.02000 2.81900 27.99200
H  0.18500 1.74500 26.55200
H  -0.00200 1.27900 24.48000
H  -1.01300 0.96700 23.21400
H  -1.79700 1.37800 24.73900
H  -0.51400 7.65000 20.80100
H  1.05800 10.05100 21.05100
H  2.15400 6.78200 21.22900
H  2.30000 8.22800 20.32300
H  1.17600 7.01400 19.70700
H  -1.58500 10.72200 22.26000
H  -1.81000 9.56400 20.96800
H  0.03300 11.81800 20.13000
H  -1.50400 12.37000 20.64600
H  -1.42300 11.19600 19.32500
H  0.88400 14.45200 25.48900
H  1.16000 13.69000 24.09400
H  2.63100 14.18500 24.97300
H  1.12300 11.51100 30.24100
H  5.15500 11.20900 31.71400
H  4.67300 9.49400 31.59700
H  4.29400 10.46900 33.01000
Mg 46.90500 44.50600 42.41100
C  43.41500 44.06700 42.28200
C  47.14500 41.01100 42.31100
C  50.07900 44.81100 41.79800
C  46.32900 47.99000 41.74800
N  45.35400 42.76200 42.20000
C  44.03200 42.80100 42.21700
C  43.45200 41.38300 42.03500
C  44.63900 40.54700 42.59900
C  45.80700 41.48700 42.33400
C  44.60300 40.06500 44.06600
C  42.88300 41.09100 40.60800
C  43.57700 41.81900 39.37200
H  44.41100 41.03700 38.39000
N  48.40000 43.15400 42.17100
C  48.32400 41.75900 42.17500
C  49.68500 41.14300 42.09300
C  50.58300 42.22800 41.80900
C  49.70800 43.49900 42.02000
C  49.96100 39.59800 42.05100
C  52.07200 42.13000 41.53500
O  52.62300 41.01600 41.36700
C  52.96800 43.34300 41.60500
N  48.05700 46.21400 41.84700
C  49.39900 46.01200 41.80700
C  50.03500 47.38500 41.57900
C  48.86700 48.43500 41.53600
C  47.66400 47.51900 41.64100
C  51.16800 47.64300 42.59600
C  48.76900 49.26700 40.28900
C  49.41500 50.65300 40.28700
N  45.21900 45.87300 42.17900
C  45.15900 47.21600 41.93500
C  43.75200 47.58700 41.80500
C  43.01700 46.33200 41.91000
C  43.96400 45.34100 42.16200
C  43.22100 48.98700 41.59400
C  41.72800 45.77800 41.93500
O  40.59400 46.27900 41.99000
C  41.94900 44.19700 42.06600
C  41.21100 43.90000 43.33500
O  40.11600 43.30100 43.39900
O  41.95300 44.13500 44.46400
C  41.42800 43.65400 45.75600
H  47.22000 39.96300 42.60700
H  51.11100 44.97300 41.48000
H  46.15700 49.04700 41.53300
H  42.62300 41.16900 42.71000
H  44.82200 39.70600 41.92900
H  45.18300 40.67800 44.75600
H  45.09400 39.09200 44.04500
H  43.55000 39.89900 44.29200
H  41.80100 41.19200 40.68700
H  43.04600 40.01800 40.50100
H  44.22300 42.64900 39.65600
H  42.81200 42.37000 38.82600
H  49.62800 39.25700 41.07000
H  49.48600 39.00800 42.83400
H  51.04000 39.46700 42.14400
H  52.79200 43.98400 40.74100
H  54.01400 43.05800 41.72300
H  52.66700 43.82900 42.53400
H  50.49000 47.33500 40.58900
H  48.90400 49.10700 42.39400
H  52.11600 47.55800 42.06500
H  51.15100 46.97300 43.45500
H  51.13100 48.63100 43.05600
H  47.80200 49.27700 39.78500
H  49.35200 48.81300 39.48800
H  48.79200 51.40200 39.79700
H  50.39000 50.68500 39.80200
H  49.76400 50.90000 41.28900
H  44.01200 49.72700 41.47000
H  42.54100 49.13100 42.43300
H  42.72100 48.87600 40.63200
H  41.58600 43.67500 41.18100
H  40.92900 42.70600 45.55400
H  40.70800 44.38600 46.12300
H  42.28200 43.60700 46.43100

