158

Mg 54.69600 24.55100 44.63700
C  51.95900 26.69000 43.71300
C  53.07700 22.00500 43.04800
C  57.66300 22.91900 44.41300
C  56.24800 27.39900 45.99500
N  52.77200 24.46400 43.53800
C  51.88400 25.41300 43.11600
C  50.84700 24.93400 42.17600
C  50.98500 23.33400 42.37300
C  52.38000 23.22600 43.04000
C  49.81300 22.68700 43.27400
C  51.14800 25.28000 40.62100
C  50.08200 25.97200 39.60900
H  49.70000 25.29000 38.26400
N  55.26100 22.54700 44.08800
C  54.40900 21.65500 43.42100
C  55.24200 20.41400 43.19200
C  56.61100 20.73600 43.55500
C  56.56000 22.12700 44.05600
C  54.62300 19.15800 42.63000
C  57.78300 19.81200 43.45300
O  57.65400 18.73500 42.88000
C  59.13200 20.10500 43.99200
N  56.71400 25.11600 45.15500
C  57.74200 24.25900 44.92600
C  59.06000 24.90600 45.35100
C  58.62300 26.33600 45.79800
C  57.11600 26.28000 45.71400
C  59.87600 24.08500 46.38400
C  59.25700 27.46400 44.94400
C  59.63900 28.61700 45.85100
N  54.22000 26.61500 44.90000
C  54.92900 27.57300 45.58200
C  54.12600 28.78600 45.65200
C  52.97000 28.52900 44.89700
C  53.02700 27.16100 44.50400
C  54.41000 30.02400 46.42900
C  51.78100 29.04200 44.26400
O  51.36100 30.22000 44.14200
C  51.13500 27.86500 43.55800
C  50.76800 28.22900 42.18700
O  51.44400 28.80100 41.32200
O  49.43600 28.14600 42.11700
C  48.68900 28.78500 41.01100
H  52.48100 21.18900 42.63500
H  58.71600 22.63200 44.43300
H  56.72900 28.34000 46.27100
H  49.84400 25.30400 42.38600
H  51.07100 22.79700 41.42800
H  50.14600 22.39300 44.27000
H  49.45800 21.74400 42.85700
H  48.99300 23.40200 43.34200
H  51.44200 24.38900 40.06600
H  52.00800 25.94300 40.71600
H  50.52900 26.95700 39.47700
H  49.17600 26.08000 40.20400
H  53.69600 19.45600 42.14000
H  54.50200 18.40700 43.41100
H  55.28300 18.73500 41.87300
H  59.76200 19.22600 43.85100
H  59.10300 20.48100 45.01400
H  59.46100 20.96400 43.40600
H  59.66900 25.13100 44.47600
H  58.83500 26.49800 46.85500
H  59.27400 23.22900 46.69100
H  60.05700 24.68700 47.27500
H  60.76500 23.65700 45.92000
H  58.58300 27.91600 44.21700
H  60.12400 27.04400 44.43400
H  59.12100 29.53900 45.58600
H  60.70500 28.73300 45.65800
H  59.30700 28.54700 46.88700
H  55.11800 30.61300 45.84700
H  54.85100 29.84000 47.40900
H  53.46700 30.56800 46.47400
H  50.23800 27.92800 44.17400
H  47.94400 28.09100 40.62200
H  49.28900 29.06200 40.14500
H  48.28200 29.69400 41.45500
Mg 47.55900 24.97100 28.83000
C  48.25500 27.23700 31.52300
C  46.54000 22.66800 31.01500
C  47.20300 22.79300 26.29200
C  49.28800 27.16400 26.68400
N  47.60300 24.96700 31.03400
C  47.75900 25.95400 31.90900
C  47.30300 25.56500 33.29800
C  46.80900 24.12100 33.06400
C  47.07700 23.81200 31.64000
C  47.56000 23.10600 34.03200
C  46.28500 26.51000 34.00800
C  46.68700 26.80100 35.47900
H  45.61700 26.86200 36.56900
N  46.85200 23.02700 28.65000
C  46.44100 22.22800 29.68300
C  45.94100 20.95100 29.13500
C  46.14300 21.00600 27.74200
C  46.73300 22.24600 27.51700
C  45.49400 19.89800 30.03100
C  45.89600 19.93100 26.71200
O  45.98800 20.21200 25.49100
C  45.16100 18.59000 27.04800
N  48.20200 24.92800 26.76200
C  47.71700 24.01800 25.93500
C  47.98700 24.40700 24.47100
C  48.60600 25.76000 24.55900
C  48.73500 26.00300 26.08900
C  48.69000 23.27500 23.59700
C  47.82400 27.00000 23.89100
C  47.74800 27.03000 22.37500
N  48.55600 26.86300 29.03500
C  49.17300 27.57600 28.04600
C  49.73000 28.78100 28.56700
C  49.32900 28.76400 29.95700
C  48.65300 27.59500 30.15100
C  50.50000 29.83500 27.78200
C  49.51400 29.43300 31.24200
O  50.08900 30.44200 31.48600
C  48.72500 28.48500 32.29900
C  49.73900 28.10700 33.39300
O  50.32900 27.06100 33.44500
O  49.72500 28.97500 34.39600
C  50.47300 28.60300 35.62300
H  46.05200 21.97200 31.70100
H  47.06200 22.05200 25.50100
H  49.71500 27.84600 25.94500
H  48.18300 25.53100 33.93900
H  45.74000 24.01400 33.24900
H  48.09700 22.46600 33.33200
H  46.75100 22.64700 34.59900
H  48.29200 23.59000 34.67900
H  45.27700 26.10000 33.94300
H  46.28300 27.47200 33.49700
H  47.22000 27.74500 35.59200
H  47.45300 26.14900 35.89800
H  44.44300 19.73300 29.79300
H  45.55400 20.07400 31.10500
H  46.02100 18.97500 29.78800
H  44.33900 18.80500 27.73100
H  45.93700 17.97400 27.50300
H  44.83300 18.03900 26.16700
H  47.01300 24.49600 23.99000
H  49.63300 25.70900 24.19800
H  49.09100 22.56200 24.31800
H  49.45600 23.57000 22.88000
H  47.94500 22.72000 23.02700
H  48.28800 27.92800 24.22500
H  46.79300 27.01000 24.24400
H  48.11100 27.96000 21.93700
H  46.70000 26.87000 22.11800
H  48.40500 26.23100 22.03300
H  50.07600 30.83800 27.73700
H  50.67300 29.65400 26.72100
H  51.46400 29.82200 28.29000
H  47.88400 29.00000 32.76300
H  50.17000 29.38600 36.31800
H  51.53400 28.77500 35.44300
H  50.31400 27.55700 35.88700

