158

Mg 25.29900 1.60600 29.89700
C  27.34600 1.54800 32.81200
C  22.64200 1.77600 32.02500
C  23.36900 1.55000 27.17100
C  28.16100 1.37300 28.00700
N  25.02300 1.77800 32.19700
C  26.00800 1.80700 33.14900
C  25.45300 2.08800 34.54300
C  23.89700 2.20500 34.26500
C  23.84700 1.94700 32.74000
C  22.99000 1.22700 35.02200
C  26.06700 3.35900 35.31300
C  25.46600 3.86300 36.69100
H  26.22300 3.70300 37.95900
N  23.27100 1.60300 29.66600
C  22.30800 1.56600 30.65600
C  20.99800 1.38800 30.06000
C  21.14000 1.46500 28.63200
C  22.64000 1.47400 28.44100
C  19.73400 1.37800 30.82600
C  20.14000 1.60000 27.47100
O  20.45000 1.68900 26.29400
C  18.62000 1.37300 27.81000
N  25.70800 1.22200 27.84500
C  24.78200 1.50700 26.92000
C  25.37800 1.88000 25.58500
C  26.86700 1.79800 25.90600
C  26.91600 1.48000 27.38700
C  24.81200 0.99900 24.39200
C  27.82400 2.86900 25.32200
C  27.62600 4.36500 25.71000
N  27.29200 1.20400 30.26600
C  28.35400 1.15000 29.37100
C  29.57000 1.07400 30.13700
C  29.17800 1.19000 31.49000
C  27.82500 1.29700 31.54700
C  30.91100 0.87600 29.55200
C  29.75100 1.25800 32.74900
O  30.91000 1.14100 33.13000
C  28.53600 1.55500 33.69800
C  28.42400 0.47500 34.74900
O  28.31500 -0.80100 34.59400
O  28.73600 1.07700 35.94600
C  28.88500 0.18100 37.12900
H  21.79700 1.89300 32.70700
H  22.80700 1.72900 26.25200
H  29.08700 1.50500 27.44300
H  25.81800 1.21600 35.08500
H  23.61700 3.24900 34.41100
H  22.58300 0.43300 34.39600
H  22.17700 1.84700 35.40100
H  23.59000 0.80100 35.82600
H  26.14900 4.20600 34.63300
H  27.10800 3.07400 35.46700
H  24.54700 3.34000 36.95700
H  25.30000 4.94000 36.65600
H  19.93900 1.33200 31.89500
H  19.28800 0.43800 30.50200
H  19.08000 2.18600 30.49700
H  18.36700 0.63200 28.56900
H  17.99900 1.16200 26.94000
H  18.23200 2.34500 28.11600
H  24.94500 2.87300 25.46900
H  27.13700 0.82700 25.49100
H  25.64200 0.60900 23.80400
H  24.05900 1.61400 23.89900
H  24.27000 0.14500 24.79900
H  27.77800 2.76500 24.23800
H  28.84700 2.65700 25.63400
H  28.52600 4.95300 25.88700
H  26.91400 4.50700 26.52400
H  27.10200 4.70900 24.81800
H  31.00200 1.56300 28.71100
H  31.15000 -0.17300 29.37800
H  31.60300 1.24600 30.30800
H  28.74700 2.51900 34.16300
H  29.96200 0.09000 37.26400
H  28.45700 -0.81700 37.02500
H  28.52500 0.69700 38.01900
Mg 9.49700 47.58000 25.60900
C  7.57800 47.32600 28.63100
C  11.96700 49.06700 27.48000
C  11.14000 48.04400 22.77700
C  6.61000 46.63100 23.84000
N  9.75300 48.13800 27.86400
C  8.90600 47.83400 28.92400
C  9.47900 48.22300 30.20200
C  10.62500 49.25700 29.70300
C  10.83800 48.80100 28.31800
C  10.16000 50.75500 29.98300
C  9.94100 47.03700 31.10600
C  9.36900 47.08000 32.50900
H  9.41500 45.85400 33.45800
N  11.33300 48.32000 25.25700
C  12.19700 48.84600 26.10200
C  13.37100 49.33600 25.35700
C  13.14300 48.98500 24.02900
C  11.84100 48.40800 23.94900
C  14.57700 49.88100 26.00200
C  14.11600 49.01300 22.83200
O  13.84600 48.57500 21.72000
C  15.44800 49.58700 23.01900
N  8.91100 47.32500 23.63100
C  9.80400 47.52900 22.57500
C  9.16700 47.38100 21.17600
C  7.88700 46.49600 21.52700
C  7.82400 46.81500 23.10300
C  8.77800 48.74100 20.44300
C  8.05400 44.99500 21.32000
C  7.62400 44.42400 19.97300
N  7.50200 47.04600 26.07400
C  6.44700 46.75000 25.25600
C  5.26800 46.57000 25.99800
C  5.64300 46.75400 27.33200
C  7.07200 47.05600 27.34100
C  3.82400 46.20100 25.46200
C  5.21100 46.67700 28.68900
O  4.09500 46.34700 29.12800
C  6.44000 47.13800 29.60900
C  6.77800 46.02900 30.53900
O  7.53000 45.07400 30.35500
O  5.92300 46.12800 31.68100
C  5.75400 45.04200 32.60300
H  12.73000 49.59500 28.05500
H  11.52700 48.24800 21.77700
H  5.68800 46.40500 23.30100
H  8.69000 48.77000 30.71900
H  11.50300 48.98700 30.29000
H  9.41100 50.68600 30.77200
H  9.79600 51.07900 29.00800
H  11.01500 51.31500 30.36200
H  11.01300 47.16900 31.25300
H  9.86500 46.08400 30.58400
H  8.39800 47.57500 32.52200
H  10.09000 47.73600 32.99500
H  14.26200 50.31100 26.95300
H  14.94800 50.79100 25.53100
H  15.35900 49.13600 26.14500
H  16.07400 49.45000 22.13800
H  15.92500 49.13500 23.88900
H  15.22800 50.63900 23.20200
H  9.84100 46.85500 20.50100
H  7.01600 46.95900 21.06400
H  7.72000 48.88900 20.22900
H  9.52000 48.86400 19.65400
H  9.00200 49.56800 21.11700
H  7.55400 44.43500 22.11100
H  9.07600 44.66400 21.50600
H  7.25200 45.32100 19.47900
H  6.80800 43.72900 20.17200
H  8.44500 43.90000 19.48400
H  3.22300 45.42500 25.93400
H  3.81500 45.91300 24.41100
H  3.23800 47.11700 25.38500
H  6.08700 47.99400 30.18400
H  6.01500 45.38100 33.60600
H  6.32200 44.14600 32.35300
H  4.78600 44.54800 32.69100

