158

Mg 17.35900 51.94300 26.35200
C  19.44700 50.73000 28.81100
C  15.08300 52.85800 28.74700
C  15.39100 53.17600 23.83600
C  19.69000 50.91000 23.90300
N  17.28400 51.74800 28.51700
C  18.28300 51.32500 29.30500
C  17.98900 51.49700 30.79400
C  16.46600 51.83600 30.75200
C  16.23300 52.21000 29.28600
C  15.56700 50.60700 31.11900
C  18.91700 52.55600 31.42500
C  18.86500 52.71700 32.95200
H  17.82700 51.92700 33.74900
N  15.47500 52.90900 26.30100
C  14.71500 53.21500 27.39200
C  13.62400 53.96000 26.89700
C  13.63400 54.01200 25.49500
C  14.82000 53.31900 25.15000
C  12.67300 54.57100 27.95800
C  12.69900 54.77600 24.51100
O  13.00300 54.79100 23.38200
C  11.44100 55.54300 25.05300
N  17.47900 51.87900 24.15000
C  16.56000 52.55100 23.38100
C  16.84100 52.32600 21.87600
C  18.32200 51.71800 21.94700
C  18.53400 51.56600 23.46900
C  15.83700 51.34600 21.17600
C  19.34500 52.58500 21.23300
C  19.51200 54.02900 21.87200
N  19.13300 50.89700 26.28400
C  19.96900 50.58000 25.26100
C  21.16500 49.89500 25.80000
C  20.97400 49.92000 27.20500
C  19.74600 50.54800 27.41400
C  22.31600 49.25800 25.03300
C  21.56100 49.57800 28.48300
O  22.62100 48.99800 28.76900
C  20.64300 50.13800 29.55100
C  20.25600 48.96400 30.37400
O  19.71900 47.99100 29.85600
O  20.50900 49.17900 31.68400
C  20.03300 48.09900 32.59000
H  14.34500 53.20500 29.47400
H  14.77600 53.49500 22.99200
H  20.38600 50.51900 23.15800
H  18.26200 50.67000 31.45000
H  16.25300 52.72300 31.34900
H  15.08900 50.83400 32.07200
H  16.23800 49.75500 31.22800
H  14.77200 50.55200 30.37500
H  18.65300 53.56100 31.09800
H  19.92100 52.36800 31.04400
H  18.74400 53.77800 33.17400
H  19.86500 52.36400 33.20400
H  12.61000 54.03500 28.90500
H  11.63700 54.64600 27.63000
H  13.13300 55.52900 28.20000
H  11.84300 56.21200 25.81300
H  10.84700 54.74000 25.49000
H  11.00000 56.11000 24.23300
H  16.85900 53.29600 21.37900
H  18.28500 50.74800 21.45000
H  15.26800 50.81700 21.94000
H  16.38000 50.76200 20.43200
H  15.17800 51.87800 20.49100
H  19.00300 52.65600 20.20100
H  20.33400 52.12600 21.21600
H  18.96300 54.70400 21.21600
H  20.56200 54.31200 21.78700
H  19.18300 54.01700 22.91100
H  22.14200 48.19000 24.90200
H  23.27400 49.50800 25.48800
H  22.47700 49.74000 24.06900
H  21.21300 50.75300 30.24700
H  19.09200 47.64300 32.28400
H  20.07500 48.60900 33.55300
H  20.73000 47.26100 32.57400
Mg 10.17700 47.60800 26.34400
C  8.44800 47.75100 29.48400
C  12.63200 49.43000 27.89800
C  11.72800 47.77800 23.42300
C  7.10600 46.99800 24.77900
N  10.54900 48.37800 28.40800
C  9.71200 48.28600 29.52600
C  10.38500 48.67400 30.85600
C  11.61400 49.52600 30.30500
C  11.58600 49.18200 28.78200
C  11.39800 51.04500 30.46300
C  10.85400 47.40000 31.69300
C  10.27300 47.45500 33.17500
H  10.39300 46.23400 34.06200
N  12.03900 48.23400 25.77700
C  12.90800 48.93500 26.58700
C  14.14000 48.99200 25.92000
C  13.92000 48.56300 24.58400
C  12.49200 48.20400 24.51700
C  15.45800 49.49900 26.50900
C  14.83500 48.19200 23.47400
O  14.52600 47.52200 22.47700
C  16.34600 48.52700 23.56200
N  9.54400 47.42700 24.33300
C  10.34000 47.37700 23.30100
C  9.57700 47.09800 21.95500
C  8.14300 46.75900 22.46200
C  8.23700 47.06500 23.98000
C  9.72100 48.21000 20.93100
C  7.41800 45.44000 22.15000
C  7.97600 44.15700 22.93800
N  8.21200 47.37700 27.02500
C  7.07600 47.04500 26.28600
C  5.95600 46.69400 27.13400
C  6.45700 46.94900 28.43100
C  7.77500 47.41100 28.30400
C  4.64400 46.10700 26.62400
C  6.11800 46.89200 29.75500
O  4.99800 46.68600 30.23600
C  7.42500 47.36000 30.58800
C  7.75500 46.16400 31.38600
O  8.43900 45.22000 31.09400
O  7.01900 46.23800 32.54300
C  6.80800 45.01800 33.39500
H  13.47000 50.00900 28.29000
H  12.21400 47.87300 22.44900
H  6.13900 46.95000 24.27400
H  9.71300 49.24400 31.49800
H  12.55200 49.38100 30.84100
H  10.71100 51.34100 31.25600
H  10.88500 51.48700 29.60900
H  12.34300 51.57800 30.57100
H  11.94200 47.37900 31.63500
H  10.57900 46.51900 31.11200
H  9.22800 47.69600 32.97900
H  10.82100 48.20700 33.74300
H  15.41900 49.76800 27.56500
H  15.76300 50.35800 25.91000
H  16.27300 48.81700 26.26600
H  16.78100 48.38600 22.57300
H  16.81300 47.90500 24.32700
H  16.35000 49.58300 23.82900
H  10.04600 46.16800 21.63500
H  7.50100 47.49100 21.97200
H  10.78000 48.43900 20.80700
H  9.27900 49.10500 21.36700
H  9.19100 47.91900 20.02400
H  7.59800 45.31100 21.08300
H  6.33100 45.39000 22.21900
H  8.52400 44.46300 23.83000
H  8.55200 43.57200 22.22100
H  7.09800 43.55700 23.17500
H  4.75200 45.34700 25.85100
H  4.07900 46.92500 26.17600
H  3.92300 45.79500 27.38000
H  7.20000 48.14200 31.31300
H  5.77100 44.72200 33.24200
H  6.93700 45.31800 34.43500
H  7.52800 44.22700 33.18400

