158

Mg 0.49600 7.57300 26.10300
C  1.36200 9.46900 28.84700
C  0.65000 4.81900 28.25700
C  0.57000 5.52300 23.41300
C  1.31800 10.33800 23.97100
N  1.24900 7.19400 28.33700
C  1.03900 8.14800 29.22900
C  1.07100 7.60600 30.61800
C  1.10800 6.11200 30.38400
C  1.02700 6.01400 28.86300
C  2.33300 5.23700 30.83900
C  -0.16300 8.10600 31.39800
C  0.06900 8.17000 32.90500
H  1.28700 7.37300 33.51800
N  0.27300 5.52700 25.88000
C  0.28000 4.57600 26.88400
C  -0.12700 3.34300 26.30000
C  -0.11300 3.45700 24.89800
C  0.32800 4.85500 24.66100
C  -0.55100 2.18000 27.09000
C  -0.34200 2.36100 23.75400
O  -0.08500 2.53100 22.57500
C  -0.93700 1.15000 24.22200
N  0.97800 7.97600 23.96100
C  0.72200 6.94200 23.11500
C  0.59400 7.50800 21.67900
C  0.68300 9.05100 21.87700
C  1.03100 9.13100 23.31700
C  1.67500 7.02100 20.65500
C  -0.59700 9.81800 21.51300
C  -0.40000 11.01300 20.61200
N  1.12800 9.46800 26.32900
C  1.35300 10.51700 25.37200
C  1.63200 11.76500 26.09300
C  1.65300 11.30500 27.43500
C  1.35500 9.99200 27.54400
C  1.89100 13.17700 25.54200
C  1.78500 11.83100 28.79600
O  1.98000 12.95900 29.22100
C  1.59100 10.62600 29.79600
C  2.73000 10.46200 30.69900
O  3.80700 9.89000 30.46400
O  2.40300 11.11500 31.86500
C  3.44800 10.83400 32.89100
H  0.59800 4.03300 29.01300
H  0.31600 4.87000 22.57500
H  1.41500 11.27000 23.41100
H  2.00500 7.83000 31.13300
H  0.16700 5.69500 30.74400
H  2.79100 4.64900 30.04300
H  1.98200 4.61600 31.66300
H  3.16500 5.89600 31.08700
H  -0.96800 7.37700 31.30800
H  -0.47200 9.01100 30.87500
H  -0.84300 7.78000 33.35700
H  0.04800 9.18500 33.30200
H  -1.49800 1.73000 26.79400
H  -0.61100 2.48500 28.13500
H  0.30400 1.50300 27.09400
H  -1.11900 0.54400 23.33400
H  -1.93100 1.36400 24.61300
H  -0.26200 0.65600 24.92000
H  -0.39500 7.21600 21.32600
H  1.47100 9.45600 21.24300
H  1.37400 6.13000 20.10300
H  2.62200 6.92000 21.18400
H  1.85100 7.76000 19.87400
H  -0.93700 10.26700 22.44700
H  -1.39100 9.16300 21.15400
H  -0.80300 10.87400 19.60900
H  0.66300 11.25000 20.58000
H  -0.91900 11.92400 20.91200
H  2.92100 13.31900 25.21400
H  1.68200 13.96200 26.26900
H  1.25100 13.45600 24.70500
H  0.74800 10.99800 30.37800
H  2.98900 11.22300 33.80000
H  4.37000 11.34300 32.60900
H  3.47500 9.74400 32.90900
Mg 17.16400 51.52900 25.74100
C  18.90800 50.60300 28.49000
C  14.57100 52.66800 27.80600
C  15.29700 51.93600 23.03500
C  19.74900 50.56600 23.71000
N  16.82400 51.68000 27.95900
C  17.70000 51.25300 28.91400
C  17.21700 51.50500 30.28900
C  15.80200 52.14200 30.06600
C  15.67900 52.18200 28.50900
C  14.60900 51.39600 30.74600
C  18.14700 52.30700 31.21800
C  18.23200 51.73000 32.61100
H  17.08000 50.90000 33.20200
N  15.27100 52.28600 25.39100
C  14.35500 52.73600 26.37900
C  13.08200 53.08600 25.74800
C  13.30900 52.96600 24.32200
C  14.62200 52.35600 24.14500
C  11.86300 53.60300 26.53000
C  12.43700 53.39700 23.19400
O  12.77900 53.34000 22.01400
C  11.04500 53.87300 23.47200
N  17.52400 51.46300 23.64800
C  16.56800 51.46300 22.79600
C  16.97800 51.09600 21.36600
C  18.50700 50.88800 21.53200
C  18.64200 51.03900 23.05900
C  16.03400 50.05400 20.72900
C  19.56100 51.92800 20.89500
C  20.80500 51.15800 20.26000
N  18.90000 50.70800 26.00800
C  19.89100 50.40100 25.10200
C  20.98000 49.76700 25.80200
C  20.65300 49.84200 27.10900
C  19.42700 50.48800 27.24400
C  22.05900 48.97000 25.17100
C  20.94800 49.33800 28.39100
O  21.98000 48.75400 28.76700
C  19.79900 49.79400 29.42200
C  19.14100 48.62800 30.04400
O  18.18000 48.00600 29.55900
O  19.79600 48.24500 31.21700
C  19.15300 47.22100 32.11300
H  13.79400 53.04200 28.47600
H  14.70200 52.03900 22.12500
H  20.61500 50.19700 23.15600
H  17.13100 50.50700 30.71700
H  15.70900 53.13100 30.51600
H  13.95000 51.12800 29.91900
H  14.06800 52.08000 31.40000
H  15.03600 50.58600 31.33700
H  17.78500 53.33500 31.20700
H  19.14200 52.28300 30.77300
H  18.34800 52.60000 33.25700
H  19.15600 51.15900 32.70000
H  11.54300 54.61700 26.28900
H  12.08600 53.63700 27.59600
H  11.11600 52.82900 26.35100
H  10.59600 53.96900 22.48400
H  10.96700 54.74600 24.12000
H  10.53900 53.09000 24.03600
H  16.82900 52.02600 20.81700
H  18.70300 49.85900 21.23100
H  15.41600 49.62800 21.52000
H  16.59800 49.24000 20.27400
H  15.38800 50.44600 19.94300
H  19.93500 52.62300 21.64700
H  19.09400 52.57100 20.15000
H  21.69800 51.14400 20.88400
H  21.06900 51.58400 19.29200
H  20.61600 50.14400 19.90800
H  22.35000 49.47900 24.25200
H  21.79200 47.91600 25.10800
H  22.86900 49.03300 25.89700
H  20.12400 50.27800 30.34300
H  18.65600 47.75700 32.92100
H  19.93300 46.61600 32.57700
H  18.51600 46.48200 31.62800

