158

Mg 2.60600 -2.73300 43.91100
C  6.10700 -2.32800 43.54200
C  2.08500 -0.00700 41.93400
C  -0.65500 -3.52000 43.90000
C  3.17800 -5.63500 45.76600
N  3.94900 -1.37500 42.81100
C  5.33500 -1.37000 42.85100
C  5.89300 -0.01200 42.18600
C  4.54700 0.84200 42.08400
C  3.44200 -0.25800 42.20100
C  4.36500 1.88300 43.23200
C  6.59800 -0.41800 40.85000
C  7.89400 0.31600 40.55500
H  8.01300 1.07300 39.22100
N  0.95100 -1.88200 43.00200
C  0.98700 -0.80300 42.21100
C  -0.36700 -0.61000 41.71400
C  -1.24900 -1.49500 42.38700
C  -0.33200 -2.40000 43.15200
C  -0.77600 0.40400 40.67600
C  -2.75100 -1.55300 42.18500
O  -3.23900 -0.76300 41.41200
C  -3.68900 -2.62300 42.73800
N  1.45000 -4.31200 44.78400
C  0.12400 -4.39700 44.64000
C  -0.42600 -5.66100 45.19900
C  0.81800 -6.44000 45.74700
C  1.86000 -5.37800 45.37600
C  -1.49700 -5.41900 46.27800
C  1.01700 -7.86800 45.05000
C  0.47100 -9.13000 45.74500
N  4.31500 -3.78400 44.68400
C  4.34300 -4.91500 45.42700
C  5.73400 -5.20000 45.67800
C  6.50300 -4.24400 44.97000
C  5.54700 -3.38900 44.38100
C  6.24500 -6.32700 46.55500
C  7.82000 -3.71400 44.61500
O  8.89500 -4.15500 45.01800
C  7.62400 -2.50600 43.64700
C  8.33100 -1.25300 44.05500
O  9.32500 -0.78200 43.51600
O  7.72900 -0.66800 45.08000
C  8.20500 0.70800 45.50000
H  1.98300 0.92100 41.36600
H  -1.71700 -3.76900 43.93700
H  3.42100 -6.59700 46.22000
H  6.54000 0.45100 42.93100
H  4.60800 1.37800 41.13700
H  4.95700 1.57500 44.09400
H  3.29400 1.99500 43.40100
H  4.67600 2.88400 42.93300
H  5.85000 -0.19500 40.08800
H  6.82600 -1.48300 40.84600
H  8.69500 -0.42300 40.53800
H  8.17300 0.98400 41.37000
H  -1.22400 -0.14200 39.84600
H  0.09500 0.93700 40.29500
H  -1.49100 1.14900 41.02600
H  -3.79600 -2.60100 43.82300
H  -3.33900 -3.55900 42.30300
H  -4.66600 -2.44200 42.28900
H  -1.00800 -6.21900 44.46500
H  0.89700 -6.52200 46.83100
H  -2.10200 -6.32600 46.29500
H  -2.09600 -4.50900 46.29500
H  -1.08500 -5.42800 47.28600
H  2.03800 -8.04800 44.71100
H  0.40100 -7.76800 44.15600
H  -0.42000 -9.42300 45.19000
H  0.14400 -8.93400 46.76600
H  1.15400 -9.96500 45.90300
H  7.33400 -6.34800 46.60700
H  5.78700 -7.25600 46.21400
H  5.95100 -6.16000 47.59100
H  8.14200 -2.75300 42.72000
H  9.24800 0.59800 45.79500
H  7.62000 1.01800 46.36600
H  8.13400 1.43700 44.69300
Mg 39.82300 10.17100 30.42200
C  41.86800 11.34600 33.02600
C  37.77800 8.77000 32.80900
C  38.19100 8.65400 28.00700
C  42.34400 11.12500 28.16700
N  39.72900 10.16600 32.64500
C  40.65900 10.76100 33.45200
C  40.20400 10.60500 34.88800
C  39.02900 9.58100 34.86100
C  38.85200 9.49900 33.35100
C  39.32000 8.17000 35.54500
C  39.85200 11.95200 35.53300
C  40.49800 12.51700 36.76000
H  39.61700 12.64800 37.96800
N  38.14700 8.91100 30.40600
C  37.48600 8.48300 31.44400
C  36.36900 7.67200 30.96000
C  36.42400 7.57800 29.53900
C  37.60000 8.40300 29.25900
C  35.44700 7.05400 31.95300
C  35.52300 6.86000 28.55100
O  35.60000 6.96100 27.31200
C  34.38200 6.09800 29.07500
N  40.33500 9.79200 28.41400
C  39.40600 9.22100 27.59700
C  39.75800 9.26600 26.07700
C  41.21000 9.93800 26.17400
C  41.33900 10.34200 27.64500
C  39.73000 7.92600 25.26500
C  41.28100 11.10900 25.20000
C  41.12900 12.58600 25.76800
N  41.68300 11.10900 30.50000
C  42.52900 11.50900 29.51000
C  43.50300 12.33300 30.06300
C  43.29700 12.33900 31.44000
C  42.17500 11.50200 31.68700
C  44.69700 12.99800 29.46400
C  43.85600 12.76400 32.75100
O  44.84600 13.36600 32.95700
C  42.86800 12.12700 33.83400
C  43.59700 11.27500 34.88300
O  43.65200 10.06600 34.91300
O  44.07500 12.17000 35.81000
C  44.92000 11.63000 36.92300
H  37.20100 8.26200 33.58500
H  37.51900 8.24100 27.25100
H  43.04200 11.50400 27.41800
H  40.96500 10.21700 35.56500
H  38.11700 9.79500 35.41900
H  40.34400 7.93300 35.83400
H  38.88000 7.31800 35.02600
H  38.74700 8.31700 36.46000
H  38.81000 11.81700 35.82500
H  39.76400 12.76100 34.80900
H  40.86500 13.53000 36.59400
H  41.32300 11.86200 37.03800
H  34.52600 7.63700 31.93600
H  35.75800 6.85700 32.97900
H  35.17700 6.06200 31.59000
H  33.84300 5.77800 28.18400
H  33.83700 6.76900 29.73900
H  34.73300 5.23200 29.63700
H  39.06800 9.98100 25.62800
H  41.95100 9.15000 26.04000
H  39.75100 7.10300 25.98000
H  40.59800 7.75400 24.63000
H  38.85600 7.91600 24.61400
H  40.76100 10.97900 24.25100
H  42.30900 11.06800 24.83900
H  42.06900 13.12600 25.65300
H  40.66800 12.66200 26.75300
H  40.40000 13.12900 25.16700
H  44.84500 13.88800 30.07700
H  44.37000 13.29000 28.46600
H  45.65700 12.48200 29.46400
H  42.44800 12.98700 34.35700
H  44.30800 11.67100 37.82400
H  45.83900 12.19800 37.06900
H  45.17100 10.58600 36.73400

