158

Mg 1.17300 7.91500 25.45800
C  1.97000 9.84300 28.28600
C  1.03400 5.07500 27.37900
C  1.17700 5.98600 22.54100
C  1.59100 10.85900 23.47700
N  1.53400 7.53800 27.60200
C  1.77800 8.49000 28.59200
C  1.58100 7.85400 29.96500
C  1.48500 6.30800 29.64900
C  1.30600 6.28100 28.13800
C  2.75300 5.42200 30.09500
C  0.29500 8.18800 30.77900
C  0.18700 7.79400 32.22200
H  1.22600 6.96400 32.99500
N  1.00100 5.85300 25.04900
C  0.95600 4.81900 25.99400
C  0.99800 3.52400 25.39400
C  0.94000 3.80900 23.97600
C  1.06100 5.33100 23.75700
C  1.15600 2.23200 26.18500
C  0.79600 2.83000 22.82900
O  0.92800 3.09900 21.64100
C  0.52700 1.31400 23.17000
N  1.33800 8.30900 23.38900
C  1.33700 7.39100 22.36400
C  1.48800 7.98900 21.00500
C  1.33400 9.56700 21.20900
C  1.33200 9.60600 22.79600
C  2.96500 7.78200 20.43200
C  -0.03800 10.17100 20.62000
C  -0.09800 11.70800 20.40500
N  1.59700 9.96500 25.72500
C  1.80100 11.03800 24.84900
C  2.20800 12.21100 25.55800
C  2.20800 11.81900 26.89400
C  1.95700 10.42600 26.96600
C  2.33800 13.56700 24.93700
C  2.37500 12.21800 28.27000
O  2.67300 13.29200 28.71400
C  2.08500 11.01000 29.19700
C  3.24900 10.96300 30.12000
O  4.37300 10.56600 29.79900
O  2.86800 11.39400 31.38700
C  4.02600 11.51400 32.30600
H  0.99800 4.22900 28.06800
H  1.01400 5.49500 21.57900
H  1.82600 11.74100 22.87800
H  2.48900 8.10100 30.51500
H  0.53600 5.81300 29.85600
H  3.20500 5.81900 31.00400
H  3.49000 5.56400 29.30400
H  2.45800 4.37900 30.21100
H  -0.52500 7.79700 30.17700
H  0.38600 9.26600 30.91500
H  -0.68200 7.13800 32.26800
H  0.01100 8.63600 32.89100
H  1.55300 1.39200 25.61500
H  0.30000 2.02800 26.82700
H  1.93100 2.50400 26.90100
H  -0.04400 1.02100 24.05200
H  1.51200 0.94900 23.46000
H  0.15300 0.86900 22.24800
H  0.77700 7.55300 20.30300
H  2.16700 10.15000 20.81800
H  3.59900 7.30900 21.18100
H  3.54100 8.66000 20.13900
H  2.78800 7.15100 19.56100
H  -0.78900 9.91600 21.36800
H  -0.20200 9.75400 19.62700
H  -0.23000 11.94900 19.35000
H  0.77400 12.17000 20.86800
H  -0.96700 12.15500 20.88900
H  1.38900 13.66200 24.40900
H  3.12300 13.60400 24.18200
H  2.42800 14.34800 25.69200
H  1.12000 11.16200 29.68100
H  3.99100 12.56500 32.59200
H  5.03300 11.23800 31.99300
H  3.80100 10.92600 33.19600
Mg 48.99900 46.69300 43.45700
C  45.75000 46.96200 42.03500
C  49.21900 43.70000 41.80200
C  52.28200 46.81400 44.01500
C  48.66200 49.96800 44.61000
N  47.67000 45.48900 41.99900
C  46.37000 45.77700 41.54300
C  45.79000 44.74000 40.58100
C  46.91300 43.66200 40.72600
C  48.02900 44.33700 41.58500
C  46.43200 42.15300 41.15700
C  45.29900 45.25400 39.17400
C  44.09000 44.64400 38.43000
H  44.30900 43.78900 37.14600
N  50.52100 45.38200 43.06200
C  50.37500 44.13400 42.45300
C  51.74500 43.49900 42.49000
C  52.57000 44.36800 43.25300
C  51.80800 45.60500 43.47400
C  51.95200 42.06100 42.04100
C  53.97200 43.91600 43.68900
O  54.48500 42.84600 43.35800
C  54.85000 44.91500 44.57000
N  50.21700 48.15800 44.36400
C  51.58200 47.96300 44.42200
C  52.32900 49.27500 44.98100
C  51.09700 50.16800 45.37600
C  49.86100 49.39400 44.71700
C  53.36300 48.96300 46.02400
C  51.20300 51.66300 44.85800
C  50.97100 52.72300 45.93000
N  47.58300 48.24000 43.27100
C  47.55500 49.42900 43.96200
C  46.19600 49.92900 44.02000
C  45.42000 49.00900 43.18700
C  46.35100 48.05400 42.75500
C  45.70500 51.17100 44.69200
C  44.10600 48.67300 42.72500
O  43.03500 49.17400 42.98600
C  44.41800 47.55700 41.66000
C  43.30700 46.54700 41.59100
O  43.09100 45.78700 42.46500
O  42.40800 46.78500 40.63100
C  41.15900 46.01500 40.57300
H  49.32500 42.69000 41.40100
H  53.36700 46.94000 44.03900
H  48.55000 50.96900 45.03100
H  44.83700 44.45400 41.02600
H  47.37200 43.54800 39.74400
H  47.00900 41.86400 42.03600
H  46.76800 41.52200 40.33400
H  45.38100 41.89200 41.27700
H  46.12300 44.98900 38.51200
H  45.26400 46.34400 39.15300
H  43.58700 45.53800 38.06000
H  43.36200 44.17200 39.08900
H  52.47800 42.09300 41.08700
H  51.07700 41.41000 42.03900
H  52.52200 41.51300 42.79100
H  54.18000 45.33400 45.32100
H  55.42300 45.55000 43.89400
H  55.49200 44.29500 45.19500
H  52.80100 49.69200 44.09100
H  51.02400 50.13000 46.46300
H  53.63200 47.90700 46.02200
H  53.02600 49.09400 47.05200
H  54.28200 49.50300 45.79400
H  50.38800 51.68700 44.13300
H  52.06600 51.87600 44.22700
H  49.90000 52.91400 45.86000
H  51.50400 53.67100 46.00600
H  51.08600 52.14100 46.84500
H  44.63600 51.17800 44.90600
H  46.01000 52.00000 44.05300
H  46.26100 51.25500 45.62600
H  44.43300 47.87300 40.61700
H  40.87500 45.60500 41.54200
H  41.11600 45.17000 39.88500
H  40.37000 46.70400 40.27300

