158

Mg -1.48600 16.90300 26.02200
C  -1.74900 14.68000 28.73900
C  -1.89600 19.55000 28.25600
C  -1.71800 19.06100 23.35700
C  -1.66200 14.20900 23.80700
N  -1.77700 17.07900 28.28000
C  -1.74000 16.02200 29.15900
C  -1.63600 16.55500 30.54800
C  -1.97500 18.06600 30.43900
C  -1.93900 18.28200 28.90100
C  -3.37100 18.47000 30.94700
C  -0.22100 16.35400 31.20800
C  -0.07000 15.93500 32.71900
H  -1.11800 16.20200 33.83500
N  -1.62900 19.01100 25.83900
C  -1.85900 19.92600 26.87600
C  -1.91000 21.28100 26.32600
C  -1.70800 21.17100 24.85800
C  -1.68800 19.65500 24.63700
C  -2.07800 22.55400 27.13700
C  -1.51100 22.19600 23.79900
O  -1.33400 21.91500 22.66500
C  -1.48900 23.68000 24.10900
N  -1.78400 16.69300 23.87800
C  -1.72600 17.76700 22.99500
C  -1.88900 17.22000 21.53600
C  -1.58700 15.66500 21.74800
C  -1.70100 15.47100 23.22100
C  -3.31900 17.49200 20.93700
C  -0.18300 15.07000 21.23700
C  1.12100 15.45100 22.01600
N  -1.55200 14.88400 26.21000
C  -1.64800 13.91000 25.19200
C  -1.66400 12.63800 25.88000
C  -1.58300 12.84600 27.19600
C  -1.66000 14.22700 27.39700
C  -1.81800 11.30000 25.18500
C  -1.55300 12.22800 28.52300
O  -1.57200 11.05400 28.82800
C  -1.95200 13.39100 29.49100
C  -1.23300 13.17100 30.79000
O  -0.04500 13.15000 30.92700
O  -2.15800 12.84800 31.74200
C  -1.69300 12.34000 33.02200
H  -1.76300 20.48300 28.80800
H  -1.96300 19.75800 22.55200
H  -1.89100 13.44000 23.06600
H  -2.35800 16.01500 31.16100
H  -1.24500 18.66500 30.98400
H  -3.82200 19.34600 30.48100
H  -3.17500 18.71800 31.99000
H  -4.07400 17.63900 31.00100
H  0.38900 17.24500 31.05900
H  0.36000 15.60300 30.67400
H  0.80500 16.44200 33.12600
H  -0.03300 14.84600 32.75600
H  -2.42900 22.30800 28.13900
H  -2.87400 23.11400 26.64800
H  -1.10600 23.04200 27.07400
H  -0.61500 23.79000 24.75000
H  -2.39600 24.06200 24.57900
H  -1.28500 24.38400 23.30200
H  -1.12600 17.61700 20.86700
H  -2.35700 15.05800 21.27200
H  -4.06000 17.80500 21.67300
H  -3.63800 16.56700 20.45700
H  -3.19800 18.28200 20.19700
H  -0.13000 15.57700 20.27300
H  -0.27900 13.98800 21.14600
H  1.46700 14.50900 22.44100
H  0.79500 16.16500 22.77200
H  1.94500 15.76200 21.37300
H  -2.73500 11.24200 24.59900
H  -1.86900 10.60000 26.02000
H  -0.93400 11.05300 24.59600
H  -3.01300 13.34200 29.73900
H  -1.41800 11.29100 32.91100
H  -2.41700 12.31300 33.83600
H  -0.85200 12.92900 33.38900
Mg 47.18000 14.59900 27.65500
C  44.94000 14.74700 30.43700
C  49.08400 16.85300 29.00300
C  48.93300 14.67600 24.67400
C  44.56600 13.06300 25.81300
N  46.90500 15.77500 29.47500
C  46.04400 15.60900 30.50100
C  46.56000 16.27300 31.78800
C  47.72200 17.20400 31.29100
C  47.99700 16.48200 29.88500
C  47.33800 18.71300 31.10400
C  47.12600 15.29500 32.96600
C  46.94800 15.79100 34.46700
H  47.98100 15.58800 35.56000
N  48.83900 15.67200 26.96600
C  49.62200 16.48900 27.76300
C  50.74700 16.98700 27.04200
C  50.67600 16.36600 25.69900
C  49.42500 15.49300 25.72600
C  51.76800 17.88500 27.63300
C  51.58700 16.56900 24.53400
O  51.44500 15.92100 23.55800
C  52.63200 17.60800 24.58800
N  46.74700 14.07800 25.54300
C  47.71700 14.08600 24.54800
C  47.19900 13.57200 23.24500
C  45.92100 12.81900 23.68200
C  45.73700 13.34800 25.14300
C  47.03000 14.78100 22.22700
C  45.95100 11.22800 23.60600
C  46.89700 10.47300 24.55100
N  45.22900 13.90400 28.06200
C  44.30700 13.34300 27.18900
C  43.13900 12.99300 27.92500
C  43.33400 13.48900 29.29500
C  44.58600 14.06700 29.27100
C  41.93600 12.30000 27.39900
C  42.84700 13.62500 30.68200
O  41.78900 13.22700 31.07300
C  43.94300 14.38400 31.52400
C  43.26800 15.58400 32.04100
O  42.74700 16.39400 31.31800
O  43.48900 15.65000 33.35400
C  42.97300 16.91200 34.05700
H  49.82400 17.57000 29.36500
H  49.62300 14.55400 23.83700
H  43.88800 12.43400 25.23200
H  45.86900 16.99200 32.22800
H  48.62800 17.20200 31.89800
H  46.45900 19.08000 31.63400
H  47.18600 18.93900 30.04900
H  48.14700 19.36100 31.44200
H  48.18100 15.15300 32.73100
H  46.62100 14.32900 32.97900
H  46.14200 15.18600 34.88300
H  46.59800 16.82300 34.47300
H  51.68100 17.95500 28.71700
H  51.67100 18.89700 27.24000
H  52.77900 17.52600 27.44200
H  53.38100 17.53000 25.37500
H  52.15400 18.56300 24.80800
H  53.14100 17.54900 23.62600
H  47.92500 12.81800 22.94100
H  44.97100 13.00500 23.18100
H  47.13800 15.78200 22.64500
H  46.07400 14.62000 21.73000
H  47.83000 14.76100 21.48800
H  46.39100 11.01200 22.63200
H  44.92100 10.88100 23.52200
H  47.55900 9.80000 24.00500
H  46.43800 9.92600 25.37300
H  47.63600 11.10800 25.04100
H  42.22100 11.75700 26.49700
H  41.12500 12.97400 27.12500
H  41.51900 11.61400 28.13600
H  44.25200 13.71100 32.32500
H  42.27800 17.53400 33.49300
H  43.90300 17.40700 34.33500
H  42.43100 16.53200 34.92400

