158

Mg 44.28900 4.10700 48.20800
C  42.06700 6.84700 47.69000
C  41.43900 2.04100 47.93600
C  46.31100 1.39800 48.00400
C  47.01100 6.24200 48.02300
N  42.01800 4.42300 48.03200
C  41.34000 5.65500 47.74400
C  39.85000 5.47100 47.54400
C  39.74500 3.94500 47.69800
C  41.17400 3.38500 47.91300
C  38.71500 3.49300 48.77800
C  39.45200 5.92800 46.12100
C  37.99200 6.44100 46.07500
H  37.28700 6.37500 44.71500
N  43.96500 2.02400 48.05200
C  42.73900 1.43400 47.91600
C  42.97500 -0.03600 47.71600
C  44.40200 -0.17700 47.62500
C  44.92800 1.09400 47.92500
C  41.96400 -1.15000 47.51700
C  45.11400 -1.49400 47.33200
O  44.58600 -2.61800 47.31600
C  46.57900 -1.55700 46.96800
N  46.32200 3.85200 47.77100
C  46.94200 2.64100 47.98900
C  48.41600 2.82900 48.21200
C  48.67400 4.32800 47.72200
C  47.25800 4.81200 47.92300
C  48.80100 2.46000 49.71800
C  49.26900 4.58400 46.33500
C  50.73700 5.09800 46.34000
N  44.56400 6.17500 48.03100
C  45.71700 6.91800 47.98500
C  45.42300 8.32400 48.03300
C  43.99600 8.34600 47.87100
C  43.48700 7.01500 47.85100
C  46.37800 9.42400 48.32900
C  42.80200 9.19500 47.76600
O  42.73900 10.42000 47.74000
C  41.52000 8.27900 47.66600
C  40.63900 8.60000 48.81200
O  40.84100 8.30700 49.96900
O  39.55600 9.35100 48.37000
C  38.55100 9.72200 49.40600
H  40.51400 1.46500 47.86200
H  47.03700 0.58400 48.06600
H  47.91800 6.84500 47.94100
H  39.23600 5.94800 48.30800
H  39.33900 3.35900 46.87300
H  37.89700 4.21400 48.79600
H  39.20500 3.62700 49.74300
H  38.40000 2.45100 48.72300
H  39.44800 5.00000 45.54900
H  40.06300 6.69400 45.64200
H  37.98500 7.49100 46.36900
H  37.31400 5.98500 46.79700
H  41.86700 -1.45200 46.47400
H  40.99100 -0.71300 47.74100
H  42.13000 -1.98300 48.20000
H  47.09400 -1.54700 47.92800
H  46.91100 -0.70400 46.37600
H  46.73100 -2.42900 46.33100
H  48.86500 2.08700 47.55200
H  49.36700 4.66300 48.49400
H  47.89000 2.46400 50.31800
H  49.45500 3.23800 50.11100
H  49.26100 1.47200 49.72600
H  48.66700 5.38200 45.90100
H  49.25800 3.71700 45.67400
H  50.80300 6.18400 46.39900
H  51.06500 4.82400 45.33700
H  51.39300 4.61800 47.06600
H  46.57900 9.42600 49.40000
H  46.08200 10.43700 48.05900
H  47.28700 9.19400 47.77400
H  41.03300 8.62900 46.75600
H  37.69200 10.01100 48.80000
H  39.01300 10.52700 49.97800
H  38.31300 8.87300 50.04700
Mg 9.75000 47.82000 26.51700
C  8.08500 47.61200 29.48300
C  12.45000 48.99200 28.37400
C  11.30100 48.24800 23.54900
C  6.60700 47.45500 24.74800
N  10.20600 48.23400 28.70800
C  9.32400 48.15000 29.71500
C  9.93500 48.67800 31.03400
C  11.09300 49.59400 30.56900
C  11.30100 48.89200 29.12700
C  10.84100 51.22000 30.58900
C  10.35500 47.49200 31.93300
C  9.88600 47.55500 33.38600
H  9.98400 46.19200 34.11800
N  11.68400 48.32100 26.07900
C  12.60800 48.76900 27.00600
C  13.82100 48.74400 26.31700
C  13.51200 48.51200 24.92600
C  12.07600 48.37300 24.76700
C  15.17400 48.97800 27.03200
C  14.47900 48.50600 23.73100
O  14.17900 48.19600 22.60700
C  15.91300 48.66900 23.92400
N  9.01300 47.90100 24.39200
C  9.87400 48.03000 23.40800
C  9.21300 48.06700 22.01000
C  7.68200 47.79400 22.42200
C  7.74400 47.61800 23.97600
C  9.45500 49.30900 21.03700
C  7.01200 46.62100 21.65900
C  6.57300 46.99000 20.20200
N  7.74700 47.46700 26.99600
C  6.64500 47.37300 26.22900
C  5.51900 47.19600 27.09700
C  5.99400 47.27600 28.39400
C  7.38500 47.46400 28.22700
C  4.14800 46.97000 26.58300
C  5.71100 47.17700 29.80500
O  4.69800 46.99300 30.43600
C  7.06000 47.43100 30.50900
C  7.27800 46.18500 31.28300
O  7.73500 45.11700 30.92400
O  6.75900 46.31200 32.51400
C  6.42100 45.07800 33.28200
H  13.32700 49.33700 28.92700
H  11.81800 48.34000 22.59200
H  5.63600 47.30500 24.27200
H  9.18200 49.24600 31.58000
H  11.94400 49.51700 31.24600
H  10.98800 51.40000 29.52400
H  11.76600 51.53600 31.07300
H  9.93300 51.56900 31.08100
H  11.44300 47.46200 31.97800
H  10.18400 46.51300 31.48400
H  8.85500 47.90200 33.32900
H  10.33900 48.40300 33.90000
H  15.27300 48.77400 28.09800
H  15.46500 49.95400 26.64300
H  15.84200 48.18100 26.70300
H  16.43100 48.77800 22.97100
H  16.19600 47.74700 24.43100
H  16.29800 49.49800 24.51900
H  9.52800 47.21600 21.40600
H  7.07500 48.69000 22.29300
H  8.52300 49.72400 20.65400
H  10.02300 49.03300 20.14900
H  10.00800 50.06800 21.59100
H  6.09800 46.37600 22.19900
H  7.65200 45.74400 21.76000
H  6.71700 48.05200 20.00200
H  5.54000 46.75900 19.94100
H  7.13800 46.37500 19.50200
H  4.07000 46.36400 25.68100
H  3.61700 47.91100 26.43800
H  3.48600 46.48600 27.30000
H  6.93800 48.21600 31.25500
H  6.87300 45.13200 34.27200
H  6.65000 44.11100 32.83400
H  5.34500 45.12600 33.44500

