158

Mg -1.55100 35.13500 26.06100
C  -2.89300 33.41300 28.70400
C  -0.36100 37.55100 28.42100
C  -0.28300 36.93400 23.63400
C  -3.11800 32.94200 23.88200
N  -1.57500 35.39200 28.35700
C  -2.12800 34.47000 29.15800
C  -1.93000 34.82500 30.68100
C  -1.30700 36.29300 30.55500
C  -1.05200 36.48900 29.01500
C  -2.19000 37.42200 31.15100
C  -1.19100 33.77200 31.53300
C  -1.98400 33.05900 32.71900
H  -1.30600 32.96200 34.06500
N  -0.43700 36.97100 26.04200
C  -0.01500 37.80700 27.05900
C  0.81600 38.75600 26.53300
C  0.79200 38.62300 25.15000
C  0.06900 37.45500 24.89800
C  1.47100 39.76800 27.53600
C  1.52100 39.49500 24.16100
O  1.63900 39.14000 23.05100
C  2.26800 40.72200 24.63000
N  -1.86800 35.12700 24.05000
C  -1.05700 35.85300 23.24500
C  -1.43200 35.62600 21.79700
C  -2.27700 34.28900 21.81500
C  -2.44000 34.09400 23.35500
C  -2.16100 36.77700 21.12500
C  -1.61600 33.12400 20.93800
C  -0.36300 32.46200 21.41700
N  -2.68800 33.43100 26.17100
C  -3.27100 32.66400 25.25900
C  -4.03700 31.60000 25.86900
C  -3.92200 31.81400 27.20800
C  -3.08100 33.01200 27.33900
C  -4.80200 30.57300 25.21500
C  -4.42400 31.49300 28.52200
O  -5.23600 30.63000 28.88400
C  -3.64300 32.39800 29.54500
C  -4.67800 32.98800 30.39900
O  -5.33100 33.99100 30.26400
O  -4.76400 32.16000 31.48200
C  -5.81800 32.50200 32.47900
H  0.03100 38.16700 29.23300
H  0.17400 37.40200 22.76000
H  -3.62100 32.30800 23.14900
H  -2.93700 34.89700 31.09300
H  -0.32700 36.28800 31.03100
H  -2.53600 38.07400 30.34900
H  -1.68800 38.01800 31.91400
H  -3.07700 37.03700 31.65500
H  -0.29100 34.23300 31.93900
H  -0.93000 32.98100 30.83000
H  -2.21600 32.10900 32.23800
H  -2.89600 33.63200 32.88700
H  2.15900 40.52600 27.16200
H  1.86800 39.27800 28.42500
H  0.69700 40.36100 28.02500
H  1.58800 41.36300 25.19000
H  2.77600 41.26200 23.83100
H  3.10100 40.29300 25.18600
H  -0.48500 35.39100 21.31100
H  -3.25800 34.54300 21.41300
H  -2.37700 37.61900 21.78200
H  -3.12900 36.52100 20.69300
H  -1.42800 37.02700 20.35800
H  -1.38800 33.50000 19.94100
H  -2.29000 32.30700 20.67900
H  0.04500 32.93900 22.30800
H  0.34800 32.65700 20.61500
H  -0.47100 31.38700 21.56400
H  -5.70400 30.97500 24.75200
H  -4.99500 29.82900 25.98700
H  -4.10000 30.22200 24.45900
H  -2.96400 31.80600 30.15800
H  -5.33300 32.68100 33.43800
H  -6.40700 31.58700 32.54700
H  -6.52300 33.26400 32.14700
Mg -4.89400 25.66400 25.42300
C  -3.39800 27.23600 28.38500
C  -6.29800 23.31000 27.64800
C  -5.95800 23.89200 22.88900
C  -2.90300 27.61400 23.55500
N  -4.93700 25.43000 27.76100
C  -4.35400 26.18200 28.75900
C  -4.74400 25.59200 30.19900
C  -5.74700 24.47200 29.83700
C  -5.56200 24.32900 28.30500
C  -5.36500 23.08600 30.45000
C  -5.23600 26.70100 31.16800
C  -6.31400 26.31000 32.24500
H  -5.95400 25.11000 33.12900
N  -6.15700 23.99400 25.31000
C  -6.56900 23.16300 26.26800
C  -7.45400 22.13500 25.77000
C  -7.40500 22.31100 24.41900
C  -6.49700 23.41900 24.09600
C  -8.16300 21.08500 26.66900
C  -8.15500 21.52700 23.27700
O  -7.99700 21.76000 22.06400
C  -9.12200 20.35900 23.66000
N  -4.46900 25.67800 23.54300
C  -5.05600 24.93100 22.55300
C  -4.80200 25.42400 21.16800
C  -3.92900 26.68700 21.39800
C  -3.70400 26.62400 22.96900
C  -4.20100 24.42900 20.20600
C  -4.58000 28.09800 21.06900
C  -3.77700 29.09900 20.25900
N  -3.36100 27.12400 25.84800
C  -2.63900 27.84100 24.93400
C  -1.86400 28.83700 25.60200
C  -2.10200 28.60800 26.99600
C  -3.05400 27.57100 27.10000
C  -0.90800 29.78600 24.89700
C  -1.73400 29.08800 28.25800
O  -0.94400 29.96900 28.68900
C  -2.59100 28.18300 29.26300
C  -1.66500 27.55500 30.19400
O  -0.85700 26.75200 29.88600
O  -1.92500 27.97700 31.55400
C  -1.16100 27.29400 32.61300
H  -6.73200 22.64100 28.39400
H  -6.28000 23.29400 22.03300
H  -2.31700 28.17400 22.82200
H  -3.82100 25.19700 30.62300
H  -6.80300 24.62000 30.06100
H  -5.17500 22.35700 29.66200
H  -6.21000 22.79200 31.07200
H  -4.55600 23.06300 31.17900
H  -5.65400 27.57700 30.67300
H  -4.38400 27.12500 31.69900
H  -7.29100 26.28500 31.76100
H  -6.40400 27.16800 32.91100
H  -8.37100 20.21500 26.04700
H  -9.06900 21.61700 26.96300
H  -7.48000 20.86100 27.48800
H  -9.93300 20.68600 24.31000
H  -8.45500 19.59600 24.06100
H  -9.63800 20.04500 22.75200
H  -5.77300 25.67100 20.73900
H  -2.95800 26.74100 20.90500
H  -3.88500 23.44300 20.54700
H  -3.29600 24.82000 19.74000
H  -4.88800 24.14300 19.41000
H  -4.74700 28.80700 21.87900
H  -5.50900 27.94800 20.51900
H  -2.74000 28.79100 20.39400
H  -3.81500 30.08900 20.71600
H  -4.10400 29.12000 19.22000
H  -1.43200 30.27900 24.07800
H  0.06100 29.34900 24.65600
H  -0.71800 30.55400 25.64700
H  -3.30400 28.86300 29.72800
H  -0.24700 26.78900 32.30200
H  -1.84700 26.56100 33.03700
H  -0.82200 27.97100 33.39700

