158

Mg -1.17100 17.80000 26.25600
C  -1.59400 15.28400 28.68700
C  -1.88900 20.09600 28.62700
C  -0.95200 20.08400 23.90600
C  -1.16700 15.26900 23.85600
N  -1.53400 17.68800 28.43900
C  -1.61800 16.57000 29.21700
C  -1.78100 16.91500 30.66700
C  -2.20000 18.46900 30.58000
C  -1.94100 18.74400 29.11400
C  -3.63400 18.99100 31.03800
C  -0.64100 16.50300 31.72000
C  -0.53400 17.37000 32.99400
H  -0.26600 16.78300 34.32900
N  -1.25000 19.84000 26.28000
C  -1.51100 20.59100 27.38600
C  -1.48800 21.97900 26.92600
C  -1.13000 21.96800 25.51100
C  -1.09800 20.58800 25.14200
C  -1.87000 23.23600 27.86000
C  -0.97600 23.11500 24.62300
O  -0.67000 22.93600 23.42200
C  -1.10600 24.54600 25.15200
N  -1.02700 17.69500 24.18700
C  -0.97300 18.80600 23.46100
C  -1.03800 18.48900 21.87900
C  -0.96300 16.92900 21.89700
C  -1.09300 16.59800 23.42500
C  -2.24700 19.16300 21.21200
C  0.18800 16.30000 21.14600
C  1.59500 16.24900 21.70200
N  -1.36400 15.69700 26.25200
C  -1.33700 14.81800 25.20200
C  -1.58100 13.47500 25.67500
C  -1.63300 13.62800 27.06200
C  -1.47800 15.00500 27.33000
C  -1.69800 12.33400 24.80400
C  -1.81300 12.88600 28.27000
O  -1.82900 11.65700 28.43300
C  -1.86400 13.92800 29.41200
C  -0.83800 13.51200 30.35900
O  0.33500 13.72400 30.26400
O  -1.40900 12.94200 31.46100
C  -0.58000 12.47000 32.53600
H  -2.23300 20.81400 29.37400
H  -0.99300 20.71500 23.01500
H  -1.24700 14.47500 23.11100
H  -2.72200 16.41900 30.90500
H  -1.56000 19.11500 31.18100
H  -3.52200 19.78800 31.77300
H  -4.12600 18.21100 31.61700
H  -4.27500 19.28900 30.20800
H  0.25000 16.32600 31.11600
H  -0.99600 15.50400 31.97100
H  -1.51000 17.84000 33.11600
H  0.25800 18.08900 32.78400
H  -2.67200 23.82300 27.41200
H  -1.01100 23.89700 27.96900
H  -2.01400 22.91500 28.89200
H  -1.02600 25.31600 24.38500
H  -0.32300 24.53700 25.91100
H  -2.10200 24.79400 25.51700
H  -0.17200 18.99400 21.45100
H  -1.86200 16.60900 21.36900
H  -2.92200 19.63600 21.92600
H  -2.74500 18.43200 20.57400
H  -1.81400 19.98500 20.64200
H  0.24400 16.89200 20.23300
H  -0.11900 15.31300 20.80200
H  1.56200 16.67600 22.70400
H  2.39000 16.70200 21.11000
H  1.82200 15.18800 21.80500
H  -1.70400 11.39900 25.36500
H  -0.93400 12.39000 24.02900
H  -2.71400 12.38100 24.41200
H  -2.81500 13.87300 29.94400
H  -1.23000 11.98100 33.26200
H  -0.06100 13.33800 32.94100
H  0.10900 11.68300 32.23000
Mg -4.89400 25.57400 26.29800
C  -4.23900 27.20600 29.34700
C  -6.56300 23.15800 28.07800
C  -5.88300 24.29200 23.42200
C  -3.01100 27.95000 24.69700
N  -5.22900 25.17500 28.51400
C  -5.00800 26.03300 29.54300
C  -5.62500 25.62200 30.83600
C  -6.19600 24.21200 30.43900
C  -5.91000 24.04900 28.93200
C  -5.63400 22.93500 31.20200
C  -6.72200 26.64800 31.38500
C  -6.83600 26.72900 32.92400
H  -6.09400 25.68700 33.77900
N  -5.97000 23.96500 25.86100
C  -6.59700 23.06200 26.69300
C  -7.45000 22.14500 26.00400
C  -7.39200 22.53600 24.62700
C  -6.45100 23.62500 24.52700
C  -8.26500 21.10600 26.70900
C  -8.14000 21.91200 23.57700
O  -8.06500 22.35400 22.45500
C  -8.89700 20.67300 23.72700
N  -4.22300 25.93900 24.34300
C  -4.89900 25.32500 23.31800
C  -4.32600 25.85300 21.97700
C  -3.66600 27.23800 22.37900
C  -3.71100 27.05100 23.91500
C  -3.40000 24.80000 21.35500
C  -4.25600 28.55800 21.77900
C  -3.62700 29.15700 20.52800
N  -3.81800 27.23200 26.85600
C  -3.08300 28.11800 26.08900
C  -2.49400 29.15600 26.90400
C  -2.93500 28.82300 28.14100
C  -3.78200 27.66300 28.09200
C  -1.63800 30.27800 26.56000
C  -2.88000 29.25900 29.60200
O  -2.34600 30.19200 30.17600
C  -3.79300 28.19800 30.41200
C  -2.83900 27.57900 31.39400
O  -2.25700 26.51400 31.26100
O  -2.75600 28.36400 32.46200
C  -1.92600 27.77500 33.51400
H  -7.04900 22.42300 28.72400
H  -6.13700 23.82500 22.46800
H  -2.50900 28.75300 24.15300
H  -4.83600 25.45600 31.57000
H  -7.26400 24.27700 30.64800
H  -6.42300 22.66700 31.90400
H  -4.79200 23.21700 31.83400
H  -5.25300 22.17100 30.52500
H  -7.73100 26.46400 31.01700
H  -6.50700 27.66100 31.04400
H  -7.87400 26.80200 33.24900
H  -6.47800 27.72100 33.19700
H  -7.79100 20.14700 26.49600
H  -9.27100 21.02400 26.29700
H  -8.48900 21.22100 27.76900
H  -9.11500 20.21300 22.76300
H  -9.87400 20.87300 24.16700
H  -8.24300 20.01200 24.29500
H  -5.10000 26.00100 21.22500
H  -2.60800 27.25000 22.12100
H  -2.38100 25.18300 21.41100
H  -3.55600 24.58100 20.29800
H  -3.28800 23.96500 22.04700
H  -4.09000 29.23200 22.62000
H  -5.33400 28.41700 21.70600
H  -3.17500 30.12700 20.73500
H  -4.27000 29.37400 19.67500
H  -2.85500 28.46300 20.19700
H  -1.63300 30.36000 25.47300
H  -0.67300 30.04000 27.00800
H  -2.08700 31.16400 27.00900
H  -4.64600 28.71600 30.84900
H  -1.77000 28.59000 34.22000
H  -0.92300 27.55500 33.15000
H  -2.46000 26.89300 33.86800

