158

Mg 25.54100 -8.77000 47.62000
C  27.62400 -6.27400 46.32400
C  23.10500 -7.87900 45.29200
C  23.67100 -11.42100 48.72600
C  28.29100 -9.79400 49.59200
N  25.43600 -7.27800 45.98000
C  26.37900 -6.34400 45.64400
C  25.86500 -5.31500 44.61900
C  24.38800 -5.78500 44.47900
C  24.27300 -7.06200 45.23900
C  23.31900 -4.75200 44.85300
C  26.76300 -5.28400 43.30400
C  27.25100 -3.92300 42.87900
H  26.82700 -3.38200 41.47800
N  23.65100 -9.57100 47.13200
C  22.80200 -9.00000 46.16200
C  21.59000 -9.75600 46.15200
C  21.74800 -10.78200 47.10800
C  23.04700 -10.66000 47.70900
C  20.42200 -9.60300 45.26300
C  20.74100 -11.98800 47.36700
O  19.58600 -11.96300 46.91600
C  21.24800 -13.15700 48.10700
N  25.97500 -10.39900 48.69400
C  24.96500 -11.23300 49.19600
C  25.52700 -12.10400 50.36200
C  26.98100 -11.75300 50.49700
C  27.11700 -10.57100 49.52300
C  24.71000 -11.95200 51.64700
C  28.07900 -12.84200 50.32400
C  28.69800 -12.98300 48.91800
N  27.53400 -8.26600 47.89500
C  28.51900 -8.69100 48.70800
C  29.71900 -7.90800 48.55600
C  29.34100 -6.89600 47.68900
C  28.06800 -7.18800 47.22000
C  31.05600 -7.89500 49.29300
C  29.74300 -5.61300 47.18100
O  30.70100 -4.95600 47.46000
C  28.65300 -5.22900 46.19700
C  28.21900 -3.87700 46.53100
O  27.43500 -3.51800 47.37900
O  28.72300 -3.04800 45.56800
C  28.37400 -1.63300 45.71100
H  22.26100 -7.61100 44.65300
H  23.21500 -12.18700 49.35700
H  29.07200 -10.20300 50.23700
H  25.92600 -4.35500 45.13100
H  24.15000 -6.09200 43.46100
H  23.69000 -3.87100 45.37700
H  22.50100 -5.13600 45.46300
H  22.93500 -4.31500 43.93100
H  26.06200 -5.63000 42.54500
H  27.57200 -6.01400 43.29600
H  28.33900 -3.98400 42.86100
H  27.02700 -3.10600 43.56500
H  20.44400 -8.63800 44.75800
H  19.49200 -9.72700 45.81700
H  20.47200 -10.34000 44.46200
H  22.17100 -13.47100 47.62100
H  20.57400 -14.00200 47.96500
H  21.31600 -12.86800 49.15500
H  25.39600 -13.13900 50.04500
H  27.22300 -11.42200 51.50700
H  24.44900 -12.98400 51.88500
H  23.79200 -11.39900 51.44900
H  25.21500 -11.59600 52.54500
H  27.61800 -13.79300 50.58900
H  28.90100 -12.55500 50.98000
H  28.18700 -12.33100 48.21000
H  28.55000 -14.04900 48.74200
H  29.77200 -12.80000 48.90100
H  31.89100 -7.90600 48.59200
H  31.10800 -8.84200 49.83100
H  31.06100 -7.03000 49.95500
H  29.04800 -5.12500 45.18600
H  28.27100 -1.27300 46.73500
H  27.49300 -1.38400 45.12000
H  29.16500 -1.00900 45.29500
Mg -1.90700 34.39900 26.66700
C  -3.30500 32.43900 29.32300
C  -0.23200 36.18600 28.98000
C  -1.46900 36.78000 24.29300
C  -3.89100 32.70300 24.43000
N  -1.98000 34.31300 28.92300
C  -2.49500 33.42600 29.79200
C  -2.03500 33.70100 31.21300
C  -1.08600 34.97100 30.99200
C  -1.08900 35.15900 29.52300
C  -1.44000 36.18200 31.82700
C  -1.34100 32.53800 31.96600
C  -1.97200 32.11500 33.36100
H  -0.94700 31.69500 34.37200
N  -0.79200 36.03800 26.61100
C  -0.13500 36.63100 27.67900
C  0.70400 37.75800 27.19700
C  0.24100 38.01300 25.83900
C  -0.75800 36.93200 25.54000
C  1.74800 38.51100 28.16300
C  0.67600 39.05000 24.81100
O  0.13900 39.25100 23.73400
C  1.82600 39.90100 25.17600
N  -2.74800 34.80900 24.69600
C  -2.46500 35.89200 23.93500
C  -2.99200 35.75900 22.46100
C  -3.74800 34.36400 22.50800
C  -3.51400 33.91000 23.97300
C  -3.84400 36.98300 21.93800
C  -3.11300 33.29100 21.49100
C  -1.78000 32.65700 21.93000
N  -3.35800 32.89000 26.77000
C  -3.98200 32.22600 25.77100
C  -4.73000 31.06800 26.32700
C  -4.51200 31.18300 27.72100
C  -3.59500 32.23200 27.96300
C  -5.61200 30.15800 25.57000
C  -4.84700 30.58300 28.99100
O  -5.53000 29.60400 29.15800
C  -4.07400 31.35600 30.09100
C  -5.08300 31.78100 31.13500
O  -5.73600 32.75000 31.03000
O  -4.99300 30.89900 32.15600
C  -5.83400 31.22200 33.35300
H  0.27400 36.73400 29.77700
H  -1.32900 37.52200 23.50500
H  -4.52100 32.19300 23.69800
H  -2.98600 33.94800 31.68500
H  -0.12400 34.54200 31.27500
H  -1.54200 37.08100 31.22000
H  -0.62500 36.37400 32.52500
H  -2.36500 36.08100 32.39500
H  -0.28600 32.78300 32.08900
H  -1.30800 31.58200 31.44300
H  -2.55200 31.19300 33.37000
H  -2.63100 32.91200 33.70600
H  2.76500 38.31900 27.82100
H  1.51700 38.18700 29.17800
H  1.65600 39.59400 28.08500
H  1.44200 40.61300 25.90600
H  2.23200 40.38400 24.28600
H  2.57100 39.20300 25.55800
H  -2.13500 35.81100 21.78900
H  -4.81400 34.38400 22.28100
H  -4.86200 36.71800 21.65400
H  -3.22100 37.41400 21.15400
H  -3.91100 37.71400 22.74400
H  -2.85200 33.68500 20.50900
H  -3.91800 32.57900 21.30600
H  -1.10700 32.96000 21.12700
H  -1.83000 31.57900 22.08400
H  -1.29000 33.07900 22.80700
H  -6.18000 29.63700 26.34100
H  -5.11800 29.42300 24.93400
H  -6.25300 30.60300 24.80800
H  -3.48600 30.55300 30.53400
H  -5.92600 30.35800 34.01100
H  -6.78000 31.65300 33.02500
H  -5.21900 31.94400 33.89000

