158

Mg 30.55100 57.56500 40.41000
C  27.83400 55.76800 38.99100
C  32.76800 55.23800 39.22700
C  33.07200 59.87400 40.83700
C  28.29700 60.20500 40.95700
N  30.27600 55.71000 39.07700
C  29.11100 55.11100 38.68100
C  29.39600 53.62300 38.31200
C  31.02000 53.48800 38.43100
C  31.42300 54.90400 38.95300
C  31.41700 52.24500 39.23700
C  28.77000 53.12700 37.00800
C  29.31600 53.85100 35.72700
H  28.34200 54.69400 34.92100
N  32.57200 57.49300 40.14900
C  33.36000 56.41300 39.70300
C  34.75500 56.75400 39.77200
C  34.81800 58.02300 40.36100
C  33.42100 58.51900 40.53800
C  35.83400 55.78700 39.41100
C  36.14400 58.70500 40.72500
O  37.20700 58.15700 40.38100
C  36.15300 59.93100 41.67800
N  30.68200 59.68700 40.90100
C  31.82100 60.42100 40.93900
C  31.55800 61.88100 41.25200
C  30.04600 61.89100 41.50600
C  29.60100 60.53900 41.07200
C  32.37300 62.55600 42.41400
C  29.31800 63.16800 40.84700
C  28.31100 63.82800 41.77500
N  28.48300 57.91100 40.14500
C  27.74800 59.04400 40.47800
C  26.40500 58.75600 40.30800
C  26.31800 57.46700 39.75200
C  27.65200 57.01300 39.63600
C  25.22500 59.62800 40.66400
C  25.45300 56.46700 39.17400
O  24.26300 56.42600 38.91200
C  26.38700 55.32300 38.68200
C  26.00900 54.01700 39.27500
O  26.43700 53.45600 40.26200
O  25.19900 53.33200 38.33900
C  24.67600 52.06600 38.93300
H  33.39100 54.37000 39.00300
H  33.92800 60.54600 40.75100
H  27.53200 60.93300 41.23500
H  29.01600 53.11000 39.19500
H  31.57500 53.50600 37.49300
H  30.65400 51.54500 39.57800
H  31.78300 52.76300 40.12300
H  32.15200 51.75400 38.59800
H  27.68800 53.25500 37.02700
H  29.13800 52.10000 37.00400
H  29.68900 53.19400 34.94200
H  30.14400 54.50800 35.99500
H  36.43100 56.36500 38.70500
H  35.57500 54.85300 38.91300
H  36.38600 55.56200 40.32400
H  36.10200 60.86300 41.11600
H  37.10700 59.76500 42.17800
H  35.42200 59.84500 42.48200
H  31.75900 62.44400 40.34100
H  29.88000 62.02300 42.57500
H  31.65400 63.12700 43.00100
H  33.12400 63.22000 41.98700
H  32.89900 61.90900 43.11600
H  28.73800 62.77700 40.01100
H  29.99500 63.90200 40.40900
H  28.20800 64.90600 41.65200
H  28.58500 63.73300 42.82600
H  27.33200 63.35000 41.72600
H  24.79300 59.98200 39.72800
H  25.32600 60.34000 41.48400
H  24.47200 58.96900 41.09400
H  26.27900 55.18300 37.60600
H  24.20700 52.26900 39.89600
H  25.36700 51.23000 39.03800
H  23.86900 51.65200 38.32900
Mg 17.48100 52.70300 26.47900
C  19.38000 51.42800 29.17200
C  14.86900 53.17100 28.63800
C  15.70300 53.71000 23.90400
C  20.07000 51.53600 24.31300
N  17.13600 52.39100 28.66300
C  18.14100 52.04000 29.54800
C  17.71200 52.21700 30.99200
C  16.18300 52.63400 30.92500
C  16.05100 52.72600 29.34000
C  15.15100 51.68400 31.64800
C  18.67200 53.15200 31.84800
C  18.86000 52.94100 33.33300
H  17.73000 52.15100 34.07200
N  15.53500 53.29900 26.29400
C  14.59300 53.45800 27.31500
C  13.36100 54.05200 26.85700
C  13.65400 54.27800 25.45300
C  15.04900 53.79200 25.18100
C  12.18200 54.40500 27.79700
C  12.77500 55.00200 24.37500
O  13.18800 55.30200 23.25000
C  11.52200 55.69600 24.89100
N  17.89100 52.73500 24.45300
C  16.93400 53.21700 23.60900
C  17.48000 53.20300 22.17900
C  18.88800 52.55400 22.26600
C  18.93700 52.19700 23.72800
C  16.54800 52.39600 21.17700
C  20.03200 53.50800 21.70400
C  20.17200 54.75700 22.60700
N  19.27800 51.63000 26.65100
C  20.17600 51.31500 25.71100
C  21.28200 50.69200 26.30300
C  20.97700 50.64200 27.66000
C  19.76800 51.28800 27.85600
C  22.38300 49.98500 25.67800
C  21.48800 50.23200 28.94800
O  22.47800 49.57800 29.28700
C  20.50300 50.74600 30.00200
C  19.87300 49.63300 30.81100
O  18.96600 48.93800 30.41800
O  20.44200 49.39500 32.03400
C  19.81200 48.55800 33.00600
H  14.04100 53.48900 29.27500
H  15.19100 54.00100 22.98500
H  20.85000 51.15300 23.65200
H  17.83600 51.21000 31.38800
H  16.03400 53.67200 31.21900
H  14.76400 51.05400 30.84700
H  14.34300 52.21400 32.15300
H  15.62800 51.05600 32.40100
H  18.17000 54.10600 31.68600
H  19.62600 53.25600 31.33100
H  18.96700 53.88700 33.86400
H  19.81600 52.44300 33.49200
H  11.22000 54.53000 27.29800
H  12.51200 55.28900 28.34200
H  12.07200 53.67600 28.59900
H  10.90000 54.88900 25.27800
H  11.14100 56.14400 23.97400
H  11.75400 56.50400 25.58400
H  17.46100 54.24900 21.87400
H  19.09200 51.59700 21.78700
H  16.74200 51.32900 21.28200
H  16.73500 52.87800 20.21700
H  15.50800 52.60900 21.42500
H  19.82200 53.86000 20.69400
H  21.03200 53.07500 21.72000
H  19.64800 55.68600 22.38500
H  21.23000 54.97900 22.47100
H  19.98300 54.43700 23.63200
H  22.93400 50.71000 25.07800
H  21.95000 49.32000 24.93100
H  23.04100 49.32700 26.24500
H  20.93400 51.54100 30.61000
H  19.93000 49.02500 33.98400
H  20.27200 47.57100 33.04400
H  18.73300 48.55100 32.84700

