158

Mg -2.20300 16.96300 27.12200
C  -2.67500 14.64400 29.74000
C  -2.62400 19.43700 29.28600
C  -1.81800 19.04800 24.50900
C  -2.16400 14.27300 24.82100
N  -2.77000 17.03400 29.34900
C  -2.75300 16.00400 30.26000
C  -2.83900 16.50600 31.78500
C  -2.74300 18.08700 31.49300
C  -2.69900 18.21900 29.93400
C  -3.85700 19.02500 32.18200
C  -1.84000 15.85800 32.66700
C  -1.49100 16.71600 33.90600
H  -1.21200 16.00400 35.25100
N  -2.27700 18.90100 26.96500
C  -2.45100 19.81200 27.93800
C  -2.30300 21.15700 27.43200
C  -2.10800 21.03400 26.03500
C  -2.07500 19.57500 25.80500
C  -2.41400 22.44800 28.35600
C  -1.95200 22.14200 24.99200
O  -2.10100 21.96000 23.77900
C  -1.66100 23.58400 25.35600
N  -2.20200 16.73300 24.93600
C  -1.88300 17.71100 24.09300
C  -1.90300 17.31100 22.60600
C  -2.10200 15.84100 22.78800
C  -2.15200 15.58100 24.30300
C  -3.02200 17.98000 21.77300
C  -1.04400 15.00300 21.96400
C  0.23200 14.46300 22.62400
N  -2.38000 14.93900 27.19200
C  -2.34600 14.01900 26.14300
C  -2.47700 12.76900 26.70400
C  -2.64100 12.94300 28.04000
C  -2.55000 14.27600 28.36800
C  -2.61000 11.48900 25.87200
C  -2.86300 12.31300 29.31200
O  -3.08600 11.15100 29.48200
C  -2.91800 13.34700 30.48600
C  -1.73800 13.07900 31.39600
O  -0.49900 13.11900 31.26200
O  -2.19800 12.75500 32.63800
C  -1.25300 12.43500 33.76900
H  -2.59900 20.24000 30.02600
H  -1.64000 19.82600 23.76400
H  -2.24400 13.50300 24.05100
H  -3.86900 16.23100 32.00900
H  -1.80100 18.47100 31.88600
H  -3.37700 19.89300 32.63300
H  -4.34700 18.50700 33.00700
H  -4.61000 19.23800 31.42300
H  -0.91700 15.58300 32.15500
H  -2.42700 15.04400 33.09300
H  -2.37400 17.33500 34.06500
H  -0.60100 17.31700 33.72100
H  -1.45900 22.97100 28.38900
H  -2.53700 22.19000 29.40800
H  -3.17300 23.15900 28.02700
H  -0.69500 23.41200 25.83000
H  -2.44600 24.00800 25.98300
H  -1.33400 24.25400 24.56100
H  -0.92400 17.52800 22.17800
H  -3.08900 15.48300 22.49800
H  -3.92100 17.38000 21.91200
H  -2.80100 18.04600 20.70700
H  -3.34600 18.96800 22.09900
H  -0.68900 15.64800 21.15900
H  -1.63700 14.17300 21.58000
H  0.32500 14.94700 23.59700
H  1.08700 14.81600 22.04800
H  0.20900 13.37500 22.55700
H  -3.55000 11.52600 25.32100
H  -2.65300 10.75400 26.67500
H  -1.79300 11.47200 25.15000
H  -3.89200 13.23300 30.96200
H  -1.62800 12.98500 34.63300
H  -0.23200 12.81100 33.69900
H  -1.20100 11.36400 33.96300
Mg 16.72200 -2.61900 29.02800
C  15.57700 -0.27400 31.33400
C  18.95800 -3.75600 31.38700
C  18.17500 -4.51200 26.66100
C  14.74000 -1.11200 26.55900
N  17.11800 -2.09700 31.10800
C  16.49300 -1.18200 31.85000
C  16.86400 -1.34400 33.32300
C  18.08600 -2.35800 33.35000
C  18.04200 -2.79300 31.86600
C  19.46600 -1.92600 33.85200
C  15.77400 -1.81500 34.26700
C  15.44500 -0.88600 35.42200
H  16.52100 -0.28900 36.39400
N  18.33600 -3.98600 29.06700
C  19.09500 -4.35700 30.12400
C  20.07700 -5.35000 29.67200
C  19.88300 -5.52700 28.25900
C  18.73200 -4.67700 27.96600
C  20.97100 -6.13500 30.64000
C  20.77700 -6.33100 27.37300
O  20.55700 -6.47000 26.19200
C  21.99800 -7.07500 27.85600
N  16.67000 -2.73100 26.90100
C  17.23700 -3.69900 26.11200
C  16.66400 -3.72700 24.72400
C  15.73700 -2.45000 24.68100
C  15.66700 -2.14700 26.18400
C  17.78600 -3.52300 23.71300
C  14.30800 -2.75000 24.07900
C  13.70600 -1.70400 23.10000
N  15.43800 -1.08600 28.93800
C  14.72500 -0.53000 27.85600
C  13.98300 0.57100 28.33000
C  14.27200 0.71100 29.66600
C  15.17700 -0.27000 30.00300
C  12.95300 1.44900 27.55500
C  13.98600 1.53500 30.85700
O  13.33000 2.56400 30.94100
C  14.73300 0.76400 32.00400
C  15.39300 1.90400 32.84500
O  16.58600 2.10600 32.92300
O  14.48600 2.52800 33.61600
C  15.03800 3.39500 34.69300
H  19.68200 -4.09200 32.13200
H  18.53300 -5.27800 25.96900
H  14.14800 -0.66600 25.75700
H  17.18700 -0.38600 33.73200
H  17.80100 -3.16200 34.02800
H  19.45700 -1.01400 34.45000
H  20.06500 -1.68400 32.97400
H  19.88700 -2.74800 34.43100
H  15.77600 -2.83400 34.65500
H  14.90200 -1.69000 33.62400
H  14.69700 -1.32500 36.08200
H  14.88200 -0.01900 35.07600
H  20.88300 -7.20600 30.45700
H  20.80800 -5.76000 31.65000
H  22.00000 -5.83900 30.43600
H  22.55800 -7.30400 26.94900
H  21.62400 -8.02400 28.23900
H  22.58300 -6.48600 28.56300
H  16.04300 -4.58000 24.45200
H  16.32300 -1.65500 24.21800
H  18.14600 -4.48800 23.35300
H  18.60500 -2.95900 24.15900
H  17.30200 -2.99200 22.89400
H  13.63700 -2.84200 24.93400
H  14.21000 -3.72400 23.60100
H  13.03200 -1.13100 23.73600
H  13.18700 -2.20800 22.28500
H  14.34600 -0.95300 22.63500
H  12.13100 0.84200 27.17700
H  13.46400 1.98200 26.75300
H  12.69100 2.19000 28.31000
H  14.04800 0.26300 32.68800
H  15.09500 4.46300 34.48200
H  16.06400 3.17800 34.98800
H  14.31700 3.27200 35.50100

