158

Mg 53.57200 23.41400 44.63400
C  51.15800 25.78400 43.90600
C  51.69300 21.06700 43.00900
C  56.08200 21.08300 45.02000
C  55.78700 25.89400 45.33800
N  51.74500 23.42800 43.66800
C  50.91600 24.52200 43.39900
C  49.79700 24.17200 42.37300
C  49.76500 22.60700 42.59400
C  51.18600 22.36100 43.06600
C  48.66500 22.14600 43.51400
C  50.30000 24.44400 40.93100
C  49.33200 24.66200 39.78500
H  49.90200 25.20800 38.49300
N  53.82100 21.31900 44.28900
C  52.91600 20.56900 43.51800
C  53.38800 19.15600 43.54000
C  54.65100 19.13200 44.20400
C  54.90400 20.54000 44.57900
C  52.54200 18.05800 43.02000
C  55.43900 17.89800 44.32300
O  55.25900 16.85900 43.73400
C  56.72900 17.93600 45.25300
N  55.61600 23.42100 45.07400
C  56.49500 22.39600 45.27500
C  57.94100 22.85700 45.66500
C  57.79400 24.36900 45.51700
C  56.28100 24.58600 45.30400
C  58.54400 22.35600 46.99100
C  58.75400 25.09400 44.43300
C  58.98600 26.63800 44.36800
N  53.49000 25.45000 44.90200
C  54.47500 26.34300 45.15900
C  53.80500 27.65700 45.24300
C  52.58100 27.52600 44.69300
C  52.39600 26.11600 44.57200
C  54.44900 28.95100 45.69900
C  51.27400 28.17000 44.31000
O  50.92100 29.36500 44.41100
C  50.30800 27.09900 43.80200
C  49.90100 27.58200 42.46300
O  50.52500 27.88000 41.46300
O  48.55900 27.63900 42.49300
C  47.76600 27.91300 41.28000
H  51.14600 20.30600 42.45000
H  56.86200 20.32700 44.91100
H  56.43600 26.73400 45.59400
H  48.85200 24.62700 42.66900
H  49.74800 22.17300 41.59400
H  47.90100 22.90300 43.69200
H  48.97000 21.69600 44.45900
H  48.08400 21.45700 42.90200
H  50.95800 23.60800 40.69400
H  50.93400 25.33100 40.93900
H  48.51800 25.28000 40.16200
H  49.00400 23.62900 39.66700
H  52.50000 17.22800 43.72400
H  52.78900 17.63700 42.04500
H  51.47500 18.27300 43.07500
H  56.45200 18.60200 46.07000
H  57.63000 18.13600 44.67300
H  56.72500 16.92500 45.66000
H  58.58000 22.55300 44.83600
H  57.93000 24.93600 46.43800
H  58.02800 22.85800 47.80900
H  59.59600 22.61100 47.12000
H  58.45800 21.27100 47.05100
H  58.27400 24.87600 43.47800
H  59.67000 24.51600 44.31700
H  59.97100 26.97200 44.69200
H  58.39400 26.95300 45.22800
H  58.73500 27.03400 43.38400
H  55.30600 29.27900 45.11100
H  54.68300 29.08900 46.75500
H  53.71400 29.70000 45.40400
H  49.41100 27.07100 44.42000
H  48.19500 27.45900 40.38800
H  47.58200 28.98700 41.23400
H  46.87000 27.32400 41.47400
Mg 46.91300 24.77700 28.70400
C  47.71900 27.19200 31.17800
C  45.76900 22.77500 31.22000
C  46.41700 22.45900 26.51400
C  48.26000 26.87900 26.26500
N  46.76400 24.97300 30.87900
C  47.07800 26.02600 31.69200
C  46.83700 25.81900 33.17500
C  46.32600 24.35800 33.20000
C  46.34500 23.93700 31.69800
C  47.22100 23.26700 33.88600
C  45.69800 26.73700 33.72400
C  45.77200 27.28800 35.14300
H  46.01800 26.40700 36.35900
N  46.13100 22.90800 28.78100
C  45.68100 22.26300 29.90300
C  45.18500 20.94200 29.54200
C  45.32100 20.83100 28.13600
C  45.94000 22.06900 27.72400
C  44.63600 19.87000 30.52100
C  44.79800 19.66100 27.22700
O  45.06400 19.63200 26.06000
C  44.10000 18.51700 27.86000
N  47.47200 24.62700 26.57400
C  47.00600 23.59100 25.88900
C  47.22500 23.78300 24.38500
C  47.55700 25.28300 24.30500
C  47.74300 25.67100 25.83600
C  48.29100 22.80300 23.92200
C  46.54100 26.28500 23.64300
C  45.04800 25.93200 23.60400
N  47.80100 26.63600 28.63000
C  48.30500 27.37900 27.57400
C  48.81600 28.67000 28.08500
C  48.62100 28.62300 29.50100
C  48.02800 27.36000 29.77800
C  49.32600 29.69900 27.23400
C  48.78000 29.38300 30.78800
O  49.25900 30.50000 30.97700
C  48.19600 28.42400 31.90200
C  49.31500 28.22400 32.91800
O  50.38800 27.60000 32.72600
O  48.96200 28.74900 34.10300
C  49.84200 28.59000 35.26600
H  45.43600 22.15400 32.05500
H  46.14700 21.64400 25.83900
H  48.68400 27.61800 25.58200
H  47.68600 26.13900 33.77800
H  45.33800 24.14600 33.61000
H  47.81300 23.87300 34.57200
H  47.76000 22.50200 33.32800
H  46.61500 22.66400 34.56200
H  44.76000 26.18500 33.67900
H  45.59900 27.56700 33.02400
H  44.76400 27.67600 35.29400
H  46.38000 28.18400 35.27500
H  45.06400 18.87000 30.44800
H  43.55900 19.70000 30.52200
H  44.77000 20.14000 31.56800
H  44.80800 17.82300 28.31300
H  43.57300 17.94700 27.09500
H  43.29400 18.69500 28.57200
H  46.37100 23.47300 23.78400
H  48.50200 25.41300 23.77700
H  48.40400 22.06000 24.71100
H  49.22500 23.26000 23.59300
H  47.92500 22.30300 23.02600
H  46.93400 26.46900 22.64300
H  46.67900 27.20300 24.21300
H  44.79100 25.04200 24.17900
H  44.77300 25.68400 22.57900
H  44.39400 26.70200 24.01300
H  49.08100 29.58800 26.17800
H  50.38900 29.70800 27.47700
H  48.94500 30.67700 27.52700
H  47.42000 28.90500 32.49700
H  50.31000 29.54800 35.49300
H  50.59400 27.87400 34.93500
H  49.28100 28.15800 36.09500

