158

Mg 16.96700 -2.85900 27.04200
C  16.07200 -0.94500 30.00800
C  18.76000 -4.86300 28.97800
C  18.33400 -4.04400 24.23500
C  15.29200 -0.33700 25.19400
N  17.24300 -2.92600 29.29400
C  16.84200 -2.12500 30.31500
C  17.56400 -2.50500 31.64400
C  18.61500 -3.63400 31.21700
C  18.20500 -3.79400 29.75600
C  20.06900 -3.24800 31.31500
C  16.58100 -2.84700 32.75200
C  16.78700 -2.35300 34.19900
H  18.10000 -1.59800 34.62300
N  18.17400 -4.37200 26.62900
C  18.77400 -5.10700 27.57400
C  19.47300 -6.20500 26.96400
C  19.38000 -6.04800 25.57000
C  18.62700 -4.81800 25.41500
C  20.45900 -7.16100 27.72100
C  19.90000 -6.85700 24.39100
O  19.83700 -6.47300 23.19700
C  20.33000 -8.27300 24.64000
N  16.89300 -2.17000 25.02600
C  17.57700 -2.91300 24.08600
C  17.43500 -2.12700 22.70900
C  16.30900 -1.02400 23.01900
C  16.03900 -1.27300 24.47100
C  18.63600 -1.57600 21.92300
C  15.00000 -1.07400 22.07700
C  14.85300 0.11800 21.11700
N  15.88800 -0.99000 27.41900
C  15.18200 -0.15100 26.54500
C  14.47900 0.81500 27.34300
C  14.81800 0.55800 28.67600
C  15.70500 -0.55700 28.70400
C  13.51800 1.85700 26.72500
C  14.59100 0.98200 30.04400
O  14.01700 2.00600 30.41800
C  15.43600 -0.02500 30.95800
C  16.53400 0.80800 31.62600
O  17.62800 1.05000 31.14600
O  16.04400 1.40600 32.77500
C  16.87200 2.53200 33.25500
H  19.38700 -5.51800 29.58600
H  18.79900 -4.34800 23.29400
H  14.76600 0.46100 24.66500
H  18.00500 -1.61000 32.08200
H  18.41000 -4.55700 31.75900
H  20.41400 -2.80100 30.38300
H  20.65100 -4.14300 31.54000
H  20.14900 -2.51100 32.11400
H  16.63800 -3.93400 32.69800
H  15.56100 -2.62600 32.43700
H  16.85900 -3.26100 34.79800
H  15.95100 -1.67600 34.37100
H  20.35300 -8.15600 27.28900
H  20.41900 -7.25400 28.80700
H  21.42800 -6.73900 27.45500
H  21.33300 -8.30000 25.06600
H  20.39300 -8.70900 23.64300
H  19.62400 -8.81000 25.27300
H  16.89900 -2.81200 22.05100
H  16.86700 -0.08800 22.97200
H  19.57800 -2.06800 22.16700
H  18.94300 -0.65200 22.41300
H  18.40700 -1.42900 20.86800
H  14.04200 -1.23600 22.57100
H  15.13500 -1.92300 21.40800
H  15.76300 0.71600 21.11800
H  14.04200 0.77000 21.44200
H  14.61100 -0.23500 20.11400
H  13.04200 1.42400 25.84500
H  14.12500 2.73500 26.50600
H  12.77800 1.99000 27.51400
H  14.83900 -0.57600 31.68600
H  17.89900 2.23900 33.47600
H  16.37800 2.86800 34.16600
H  16.87100 3.27800 32.46000
Mg 52.40000 24.55600 45.23100
C  49.71900 26.59200 44.25900
C  50.47100 21.75700 44.43700
C  55.24600 22.72400 45.19000
C  54.25600 27.43900 45.91200
N  50.42800 24.21900 44.14300
C  49.46900 25.22200 44.04200
C  48.08700 24.69000 43.70600
C  48.26000 23.16000 44.31700
C  49.83900 23.00900 44.26500
C  47.58700 22.86200 45.69300
C  47.74100 24.65600 42.19300
C  48.82600 24.17700 41.18300
H  48.94700 24.95600 39.87900
N  52.88400 22.47100 44.84500
C  51.83600 21.50800 44.63800
C  52.51000 20.22800 44.59300
C  53.93100 20.42500 44.76900
C  54.10800 21.91800 44.98200
C  51.70100 18.95400 44.14300
C  55.01900 19.33900 44.83800
O  54.75100 18.11900 44.76300
C  56.35000 19.68900 44.96000
N  54.48900 25.03900 45.48900
C  55.44800 24.06900 45.45300
C  56.79800 24.67400 45.53800
C  56.52300 26.18500 45.67300
C  54.95400 26.29800 45.65500
C  57.74200 24.04900 46.58400
C  57.40000 27.12100 44.74700
C  58.23000 28.23300 45.52900
N  52.06900 26.55100 45.30400
C  52.88600 27.59100 45.71000
C  52.11900 28.79500 45.76100
C  50.90100 28.47500 45.16000
C  50.88200 27.09800 44.87600
C  52.38400 30.11600 46.36700
C  49.66300 28.98500 44.70700
O  49.19600 30.16000 44.72600
C  48.80900 27.75000 44.22000
C  48.16800 28.14700 42.92100
O  48.80500 28.18000 41.84100
O  46.82000 28.14800 43.03600
C  45.97900 28.39800 41.91100
H  49.85600 20.85500 44.45400
H  56.18400 22.16700 45.15400
H  54.84200 28.35200 46.04200
H  47.32000 25.17100 44.31200
H  47.80700 22.48300 43.59300
H  46.99500 23.71300 46.03200
H  48.42000 22.55500 46.32500
H  46.87500 22.08000 45.42900
H  47.45600 25.66700 41.90300
H  46.83200 24.07500 42.03800
H  48.51800 23.15300 40.97000
H  49.82100 24.13600 41.62500
H  51.26600 18.48100 45.02400
H  52.37700 18.24600 43.66400
H  50.88600 19.11100 43.43800
H  56.97900 18.87200 44.60500
H  56.69400 19.87400 45.97800
H  56.64300 20.44800 44.23400
H  57.31300 24.47600 44.59800
H  56.75900 26.35300 46.72400
H  58.39400 24.81300 47.00800
H  58.43400 23.32300 46.15800
H  57.16900 23.64300 47.41800
H  56.81000 27.67500 44.01700
H  58.05000 26.37500 44.29000
H  59.26400 28.17200 45.18900
H  58.13600 28.22400 46.61500
H  57.89700 29.15900 45.06100
H  53.15200 29.91400 47.11300
H  51.50000 30.39200 46.94100
H  52.70300 30.72400 45.52000
H  47.91300 27.59200 44.82100
H  44.96500 27.99900 41.94700
H  46.40400 28.03700 40.97400
H  45.87000 29.48000 41.84100

