158

Mg 25.04900 -7.23000 47.49000
C  27.24900 -4.74200 46.64700
C  22.97400 -6.22300 44.98900
C  23.19200 -10.08400 47.80900
C  27.74900 -8.74000 49.14500
N  25.19100 -5.76400 45.89300
C  26.16000 -4.75200 45.79800
C  25.81300 -3.72100 44.75200
C  24.35000 -4.14400 44.44400
C  24.13000 -5.48100 45.10100
C  23.26100 -3.21100 44.90600
C  26.81200 -3.77100 43.61100
C  27.36800 -2.38100 43.13100
H  27.09900 -2.02000 41.74100
N  23.16600 -7.87600 46.74900
C  22.53600 -7.37400 45.63600
C  21.37800 -8.12600 45.35600
C  21.30000 -9.21100 46.30300
C  22.59900 -9.14600 46.98800
C  20.39900 -7.85500 44.24500
C  20.18800 -10.20500 46.53100
O  19.16300 -10.14000 45.87900
C  20.28300 -11.31500 47.47400
N  25.45100 -9.12300 48.39900
C  24.47300 -10.07200 48.45400
C  24.95900 -11.29500 49.35300
C  26.40900 -10.91800 49.60700
C  26.59800 -9.57400 48.98000
C  24.23200 -11.42100 50.64300
C  27.38700 -11.97300 48.95100
C  28.36900 -12.70400 49.91400
N  27.06300 -6.78400 47.93500
C  28.00700 -7.47800 48.61600
C  29.19500 -6.68200 48.82200
C  28.88400 -5.53400 48.04400
C  27.64100 -5.68900 47.54900
C  30.35000 -7.05500 49.64800
C  29.36000 -4.25900 47.55100
O  30.44200 -3.69600 47.84600
C  28.23000 -3.66800 46.71500
C  27.61000 -2.46400 47.43000
O  27.09800 -2.51900 48.48700
O  27.80600 -1.26400 46.70600
C  27.02000 -0.13400 47.16500
H  22.32800 -5.83800 44.19800
H  22.70800 -10.99300 48.17300
H  28.57200 -9.19500 49.69900
H  25.99100 -2.78300 45.27900
H  24.31600 -4.29100 43.36500
H  22.63400 -3.68900 45.65800
H  22.66900 -2.72400 44.13000
H  23.74200 -2.43800 45.50600
H  26.35900 -4.37300 42.82400
H  27.65500 -4.40900 43.87400
H  28.44500 -2.52500 43.22400
H  27.08000 -1.52900 43.74700
H  20.05400 -8.84800 43.95700
H  20.86100 -7.33000 43.40900
H  19.52900 -7.30500 44.60500
H  21.06500 -12.07400 47.49300
H  19.31900 -11.79900 47.62800
H  20.54200 -10.76700 48.37900
H  24.81200 -12.17200 48.72200
H  26.73600 -10.70000 50.62400
H  23.56900 -10.57800 50.84000
H  24.88300 -11.57700 51.50300
H  23.70300 -12.36600 50.51600
H  27.92500 -11.62900 48.06800
H  26.78400 -12.81700 48.61600
H  28.22100 -12.29200 50.91200
H  29.42100 -12.56500 49.66300
H  28.12800 -13.76700 49.91300
H  30.99200 -7.62200 48.97400
H  30.09200 -7.54900 50.58500
H  30.85500 -6.09700 49.76700
H  28.57000 -3.54800 45.68700
H  26.54400 0.33000 46.30100
H  27.73500 0.60500 47.52700
H  26.22500 -0.35500 47.87800
Mg 6.89200 53.46400 40.92500
C  6.61500 49.93300 40.94500
C  10.28000 53.00700 40.13600
C  6.96100 56.65300 39.86400
C  3.37300 53.59000 40.80300
N  8.16900 51.63600 40.43000
C  7.90500 50.35600 40.67400
C  9.18700 49.48600 40.69300
C  10.36600 50.56500 40.72100
C  9.56100 51.83100 40.39900
C  11.18200 50.62600 42.04600
C  9.30900 48.47800 39.51200
C  9.11700 49.03000 38.08500
H  7.81400 48.76300 37.31100
N  8.47300 54.69700 40.20400
C  9.80100 54.35400 39.94400
C  10.54400 55.54800 39.65400
C  9.58300 56.62100 39.55300
C  8.26700 56.05600 39.87900
C  12.03500 55.57100 39.53800
C  9.90700 58.12700 39.36300
O  11.07400 58.41400 39.13600
C  8.93300 59.21400 39.58400
N  5.37800 54.93000 40.39600
C  5.69500 56.15000 40.08200
C  4.52100 57.10100 40.07900
C  3.33700 56.07000 40.30900
C  4.07400 54.79600 40.56600
C  4.63900 58.22800 41.16800
C  2.21800 55.92400 39.17400
C  0.75500 56.08600 39.64300
N  5.21800 52.11900 41.09200
C  3.89400 52.29200 41.09300
C  3.18200 51.14600 41.54700
C  4.21800 50.19900 41.45500
C  5.42400 50.82600 41.09900
C  1.71900 50.95500 41.97900
C  4.52400 48.76500 41.59700
O  3.83200 47.79200 41.92900
C  6.04800 48.63200 41.37100
C  6.09700 47.60800 40.31800
O  5.72300 47.78800 39.13600
O  6.57100 46.45300 40.88400
C  6.51100 45.29300 40.01200
H  11.33800 52.79200 40.29700
H  6.86900 57.67000 39.47800
H  2.28900 53.72400 40.79000
H  9.16600 49.00600 41.67200
H  11.16600 50.31000 40.02600
H  11.70600 49.68500 42.21700
H  10.58000 50.80100 42.93800
H  11.76300 51.54800 42.02900
H  8.71700 47.57000 39.62500
H  10.30500 48.03800 39.45700
H  9.90600 48.64200 37.44100
H  9.28400 50.08700 38.29600
H  12.44400 56.18800 40.33900
H  12.35000 56.04800 38.61000
H  12.41100 54.55600 39.66500
H  8.60600 59.04300 40.60900
H  8.06700 59.21200 38.92200
H  9.43000 60.18100 39.66000
H  4.43300 57.49000 39.06400
H  2.80200 56.43500 41.18600
H  4.04600 58.14000 42.07800
H  4.57600 59.19800 40.67600
H  5.67900 58.25100 41.49600
H  2.30900 54.96900 38.65700
H  2.36800 56.69700 38.42000
H  0.23600 55.14300 39.47100
H  0.26000 56.86700 39.06600
H  0.67300 56.31500 40.70600
H  1.30700 50.17100 41.34300
H  1.10900 51.84800 41.84600
H  1.75000 50.67800 43.03300
H  6.41300 48.31600 42.34800
H  7.20300 45.51600 39.20000
H  5.50800 45.15600 39.60900
H  6.77800 44.42100 40.60900

