158

Mg 42.77700 42.17500 26.31700
C  41.64500 44.13100 28.90800
C  44.11800 39.96900 28.63100
C  43.92800 40.28700 23.76900
C  42.00000 44.71400 24.01700
N  42.85800 42.06100 28.53200
C  42.21500 42.91300 29.34400
C  42.23300 42.35300 30.82300
C  43.29300 41.22600 30.74300
C  43.50600 41.06000 29.19300
C  44.66900 41.47400 31.37200
C  40.75900 42.07400 31.34900
C  40.19600 43.02500 32.41700
H  39.71200 42.51200 33.75800
N  43.78900 40.34000 26.14500
C  44.25800 39.62300 27.21600
C  44.83300 38.40700 26.68300
C  44.70400 38.40000 25.27000
C  44.12600 39.71900 24.99600
C  45.63400 37.47900 27.59000
C  45.21700 37.47000 24.25100
O  45.34700 37.74300 23.07200
C  45.63500 36.14600 24.70200
N  43.14000 42.54900 24.17100
C  43.46000 41.54400 23.35200
C  43.35900 41.94700 21.81200
C  42.67800 43.37800 22.00700
C  42.62300 43.62100 23.50700
C  44.72200 41.93600 21.10000
C  41.37500 43.49200 21.18500
C  40.01200 43.02800 21.79800
N  42.07600 44.07600 26.36500
C  41.74000 45.03400 25.37600
C  41.03000 46.17400 25.96700
C  41.02500 45.84900 27.32000
C  41.71800 44.58800 27.54500
C  40.49500 47.39200 25.26600
C  40.56000 46.31900 28.62300
O  39.92500 47.32100 28.91000
C  40.89500 45.27800 29.69500
C  41.73900 45.84800 30.75000
O  42.93600 45.85200 30.70200
O  40.89900 46.27400 31.82300
C  41.55800 46.74700 33.07600
H  44.53500 39.30400 29.39000
H  44.27900 39.75200 22.88400
H  41.62900 45.39000 23.24400
H  42.59800 43.20700 31.39400
H  42.94800 40.21900 30.97700
H  45.31400 41.77200 30.54600
H  44.95500 40.59300 31.94700
H  44.46500 42.13200 32.21600
H  40.77300 41.13000 31.89300
H  39.96100 41.99900 30.61100
H  39.34100 43.57000 32.01700
H  40.99100 43.75300 32.58200
H  45.65400 37.82100 28.62500
H  46.61500 37.50900 27.11800
H  45.18500 36.48700 27.54400
H  44.80100 35.63400 25.18200
H  46.52800 36.32000 25.30100
H  45.83200 35.49400 23.85100
H  42.59200 41.33500 21.33700
H  43.40000 44.08900 21.60400
H  45.16400 40.94000 21.11600
H  45.33100 42.67500 21.62100
H  44.52900 42.31300 20.09500
H  41.49600 42.94500 20.25000
H  41.47400 44.53900 20.90000
H  39.35600 43.89700 21.75900
H  40.02700 42.63900 22.81600
H  39.53300 42.29300 21.15100
H  40.02400 46.88500 24.42400
H  41.35400 47.94800 24.89100
H  39.87500 47.96500 25.95600
H  39.96000 44.97700 30.16700
H  42.63400 46.78000 32.90300
H  41.21500 46.08500 33.87100
H  41.22000 47.76900 33.24400
Mg 17.03200 51.77600 26.02400
C  19.13300 50.33700 28.53000
C  14.70400 52.42200 28.51000
C  15.16100 53.14300 23.68100
C  19.47300 50.98600 23.68000
N  17.01300 51.59100 28.20200
C  17.94800 50.90300 29.01900
C  17.53700 50.89000 30.46300
C  16.07100 51.32600 30.35700
C  15.89900 51.88000 28.99700
C  15.04000 50.23900 30.73700
C  18.36100 51.82600 31.40200
C  18.52000 51.44800 32.89300
H  17.18100 51.09900 33.73500
N  15.20400 52.75200 26.08300
C  14.35400 52.83300 27.22000
C  13.13500 53.45300 26.78500
C  13.20900 53.67100 25.38800
C  14.56200 53.23600 24.98600
C  12.10800 53.84600 27.76300
C  12.23500 54.37100 24.44600
O  12.49500 54.49100 23.25700
C  10.99500 55.14400 24.93600
N  17.34200 52.08100 23.95100
C  16.38800 52.68600 23.19700
C  16.84600 52.89600 21.69900
C  18.19900 52.10800 21.69700
C  18.36600 51.70800 23.17600
C  15.85100 52.50400 20.59700
C  19.48800 52.86200 21.16500
C  20.25500 53.79200 22.11400
N  18.92500 50.82700 25.99400
C  19.77400 50.53500 24.97800
C  20.87000 49.75700 25.42700
C  20.66900 49.56300 26.82400
C  19.45000 50.31700 27.12600
C  22.03300 49.19500 24.61300
C  21.22800 49.01000 28.05700
O  22.25400 48.37300 28.24400
C  20.25200 49.55400 29.22200
C  19.78400 48.45200 30.08000
O  19.11500 47.45600 29.79600
O  20.26300 48.72800 31.35500
C  19.75200 47.84200 32.35700
H  13.98800 52.61300 29.31100
H  14.50500 53.42500 22.85500
H  20.30300 50.80000 22.99400
H  17.76700 49.89400 30.83900
H  15.84800 52.13200 31.05600
H  14.46100 49.89200 29.88000
H  14.34300 50.74600 31.40500
H  15.52800 49.42800 31.27600
H  17.91000 52.81900 31.42700
H  19.39900 51.89600 31.07600
H  19.06100 52.28800 33.32900
H  19.28100 50.67100 32.95900
H  12.26500 53.54300 28.79800
H  11.17300 53.48700 27.33000
H  12.08400 54.93000 27.87000
H  11.36200 56.01300 25.48300
H  10.49400 54.45900 25.62100
H  10.44900 55.34600 24.01500
H  17.15000 53.93900 21.60500
H  18.01800 51.14800 21.21300
H  16.31300 52.02100 19.73600
H  15.23300 53.38100 20.40300
H  15.17200 51.77000 21.03000
H  19.22600 53.63100 20.43800
H  20.08200 52.13800 20.60700
H  19.94500 53.65300 23.14900
H  20.13800 54.83000 21.80400
H  21.33000 53.61600 22.16500
H  22.87500 49.83200 24.88300
H  21.92100 49.36500 23.54200
H  22.26100 48.15800 24.85900
H  20.86200 50.26900 29.77200
H  18.67000 47.75200 32.44800
H  19.99500 48.30100 33.31500
H  20.31900 46.91200 32.37100

