158

Mg 25.65700 1.11600 29.58400
C  27.45100 0.71400 32.47400
C  22.84200 1.61300 31.42100
C  23.84400 1.09100 26.67500
C  28.35600 -0.25000 27.78100
N  25.27200 1.11800 31.69300
C  26.12100 1.08200 32.79800
C  25.52900 1.56200 34.13700
C  24.04100 1.71700 33.67100
C  24.01400 1.50100 32.14700
C  23.08200 0.76100 34.49500
C  26.20000 2.90700 34.57600
C  27.00700 2.77500 35.98900
H  26.59100 3.64900 37.19000
N  23.65100 1.53200 29.11500
C  22.61000 1.65000 29.99100
C  21.38400 1.60800 29.32900
C  21.66300 1.50000 27.94500
C  23.16900 1.36000 27.86900
C  20.03500 1.71100 29.94100
C  20.68700 1.49800 26.82200
O  21.06900 1.62000 25.67100
C  19.17900 1.36200 26.96100
N  26.04300 0.57400 27.53000
C  25.21100 0.79100 26.51000
C  25.83200 0.59000 25.09900
C  27.27100 0.14500 25.44700
C  27.24100 0.18100 27.03600
C  24.95800 -0.37500 24.22700
C  28.25700 1.26500 24.92100
C  29.65600 0.87900 24.57100
N  27.57600 0.41900 29.92300
C  28.58000 -0.04100 29.17400
C  29.75700 -0.24000 29.93200
C  29.37400 0.13900 31.23600
C  27.99700 0.42800 31.17900
C  31.12100 -0.72500 29.54900
C  29.78900 0.37500 32.62600
O  30.89700 0.36500 33.12600
C  28.55600 0.76300 33.43900
C  28.39800 -0.21500 34.54400
O  27.51500 -1.07700 34.56500
O  29.36800 -0.01500 35.49100
C  29.22600 -0.83800 36.71400
H  21.97100 1.81300 32.04800
H  23.31000 1.05900 25.72300
H  29.13700 -0.65900 27.13600
H  25.61100 0.77800 34.89000
H  23.77000 2.75100 33.88200
H  22.16600 1.26100 34.81000
H  23.50000 0.27900 35.37800
H  22.61400 0.05700 33.80600
H  25.44400 3.67500 34.73900
H  26.85300 3.26300 33.78000
H  28.08900 2.81000 35.85700
H  26.73000 1.78300 36.34600
H  20.18500 1.76900 31.01900
H  19.59600 0.75800 29.64500
H  19.47600 2.55300 29.53400
H  18.63700 1.18900 26.03100
H  18.81800 2.21800 27.53000
H  19.04200 0.47200 27.57500
H  25.84200 1.57900 24.64100
H  27.47200 -0.82300 24.98800
H  25.62700 -1.10200 23.76500
H  24.49900 0.20200 23.42500
H  24.25500 -0.94800 24.83100
H  28.25100 2.02800 25.69900
H  27.90000 1.68700 23.98100
H  29.87700 1.28600 23.58400
H  29.71200 -0.21000 24.55600
H  30.26700 1.21700 25.40800
H  31.21500 -1.63300 28.95300
H  31.60000 -1.02600 30.48000
H  31.52700 0.09400 28.95400
H  28.53700 1.81300 33.73100
H  28.28100 -0.73400 37.24900
H  30.08600 -0.73800 37.37500
H  29.43800 -1.86000 36.39900
Mg 49.33400 45.62600 43.32400
C  45.77900 45.68300 42.40200
C  49.36100 42.38300 42.57100
C  52.60300 45.92900 43.32200
C  49.00400 49.16100 43.64200
N  47.75300 44.24600 42.42900
C  46.35300 44.43400 42.27700
C  45.70300 43.11100 41.98800
C  46.81700 42.07100 42.25200
C  48.08900 42.89300 42.36200
C  46.46900 41.31600 43.59300
C  45.12200 43.00500 40.55100
C  46.01300 43.56800 39.37000
H  45.87400 42.86000 38.04000
N  50.84100 44.30200 43.04300
C  50.61600 42.98900 42.73900
C  51.86500 42.28500 42.79800
C  52.86000 43.25100 43.10000
C  52.14100 44.54800 43.20900
C  52.04300 40.72000 42.71800
C  54.36100 42.99800 43.27300
O  54.85600 41.86400 43.19300
C  55.31500 44.09400 43.56900
N  50.59900 47.34200 43.32400
C  51.91800 47.18400 43.38200
C  52.68000 48.49100 43.56600
C  51.52700 49.49500 43.67800
C  50.31700 48.63200 43.56700
C  53.47600 48.48600 44.87100
C  51.52700 50.63000 42.60900
C  52.17300 52.04200 42.84700
N  47.72800 47.12000 43.24300
C  47.76800 48.51500 43.37600
C  46.46100 49.10700 43.37900
C  45.70500 48.00900 42.91600
C  46.46800 46.85900 42.84900
C  45.93700 50.34900 43.69700
C  44.29800 47.60000 42.49500
O  43.28000 48.24200 42.46400
C  44.40500 46.11100 41.88300
C  43.26700 45.30700 42.46300
O  42.45300 44.71200 41.83300
O  43.22200 45.38100 43.84100
C  42.14300 44.58100 44.48700
H  49.37800 41.29300 42.51500
H  53.68500 45.91600 43.17500
H  48.93100 50.24300 43.77400
H  44.83700 42.99700 42.64000
H  46.97400 41.36900 41.43400
H  45.56600 41.66600 44.09400
H  47.27300 41.35500 44.32700
H  46.24400 40.30000 43.26800
H  44.13200 43.45500 40.47500
H  45.00600 41.96800 40.23600
H  47.06800 43.43300 39.60800
H  45.92200 44.65100 39.28500
H  51.22200 40.32600 42.11800
H  51.90100 40.32800 43.72500
H  53.07000 40.42400 42.50800
H  54.97600 44.66800 44.43200
H  55.41900 44.80700 42.75200
H  56.29700 43.70300 43.83600
H  53.31900 48.60900 42.69000
H  51.46700 49.86100 44.70200
H  54.51300 48.61100 44.56000
H  53.31400 47.52400 45.35800
H  53.10900 49.20300 45.60500
H  50.52800 50.98600 42.35700
H  51.92200 50.11500 41.73300
H  53.03300 52.33700 42.24500
H  52.66100 51.91500 43.81300
H  51.48000 52.88100 42.91200
H  45.30000 50.76500 42.91600
H  46.74200 51.07400 43.81700
H  45.36600 50.26300 44.62100
H  44.21000 46.17200 40.81200
H  42.28900 43.52000 44.28500
H  41.22200 45.02900 44.11400
H  42.24100 44.74400 45.56000

