158

Mg 25.47700 0.52500 28.85500
C  27.46200 0.34000 31.62200
C  22.70700 0.99400 30.82300
C  23.75800 0.46000 25.96600
C  28.38600 -0.38100 26.87100
N  25.12400 0.55900 31.00600
C  26.10100 0.64000 31.93300
C  25.51200 1.01500 33.35000
C  23.94600 1.10800 33.00900
C  23.89700 0.87200 31.52000
C  23.05600 0.21500 33.90400
C  26.14800 2.32000 33.98300
C  25.59500 2.71500 35.38400
H  26.42000 2.36700 36.64200
N  23.51400 0.64800 28.43000
C  22.52100 0.91300 29.38700
C  21.21000 1.01900 28.73300
C  21.46000 0.62100 27.36700
C  22.98900 0.57300 27.19200
C  19.99800 1.37200 29.50400
C  20.48200 0.41100 26.21900
O  20.80100 -0.10400 25.12700
C  19.07500 0.72800 26.48100
N  26.03200 0.23000 26.67800
C  25.11100 0.37700 25.64700
C  25.66700 0.19400 24.26000
C  27.13500 0.04300 24.61500
C  27.25500 -0.12000 26.10600
C  25.02200 -0.90200 23.33700
C  28.19500 1.05400 24.07800
C  29.48600 0.51200 23.46700
N  27.50800 0.06600 29.13900
C  28.47900 -0.33400 28.23900
C  29.62400 -0.79800 29.06300
C  29.29300 -0.39200 30.35600
C  27.96300 0.05700 30.35400
C  30.81900 -1.42300 28.55500
C  29.80000 -0.42100 31.72000
O  30.90700 -0.73700 32.15900
C  28.59100 -0.05300 32.61000
C  28.09200 -1.22200 33.39700
O  27.19200 -1.91000 33.04100
O  28.55500 -1.11800 34.64700
C  28.13200 -2.11900 35.63100
H  21.94800 1.21700 31.57600
H  23.00900 0.48600 25.17200
H  29.25100 -0.67500 26.27200
H  25.64100 0.21700 34.08200
H  23.65200 2.15400 33.09400
H  22.45400 -0.50500 33.35000
H  22.36900 0.89500 34.40800
H  23.56600 -0.24100 34.75300
H  25.94400 3.20200 33.37600
H  27.22800 2.20100 34.07800
H  24.59800 2.31300 35.56600
H  25.53100 3.80000 35.46100
H  19.34300 2.08400 29.00300
H  20.28900 1.87100 30.42800
H  19.35400 0.50600 29.65800
H  18.87200 0.04800 27.30800
H  18.40500 0.53700 25.64300
H  18.97800 1.67100 27.01900
H  25.60400 1.16500 23.76700
H  27.40900 -0.94800 24.25400
H  24.64600 -1.76200 23.89200
H  25.69100 -1.36000 22.60900
H  24.26700 -0.50500 22.65900
H  28.46200 1.78900 24.83800
H  27.80200 1.67100 23.27000
H  29.60600 0.94600 22.47400
H  29.35200 -0.57000 23.46700
H  30.37000 0.77800 24.04700
H  30.49000 -2.25100 27.92600
H  31.51200 -1.83100 29.29000
H  31.23400 -0.60000 27.97400
H  28.85100 0.83900 33.18100
H  28.96200 -2.57100 36.17500
H  27.66700 -2.99100 35.17200
H  27.44000 -1.72900 36.37700
Mg 47.22100 24.86900 28.66800
C  47.67700 27.09100 31.35300
C  46.26700 22.48200 31.08900
C  47.00900 22.67000 26.13500
C  48.21700 27.29100 26.32800
N  47.02100 24.74100 30.99400
C  47.18800 25.86800 31.84000
C  46.85700 25.45600 33.29000
C  46.49500 23.98600 33.25700
C  46.59800 23.70100 31.71700
C  47.33100 23.07600 34.22600
C  45.69800 26.42900 33.68500
C  45.98800 27.31000 34.98300
H  44.96100 27.36000 36.05900
N  46.65700 22.89400 28.58500
C  46.29800 22.07900 29.69100
C  45.96700 20.80000 29.13300
C  46.06500 20.82200 27.70600
C  46.61200 22.19800 27.38700
C  45.44500 19.69600 29.95400
C  45.68400 19.86900 26.58600
O  45.79100 20.12800 25.41000
C  45.26800 18.45000 26.95300
N  47.65200 24.94600 26.57000
C  47.54700 23.86300 25.76200
C  47.68100 24.17000 24.29500
C  47.82900 25.76200 24.31500
C  47.91500 26.02100 25.81400
C  48.90500 23.48000 23.53800
C  46.68700 26.45800 23.62200
C  45.29100 26.28300 24.22100
N  47.80600 26.76800 28.73900
C  48.19600 27.64500 27.70200
C  48.53500 28.97500 28.31700
C  48.35700 28.76000 29.71200
C  47.97400 27.41100 29.94600
C  48.95600 30.18300 27.59900
C  48.51600 29.35800 31.03300
O  48.94400 30.49000 31.34400
C  47.98600 28.34500 32.07300
C  49.06800 28.07800 33.06400
O  50.00500 27.33700 32.87900
O  48.94400 28.90600 34.15600
C  49.84500 28.77500 35.26100
H  45.78000 21.78800 31.77700
H  46.95700 22.04200 25.24300
H  48.49000 27.98900 25.53300
H  47.75300 25.72300 33.85000
H  45.50700 23.94400 33.71600
H  47.98700 23.51100 34.98000
H  47.94700 22.30600 33.76200
H  46.55000 22.49200 34.71400
H  44.75600 25.91900 33.88300
H  45.41200 27.17200 32.94000
H  46.15800 28.35600 34.72800
H  46.95800 26.96500 35.34200
H  44.45300 19.38300 29.62700
H  45.31800 19.86000 31.02400
H  46.11500 18.84300 29.84200
H  44.75300 18.13200 26.04600
H  44.56900 18.47300 27.78900
H  46.18800 17.89000 27.12000
H  46.74900 23.84700 23.83000
H  48.78800 26.07300 23.90200
H  49.47800 22.83000 24.19800
H  49.52600 24.23400 23.05300
H  48.50800 22.73400 22.85000
H  46.73500 26.24100 22.55500
H  46.91000 27.52000 23.72600
H  45.33600 25.86300 25.22600
H  44.72200 25.50600 23.71100
H  44.73600 27.22100 24.24400
H  48.93000 31.08900 28.20300
H  48.48600 30.30300 26.62300
H  50.02500 30.00600 27.47400
H  47.17100 28.84000 32.60100
H  49.50400 28.03900 35.98800
H  49.91500 29.66600 35.88400
H  50.82700 28.41000 34.96000

