158

Mg 23.50200 -5.48100 45.86000
C  25.92500 -3.61600 44.11800
C  21.24100 -4.56500 43.42700
C  21.48000 -8.05800 46.88100
C  26.20100 -7.00600 47.69100
N  23.57900 -4.26400 44.01300
C  24.61900 -3.52100 43.54200
C  24.22200 -2.66100 42.36000
C  22.61000 -2.74600 42.54300
C  22.51700 -4.00600 43.34200
C  22.03000 -1.50200 43.25800
C  24.77600 -3.33300 41.07600
C  25.53400 -2.42100 40.02200
H  25.01900 -2.46300 38.58600
N  21.56700 -6.07700 45.30400
C  20.76100 -5.60500 44.24600
C  19.60500 -6.37800 44.19600
C  19.58700 -7.30900 45.27700
C  20.92400 -7.19700 45.87800
C  18.51200 -6.16400 43.13400
C  18.51300 -8.23300 45.65700
O  17.43000 -8.09200 45.09500
C  18.57400 -9.34200 46.73400
N  23.87300 -7.42400 46.90200
C  22.79000 -8.15700 47.29300
C  23.33600 -9.25500 48.28500
C  24.74700 -8.76100 48.71000
C  24.97800 -7.58600 47.74900
C  22.50500 -9.60100 49.52000
C  25.78600 -9.91700 48.67600
C  26.25100 -10.30200 47.23900
N  25.64600 -5.28500 46.04800
C  26.53600 -5.92400 46.88800
C  27.83900 -5.28600 46.60800
C  27.61600 -4.28700 45.61800
C  26.30200 -4.44300 45.25000
C  29.17300 -5.67000 47.35800
C  28.20100 -3.26900 44.83700
O  29.33400 -3.02200 44.82000
C  27.12300 -2.85700 43.72700
C  26.94600 -1.41000 43.99200
O  26.59500 -0.93500 45.09600
O  27.34200 -0.69500 42.92300
C  27.19700 0.75800 43.11800
H  20.46700 -4.18800 42.75700
H  20.92700 -8.87600 47.34800
H  26.90000 -7.37900 48.44300
H  24.69400 -1.69500 42.53800
H  22.08700 -2.89300 41.59700
H  22.77100 -0.89900 43.78400
H  21.22700 -1.78300 43.94000
H  21.48100 -0.81000 42.62000
H  24.00500 -3.80000 40.46200
H  25.31900 -4.25400 41.28900
H  26.58300 -2.71800 40.04400
H  25.54400 -1.39500 40.38900
H  18.02600 -7.11100 42.90200
H  19.09900 -5.88800 42.25800
H  17.86800 -5.30700 43.33400
H  17.74200 -10.00400 46.49400
H  18.54200 -8.84100 47.70100
H  19.46700 -9.95400 46.60800
H  23.50300 -10.17000 47.71600
H  24.75700 -8.34800 49.71900
H  21.76500 -8.83700 49.75800
H  23.07900 -9.72200 50.43900
H  21.96800 -10.51100 49.25400
H  25.44100 -10.83100 49.16000
H  26.72300 -9.64600 49.16200
H  27.27700 -9.96500 47.09000
H  25.68300 -9.73400 46.50200
H  26.11200 -11.37500 47.10000
H  29.95000 -6.01300 46.67500
H  28.93200 -6.51300 48.00600
H  29.42200 -4.77200 47.92300
H  27.45100 -3.08100 42.71200
H  26.22400 1.04100 43.52100
H  27.51700 1.49500 42.38100
H  27.97200 1.00400 43.84300
Mg 24.74600 0.67000 29.97700
C  26.94000 0.35700 32.85600
C  22.11600 0.76800 32.17300
C  22.95300 1.22000 27.33300
C  27.60800 0.37100 27.96400
N  24.59200 0.36600 32.26500
C  25.56900 0.40300 33.19900
C  24.98800 0.46700 34.58500
C  23.48600 0.18100 34.39400
C  23.31000 0.46300 32.84000
C  23.06500 -1.30200 34.66800
C  25.41200 1.70700 35.33000
C  24.69100 2.02800 36.62400
H  25.59900 2.03300 37.81100
N  22.78300 0.85500 29.77300
C  21.87300 0.92900 30.75200
C  20.56300 1.19700 30.13800
C  20.78600 1.22400 28.75500
C  22.21000 1.08300 28.53900
C  19.30200 1.12400 30.93400
C  19.78700 1.53000 27.69000
O  20.07500 1.55400 26.47400
C  18.30600 1.79900 27.91800
N  25.18100 0.60900 27.93100
C  24.26300 0.96300 26.97900
C  24.86900 1.13300 25.53700
C  26.35200 0.94100 25.82500
C  26.36900 0.59700 27.34800
C  24.38400 0.10000 24.57700
C  27.21700 2.16300 25.47400
C  26.98100 3.47200 26.24000
N  26.79900 0.34800 30.32100
C  27.83900 0.22800 29.37400
C  29.08600 -0.06700 30.11100
C  28.77000 0.06800 31.48000
C  27.40700 0.28900 31.53100
C  30.36700 -0.14000 29.41400
C  29.35400 0.06600 32.76200
O  30.53800 -0.02100 33.07300
C  28.21600 0.27900 33.68500
C  28.19900 -0.91000 34.57000
O  27.85000 -2.02000 34.22100
O  28.53400 -0.50900 35.80500
C  28.55100 -1.55600 36.85700
H  21.21900 0.85400 32.78900
H  22.34300 1.68900 26.55800
H  28.53500 0.40900 27.38700
H  25.43500 -0.34000 35.16500
H  22.89800 0.84100 35.03300
H  22.49900 -1.79800 33.88000
H  22.66300 -1.66400 35.61400
H  24.01300 -1.83900 34.62800
H  25.34900 2.55400 34.64700
H  26.46800 1.63700 35.59200
H  23.94400 1.26800 36.85100
H  24.22000 2.98800 36.41300
H  18.92400 2.13400 31.09700
H  19.32300 0.50200 31.82900
H  18.57700 0.56000 30.34800
H  17.91500 0.78700 28.01800
H  17.81500 2.35700 27.12000
H  18.12400 2.37600 28.82500
H  24.63200 2.12900 25.16500
H  26.84700 0.16300 25.24400
H  24.67100 0.61000 23.65700
H  23.30000 0.03200 24.66300
H  24.92300 -0.82000 24.80000
H  26.91300 2.46600 24.47200
H  28.29800 2.06400 25.38000
H  27.89500 3.60600 26.81800
H  26.15300 3.60200 26.93800
H  26.77600 4.30100 25.56300
H  30.36300 -0.82600 28.56700
H  30.92600 -0.72400 30.14600
H  30.88900 0.78800 29.18100
H  28.38100 1.17700 34.28100
H  28.40200 -2.58600 36.53400
H  27.79800 -1.38200 37.62600
H  29.58600 -1.43200 37.17300

