158

Mg 40.48300 9.72000 30.55900
C  42.07700 11.18800 33.20600
C  37.91000 8.76000 32.77900
C  38.87100 8.39500 27.96100
C  43.34100 10.03600 28.54600
N  39.91200 10.13700 32.72500
C  40.74000 10.70500 33.59900
C  40.18300 10.65000 35.11000
C  38.95300 9.72700 34.96800
C  38.87300 9.53400 33.39100
C  39.04400 8.42100 35.88600
C  39.87500 12.10100 35.69300
C  40.69900 12.57100 36.99100
H  39.87200 13.08400 38.15700
N  38.61100 8.64500 30.35600
C  37.72600 8.38200 31.42800
C  36.56600 7.69300 30.81700
C  36.83700 7.43900 29.44400
C  38.15000 8.14100 29.15000
C  35.42600 7.24400 31.75800
C  35.98900 6.75100 28.30900
O  36.15300 6.84700 27.12700
C  34.83600 5.93200 28.79900
N  41.06200 9.35600 28.54000
C  40.13200 8.91300 27.65500
C  40.73700 8.82200 26.21300
C  42.25300 9.01500 26.48800
C  42.23200 9.52300 27.87500
C  40.41300 7.56500 25.29600
C  42.96400 9.83000 25.38900
C  42.87400 11.33700 25.59600
N  42.32700 10.45800 30.78300
C  43.39000 10.50700 29.85100
C  44.37300 11.28300 30.49500
C  43.92500 11.58600 31.78700
C  42.66500 11.03500 31.94200
C  45.71300 11.67600 29.84300
C  44.30700 12.21000 33.10200
O  45.39300 12.74700 33.36200
C  43.11600 11.88700 34.08400
C  43.80100 11.09700 35.15800
O  44.35500 9.99500 35.09100
O  43.94400 11.89600 36.31700
C  44.32500 11.15900 37.51400
H  37.24300 8.31900 33.52300
H  38.27600 8.00500 27.13200
H  44.13400 10.20700 27.81500
H  40.84200 10.14000 35.81300
H  38.05300 10.18400 35.38000
H  39.75700 7.72300 35.44700
H  38.11500 7.85300 35.84200
H  39.24000 8.57300 36.94700
H  38.84400 12.16500 36.04100
H  39.97800 12.81800 34.87800
H  41.35700 13.37500 36.66000
H  41.27400 11.68400 37.25500
H  35.16200 8.05500 32.43600
H  35.72400 6.41700 32.40300
H  34.53000 7.03300 31.17400
H  35.31900 5.21900 29.46800
H  34.43500 5.46100 27.90200
H  34.07400 6.62200 29.16100
H  40.25200 9.59800 25.62000
H  42.76400 8.05900 26.60000
H  39.92300 7.70300 24.33300
H  39.93500 6.82400 25.93700
H  41.38800 7.23700 24.93400
H  42.54600 9.55700 24.41900
H  44.02000 9.58200 25.28600
H  42.05300 11.69800 26.21600
H  42.74300 11.77700 24.60700
H  43.84000 11.68300 25.96200
H  45.51600 12.25000 28.93800
H  46.38700 10.84600 29.63300
H  46.14900 12.39900 30.53300
H  42.73500 12.79500 34.55000
H  43.95600 11.81500 38.30300
H  45.39400 10.97100 37.61300
H  43.77400 10.22000 37.55600
Mg 10.24100 46.59300 25.67900
C  8.06400 46.87500 28.39900
C  12.60000 48.38100 27.35100
C  12.17200 46.80700 22.88200
C  7.49800 45.98300 23.71400
N  10.26900 47.59900 27.53600
C  9.38400 47.36200 28.61500
C  10.04800 47.80700 29.87300
C  11.23600 48.73200 29.39300
C  11.38800 48.19700 28.00300
C  10.96800 50.26800 29.45600
C  10.56400 46.64400 30.76100
C  10.46900 46.97200 32.26700
H  10.09900 45.73800 33.12700
N  12.21400 47.21300 25.30800
C  12.98000 47.94500 26.11000
C  14.30300 48.02800 25.58300
C  14.23700 47.46600 24.24000
C  12.80300 47.17500 24.07800
C  15.46700 48.62300 26.38400
C  15.40200 47.35200 23.23300
O  15.17000 47.02400 22.09100
C  16.81800 47.56900 23.70500
N  9.85900 46.36700 23.65900
C  10.82500 46.47900 22.65600
C  10.26600 46.21800 21.24000
C  8.74100 46.07400 21.51900
C  8.68800 46.06700 23.07100
C  10.62600 47.19200 20.10000
C  8.10400 44.91700 20.67600
C  6.91400 45.26700 19.75400
N  8.18900 46.28900 25.99500
C  7.22500 45.98800 25.13300
C  5.92000 45.90300 25.73600
C  6.20200 46.11400 27.08000
C  7.54200 46.43600 27.15400
C  4.55800 45.52700 25.16000
C  5.61400 46.16200 28.40300
O  4.51400 45.97900 28.81500
C  6.84000 46.70100 29.30000
C  7.01400 45.66500 30.35800
O  7.51800 44.56600 30.10600
O  6.44100 46.12900 31.55500
C  6.25500 45.08400 32.63900
H  13.31900 49.05300 27.82300
H  12.73400 46.86200 21.94800
H  6.57600 45.94100 23.13100
H  9.22600 48.25700 30.43000
H  12.03100 48.56800 30.12100
H  10.07600 50.49000 30.04200
H  10.81200 50.68300 28.46000
H  11.76700 50.81700 29.95400
H  11.62900 46.52300 30.56200
H  10.08600 45.69900 30.50400
H  9.79800 47.82300 32.38200
H  11.46500 47.24500 32.61500
H  15.15600 48.65400 27.42900
H  15.53400 49.66700 26.07800
H  16.40700 48.09500 26.22500
H  17.47500 47.54000 22.83600
H  17.08600 46.87300 24.50100
H  16.98100 48.50500 24.24000
H  10.75100 45.31400 20.87200
H  8.32600 47.01600 21.16100
H  11.05800 48.10500 20.51000
H  9.71500 47.41300 19.54400
H  11.26200 46.68700 19.37300
H  7.54800 44.29700 21.37900
H  8.79700 44.22000 20.20400
H  7.11400 44.94200 18.73300
H  6.74700 46.34300 19.69900
H  5.97500 44.83900 20.10300
H  3.94400 45.24500 26.01500
H  4.60300 44.80200 24.34700
H  4.15100 46.44200 24.73100
H  6.64300 47.64300 29.81200
H  5.18000 44.91000 32.67300
H  6.76400 45.45000 33.53000
H  6.69600 44.15600 32.27400

