158

Mg 30.57500 59.80500 39.67800
C  27.76000 58.07900 38.74200
C  32.44800 56.84900 39.00800
C  33.40300 61.67900 39.65800
C  28.63000 62.64600 39.85900
N  30.10600 57.70800 38.94700
C  28.92200 57.27500 38.59200
C  28.94400 55.83100 38.10000
C  30.43100 55.38200 38.30200
C  31.06500 56.72400 38.84100
C  30.61300 54.15200 39.21700
C  28.55300 55.68900 36.52100
C  27.38300 54.72100 36.06100
H  26.69400 55.06000 34.76500
N  32.66900 59.31100 39.44500
C  33.21200 58.04100 39.20400
C  34.64200 58.16000 39.16100
C  34.90200 59.53500 39.28100
C  33.60100 60.24600 39.35700
C  35.46700 56.94100 38.99400
C  36.31300 60.23200 39.21600
O  37.35600 59.57200 39.02700
C  36.55800 61.68200 39.35700
N  30.98800 62.04000 39.61000
C  32.26100 62.47400 39.75800
C  32.13200 64.03700 39.92700
C  30.64000 64.35800 40.13800
C  30.00500 62.95200 39.90700
C  33.18500 64.62600 40.99500
C  30.01400 65.39900 39.18200
C  29.16800 66.51400 39.78100
N  28.51700 60.27400 39.54500
C  27.89500 61.45200 39.60800
C  26.46500 61.27600 39.52000
C  26.33400 59.91400 39.19300
C  27.59500 59.41300 39.16200
C  25.35100 62.27400 39.49500
C  25.35000 58.90200 38.77400
O  24.12400 59.04500 38.66900
C  26.30600 57.63100 38.45400
C  25.93300 56.47500 39.40300
O  26.42900 56.26000 40.51300
O  24.80900 55.82300 38.87900
C  24.04200 54.98400 39.74700
H  33.04900 55.95800 38.81500
H  34.28900 62.31400 39.58300
H  28.04100 63.51400 40.16200
H  28.26700 55.17100 38.64200
H  30.87200 55.19400 37.32300
H  31.19800 53.43800 38.63800
H  29.66800 53.66900 39.46400
H  31.22400 54.28600 40.11000
H  29.40900 55.28500 35.98100
H  28.42000 56.70700 36.15300
H  26.57300 54.55200 36.77200
H  27.71600 53.68300 36.06800
H  36.54300 57.11500 38.98000
H  35.12200 56.21300 38.25900
H  35.29000 56.36300 39.90100
H  37.63400 61.83100 39.26500
H  36.19500 62.12300 40.28600
H  36.20900 62.21600 38.47300
H  32.37700 64.60500 39.02900
H  30.37100 64.62400 41.16100
H  33.93800 65.22100 40.47800
H  33.64300 63.89400 41.66000
H  32.55600 65.32100 41.55000
H  29.34800 64.83500 38.52900
H  30.73000 65.77800 38.45200
H  29.87900 67.34000 39.78900
H  28.86200 66.16800 40.76800
H  28.32500 66.71000 39.11800
H  24.47900 61.77700 39.92100
H  24.98600 62.43100 38.48000
H  25.62100 63.14300 40.09500
H  26.14500 57.27000 37.43800
H  23.32100 55.65400 40.21400
H  24.72700 54.62600 40.51600
H  23.57600 54.12200 39.27000
Mg -5.44600 25.92400 25.39700
C  -3.70400 27.06700 28.26600
C  -7.27700 23.80200 27.41800
C  -6.80600 24.76600 22.64600
C  -3.33200 27.85700 23.41900
N  -5.50000 25.49000 27.67100
C  -4.75700 26.14800 28.65900
C  -5.38200 25.89100 30.05200
C  -6.28200 24.61200 29.74100
C  -6.35000 24.61200 28.17000
C  -5.71300 23.30200 30.37800
C  -6.12400 27.11000 30.69100
C  -5.79400 27.34400 32.15400
H  -5.41000 26.17000 33.10500
N  -6.85200 24.41900 25.08200
C  -7.48000 23.63100 26.03400
C  -8.42900 22.76000 25.40200
C  -8.35300 23.02000 23.99000
C  -7.28600 24.09500 23.81200
C  -9.19300 21.62900 26.22900
C  -9.08200 22.31100 22.84300
O  -8.99200 22.74500 21.67900
C  -9.98900 21.15300 23.21700
N  -5.04800 26.19100 23.30300
C  -5.75000 25.58800 22.38000
C  -5.43300 25.96200 20.97000
C  -4.45300 27.21100 21.20500
C  -4.26200 27.06300 22.72700
C  -4.82400 24.78900 20.15500
C  -5.17000 28.57900 20.84400
C  -5.83700 28.84700 19.48400
N  -3.76400 27.14000 25.73900
C  -3.04100 27.83800 24.85100
C  -2.08400 28.65100 25.63500
C  -2.34700 28.39800 26.93200
C  -3.34800 27.46900 26.95000
C  -0.99200 29.72000 25.13000
C  -2.02400 28.85200 28.31000
O  -1.31100 29.76300 28.64700
C  -2.85300 27.83900 29.27000
C  -1.90200 27.03500 30.10700
O  -0.84100 26.53000 29.73800
O  -2.30600 27.19800 31.40300
C  -1.46600 26.52600 32.40500
H  -8.07100 23.33300 28.00300
H  -7.37400 24.39700 21.78900
H  -2.72700 28.55300 22.83400
H  -4.60600 25.66200 30.78300
H  -7.27900 24.81100 30.13300
H  -4.74000 23.30800 30.86900
H  -5.51400 22.62500 29.54700
H  -6.42600 22.83400 31.05700
H  -7.20100 26.99100 30.57700
H  -5.87200 27.93600 30.02600
H  -6.65400 27.82300 32.62200
H  -5.01700 28.10400 32.06400
H  -10.20500 21.47900 25.85200
H  -9.17400 21.78200 27.30800
H  -8.70700 20.66400 26.09100
H  -10.33900 20.54100 22.38600
H  -10.85400 21.49900 23.78300
H  -9.43000 20.48400 23.87100
H  -6.37200 26.23200 20.48600
H  -3.51000 26.99700 20.70100
H  -4.74400 23.85500 20.71100
H  -3.88700 24.98900 19.63500
H  -5.54200 24.48800 19.39200
H  -4.43900 29.38500 20.90400
H  -5.83900 28.75900 21.68500
H  -5.87600 27.94200 18.87700
H  -5.49600 29.69400 18.88700
H  -6.84600 29.15400 19.75700
H  -1.08500 30.60400 25.76000
H  -1.11800 29.98800 24.08100
H  0.01200 29.30300 25.21500
H  -3.48400 28.42500 29.93800
H  -1.11100 25.58700 31.98000
H  -1.99700 26.27900 33.32500
H  -0.59300 27.10800 32.69900

