158

Mg 25.21200 2.00400 29.65200
C  27.18600 1.35600 32.35100
C  22.42000 2.45600 31.68000
C  23.15100 2.20000 26.83000
C  27.86500 1.37400 27.52200
N  24.86400 1.89500 31.76500
C  25.85100 1.75600 32.66600
C  25.37800 2.04300 34.08900
C  23.84400 2.32600 33.91600
C  23.67400 2.25200 32.35400
C  22.93500 1.27700 34.68100
C  26.13200 3.31300 34.71600
C  26.90000 3.19400 36.08400
H  26.40900 4.08400 37.22700
N  23.11200 2.29500 29.34600
C  22.17200 2.40100 30.33000
C  20.87800 2.42000 29.69700
C  21.08100 2.36600 28.27800
C  22.51900 2.25600 28.11500
C  19.54000 2.32100 30.48300
C  20.00200 2.20600 27.20900
O  20.17500 2.14100 25.98600
C  18.50300 2.16100 27.57700
N  25.43800 1.84400 27.54800
C  24.53100 2.11600 26.62000
C  25.16600 2.40100 25.20200
C  26.65500 2.24900 25.46500
C  26.66400 1.73400 26.89800
C  24.60000 1.55100 24.01900
C  27.48500 3.57600 25.38500
C  27.04700 4.72900 26.31400
N  27.13400 1.36000 29.83100
C  28.13500 1.16200 28.90600
C  29.41800 0.86400 29.55100
C  29.13600 0.92900 30.96600
C  27.72700 1.20900 31.04300
C  30.75900 0.62000 28.82500
C  29.68000 0.91700 32.34100
O  30.82400 0.85500 32.82500
C  28.41000 1.19000 33.21300
C  28.32200 0.10000 34.24500
O  27.80800 -1.00400 34.01400
O  28.82100 0.58000 35.37300
C  28.65700 -0.27000 36.54200
H  21.59200 2.80000 32.30200
H  22.53600 2.41000 25.95200
H  28.65300 1.35800 26.76600
H  25.64500 1.19800 34.72300
H  23.58500 3.33000 34.25300
H  23.56000 0.88700 35.48400
H  22.66700 0.58500 33.88200
H  22.03900 1.74100 35.09300
H  25.44200 4.15500 34.67600
H  26.87400 3.65500 33.99400
H  27.93800 3.51700 36.00000
H  26.75800 2.17300 36.43700
H  19.05500 1.34700 30.41400
H  18.85300 3.15700 30.35300
H  19.54000 2.34100 31.57300
H  18.12800 1.21300 27.96200
H  17.99900 2.18700 26.61100
H  18.20900 2.97700 28.23700
H  25.10800 3.46600 24.97300
H  27.11000 1.54500 24.76800
H  25.39800 0.89600 23.66900
H  24.25900 2.17600 23.19400
H  23.72000 1.02200 24.38700
H  27.41200 3.98400 24.37700
H  28.54700 3.40800 25.56300
H  27.71500 4.96100 27.14400
H  26.08300 4.47700 26.75700
H  26.81900 5.66900 25.81100
H  31.25200 1.58500 28.70400
H  30.48400 0.10300 27.90600
H  31.31800 -0.06500 29.46200
H  28.50800 2.18800 33.64000
H  29.56700 -0.85700 36.66200
H  27.81800 -0.96600 36.55700
H  28.56000 0.41600 37.38300
Mg 47.46200 16.19200 29.11700
C  45.76500 16.01700 32.24400
C  49.89300 18.09200 30.58300
C  48.83700 16.79900 26.08800
C  44.57800 14.88500 27.61900
N  47.68500 17.09600 31.13500
C  46.98600 16.70500 32.27400
C  47.76700 17.08400 33.46400
C  48.87000 17.94100 32.99100
C  48.85700 17.66000 31.48700
C  48.84300 19.44600 33.31600
C  48.32000 15.77400 34.25200
C  48.38700 15.81500 35.86000
H  47.74200 17.00700 36.68100
N  49.17800 17.22500 28.43700
C  50.09500 17.89100 29.22500
C  51.11300 18.47000 28.43200
C  50.86600 18.05200 27.10900
C  49.56300 17.36400 27.14900
C  52.25900 19.27400 28.91200
C  51.71000 18.13700 25.91200
O  51.33700 17.72100 24.77800
C  53.12200 18.83600 25.98500
N  46.76100 15.91500 27.19200
C  47.59200 16.15600 26.06300
C  46.90000 15.69800 24.78400
C  45.62200 14.94400 25.30700
C  45.62500 15.32100 26.75700
C  46.57700 16.84100 23.73000
C  45.57800 13.40000 25.03100
C  44.86100 13.01500 23.71700
N  45.54100 15.50600 29.74400
C  44.44900 15.02500 29.00800
C  43.33700 14.65300 29.92300
C  43.90300 14.94500 31.19700
C  45.16200 15.48800 31.02000
C  42.04400 13.93000 29.59600
C  43.66200 14.72400 32.64500
O  42.67600 14.23900 33.27400
C  44.89700 15.50700 33.34600
C  44.22400 16.62800 34.00300
O  43.78700 17.61400 33.40500
O  44.06200 16.41300 35.38300
C  43.17100 17.33300 36.15800
H  50.78200 18.47600 31.08800
H  49.10500 16.90700 25.03500
H  43.77000 14.39800 27.06900
H  47.28300 17.74000 34.18800
H  49.87800 17.67900 33.30900
H  48.50000 19.49500 34.34900
H  48.17800 20.01200 32.66400
H  49.88200 19.77000 33.26000
H  49.30400 15.50100 33.87000
H  47.68300 14.92400 34.00900
H  49.44800 15.82300 36.11000
H  47.80400 14.96400 36.21200
H  53.17000 18.67700 28.95800
H  52.18300 19.51800 29.97200
H  52.28500 20.21100 28.35600
H  52.88500 19.89600 26.07600
H  53.59700 18.64500 25.02200
H  53.79600 18.39500 26.72000
H  47.50000 14.97300 24.23400
H  44.75900 15.36900 24.79400
H  45.52000 16.71800 23.49300
H  47.08200 16.75500 22.76800
H  46.75000 17.83300 24.14800
H  45.07000 12.83600 25.81300
H  46.61700 13.09700 24.89800
H  44.80000 13.95700 23.17300
H  43.86900 12.59400 23.88300
H  45.45100 12.41100 23.02700
H  41.77900 13.97200 28.53900
H  41.30300 14.54000 30.11300
H  42.05500 12.90300 29.96000
H  45.36200 14.93500 34.14900
H  43.10200 18.34600 35.76200
H  43.48200 17.37600 37.20200
H  42.11900 17.06400 36.25800

