158

Mg 15.77700 51.45100 25.60200
C  17.23600 50.31600 28.60000
C  12.93600 52.19700 27.38500
C  14.27000 52.01000 22.73500
C  18.54400 50.10500 23.90300
N  15.14900 51.18100 27.75700
C  15.99300 50.91100 28.82300
C  15.43100 51.44000 30.18200
C  13.95100 51.75400 29.81000
C  14.01500 51.78900 28.24000
C  12.69500 50.89000 30.25600
C  16.26800 52.69800 30.60400
C  16.07300 53.24900 31.95500
H  14.88500 52.79800 32.86400
N  13.87100 51.96600 25.12500
C  12.85000 52.29800 26.01600
C  11.65100 52.59300 25.26900
C  11.95000 52.37200 23.89200
C  13.42900 52.10500 23.84700
C  10.34600 52.93400 25.91300
C  11.07400 52.39600 22.62500
O  11.47800 52.04700 21.54900
C  9.64700 52.78700 22.75700
N  16.33100 51.06100 23.54000
C  15.58200 51.54600 22.51900
C  16.23800 51.37000 21.16400
C  17.54800 50.57400 21.59700
C  17.53300 50.58500 23.11600
C  15.28000 50.72900 20.11800
C  18.84800 51.12700 20.97000
C  19.34500 50.24700 19.83600
N  17.54900 50.34300 26.11200
C  18.59400 49.89900 25.32300
C  19.62400 49.34300 26.16300
C  19.14400 49.41100 27.44200
C  17.85600 50.03000 27.40900
C  20.91600 48.90500 25.63500
C  19.44600 49.20700 28.80500
O  20.50700 48.86800 29.36800
C  18.24600 49.82600 29.55600
C  17.55400 48.99600 30.62500
O  16.74800 48.10000 30.50900
O  18.11400 49.30900 31.84800
C  17.83700 48.41900 32.96200
H  12.07900 52.41600 28.02600
H  13.82500 52.21100 21.75900
H  19.41400 49.78100 23.32700
H  15.40600 50.64200 30.92500
H  13.83700 52.81100 30.04900
H  12.32900 50.41100 29.34900
H  11.92800 51.47600 30.76200
H  13.06500 50.12300 30.93600
H  16.32200 53.43300 29.80100
H  17.31000 52.37700 30.59100
H  15.91900 54.29700 31.69800
H  17.03000 53.06700 32.44300
H  9.98500 53.82000 25.39100
H  10.55300 53.31300 26.91400
H  9.59000 52.15000 25.89400
H  9.61400 53.85900 22.95100
H  9.18900 52.12500 23.49200
H  9.21300 52.58300 21.77800
H  16.51000 52.33400 20.73500
H  17.40400 49.57600 21.18400
H  14.42100 50.31900 20.64900
H  15.76200 49.90100 19.59900
H  14.81600 51.54800 19.56800
H  19.69900 51.29900 21.62900
H  18.54800 52.07300 20.52000
H  20.13000 49.61800 20.25500
H  19.90200 50.86200 19.12800
H  18.60000 49.76400 19.20300
H  21.33200 49.84500 25.27200
H  20.88600 48.12800 24.87200
H  21.58700 48.43500 26.35500
H  18.61400 50.74000 30.02200
H  17.21000 48.95000 33.67900
H  18.73800 48.10100 33.48800
H  17.30000 47.49000 32.77100
Mg -5.48400 24.58200 27.33800
C  -3.63200 26.26600 29.75800
C  -6.52500 22.23900 29.68600
C  -6.98200 22.75700 24.84100
C  -4.32300 26.77200 24.91100
N  -5.14600 24.39000 29.48100
C  -4.45200 25.23000 30.31800
C  -4.65700 24.90600 31.76700
C  -5.20000 23.46400 31.63800
C  -5.66800 23.32500 30.12200
C  -4.29100 22.32900 32.28700
C  -5.57800 25.76200 32.64600
C  -5.10700 25.81600 34.12100
H  -5.49700 24.79700 35.21400
N  -6.58500 22.73100 27.30300
C  -6.94000 21.89100 28.36000
C  -7.74900 20.79900 27.85200
C  -7.89100 20.91500 26.49700
C  -7.16500 22.22200 26.18200
C  -8.32200 19.78300 28.74800
C  -8.60300 20.08000 25.51400
O  -8.71400 20.45500 24.39300
C  -9.01900 18.69500 25.93000
N  -5.58500 24.73100 25.19300
C  -6.35100 23.96700 24.43600
C  -6.28600 24.32900 22.94600
C  -5.86600 25.79700 23.12300
C  -5.21700 25.79600 24.50500
C  -5.44500 23.51900 22.03100
C  -6.92500 26.81900 22.73100
C  -7.01000 27.17600 21.27300
N  -4.14700 26.17300 27.25100
C  -3.81400 27.00300 26.20100
C  -2.83200 28.03600 26.70100
C  -2.77000 27.76000 28.06300
C  -3.56200 26.65400 28.36300
C  -1.93700 28.88800 25.82200
C  -2.06700 28.16400 29.26400
O  -1.17800 29.00700 29.43500
C  -2.66200 27.23300 30.37700
C  -1.53000 26.59700 31.20200
O  -0.75900 25.77100 30.94800
O  -1.75900 27.03800 32.46900
C  -0.92000 26.44100 33.54400
H  -6.82700 21.54700 30.47500
H  -7.52000 22.24700 24.03900
H  -4.17600 27.64600 24.27200
H  -3.65200 24.80600 32.17700
H  -6.15500 23.34700 32.15100
H  -4.05600 21.63600 31.48000
H  -4.94800 21.77800 32.95900
H  -3.34600 22.61900 32.74600
H  -6.61500 25.43000 32.60100
H  -5.63800 26.76700 32.23000
H  -5.14100 26.86900 34.40200
H  -4.02300 25.73100 34.04200
H  -8.12200 18.78000 28.37000
H  -9.40000 19.90700 28.84400
H  -7.92300 19.87900 29.75800
H  -8.12000 18.17100 26.25500
H  -9.51800 18.09800 25.16700
H  -9.80000 18.80200 26.68300
H  -7.32000 24.22700 22.61700
H  -5.00100 26.07700 22.52100
H  -5.04700 22.58400 22.42500
H  -4.55100 24.07100 21.74100
H  -6.07000 23.31200 21.16100
H  -6.58500 27.67800 23.30900
H  -7.88100 26.51400 23.15600
H  -7.97200 27.24500 20.76500
H  -6.58500 26.43700 20.59400
H  -6.52200 28.13600 21.10500
H  -1.84700 29.96200 25.98300
H  -2.44300 28.85600 24.85800
H  -0.94200 28.44500 25.78100
H  -3.12800 27.94500 31.05800
H  0.14600 26.48100 33.32300
H  -1.15300 25.40800 33.80200
H  -1.21100 27.06000 34.39300

