158

Mg 39.90400 10.09100 29.57500
C  42.15500 11.21300 32.30600
C  37.81700 8.92000 31.97100
C  38.27600 8.66800 27.10900
C  42.50700 10.92700 27.52100
N  39.98600 10.18200 31.88400
C  40.90700 10.74100 32.75400
C  40.43300 10.71600 34.15400
C  39.05500 9.79800 33.98900
C  38.89900 9.60600 32.51800
C  38.95700 8.46800 34.79400
C  40.13400 12.17800 34.69100
C  40.84100 12.48700 36.02000
H  40.02800 13.10100 37.24500
N  38.22800 8.98200 29.53500
C  37.48900 8.61700 30.63900
C  36.34300 7.85800 30.15200
C  36.46300 7.72100 28.72900
C  37.72600 8.42400 28.39700
C  35.30300 7.17800 31.08500
C  35.51700 7.12500 27.74900
O  35.72000 7.19900 26.52400
C  34.26400 6.54000 28.16400
N  40.41900 9.66300 27.60800
C  39.48900 9.22600 26.73800
C  39.90800 9.52200 25.25800
C  41.35300 10.18100 25.37700
C  41.41600 10.32900 26.89300
C  39.90800 8.22900 24.37200
C  41.54600 11.54500 24.53700
C  41.00800 12.82000 25.13400
N  41.81700 10.93800 29.76900
C  42.79600 11.15000 28.85100
C  44.00700 11.76000 29.29100
C  43.76500 11.85000 30.70400
C  42.50200 11.24200 30.95300
C  45.13500 12.29300 28.54000
C  44.30600 12.24400 31.93300
O  45.34000 12.77400 32.24000
C  43.32000 11.76400 33.05200
C  43.92200 10.78500 34.01800
O  44.30500 9.62800 33.75900
O  44.15200 11.44600 35.17000
C  44.81500 10.55700 36.14600
H  37.13300 8.57200 32.74700
H  37.63200 8.44400 26.25600
H  43.30400 11.10900 26.79700
H  41.26500 10.27400 34.70200
H  38.20400 10.45700 34.16400
H  39.18900 7.59100 34.19000
H  37.95400 8.37600 35.21000
H  39.70700 8.50900 35.58300
H  39.06300 12.35000 34.79400
H  40.49700 12.85600 33.91800
H  41.56800 13.28600 35.87200
H  41.49500 11.67000 36.32400
H  35.13500 6.10500 30.98700
H  34.35200 7.66600 30.87200
H  35.57600 7.38200 32.12100
H  34.26400 5.80300 28.96700
H  33.82800 6.08000 27.27700
H  33.72100 7.45300 28.40600
H  39.12700 10.21100 24.93800
H  42.14800 9.49300 25.09000
H  39.69400 7.43900 25.09200
H  40.91300 8.11000 23.96900
H  39.24900 8.41700 23.52400
H  40.89500 11.49100 23.66500
H  42.58400 11.59200 24.20700
H  40.59700 13.52600 24.41300
H  41.89500 13.28900 25.56000
H  40.22900 12.64500 25.87600
H  44.67100 12.85700 27.73200
H  45.65300 11.42700 28.12900
H  45.79600 12.82400 29.22600
H  42.98100 12.66100 33.57000
H  45.69700 10.06400 35.73600
H  44.15700 9.79500 36.56300
H  45.24800 11.26600 36.85100
Mg 48.97900 44.57900 43.22600
C  45.68200 44.40200 42.19800
C  49.13600 41.09100 42.90200
C  52.37600 44.73100 43.19000
C  48.82500 48.00000 43.20800
N  47.59200 42.94000 42.67200
C  46.24800 43.12400 42.32800
C  45.55900 41.76900 42.09900
C  46.57600 40.75900 42.69200
C  47.84400 41.61000 42.78400
C  46.17600 40.18200 44.01100
C  45.17900 41.58000 40.55700
C  46.05400 42.37000 39.49100
H  46.14900 41.74000 38.04600
N  50.50800 43.08800 43.07600
C  50.37000 41.71900 42.94500
C  51.63200 41.11600 42.88200
C  52.60700 42.15500 42.96800
C  51.86300 43.36400 43.14400
C  51.82300 39.66700 42.60900
C  54.18200 41.92300 43.02000
O  54.65000 40.84100 42.75800
C  55.10700 43.00200 43.31400
N  50.39900 46.14300 43.20500
C  51.71100 45.96200 43.30300
C  52.49500 47.30400 43.44200
C  51.36700 48.34600 43.58300
C  50.11000 47.44900 43.29100
C  53.63800 47.42200 44.49000
C  51.56600 49.60500 42.69500
C  51.23300 49.47700 41.18300
N  47.52600 45.97600 42.95600
C  47.60200 47.36300 42.96500
C  46.35000 47.87900 42.58600
C  45.45600 46.76200 42.29300
C  46.29300 45.63200 42.47000
C  46.03200 49.32800 42.31500
C  44.18200 46.26500 41.89600
O  43.15800 46.86400 41.70600
C  44.20600 44.66900 41.96400
C  43.26400 44.18600 42.96300
O  42.37100 43.39100 42.73600
O  43.35500 44.92800 44.18600
C  42.14100 44.74700 45.04100
H  49.17700 40.00600 42.78600
H  53.46500 44.77800 43.26100
H  48.79500 49.09000 43.26600
H  44.58000 41.73800 42.57600
H  46.75800 40.01200 41.91900
H  45.95700 39.12300 43.87300
H  45.36000 40.64900 44.56300
H  46.96600 40.18000 44.76100
H  44.16600 41.95800 40.42300
H  45.15800 40.51300 40.33200
H  47.09900 42.52200 39.76100
H  45.59100 43.33100 39.26800
H  52.05500 39.53000 41.55300
H  50.92100 39.17600 42.97400
H  52.64500 39.26900 43.20500
H  55.20100 43.79600 42.57300
H  56.12300 42.63100 43.44900
H  54.88100 43.37600 44.31300
H  53.03700 47.50500 42.51800
H  51.09600 48.70500 44.57600
H  53.32300 48.07400 45.30500
H  54.49300 47.95800 44.07900
H  53.78100 46.41900 44.89400
H  52.63100 49.84000 42.69400
H  51.05000 50.45300 43.14500
H  50.95000 48.43300 41.04500
H  52.03900 49.68500 40.48000
H  50.47900 50.23700 40.97800
H  45.06600 49.32900 41.81000
H  46.84900 49.88500 41.85600
H  45.76600 49.94500 43.17300
H  43.90100 44.40300 40.95200
H  42.09500 45.51500 45.81300
H  42.07400 43.76300 45.50500
H  41.21000 44.87700 44.48900

