158

Mg 43.09800 4.46600 47.89100
C  40.97100 7.21300 48.08100
C  40.15600 2.50100 47.29900
C  44.97300 2.05400 46.86500
C  45.91500 6.71000 47.98800
N  40.82200 4.87200 47.67000
C  40.26600 6.03500 48.02100
C  38.71100 5.90300 48.00100
C  38.47000 4.39100 47.89400
C  39.90100 3.85500 47.61100
C  37.66500 3.70500 49.08500
C  37.93200 6.72700 46.89600
C  38.62800 7.16300 45.58000
H  38.25100 6.50400 44.20300
N  42.61200 2.48800 47.35500
C  41.36200 1.85700 47.24100
C  41.66700 0.49600 46.88200
C  43.03600 0.39100 46.46400
C  43.61700 1.68000 46.85400
C  40.53300 -0.56300 46.65700
C  43.79300 -0.72900 45.68400
O  43.07100 -1.60100 45.29200
C  45.27400 -0.73900 45.20600
N  45.16500 4.42300 47.39700
C  45.67600 3.23200 47.20300
C  47.22300 3.29200 47.25200
C  47.54200 4.81000 47.41000
C  46.13700 5.33400 47.70000
C  47.90100 2.41900 48.31800
C  48.26900 5.50600 46.22800
C  49.76900 5.24600 46.19800
N  43.46400 6.51700 47.98400
C  44.65500 7.34000 48.00600
C  44.29800 8.63700 48.23300
C  42.83700 8.74500 48.20000
C  42.37200 7.36200 48.07800
C  45.20100 9.83400 48.44100
C  41.72000 9.55800 48.26900
O  41.60000 10.74800 48.37300
C  40.43700 8.61200 48.19500
C  39.55800 8.80700 49.32800
O  39.64500 8.27500 50.38400
O  38.54100 9.74000 49.09500
C  37.40000 9.99000 49.97100
H  39.32400 1.84600 47.03300
H  45.64700 1.23200 46.61400
H  46.78900 7.29700 48.27800
H  38.19700 6.19500 48.91700
H  37.92200 4.23200 46.96500
H  36.85500 4.36400 49.39600
H  38.43600 3.64200 49.85200
H  37.34300 2.68100 48.89200
H  37.47700 7.57300 47.41200
H  37.11100 6.12700 46.50400
H  39.70200 7.06100 45.73600
H  38.30300 8.20400 45.55900
H  40.11300 -0.57000 45.65100
H  39.63800 -0.45300 47.26900
H  41.04200 -1.51300 46.81400
H  45.93000 -0.87100 46.06600
H  45.48400 0.24200 44.77900
H  45.54500 -1.52600 44.50100
H  47.68700 3.05200 46.29500
H  48.16800 5.00100 48.28100
H  48.43300 1.59300 47.84500
H  47.12200 2.02400 48.97000
H  48.70600 2.97000 48.80400
H  48.10000 6.58200 46.27300
H  47.88200 5.10000 45.29300
H  50.37100 6.14500 46.06400
H  50.10300 4.55100 45.42800
H  50.05700 4.71800 47.10700
H  44.69200 10.50100 47.74500
H  46.25900 9.80500 48.17700
H  45.13600 10.11800 49.49100
H  39.89200 8.93400 47.30800
H  37.57800 9.47100 50.91300
H  36.65700 9.38400 49.45100
H  37.10600 11.03400 50.08000
Mg 39.81200 9.98800 31.03500
C  41.83800 11.52800 33.56100
C  38.03600 8.63300 33.55200
C  38.35500 8.13000 28.74600
C  42.26500 10.95200 28.74500
N  39.93200 10.20400 33.33300
C  40.76200 10.84700 34.16300
C  40.45000 10.63000 35.69400
C  39.31000 9.55300 35.54300
C  39.05500 9.41500 34.04300
C  39.75600 8.21500 36.17100
C  39.91600 11.92600 36.45100
C  40.73500 12.23200 37.72900
H  40.05900 12.82900 38.98200
N  38.28400 8.65800 31.10200
C  37.63000 8.30300 32.26800
C  36.58000 7.40000 31.87300
C  36.67500 7.19600 30.45900
C  37.87600 7.96500 30.01800
C  35.72400 6.70900 32.88100
C  35.83200 6.31100 29.50900
O  36.17100 6.07400 28.36300
C  34.74200 5.47100 30.15900
N  40.40700 9.36600 29.05000
C  39.42700 8.83300 28.26100
C  39.73200 9.00500 26.76700
C  41.08100 9.75100 26.76900
C  41.30700 10.07000 28.24200
C  39.65200 7.66600 25.92100
C  41.31700 10.89000 25.66300
C  40.97300 12.30800 26.07700
N  41.68200 11.09300 31.10300
C  42.55600 11.31600 30.12700
C  43.64000 12.13100 30.60900
C  43.40100 12.21200 31.97800
C  42.18600 11.67300 32.21900
C  44.80400 12.57700 29.81400
C  43.92100 12.66800 33.22800
O  44.90700 13.35400 33.46000
C  42.98100 12.22400 34.25100
C  43.70900 11.27200 35.18100
O  44.41000 10.29400 34.91400
O  43.44400 11.74200 36.48500
C  44.09700 10.83200 37.53200
H  37.50400 8.18900 34.39600
H  37.74900 7.68200 27.95700
H  42.89400 11.48100 28.02600
H  41.34100 10.28000 36.21400
H  38.46100 9.85600 36.15500
H  39.02300 7.85800 36.89500
H  40.67000 8.20700 36.76400
H  39.69700 7.43600 35.41000
H  38.86300 11.90100 36.73100
H  39.96900 12.77200 35.76700
H  41.38300 13.03400 37.37400
H  41.45400 11.47400 38.03800
H  36.06300 5.70300 33.12900
H  34.67800 6.66100 32.57700
H  35.67800 7.19300 33.85700
H  35.28100 4.66000 30.64900
H  34.12000 5.03800 29.37500
H  34.06400 5.88800 30.90300
H  38.92300 9.58300 26.32000
H  41.85000 8.99800 26.59300
H  39.59800 6.72800 26.47300
H  40.51200 7.62500 25.25300
H  38.77300 7.70500 25.27700
H  40.70000 10.67400 24.79000
H  42.33700 10.92000 25.28100
H  40.67700 12.91700 25.22300
H  41.71700 12.82200 26.68500
H  40.12000 12.23200 26.75100
H  45.14000 12.00500 28.94900
H  45.58100 12.57700 30.57800
H  44.62400 13.55200 29.36200
H  42.72700 13.18100 34.70800
H  43.49900 9.92100 37.55900
H  44.19900 11.31500 38.50300
H  45.12200 10.60900 37.23500

