158

Mg 43.22400 4.02900 47.22800
C  41.05200 6.68000 47.25900
C  40.40900 1.85500 47.29900
C  45.30300 1.40900 46.95300
C  45.88800 6.19300 46.91000
N  41.01500 4.27500 47.43900
C  40.40200 5.47000 47.33900
C  38.82700 5.25800 47.24600
C  38.61700 3.70200 47.34500
C  40.09300 3.22000 47.53000
C  37.65400 3.22100 48.47700
C  38.08900 5.84700 46.01500
C  38.75900 5.49800 44.62400
H  38.30900 6.30400 43.28500
N  42.89900 1.97100 47.13300
C  41.69100 1.26600 47.11800
C  41.97800 -0.07700 46.90000
C  43.39700 -0.26800 46.80200
C  43.92300 1.09400 46.98700
C  40.85800 -1.12000 46.73600
C  44.12000 -1.58500 46.56900
O  43.52900 -2.64000 46.38400
C  45.53800 -1.70200 46.48500
N  45.29600 3.76000 46.75900
C  45.95000 2.62500 46.86800
C  47.45800 2.79400 46.64600
C  47.61500 4.35700 46.79100
C  46.16400 4.82000 46.73900
C  48.34700 1.82600 47.44700
C  48.51400 5.08300 45.74900
C  49.64600 4.20600 45.15100
N  43.53400 6.10600 47.01700
C  44.62300 6.88800 46.97200
C  44.31100 8.34300 46.91100
C  42.92700 8.25700 47.06600
C  42.49900 6.87500 47.17600
C  45.21400 9.57500 46.90900
C  41.75600 9.10800 47.29400
O  41.63200 10.33100 47.34600
C  40.47500 8.11800 47.28000
C  39.61700 8.51100 48.44900
O  39.77600 8.03200 49.56600
O  38.51200 9.23100 48.09000
C  37.40300 9.32600 49.09000
H  39.48800 1.26900 47.24900
H  46.07700 0.66000 46.76900
H  46.80400 6.78300 46.83200
H  38.30300 5.63300 48.12500
H  38.27200 3.22700 46.42600
H  38.03600 2.38000 49.05500
H  36.72900 2.93800 47.97500
H  37.35100 3.98200 49.19700
H  37.97400 6.93000 46.06100
H  37.13100 5.32800 46.04500
H  38.61700 4.42600 44.48400
H  39.83100 5.61300 44.78000
H  40.67200 -1.23100 45.66800
H  39.97800 -0.72800 47.24500
H  41.12600 -2.05000 47.23800
H  46.04500 -1.70100 47.45000
H  45.94600 -1.00500 45.75300
H  45.75000 -2.67000 46.03200
H  47.64400 2.59700 45.59000
H  47.97500 4.72300 47.75200
H  48.84300 1.13200 46.76700
H  47.78100 1.23000 48.16200
H  49.06000 2.43300 48.00500
H  49.07700 5.87500 46.24300
H  47.96300 5.44300 44.88000
H  50.53200 4.84100 45.13100
H  49.29100 3.82300 44.19500
H  49.93000 3.43500 45.86700
H  45.32000 10.03200 47.89300
H  44.74800 10.33300 46.28100
H  46.13500 9.21600 46.45000
H  40.04900 8.18900 46.27900
H  37.47300 10.30100 49.57200
H  37.49800 8.62100 49.91600
H  36.43300 9.26800 48.59700
Mg 46.88400 24.94300 28.68700
C  47.79500 27.15400 31.12900
C  45.71400 22.70400 31.02200
C  46.23000 22.66600 26.09400
C  48.31200 27.06900 26.22600
N  46.81500 24.93400 30.83800
C  47.07800 26.02800 31.63400
C  46.74900 25.79100 33.15100
C  46.34300 24.25400 33.07200
C  46.32200 23.85900 31.57300
C  47.20800 23.28800 33.92400
C  45.61100 26.72600 33.59600
C  45.78500 27.43300 34.86000
H  46.13600 26.67600 36.13300
N  46.12300 22.98600 28.54500
C  45.63800 22.28600 29.69900
C  45.03200 21.07800 29.18400
C  45.14700 21.04200 27.75200
C  45.87000 22.28600 27.37700
C  44.36600 20.00900 30.07600
C  44.70800 20.09600 26.74500
O  44.84600 20.21700 25.52800
C  43.98400 18.93900 27.26500
N  47.29200 24.76700 26.55700
C  46.92100 23.77900 25.72900
C  47.29700 24.05300 24.20100
C  47.53800 25.67200 24.33100
C  47.69300 25.86300 25.81400
C  48.61700 23.33800 23.64400
C  46.41300 26.62700 23.75500
C  46.95400 27.79100 22.85100
N  47.89700 26.78400 28.65700
C  48.40500 27.49900 27.57800
C  49.01000 28.77800 28.09600
C  48.80900 28.60400 29.46600
C  48.07900 27.41900 29.76000
C  49.65500 29.84400 27.29100
C  49.05200 29.22300 30.73600
O  49.63100 30.25500 31.06000
C  48.32500 28.37500 31.88700
C  49.41100 27.96200 32.87500
O  50.04500 26.90000 32.92800
O  49.56500 28.95300 33.79100
C  50.68000 28.72500 34.72600
H  45.22900 22.07200 31.76900
H  46.05800 22.05100 25.20800
H  48.67100 27.75900 25.46000
H  47.62700 25.88300 33.79100
H  45.32300 24.03400 33.38800
H  47.72400 22.57500 33.28100
H  46.49900 22.68600 34.49200
H  47.93700 23.82000 34.53600
H  44.70300 26.15100 33.78100
H  45.43300 27.37400 32.73800
H  44.81300 27.90500 35.00100
H  46.30300 28.38700 34.76500
H  43.29400 19.92800 29.89200
H  44.55900 20.15600 31.13900
H  44.84500 19.03000 30.04800
H  43.11500 19.19300 27.87300
H  44.73300 18.29000 27.71800
H  43.56900 18.41500 26.40400
H  46.42200 23.91400 23.56700
H  48.50000 25.92300 23.88600
H  48.35100 22.67900 22.81800
H  48.92400 22.58500 24.37000
H  49.45900 23.96500 23.35100
H  45.87500 27.02700 24.61400
H  45.74800 26.00100 23.16100
H  46.43400 27.75000 21.89400
H  48.03900 27.72400 22.78000
H  46.71100 28.71200 23.38100
H  50.10400 29.50200 26.35900
H  50.44400 30.27200 27.90900
H  48.97300 30.64200 26.99400
H  47.60500 29.11600 32.23300
H  50.31000 28.00100 35.45200
H  50.95000 29.65600 35.22500
H  51.60600 28.33100 34.30500

