158

Mg 48.09200 35.76300 28.34900
C  46.31200 33.57600 30.69800
C  48.42600 37.95300 30.99900
C  48.88800 37.93600 26.18100
C  46.87300 33.44500 25.77400
N  47.41400 35.79600 30.51400
C  46.79900 34.81300 31.29600
C  46.73300 35.19100 32.80500
C  47.05100 36.75800 32.79600
C  47.67800 36.88700 31.33600
C  45.88200 37.70100 33.09400
C  47.87100 34.44000 33.61300
C  47.44400 33.88200 35.07200
H  46.47600 34.78300 35.88200
N  48.85000 37.65500 28.55800
C  48.95100 38.36000 29.69900
C  49.70000 39.53800 29.35200
C  49.86100 39.57400 27.90500
C  49.17200 38.34400 27.47300
C  50.18500 40.52400 30.47600
C  50.63700 40.56700 27.05500
O  50.75400 40.41900 25.89800
C  51.21800 41.69500 27.75300
N  47.92300 35.71300 26.25500
C  48.35400 36.80900 25.55900
C  48.09400 36.56100 24.04800
C  47.56000 35.07100 23.84400
C  47.46800 34.66700 25.33200
C  47.15900 37.71200 23.44800
C  48.55500 34.12300 23.16400
C  48.19200 33.79500 21.73000
N  47.04000 33.82500 28.22300
C  46.66600 33.02500 27.11200
C  45.96600 31.83700 27.55400
C  45.77700 32.09500 28.89100
C  46.45000 33.26900 29.30100
C  45.53800 30.64900 26.77300
C  45.07000 31.48700 30.07800
O  44.41500 30.44700 30.11800
C  45.21400 32.59000 31.18600
C  45.34100 31.99000 32.53500
O  46.35400 31.44100 32.91100
O  44.07200 32.06300 33.18500
C  44.00200 31.86200 34.59200
H  48.59100 38.76300 31.71200
H  49.21200 38.65200 25.42300
H  46.47700 32.85300 24.94600
H  45.72400 34.95900 33.14700
H  47.75800 37.00800 33.58600
H  46.05400 38.59000 33.70000
H  44.96900 37.20600 33.42400
H  45.55900 38.11900 32.14100
H  48.71700 35.12100 33.71100
H  48.24300 33.67400 32.93300
H  48.33900 33.60500 35.62900
H  46.92700 32.96600 34.78800
H  51.16800 40.92800 30.23500
H  50.26500 40.04100 31.45000
H  49.56300 41.41800 30.52500
H  50.43200 42.03200 28.42900
H  51.45600 42.51200 27.07100
H  52.08100 41.27900 28.27200
H  49.05900 36.62600 23.54400
H  46.56300 34.95100 23.42000
H  46.82500 38.26100 24.32800
H  46.25500 37.26800 23.03100
H  47.54500 38.34700 22.65000
H  48.60100 33.18800 23.72200
H  49.52800 34.61400 23.17200
H  47.14300 33.91400 21.45800
H  48.37300 32.75200 21.47000
H  48.88900 34.32400 21.08000
H  46.33900 29.93600 26.57700
H  45.08500 31.07600 25.87800
H  44.71000 30.22600 27.34200
H  44.22900 33.05600 31.18100
H  43.06100 32.14700 35.06200
H  44.81600 32.29700 35.17200
H  44.24100 30.80900 34.74800
Mg 30.05100 59.18700 41.24200
C  26.90800 57.99900 40.18300
C  31.58600 56.54900 39.57100
C  32.95600 60.94500 41.28100
C  28.34000 62.12700 42.30600
N  29.27800 57.58200 40.02000
C  27.99100 57.19300 39.73000
C  27.91600 55.89200 38.93500
C  29.38100 55.27100 39.09800
C  30.19800 56.56300 39.58800
C  29.47500 54.04700 40.07500
C  27.43900 56.14300 37.47400
C  26.73100 54.94300 36.76700
H  26.69200 54.82800 35.22500
N  32.00600 58.73300 40.73800
C  32.43300 57.58800 40.05600
C  33.89300 57.65600 39.83800
C  34.36400 58.90100 40.34800
C  33.11700 59.60900 40.87800
C  34.69800 56.56900 39.14100
C  35.79000 59.43400 40.29900
O  36.66600 58.79900 39.70600
C  36.18300 60.78100 40.90700
N  30.59200 61.27900 41.59500
C  31.87600 61.78400 41.48400
C  31.94300 63.25200 42.05800
C  30.48300 63.39000 42.69200
C  29.72000 62.25200 42.15500
C  33.05000 63.29100 43.13100
C  29.79000 64.74500 42.28300
C  28.78700 65.34800 43.25500
N  28.03000 60.01400 41.25700
C  27.53400 61.10100 41.79200
C  26.13100 61.16700 41.66000
C  25.74500 59.89800 41.03600
C  27.01000 59.19400 40.87600
C  25.12000 62.24900 42.09400
C  24.75000 58.97200 40.54100
O  23.49200 59.14500 40.44600
C  25.43600 57.66900 40.04000
C  25.11800 56.47400 40.81100
O  25.26400 56.34600 42.02300
O  24.56200 55.50100 39.96400
C  24.14900 54.25300 40.66500
H  32.02500 55.64800 39.13900
H  33.84300 61.58100 41.26200
H  27.79200 62.93400 42.79700
H  27.18000 55.23100 39.39400
H  29.77300 54.94800 38.13300
H  29.81700 54.38400 41.05400
H  30.11000 53.23400 39.72300
H  28.53000 53.52900 40.23900
H  28.29700 56.35700 36.83700
H  26.71700 56.95600 37.39900
H  25.70000 54.78300 37.08400
H  27.24100 54.00300 36.98000
H  35.15800 56.95000 38.23000
H  34.03400 55.76800 38.81400
H  35.39000 56.18600 39.89100
H  35.79600 61.63800 40.35700
H  37.26800 60.83800 41.00000
H  35.87100 60.77400 41.95200
H  32.11400 63.83000 41.15000
H  30.54900 63.32300 43.77800
H  32.65700 63.61400 44.09600
H  33.75900 64.06600 42.84200
H  33.48600 62.31300 43.33500
H  29.23300 64.48300 41.38300
H  30.49600 65.46700 41.87200
H  29.17400 66.35900 43.37800
H  28.76200 64.82100 44.20900
H  27.84400 65.30800 42.70900
H  25.05700 62.17500 43.18000
H  24.14100 62.19000 41.61700
H  25.61700 63.19600 41.88400
H  25.04100 57.65500 39.02400
H  24.46800 54.10100 41.69600
H  24.69900 53.44200 40.18700
H  23.08200 54.05900 40.76900

