158

Mg 24.87600 1.49700 29.44100
C  26.72800 1.70400 32.31000
C  22.00100 1.63200 31.13700
C  23.22000 1.46600 26.43800
C  27.84200 1.18100 27.62700
N  24.46500 1.59300 31.52600
C  25.33700 1.79700 32.58800
C  24.59500 1.99200 33.87300
C  23.05300 1.97800 33.46000
C  23.13500 1.64600 31.90700
C  22.18600 0.91800 34.21900
C  25.10700 3.10700 34.85300
C  25.08400 2.83600 36.38300
H  25.25200 4.09200 37.29400
N  22.81900 1.57600 28.91000
C  21.78400 1.54200 29.74400
C  20.55300 1.40900 29.09100
C  20.86500 1.43000 27.66000
C  22.32700 1.43900 27.59300
C  19.23500 1.26200 29.81300
C  19.92900 1.31800 26.46500
O  20.38800 1.33700 25.33500
C  18.48500 1.16500 26.60300
N  25.52800 1.37100 27.31000
C  24.62400 1.43800 26.27400
C  25.34000 1.29200 24.86100
C  26.82100 1.22600 25.31900
C  26.72200 1.32900 26.82100
C  24.80900 -0.08000 24.23100
C  27.80300 2.33300 24.73800
C  27.17400 3.76800 24.98300
N  26.86100 1.21100 29.82100
C  27.95700 1.13400 29.02400
C  29.15100 0.95000 29.80200
C  28.69300 1.18000 31.10700
C  27.32800 1.41100 31.07700
C  30.56700 0.52800 29.29000
C  29.13900 1.31600 32.50600
O  30.27800 1.17400 32.99400
C  27.92500 1.68700 33.29800
C  27.74100 0.70600 34.38500
O  27.13200 -0.38500 34.30300
O  28.46900 1.16600 35.52500
C  28.52900 0.16400 36.59200
H  21.16700 1.69400 31.84000
H  22.74600 1.51700 25.45600
H  28.74800 1.04000 27.03500
H  24.82100 1.08200 34.42800
H  22.68400 3.00100 33.53200
H  22.70900 0.47500 35.06600
H  21.83600 0.13200 33.55000
H  21.34000 1.46900 34.63000
H  24.33600 3.87700 34.89400
H  26.09100 3.52400 34.64000
H  25.95400 2.22200 36.61700
H  24.19900 2.29000 36.70800
H  18.82600 2.25900 29.65100
H  19.33000 1.06000 30.88000
H  18.54200 0.51100 29.43500
H  18.37200 0.15600 26.99900
H  17.88200 1.24000 25.69800
H  18.09900 1.82300 27.38100
H  24.93300 2.03000 24.16900
H  27.29000 0.30400 24.97600
H  23.91800 0.12800 23.63800
H  24.59300 -0.66100 25.12700
H  25.54000 -0.55900 23.58000
H  27.90900 2.09000 23.68000
H  28.75500 2.34200 25.26900
H  27.89300 4.34100 25.56900
H  26.24100 3.69300 25.54000
H  27.06300 4.20700 23.99100
H  31.29800 1.32200 29.13800
H  30.45300 -0.07600 28.39000
H  31.02400 -0.14700 30.01400
H  28.02600 2.69800 33.69200
H  27.94700 0.54800 37.42900
H  29.58400 -0.03500 36.78000
H  28.14800 -0.83900 36.40100
Mg 44.77900 5.52600 46.70200
C  42.48400 8.32600 46.99900
C  41.99200 3.46200 46.46700
C  46.81200 3.00500 46.56900
C  47.32600 7.88700 46.22100
N  42.55000 5.93900 46.81600
C  41.85700 7.10300 46.91800
C  40.27800 6.82500 46.80900
C  40.23400 5.28700 46.75000
C  41.66800 4.87100 46.72800
C  39.29400 4.54400 47.73800
C  39.49300 7.47200 45.61300
C  40.11300 7.42100 44.21400
H  40.20600 8.68600 43.39000
N  44.46900 3.53700 46.47600
C  43.30200 2.83000 46.46700
C  43.55500 1.43000 46.40200
C  44.96200 1.28600 46.34100
C  45.47800 2.60800 46.49700
C  42.42700 0.34300 46.50500
C  45.74100 -0.10000 46.24300
O  45.09500 -1.14200 46.32700
C  47.22900 -0.16700 45.91400
N  46.76500 5.42000 46.16400
C  47.41500 4.26100 46.47000
C  48.93200 4.49400 46.48300
C  49.01000 5.88700 45.81000
C  47.65700 6.49000 46.13700
C  49.59900 4.32100 47.92800
C  49.25200 5.86900 44.30600
C  50.67800 6.25600 43.90500
N  44.98200 7.67300 46.80400
C  46.08800 8.49500 46.52500
C  45.68300 9.89400 46.63100
C  44.33800 9.85300 46.93200
C  43.92600 8.52300 46.95200
C  46.43100 11.27000 46.47600
C  43.17400 10.68200 47.16300
O  43.06300 11.92500 47.21000
C  41.93500 9.74500 47.12100
C  40.92700 9.87100 48.28500
O  41.00200 9.20300 49.26100
O  39.96300 10.82000 47.92300
C  38.88100 11.00500 48.91600
H  41.11000 2.90900 46.13600
H  47.52700 2.18900 46.69200
H  48.20200 8.50300 46.01000
H  39.92200 7.01700 47.82100
H  39.87700 5.00700 45.75800
H  38.40700 4.22200 47.19300
H  39.04000 5.10900 48.63400
H  39.81000 3.69100 48.17800
H  39.23900 8.52400 45.73900
H  38.55400 6.93500 45.48200
H  39.62100 6.63600 43.64100
H  41.18500 7.28500 44.35600
H  42.49300 -0.27000 45.60600
H  41.42900 0.76100 46.63100
H  42.54800 -0.35200 47.33600
H  47.44600 -1.14400 45.48100
H  47.61500 0.02300 46.91500
H  47.58700 0.57700 45.20200
H  49.50500 3.77200 45.90000
H  49.69100 6.51600 46.38400
H  50.60700 3.90500 47.93700
H  48.96800 3.62700 48.48200
H  49.65600 5.30600 48.39200
H  48.52300 6.46300 43.75400
H  49.12900 4.83400 43.99000
H  51.18000 5.50100 43.30000
H  51.36200 6.56400 44.69600
H  50.49500 7.12000 43.26600
H  46.39900 11.76400 47.44700
H  45.86500 11.89100 45.78200
H  47.46100 11.05200 46.19200
H  41.38200 9.90200 46.19500
H  38.88300 12.05000 49.22700
H  39.08700 10.38000 49.78500
H  37.86500 10.86600 48.54700

