158

Mg 0.38200 7.45300 25.85300
C  1.39100 9.57700 28.53700
C  0.69200 4.86500 27.99900
C  -0.14900 5.51300 23.27700
C  1.13700 10.12900 23.61000
N  1.30500 7.33300 27.92900
C  1.35800 8.26500 28.86000
C  1.30700 7.71200 30.32900
C  1.27300 6.20300 30.07600
C  1.16500 6.09500 28.53600
C  2.34700 5.33500 30.76100
C  0.11800 8.25100 31.17000
C  -0.04600 7.51500 32.51700
H  1.19300 6.84300 33.21300
N  0.18100 5.46600 25.77600
C  0.22100 4.55000 26.76500
C  -0.11300 3.22200 26.26500
C  -0.37700 3.37300 24.85200
C  -0.17800 4.86500 24.58400
C  0.02200 1.93100 27.15600
C  -0.76400 2.43900 23.83300
O  -1.00400 2.71000 22.64700
C  -0.91100 0.99600 24.28800
N  0.48300 7.81200 23.68200
C  0.27100 6.79500 22.84500
C  0.29600 7.27500 21.36400
C  0.78100 8.67500 21.45200
C  0.72600 8.95400 22.99900
C  1.01600 6.33200 20.36800
C  -0.02000 9.78100 20.63200
C  0.93000 10.67100 19.74200
N  1.05200 9.49800 25.98600
C  1.19200 10.47800 25.07400
C  1.44700 11.75700 25.72000
C  1.57800 11.43900 27.08100
C  1.35800 10.04300 27.14100
C  1.78200 13.01700 24.99400
C  1.84000 11.94700 28.36700
O  2.11500 13.08300 28.78800
C  1.58900 10.78700 29.36000
C  2.59200 10.71100 30.43300
O  3.64900 10.14200 30.32300
O  2.16900 11.34400 31.61500
C  3.16100 11.29000 32.73100
H  0.62000 4.08300 28.75700
H  -0.49900 4.87600 22.46200
H  1.30800 10.90700 22.86300
H  2.29600 7.91200 30.74000
H  0.30800 5.88500 30.47000
H  3.03400 5.89300 31.39700
H  2.95300 4.92400 29.95300
H  1.86900 4.58600 31.39200
H  -0.79900 8.10800 30.59800
H  0.23200 9.30000 31.44300
H  -0.89700 6.85300 32.35400
H  -0.29500 8.32800 33.19800
H  0.88600 1.30600 26.93100
H  -0.92700 1.41600 27.00500
H  0.02700 2.18300 28.21600
H  -1.16900 0.49700 23.35300
H  -1.77100 0.98100 24.95800
H  0.06100 0.72700 24.70100
H  -0.75300 7.26300 21.06800
H  1.80800 8.65300 21.08600
H  1.35900 5.54400 21.03900
H  1.71000 6.99300 19.84800
H  0.26100 5.97900 19.66600
H  -0.57100 10.46100 21.28100
H  -0.84600 9.38600 20.04000
H  0.82100 10.44000 18.68200
H  1.97700 10.51300 20.00000
H  0.70800 11.70700 20.00000
H  2.43000 13.63900 25.61200
H  0.88400 13.56400 24.70900
H  2.32200 12.72800 24.09200
H  0.69000 11.06300 29.91300
H  4.00100 11.85000 32.31900
H  3.28500 10.26600 33.08100
H  2.73100 11.80600 33.58900
Mg 47.30900 24.73500 28.90600
C  48.19300 26.97000 31.37700
C  46.63100 22.38600 31.27400
C  46.89000 22.42300 26.50600
C  48.58700 26.97400 26.55900
N  47.29100 24.76700 31.11500
C  47.74500 25.75700 31.88300
C  47.50700 25.52700 33.38600
C  46.98500 24.01600 33.35900
C  46.97100 23.66900 31.79900
C  47.74200 23.05600 34.33300
C  46.59000 26.64000 34.14800
C  45.87600 26.15400 35.39400
H  45.72600 27.14700 36.57800
N  46.98300 22.63200 28.89800
C  46.57700 21.90400 29.99200
C  46.08900 20.58300 29.54500
C  46.24900 20.50300 28.14900
C  46.72300 21.86300 27.79100
C  45.54300 19.43200 30.52700
C  45.97100 19.34600 27.22100
O  46.31400 19.39600 26.01400
C  45.40900 18.12800 27.76500
N  47.69400 24.72100 26.79800
C  47.25000 23.65200 25.99400
C  47.49900 24.00300 24.45100
C  47.81800 25.50800 24.53800
C  48.06200 25.76500 26.04400
C  48.65800 23.16300 23.83000
C  46.69100 26.34000 23.88000
C  46.77500 26.57600 22.31200
N  48.20700 26.55600 28.91900
C  48.67400 27.37500 27.86700
C  49.08500 28.63600 28.36500
C  48.88400 28.53100 29.73300
C  48.37400 27.24200 30.02400
C  49.63100 29.74700 27.49300
C  49.11800 29.21500 30.97300
O  49.50100 30.35600 31.12500
C  48.70400 28.24500 32.07500
C  49.88800 28.00100 32.98800
O  50.93900 27.39200 32.67900
O  49.53200 28.47200 34.22200
C  50.48800 28.42400 35.29300
H  46.41200 21.67600 32.07500
H  46.71100 21.87200 25.58100
H  48.85300 27.66100 25.75400
H  48.41400 25.61700 33.98500
H  45.95300 23.87000 33.67900
H  48.34800 22.22600 33.97000
H  46.99400 22.61800 34.99300
H  48.35300 23.63100 35.02900
H  45.79700 27.03000 33.51000
H  47.10700 27.58000 34.34100
H  46.38200 25.26000 35.75700
H  44.88100 25.80400 35.11800
H  44.53600 19.06900 30.32500
H  45.57400 19.80600 31.55000
H  46.23800 18.59400 30.46500
H  46.14000 17.66700 28.42900
H  45.32900 17.47900 26.89300
H  44.44800 18.44100 28.17300
H  46.55800 23.61400 24.06100
H  48.76200 25.72000 24.03600
H  49.45000 23.81600 23.46300
H  48.32900 22.59300 22.96100
H  49.17200 22.52900 24.55200
H  46.57500 27.27100 24.43500
H  45.70800 25.92200 24.09600
H  45.81000 26.29700 21.88900
H  47.54500 26.01400 21.78300
H  47.02800 27.63400 22.23300
H  50.65800 29.41400 27.34600
H  49.62200 30.61500 28.15300
H  49.05300 29.89700 26.58100
H  47.86400 28.67600 32.62000
H  51.50800 28.35000 34.91800
H  50.18500 27.51000 35.80400
H  50.38100 29.27700 35.96500

