158

Mg 17.05800 -1.56700 27.16000
C  16.22300 0.55700 29.80600
C  19.02200 -3.42100 29.42200
C  18.42700 -3.22400 24.59000
C  15.76500 0.80800 24.97500
N  17.66200 -1.37300 29.31900
C  17.04200 -0.49600 30.22800
C  17.35200 -0.90700 31.66900
C  18.47900 -1.96900 31.46000
C  18.37000 -2.33500 30.00000
C  19.95100 -1.67300 31.77800
C  16.15300 -1.45300 32.48100
C  16.17200 -1.23000 34.00700
H  17.42700 -0.76100 34.80100
N  18.43900 -3.21200 27.00300
C  19.09500 -3.87200 28.02600
C  19.77100 -5.02700 27.47100
C  19.52100 -5.00500 26.11000
C  18.76400 -3.80200 25.83300
C  20.53000 -5.98800 28.33400
C  19.96800 -5.99600 24.99400
O  19.48600 -5.88000 23.89700
C  21.03000 -7.06700 25.19000
N  17.06700 -1.20200 25.00700
C  17.72000 -2.06000 24.16000
C  17.72200 -1.54400 22.73600
C  16.78400 -0.25400 22.85100
C  16.45000 -0.22000 24.33400
C  19.16000 -1.31100 22.12000
C  15.44900 -0.38400 22.01800
C  15.04500 0.59600 20.98800
N  16.13800 0.24800 27.27700
C  15.54900 1.03900 26.33800
C  14.72200 2.02800 27.00600
C  15.02800 1.92400 28.33300
C  15.92500 0.83200 28.48000
C  13.79000 2.90100 26.23500
C  14.71400 2.51000 29.62200
O  14.07400 3.48700 29.98200
C  15.49700 1.59700 30.66500
C  16.50400 2.37500 31.48400
O  17.62700 2.71700 31.10400
O  15.99900 2.70700 32.65600
C  16.58000 3.62100 33.64900
H  19.69600 -3.96200 30.09000
H  18.84700 -3.77700 23.74700
H  15.43100 1.56600 24.26300
H  17.90600 -0.11900 32.17900
H  18.12200 -2.88200 31.93700
H  20.47700 -1.39800 30.86400
H  20.51300 -2.48600 32.23700
H  20.14700 -0.77700 32.36700
H  16.13300 -2.53000 32.31900
H  15.31800 -1.10100 31.87500
H  15.56600 -2.03300 34.42600
H  15.39400 -0.46600 33.98700
H  21.54400 -6.07500 27.94100
H  19.96100 -6.91700 28.32400
H  20.65100 -5.55600 29.32700
H  20.76300 -7.80800 25.94300
H  21.86800 -6.52700 25.63100
H  21.25200 -7.57700 24.25300
H  17.34600 -2.36200 22.12100
H  17.41700 0.56700 22.51400
H  19.25900 -0.52300 21.37300
H  19.49700 -2.29500 21.79500
H  19.91100 -1.06700 22.87200
H  14.63500 -0.36100 22.74200
H  15.46400 -1.39600 21.61500
H  14.49800 1.37300 21.52200
H  14.36000 0.14400 20.27100
H  15.88600 0.99500 20.42100
H  13.19800 3.53200 26.89700
H  13.13200 2.37400 25.54500
H  14.38000 3.55900 25.59600
H  14.71800 1.17400 31.29900
H  15.93400 4.48300 33.81700
H  17.63500 3.85400 33.50600
H  16.52300 3.06100 34.58300
Mg -1.81200 34.66700 26.95200
C  -3.39900 32.89700 29.45200
C  -0.73900 36.98300 29.38000
C  -1.00200 36.99800 24.53600
C  -3.72700 32.98800 24.60000
N  -1.92300 34.72400 29.16900
C  -2.69100 33.95600 30.01100
C  -2.37100 34.21500 31.50500
C  -1.57700 35.56600 31.45100
C  -1.42100 35.80300 29.90600
C  -2.25500 36.66400 32.32700
C  -1.52000 32.95600 32.06800
C  -2.14200 32.31900 33.34600
H  -1.29300 32.18500 34.55600
N  -0.72700 36.63700 26.92400
C  -0.40500 37.35800 28.02500
C  0.40200 38.48600 27.56700
C  0.15800 38.55300 26.12700
C  -0.58500 37.40900 25.84700
C  1.13100 39.35900 28.55300
C  0.69500 39.64500 25.17700
O  0.50200 39.59100 23.97200
C  1.58000 40.66700 25.79600
N  -2.34200 35.02700 24.90800
C  -1.79500 35.93700 24.07400
C  -2.22000 35.69300 22.61000
C  -3.15700 34.41100 22.70900
C  -3.08300 34.17300 24.17300
C  -2.84600 37.04200 22.09100
C  -2.59600 33.20500 21.90000
C  -1.07300 32.97400 22.00200
N  -3.23700 33.23200 26.95500
C  -3.89400 32.56700 25.91100
C  -4.73800 31.53700 26.46300
C  -4.56100 31.65500 27.85000
C  -3.61500 32.66500 28.08000
C  -5.66000 30.59500 25.76200
C  -5.07600 31.04900 29.09500
O  -5.85100 30.12700 29.35800
C  -4.32500 31.89300 30.13900
C  -5.27000 32.40000 31.12500
O  -5.97200 33.40700 31.09400
O  -5.36100 31.57800 32.23900
C  -6.33900 31.90200 33.30500
H  -0.23000 37.58900 30.13200
H  -0.74100 37.74200 23.78100
H  -4.34900 32.41900 23.90600
H  -3.23100 34.28700 32.17100
H  -0.58400 35.41900 31.87600
H  -2.87400 37.31600 31.71100
H  -1.48200 37.26800 32.80100
H  -2.87200 36.18200 33.08500
H  -0.50100 33.27400 32.29100
H  -1.51600 32.21700 31.26600
H  -2.52900 31.32600 33.12000
H  -3.06100 32.85100 33.59300
H  1.20000 38.85600 29.51700
H  0.61000 40.31600 28.55900
H  2.09700 39.38600 28.04900
H  2.50400 40.24900 26.19500
H  1.11900 41.21800 26.61600
H  1.91300 41.43000 25.09200
H  -1.31800 35.57200 22.01100
H  -4.20200 34.64800 22.51500
H  -2.03300 37.58200 21.60400
H  -3.29300 37.56100 22.93900
H  -3.72400 36.92000 21.45700
H  -2.92700 33.42200 20.88500
H  -3.04100 32.24700 22.16600
H  -0.85400 33.47100 22.94700
H  -0.47700 33.43400 21.21400
H  -0.81800 31.93600 22.21600
H  -5.79300 30.76300 24.69300
H  -6.59700 30.82900 26.26800
H  -5.22000 29.60900 25.91300
H  -3.81300 31.09200 30.67400
H  -7.01000 31.06800 33.50900
H  -7.04700 32.71400 33.13800
H  -5.89700 32.23800 34.24300

