158

Mg 42.19700 40.73700 26.50600
C  41.40100 43.36600 28.79600
C  42.93200 38.78800 29.21300
C  43.35100 38.50000 24.33600
C  41.93600 43.17100 23.96300
N  42.15400 41.17900 28.77400
C  41.84600 42.28900 29.50000
C  41.77800 42.02900 31.01200
C  42.35500 40.56500 31.08400
C  42.55400 40.12700 29.56100
C  43.43400 40.38100 32.16600
C  40.43500 42.13100 31.67700
C  40.35000 42.80900 33.05000
H  39.65000 41.94600 34.18000
N  42.95800 38.87300 26.70400
C  43.12200 38.19300 27.90900
C  43.56200 36.83900 27.59200
C  43.65800 36.75800 26.22800
C  43.36300 38.04700 25.65400
C  43.73000 35.92400 28.67000
C  43.99300 35.58200 25.39000
O  44.16200 35.59800 24.15400
C  44.25000 34.24300 26.08900
N  42.73400 40.87300 24.48200
C  43.11800 39.80500 23.82700
C  43.14700 40.13700 22.42700
C  42.83100 41.63900 22.24200
C  42.46900 41.97800 23.65000
C  44.54900 39.78500 21.68500
C  41.68800 41.84900 21.24100
C  41.96900 42.82200 20.15800
N  41.63400 42.77200 26.29000
C  41.54300 43.63600 25.21800
C  41.16400 44.96000 25.66900
C  41.09600 44.86100 27.06100
C  41.40500 43.52600 27.43400
C  40.96500 46.15200 24.77900
C  40.67900 45.59900 28.24800
O  40.30600 46.74900 28.41700
C  40.93800 44.67600 29.48600
C  41.97200 45.27200 30.41800
O  43.11400 45.57800 30.13500
O  41.32300 45.64100 31.59000
C  42.11900 46.32300 32.61800
H  43.14300 38.27600 30.15400
H  43.71400 37.79000 23.59100
H  41.74900 43.86200 23.13800
H  42.43500 42.77000 31.46700
H  41.60800 39.90900 31.53000
H  43.95600 41.29700 32.44000
H  44.21100 39.70800 31.80200
H  43.10200 39.87400 33.07200
H  39.95200 41.15700 31.75300
H  39.71300 42.55000 30.97600
H  39.83500 43.76600 32.95900
H  41.34700 43.02900 33.43100
H  44.64700 35.34600 28.55600
H  42.83200 35.30900 28.74100
H  43.90100 36.35100 29.65800
H  43.44200 34.10600 26.80700
H  45.22800 34.07600 26.54100
H  44.32100 33.47800 25.31600
H  42.42700 39.48400 21.93200
H  43.78400 42.12600 22.03600
H  45.27700 39.56800 22.46700
H  44.92900 40.48100 20.93700
H  44.45900 38.86600 21.10600
H  40.86800 42.30500 21.79600
H  41.39200 40.90900 20.77400
H  42.15300 42.26600 19.23900
H  42.86100 43.37600 20.45200
H  41.13700 43.47300 19.89300
H  40.91000 45.92800 23.71300
H  41.75300 46.89400 24.90500
H  40.06000 46.71000 25.02000
H  39.99600 44.61200 30.03000
H  43.17800 46.08000 32.52900
H  41.84800 45.91300 33.59100
H  41.79200 47.36200 32.66300
Mg 26.66100 50.21200 26.27700
C  25.04300 51.85100 28.91500
C  29.18400 49.29700 28.63000
C  28.66100 49.16000 23.75600
C  24.56600 51.84900 24.13600
N  27.01400 50.53700 28.52700
C  26.13100 51.14000 29.35600
C  26.53300 50.91300 30.79900
C  28.00000 50.34000 30.68800
C  28.07500 49.97400 29.18900
C  29.12600 51.28400 31.20400
C  25.46400 49.92300 31.44600
C  24.89000 50.43300 32.81700
H  25.74300 50.94300 33.95100
N  28.57500 49.19600 26.23100
C  29.44900 48.94400 27.28200
C  30.56500 48.22700 26.74700
C  30.50900 48.27900 25.32200
C  29.19600 48.89500 25.05300
C  31.75500 47.81900 27.60800
C  31.67500 47.99700 24.28700
O  31.49500 48.04200 23.10500
C  33.08900 47.71400 24.68900
N  26.71300 50.60800 24.26000
C  27.53400 49.88100 23.43400
C  27.05200 49.89600 21.99300
C  25.66400 50.73500 22.18200
C  25.61200 51.08800 23.63200
C  28.10400 50.40200 21.02700
C  24.27500 50.20200 21.60300
C  23.57300 51.10200 20.52400
N  25.04000 51.56300 26.41500
C  24.29200 52.20700 25.50000
C  23.22900 52.99200 26.07300
C  23.49000 52.90200 27.50400
C  24.62000 52.03800 27.60500
C  22.20000 53.82200 25.43800
C  23.09000 53.35200 28.80600
O  22.20500 54.05600 29.12800
C  24.15200 52.70400 29.82400
C  24.77900 53.73500 30.69300
O  25.85100 54.27500 30.50400
O  23.93400 54.01300 31.67300
C  24.49000 54.98100 32.62300
H  29.85300 48.93900 29.41500
H  29.23700 48.76500 22.91700
H  23.77500 52.22000 23.48200
H  26.44100 51.87800 31.29900
H  28.14500 49.35200 31.12400
H  28.74600 52.29700 31.33600
H  29.95400 51.44800 30.51300
H  29.48000 50.91300 32.16700
H  25.83700 48.90500 31.56400
H  24.58800 49.86000 30.80000
H  24.31300 49.54100 33.06100
H  24.22900 51.25300 32.53700
H  31.95100 46.75100 27.50900
H  31.63100 48.09900 28.65400
H  32.62700 48.44200 27.41300
H  33.49700 48.71300 24.83800
H  33.63900 47.20200 23.89900
H  33.16200 47.16000 25.62500
H  26.77500 48.87100 21.74800
H  25.87700 51.71700 21.76000
H  28.71600 49.73100 20.42400
H  28.71700 51.01900 21.68300
H  27.55300 51.08300 20.37800
H  23.57000 50.21200 22.43300
H  24.31000 49.16800 21.26200
H  22.70200 51.52000 21.03000
H  23.29200 50.50200 19.65800
H  24.26300 51.93500 20.38800
H  21.20300 53.41500 25.60900
H  22.29900 53.74600 24.35500
H  22.24300 54.83000 25.85000
H  23.60800 52.02000 30.47500
H  24.93600 55.83700 32.11700
H  25.17200 54.40000 33.24400
H  23.81200 55.35900 33.38700

