158

Mg 36.76600 49.63900 23.79100
C  36.62300 48.33900 27.14600
C  35.43500 52.52500 25.16100
C  36.78600 50.86700 20.83600
C  37.52400 46.50500 22.62000
N  35.98800 50.23100 25.96700
C  36.15800 49.61700 27.13800
C  35.67400 50.50100 28.33000
C  35.19400 51.80800 27.68200
C  35.49800 51.51300 26.13800
C  33.69200 52.26900 28.01600
C  36.82100 50.69900 29.45800
C  36.53600 50.19200 30.83400
H  35.09700 50.41700 31.29600
N  36.08500 51.50200 23.04600
C  35.69100 52.57500 23.81800
C  35.58100 53.67500 22.86600
C  35.95600 53.19900 21.54900
C  36.30300 51.83700 21.76300
C  35.10400 55.12600 23.26900
C  35.91600 53.89500 20.19900
O  36.06900 53.29400 19.19200
C  35.56200 55.31400 20.15200
N  37.09600 48.79800 22.01000
C  37.20100 49.56100 20.88600
C  37.51800 48.69300 19.65100
C  37.71200 47.30400 20.26400
C  37.37500 47.49200 21.69000
C  36.51800 48.77400 18.46700
C  39.01300 46.49800 20.07800
C  40.37000 47.18200 20.49800
N  37.06200 47.75700 24.66100
C  37.34700 46.55800 23.99300
C  37.54200 45.49600 25.01700
C  37.26000 46.20500 26.22400
C  36.95200 47.54400 25.99200
C  37.83000 44.04200 24.70000
C  37.14600 46.05100 27.67200
O  37.45600 45.09000 28.34700
C  36.80200 47.39600 28.34300
C  35.46000 47.07000 29.05600
O  34.36300 47.23700 28.62200
O  35.84900 46.48800 30.24600
C  34.78400 46.11400 31.20800
H  35.11400 53.48400 25.57400
H  36.70200 51.29100 19.83300
H  37.73500 45.50100 22.24600
H  34.80700 49.97300 28.72900
H  35.81200 52.62500 28.05500
H  33.61800 53.28400 28.40800
H  33.20900 51.61100 28.73800
H  33.11700 52.29200 27.09100
H  37.13200 51.73000 29.62900
H  37.70700 50.24900 29.00900
H  37.25000 50.61000 31.54400
H  36.68100 49.11500 30.74500
H  34.25000 55.50100 22.70400
H  35.92000 55.84800 23.24700
H  34.74500 55.13200 24.29800
H  36.34800 55.86100 20.67100
H  34.57700 55.49300 20.58300
H  35.58800 55.51000 19.08000
H  38.43800 49.05400 19.19200
H  36.91300 46.72600 19.80100
H  35.53600 48.43600 18.79700
H  36.82400 48.10500 17.66300
H  36.50600 49.79100 18.07500
H  39.15800 46.30900 19.01500
H  38.99200 45.48600 20.48200
H  40.24800 48.12300 21.03500
H  41.01500 47.42700 19.65400
H  40.94500 46.49500 21.11800
H  37.34200 43.45800 25.48000
H  38.91700 43.97500 24.73900
H  37.47000 43.63300 23.75600
H  37.64000 47.72400 28.95700
H  34.33600 45.19400 30.83400
H  34.03000 46.90000 31.25200
H  35.27200 46.00000 32.17700
Mg 2.14600 42.15800 25.08900
C  3.14800 42.24200 28.49000
C  -0.66000 40.36500 26.06300
C  1.65100 41.20700 21.98300
C  5.35400 43.37500 24.37000
N  1.32100 41.51000 27.08500
C  1.85700 41.67400 28.32400
C  0.82800 41.38000 29.45100
C  -0.27800 40.59000 28.63300
C  0.08700 40.86600 27.13900
C  -0.39100 39.08600 28.94200
C  0.33700 42.70500 30.11000
C  -0.05900 42.66400 31.63200
H  -0.24000 41.34000 32.36000
N  0.56100 41.14800 24.12600
C  -0.50600 40.44400 24.71100
C  -1.36400 39.91300 23.69600
C  -0.66700 40.13500 22.52200
C  0.57700 40.84900 22.84900
C  -2.79000 39.35700 23.98600
C  -1.11900 39.77300 21.10800
O  -0.53700 40.05600 20.07400
C  -2.43100 39.02200 20.94100
N  3.27700 42.43400 23.37200
C  2.83500 41.93600 22.19900
C  3.86600 42.26000 21.04700
C  4.88400 43.11400 21.85300
C  4.50900 43.03300 23.31000
C  4.44000 41.08800 20.20200
C  4.96500 44.54400 21.24400
C  3.75100 45.43200 21.55500
N  3.85500 42.82800 26.17800
C  5.09700 43.29800 25.72600
C  6.02000 43.56400 26.75500
C  5.27200 43.15000 27.88600
C  4.00300 42.70400 27.51600
C  7.42300 44.08200 26.58600
C  5.38000 42.91500 29.29000
O  6.40500 42.88200 30.01800
C  3.90100 42.43200 29.79100
C  4.08200 41.28000 30.67000
O  4.30400 40.14900 30.36900
O  3.98600 41.69300 31.99800
C  4.10400 40.62100 32.97200
H  -1.56200 39.88100 26.44300
H  1.66100 40.88700 20.93900
H  6.29500 43.78200 23.99400
H  1.37700 40.81700 30.20600
H  -1.28200 40.99900 28.74500
H  -0.02500 38.97200 29.96200
H  0.19900 38.46700 28.26600
H  -1.42700 38.74800 28.90900
H  -0.62100 43.04100 29.71100
H  1.13600 43.43900 30.00300
H  -0.91200 43.30700 31.84700
H  0.72500 43.08000 32.26500
H  -2.96800 38.42600 23.44900
H  -3.52300 40.02800 23.53800
H  -3.14500 39.26900 25.01200
H  -2.38400 38.06200 21.45500
H  -2.59200 38.81700 19.88200
H  -3.18300 39.68000 21.37500
H  3.38800 42.94700 20.34900
H  5.87700 42.69600 21.68700
H  4.12600 40.15200 20.66400
H  5.49900 41.10400 19.94400
H  4.08400 41.06900 19.17200
H  5.03300 44.43400 20.16200
H  5.78900 45.10400 21.68600
H  4.01700 46.16400 22.31800
H  3.05500 44.79300 22.09700
H  3.29100 45.97700 20.73100
H  8.09900 43.23100 26.50000
H  7.67000 44.61800 27.50200
H  7.47700 44.61400 25.63600
H  3.44300 43.21100 30.40000
H  5.14700 40.44800 33.24100
H  3.67600 39.64900 32.72500
H  3.65200 40.83400 33.94000

