158

Mg 43.04300 42.08600 26.06100
C  42.20000 44.44600 28.47400
C  44.05300 40.02700 28.54800
C  43.78900 39.91100 23.70700
C  42.49600 44.60600 23.61500
N  42.84700 42.12800 28.28300
C  42.45600 43.18600 29.04900
C  42.65700 43.04300 30.57100
C  43.34000 41.60100 30.51200
C  43.44200 41.19400 29.03200
C  44.63600 41.37500 31.22000
C  41.25000 43.02600 31.25900
C  41.32000 42.76600 32.77800
H  40.76700 43.86200 33.69500
N  43.89200 40.26900 26.10500
C  44.25200 39.60700 27.23100
C  44.62000 38.23100 26.92300
C  44.54900 38.08900 25.51900
C  44.11200 39.42300 25.04100
C  45.13400 37.15600 27.86800
C  44.80900 36.94400 24.64600
O  44.70600 37.07200 23.41500
C  45.26300 35.61600 25.26700
N  43.37200 42.31100 23.93700
C  43.51300 41.16100 23.20400
C  43.44400 41.47500 21.65200
C  42.90500 42.98500 21.63300
C  42.96100 43.32300 23.11800
C  44.84600 41.34700 20.91500
C  41.49800 43.07800 21.05800
C  40.28300 42.65000 21.98800
N  42.46200 44.01400 25.95700
C  42.36000 44.91100 24.90800
C  42.01200 46.20700 25.45600
C  41.94400 46.03100 26.83900
C  42.24500 44.71700 27.07000
C  41.87100 47.44100 24.72200
C  41.70900 46.74200 27.99700
O  41.43700 47.90500 28.22500
C  41.80100 45.76000 29.19000
C  42.61800 46.26400 30.36600
O  43.86200 46.17200 30.42200
O  41.89100 46.68300 31.36400
C  42.68000 46.91200 32.59600
H  44.42800 39.36100 29.32800
H  43.96500 39.26100 22.84800
H  42.28200 45.31900 22.81600
H  43.37300 43.70200 31.06200
H  42.65100 40.91700 31.00700
H  45.44700 40.97500 30.61100
H  44.40700 40.68300 32.03000
H  44.97600 42.26900 31.74400
H  40.77900 42.17300 30.77100
H  40.62800 43.89600 31.05200
H  42.32200 42.52000 33.13000
H  40.80300 41.81600 32.91100
H  46.13800 36.89100 27.53500
H  44.51000 36.26300 27.87700
H  45.22100 37.45300 28.91300
H  45.25700 34.99700 24.37000
H  44.52700 35.32400 26.01500
H  46.28400 35.75200 25.62500
H  42.70300 40.85000 21.15300
H  43.60700 43.48400 20.96500
H  45.03700 42.16400 20.21800
H  44.92100 40.35600 20.46800
H  45.55500 41.35900 21.74300
H  41.43800 42.51700 20.12500
H  41.22800 44.10100 20.79600
H  40.59800 41.82400 22.62500
H  39.37100 42.38800 21.45100
H  40.10300 43.40000 22.75800
H  41.06300 48.00700 25.18600
H  41.65700 47.29800 23.66300
H  42.69400 48.13300 24.89600
H  40.75300 45.68700 29.48100
H  42.89900 45.93900 33.03400
H  41.98300 47.51400 33.18000
H  43.66400 47.37400 32.67300
Mg 26.89600 50.39800 26.73900
C  24.64300 51.43700 29.22700
C  29.31900 49.71900 29.25600
C  29.24300 49.92100 24.24200
C  24.64600 51.41000 24.32300
N  26.98700 50.74000 29.01200
C  25.88800 50.89300 29.79500
C  26.19300 50.62600 31.25800
C  27.67200 50.10200 31.24400
C  28.04800 50.16100 29.73700
C  28.63800 50.84000 32.16800
C  25.17800 49.68300 31.88900
C  24.64000 49.97800 33.31200
H  24.72700 48.96400 34.42700
N  28.92900 49.88600 26.73300
C  29.71300 49.58600 27.86700
C  31.00000 49.08800 27.43700
C  31.06500 49.24600 26.01100
C  29.73900 49.72600 25.56500
C  32.02800 48.71400 28.48600
C  32.19000 48.86300 25.09500
O  32.13800 49.03400 23.87300
C  33.50000 48.19200 25.60200
N  26.97800 50.69000 24.60100
C  27.95600 50.23800 23.77500
C  27.60500 50.42000 22.27100
C  26.05100 50.63900 22.38100
C  25.87600 50.97100 23.87000
C  28.42200 51.60100 21.60800
C  25.16700 49.47600 21.90100
C  24.11700 49.84000 20.83400
N  25.12200 51.38300 26.71500
C  24.29000 51.67000 25.67300
C  23.11700 52.32000 26.10500
C  23.19500 52.19700 27.51900
C  24.38300 51.56000 27.83900
C  21.96900 52.96400 25.26900
C  22.44400 52.46000 28.76100
O  21.35000 53.02800 28.90100
C  23.39700 51.95400 29.97100
C  23.79200 53.10400 30.74400
O  24.14500 54.16900 30.34700
O  23.75300 52.79800 32.03500
C  24.33800 53.83700 32.96400
H  29.88600 49.30200 30.09200
H  29.97200 49.75200 23.44700
H  24.02200 51.73500 23.48800
H  26.07000 51.53200 31.85100
H  27.59300 49.05300 31.52900
H  28.56600 50.55500 33.21800
H  28.22600 51.84200 32.28600
H  29.63300 51.04400 31.77300
H  25.71600 48.74600 32.02600
H  24.31300 49.59800 31.23000
H  23.57200 50.16300 33.19900
H  24.97500 50.94500 33.68700
H  32.77200 49.50900 28.43400
H  32.37500 47.69900 28.28700
H  31.63100 48.66400 29.49900
H  34.09600 49.01200 26.00200
H  33.85900 47.70800 24.69400
H  33.24800 47.39000 26.29600
H  27.85700 49.51900 21.71300
H  25.83300 51.59500 21.90600
H  28.98400 51.23800 20.74800
H  29.12800 51.82700 22.40700
H  27.68000 52.35800 21.35700
H  24.73400 48.96300 22.76000
H  25.84300 48.78700 21.39500
H  24.53400 49.80000 19.82800
H  23.77900 50.86900 20.95500
H  23.17600 49.29300 20.89200
H  21.13500 53.13800 25.94900
H  21.51100 52.16600 24.68300
H  22.22800 53.85500 24.69700
H  22.84500 51.24200 30.58500
H  24.76300 53.22600 33.76100
H  23.60300 54.50800 33.41000
H  25.11500 54.54700 32.68200

