158

Mg 47.42900 25.40700 28.69500
C  48.34600 27.54800 31.06500
C  46.49500 23.04500 31.08300
C  46.87400 23.12100 26.28100
C  49.07400 27.39700 26.18600
N  47.49200 25.28500 30.75400
C  47.77200 26.39700 31.53200
C  47.40700 26.17700 33.02900
C  47.07100 24.65100 32.94400
C  46.93100 24.31400 31.47100
C  48.05100 23.74600 33.74900
C  46.26600 27.09000 33.59500
C  45.75600 26.83800 35.03700
H  45.46000 27.85600 36.11600
N  46.61800 23.39200 28.68100
C  46.25400 22.62700 29.76600
C  45.92000 21.33400 29.30600
C  45.81200 21.43200 27.91800
C  46.45600 22.71000 27.55300
C  45.57700 20.20100 30.21700
C  45.28600 20.38100 26.96500
O  45.28900 20.56700 25.74900
C  44.48300 19.17200 27.56900
N  47.87000 25.30100 26.51200
C  47.41600 24.30700 25.76800
C  47.56100 24.51400 24.22900
C  48.14600 25.93300 24.25200
C  48.40700 26.28100 25.73400
C  48.43600 23.46600 23.42200
C  47.02800 26.92400 23.72000
C  47.64700 28.29900 23.18800
N  48.62800 27.02400 28.63900
C  49.22700 27.78600 27.54200
C  49.77900 28.94100 28.08600
C  49.50400 28.97200 29.49400
C  48.77600 27.74100 29.76300
C  50.67400 29.91100 27.30600
C  49.65800 29.68500 30.70300
O  50.27700 30.69300 30.95400
C  48.79200 28.85500 31.75600
C  49.60200 28.81300 32.99800
O  50.69700 28.26200 33.06400
O  48.94000 29.36800 34.07300
C  49.65500 29.43700 35.40100
H  46.19100 22.32000 31.84100
H  46.69500 22.39700 25.48400
H  49.33800 28.16100 25.45200
H  48.36300 26.36200 33.52000
H  46.17000 24.52300 33.54300
H  47.61300 23.48900 34.71400
H  48.96400 24.32700 33.88500
H  48.15800 22.83400 33.16300
H  45.45300 26.89700 32.89500
H  46.66900 28.10200 33.57800
H  46.48800 26.17100 35.49200
H  44.82400 26.31700 34.81700
H  46.00900 19.27700 29.83200
H  44.50000 20.03300 30.21900
H  46.01700 20.30300 31.20900
H  43.91500 18.55700 26.87100
H  43.76600 19.58700 28.27700
H  45.12800 18.41800 28.02000
H  46.60100 24.48000 23.71400
H  49.10600 26.01300 23.74100
H  49.24100 23.99300 22.90800
H  47.79000 23.00800 22.67300
H  48.84300 22.70200 24.08400
H  46.39600 27.15600 24.57700
H  46.46600 26.45700 22.91100
H  47.31700 28.39900 22.15400
H  48.72500 28.18500 23.07500
H  47.18900 29.13500 23.71700
H  51.53300 29.39900 26.87400
H  51.22900 30.38200 28.11700
H  50.14900 30.66100 26.71600
H  47.90800 29.46400 31.94900
H  50.06400 30.40400 35.69200
H  50.42000 28.66200 35.44000
H  48.89400 29.09500 36.10300
Mg 6.03100 54.34200 39.77500
C  5.35500 50.82900 39.95700
C  9.42400 53.39700 39.22800
C  6.84200 57.46700 39.22600
C  2.71000 55.06600 39.76900
N  7.16100 52.24400 39.45100
C  6.77400 50.99300 39.72200
C  7.88800 49.98300 39.59100
C  9.11100 50.91700 39.77400
C  8.56000 52.30100 39.38700
C  9.83400 50.92900 41.16900
C  7.88400 49.27200 38.24700
C  7.60600 49.96100 36.90900
H  6.27000 49.63600 36.21000
N  7.89000 55.34500 39.42800
C  9.10200 54.78700 39.18800
C  10.03000 55.87800 39.02600
C  9.36200 57.08200 39.10200
C  8.00000 56.64100 39.23800
C  11.52400 55.68800 38.83900
C  9.99900 58.48700 39.01000
O  11.22500 58.60400 38.87200
C  9.25500 59.75100 39.19200
N  4.89900 56.01900 39.28000
C  5.44700 57.21400 39.27300
C  4.40100 58.35600 39.50700
C  3.09200 57.52600 39.58900
C  3.55800 56.07200 39.45400
C  4.74000 59.32900 40.70000
C  1.99100 58.07800 38.60100
C  2.07400 57.41900 37.21400
N  4.33000 53.27700 39.77100
C  3.02300 53.69100 39.90600
C  2.20500 52.57400 40.28300
C  3.03600 51.42500 40.23700
C  4.37800 51.92500 39.95900
C  0.70300 52.56700 40.25600
C  3.02500 50.01500 40.44300
O  2.16300 49.14500 40.62500
C  4.55000 49.59000 40.35400
C  4.54100 48.57500 39.29600
O  4.12300 48.67900 38.17900
O  4.92300 47.35200 39.79200
C  4.69400 46.16500 38.94200
H  10.47900 53.11800 39.20700
H  6.91900 58.55400 39.29600
H  1.68600 55.43400 39.85000
H  7.65100 49.29200 40.40000
H  9.84600 50.63200 39.02100
H  10.83700 50.51200 41.08900
H  9.28200 50.34900 41.90900
H  9.81500 51.95800 41.52900
H  7.17400 48.45500 38.38000
H  8.86100 48.78800 38.25100
H  8.40900 49.55700 36.29300
H  7.82500 51.01200 37.09900
H  11.76700 55.52600 37.78900
H  11.94000 54.88200 39.44300
H  12.11000 56.52300 39.22400
H  10.05900 60.48400 39.11700
H  8.79900 59.74300 40.18100
H  8.52700 59.73500 38.38100
H  4.43200 59.01500 38.64000
H  2.63600 57.56300 40.57800
H  3.97000 59.29000 41.47000
H  4.78200 60.35700 40.34000
H  5.67700 59.04300 41.17900
H  2.07200 59.16200 38.52800
H  0.96600 57.97900 38.95900
H  1.07200 56.99600 37.13800
H  2.82800 56.66600 36.98400
H  2.24200 58.19900 36.47200
H  0.38600 53.40300 40.87900
H  0.37900 51.69300 40.82100
H  0.40200 52.58000 39.20800
H  4.87400 49.19400 41.31700
H  5.63500 46.13800 38.39300
H  3.84300 46.30400 38.27600
H  4.49000 45.30900 39.58500

