158

Mg 46.94700 25.28200 28.70300
C  47.42800 27.55800 31.37700
C  45.67500 23.00500 31.04800
C  47.00800 22.79400 26.34800
C  48.37800 27.51800 26.41100
N  46.72300 25.26900 30.90800
C  46.81900 26.36000 31.78400
C  46.33300 25.93300 33.15800
C  45.89300 24.43500 33.03700
C  46.10700 24.23300 31.53200
C  46.79200 23.54600 34.01500
C  45.31100 26.92300 33.86200
C  45.73600 27.11600 35.38300
H  44.74400 27.32800 36.49900
N  46.35100 23.23300 28.73200
C  45.83300 22.47600 29.77200
C  45.49300 21.20300 29.32400
C  45.76400 21.09000 27.98400
C  46.39100 22.41500 27.62300
C  44.88100 20.16300 30.21500
C  45.51000 19.89900 27.07500
O  46.02700 19.87100 25.94400
C  44.76500 18.65900 27.68400
N  47.59100 25.18600 26.71700
C  47.55700 24.02000 25.97500
C  48.24600 24.24500 24.60200
C  48.54200 25.77900 24.58000
C  48.17900 26.16500 25.97900
C  49.46400 23.31600 24.28500
C  47.70000 26.59800 23.55400
C  46.25100 27.01200 23.94900
N  47.76800 27.10000 28.79200
C  48.30200 27.95700 27.77900
C  48.73400 29.15800 28.44200
C  48.32800 29.09600 29.76700
C  47.79700 27.78000 30.01900
C  49.38000 30.30500 27.73800
C  48.33200 29.80800 30.97600
O  48.68900 30.93400 31.26000
C  47.79300 28.86500 32.14500
C  48.88600 28.71900 33.15400
O  50.00200 28.29500 32.77400
O  48.61000 29.08100 34.46100
C  49.61200 28.88300 35.54600
H  45.31200 22.39000 31.87400
H  47.13100 22.03000 25.57800
H  48.75800 28.24500 25.68900
H  47.27200 26.11300 33.68000
H  44.88500 24.18900 33.37100
H  47.44200 23.03000 33.30800
H  46.22500 22.77900 34.54100
H  47.42100 24.06200 34.74100
H  44.31200 26.49400 33.77900
H  45.25200 27.91300 33.40900
H  46.22700 28.08200 35.26300
H  46.51100 26.43000 35.72600
H  45.02500 20.55100 31.22400
H  45.47900 19.25200 30.19800
H  43.81100 19.97200 30.13100
H  45.50800 18.18800 28.32800
H  44.44500 17.89800 26.97200
H  43.86600 19.00000 28.19700
H  47.54700 24.00300 23.80200
H  49.57400 25.92500 24.26100
H  49.17900 22.47300 23.65500
H  49.91800 22.86100 25.16600
H  50.23300 23.90400 23.78400
H  47.67400 26.00700 22.63900
H  48.31800 27.48500 23.42000
H  46.16900 26.57600 24.94500
H  45.54000 26.61700 23.22300
H  46.13400 28.08400 24.10500
H  49.72800 30.93800 28.55400
H  48.74000 30.87400 27.06300
H  50.22800 29.96500 27.14400
H  46.99000 29.38400 32.66800
H  49.24700 28.16800 36.28300
H  49.87800 29.81300 36.04900
H  50.54500 28.43300 35.20800
Mg -1.82900 33.89300 26.32400
C  -3.00400 32.13400 29.24900
C  0.13600 35.78200 28.41800
C  -1.00400 35.65500 23.64400
C  -3.78300 31.74300 24.39100
N  -1.49900 34.02600 28.60200
C  -2.00700 33.12400 29.52300
C  -1.45600 33.41700 30.92700
C  -0.58500 34.71600 30.68300
C  -0.62600 34.82000 29.19700
C  -1.06800 36.02300 31.36800
C  -0.76000 32.17500 31.56800
C  -1.30500 31.66300 32.93400
H  -0.26400 31.53500 34.07800
N  -0.58500 35.53300 26.03900
C  0.11500 36.21000 27.04500
C  0.90700 37.24700 26.42600
C  0.60300 37.22000 25.00600
C  -0.39000 36.14400 24.84200
C  1.93000 38.17000 27.18300
C  1.24700 37.95000 23.86400
O  0.90200 37.96200 22.71800
C  2.36900 38.98400 24.24700
N  -2.51900 33.92700 24.37400
C  -1.92300 34.66900 23.40400
C  -2.41300 34.26300 21.97100
C  -2.84400 32.77900 22.23800
C  -3.11500 32.78900 23.73600
C  -3.52800 35.18600 21.38200
C  -1.85200 31.62900 21.80300
C  -0.53200 31.62700 22.49800
N  -3.16900 32.35400 26.72400
C  -3.86200 31.58200 25.83600
C  -4.68200 30.61400 26.59100
C  -4.34600 30.85400 27.95600
C  -3.44100 31.86700 27.96900
C  -5.72500 29.65100 26.00400
C  -4.70300 30.40300 29.30500
O  -5.49700 29.52700 29.71700
C  -3.73500 31.19500 30.17700
C  -4.46900 31.75000 31.35700
O  -4.82900 32.93000 31.48200
O  -4.68200 30.79800 32.29100
C  -5.23400 31.34600 33.58000
H  0.96900 36.23200 28.96200
H  -0.68300 36.19400 22.75000
H  -4.14300 30.94500 23.73800
H  -2.27900 33.68500 31.59000
H  0.41700 34.43600 31.01000
H  -2.15400 35.95600 31.43600
H  -0.71000 36.87000 30.78100
H  -0.67400 36.03700 32.38400
H  0.31400 32.35700 31.58500
H  -0.87900 31.33900 30.88000
H  -1.52400 30.60200 32.81600
H  -2.23500 32.08900 33.30900
H  2.90400 37.68900 27.26500
H  1.50700 38.30800 28.17800
H  1.98300 39.19800 26.82600
H  3.07800 39.36000 23.51000
H  3.02600 38.55200 25.00200
H  1.83800 39.85600 24.63000
H  -1.60300 34.27300 21.24200
H  -3.85200 32.53900 21.89800
H  -4.44500 34.60300 21.46700
H  -3.13200 35.47200 20.40800
H  -3.79600 36.03500 22.01100
H  -1.57200 31.81500 20.76600
H  -2.23800 30.61000 21.79000
H  -0.82900 31.98500 23.48400
H  0.08600 32.19800 21.80500
H  -0.14700 30.61000 22.57700
H  -5.87900 30.02300 24.99100
H  -6.63700 29.77100 26.58900
H  -5.41100 28.61100 26.10000
H  -2.98800 30.43200 30.39300
H  -4.49600 31.96400 34.09300
H  -5.45000 30.45000 34.16200
H  -6.13100 31.95600 33.47000

