158

Mg 1.96200 -1.94600 44.53200
C  5.09800 -0.67600 44.03100
C  0.64300 0.49700 42.56100
C  -1.04700 -3.53600 44.73200
C  3.37400 -4.69000 46.19200
N  2.83700 -0.29600 43.40600
C  4.13100 0.07200 43.32600
C  4.33500 1.23400 42.43300
C  2.87200 1.67600 42.13700
C  2.02900 0.52800 42.67100
C  2.46500 3.05600 42.69500
C  5.10400 0.95200 41.08800
C  6.07300 2.12400 40.58800
H  5.77900 2.89000 39.34900
N  0.04100 -1.59700 43.61300
C  -0.32000 -0.47200 42.96300
C  -1.81400 -0.49300 42.76900
C  -2.27800 -1.77400 43.21200
C  -1.08100 -2.35200 43.88800
C  -2.62200 0.65600 41.97800
C  -3.63500 -2.41800 43.05100
O  -4.58500 -1.80100 42.55800
C  -3.88300 -3.86400 43.36500
N  1.25500 -3.97600 45.21000
C  -0.04200 -4.25400 45.35600
C  -0.26800 -5.65000 45.90600
C  1.15100 -5.98100 46.47400
C  1.99800 -4.83000 45.94000
C  -1.38400 -5.66300 46.91900
C  1.73100 -7.35500 46.08900
C  2.54400 -8.04500 47.23900
N  3.84000 -2.58300 45.07000
C  4.25000 -3.73100 45.76100
C  5.69800 -3.65200 45.90100
C  6.03700 -2.50400 45.21300
C  4.92700 -1.85300 44.79700
C  6.37800 -4.67800 46.59100
C  7.12900 -1.63300 44.81900
O  8.34800 -1.76800 45.01200
C  6.59100 -0.49500 43.98900
C  7.09200 0.80400 44.58900
O  6.97200 1.14300 45.74200
O  7.59700 1.55000 43.64200
C  8.18900 2.84700 43.98900
H  0.20700 1.35500 42.04400
H  -2.02200 -3.98400 44.93300
H  3.69600 -5.51300 46.83400
H  4.77600 2.05800 42.99400
H  2.66100 1.80200 41.07500
H  2.30200 3.75800 41.87700
H  3.23900 3.45400 43.35100
H  1.51700 2.86400 43.19800
H  4.35300 0.88200 40.30100
H  5.63100 0.00000 41.15200
H  7.05000 1.70000 40.35300
H  6.17200 2.91800 41.32800
H  -3.34000 1.06900 42.68600
H  -3.02500 0.28400 41.03600
H  -2.02700 1.53200 41.72100
H  -2.96500 -4.36700 43.06100
H  -4.70200 -4.27100 42.77200
H  -4.12600 -4.05400 44.41100
H  -0.57400 -6.33200 45.11300
H  1.10100 -5.87200 47.55800
H  -2.12200 -6.41700 46.64500
H  -1.94900 -4.73800 47.03700
H  -1.08400 -5.91000 47.93700
H  2.30100 -7.29900 45.16100
H  0.88000 -7.98400 45.82700
H  3.55100 -8.38700 47.00100
H  1.95700 -8.91700 47.52900
H  2.54200 -7.37000 48.09500
H  6.68500 -5.39400 45.82800
H  5.73400 -5.06300 47.38200
H  7.31100 -4.36600 47.05900
H  6.98800 -0.60700 42.98000
H  9.10100 2.96300 43.40300
H  8.47400 3.01100 45.02800
H  7.57100 3.69000 43.67800
Mg 35.06200 3.36700 29.62900
C  32.79500 4.50600 32.06400
C  37.40900 3.04000 32.05700
C  37.23200 2.81600 27.21100
C  32.55700 3.79800 27.24000
N  35.13700 3.88500 31.78900
C  34.07100 4.10500 32.62000
C  34.47900 4.25500 34.05100
C  36.03400 4.12800 33.98100
C  36.26000 3.60300 32.53300
C  36.75900 5.41800 34.38100
C  33.78200 3.26900 34.93200
C  33.81600 3.48200 36.47200
H  34.57800 4.69200 37.12500
N  37.05700 2.94100 29.65600
C  37.87200 2.74900 30.75600
C  39.17200 2.30700 30.36600
C  39.13800 2.16600 28.92700
C  37.77200 2.57200 28.55800
C  40.35500 2.12200 31.28500
C  40.18900 1.69000 27.98500
O  39.92000 1.64300 26.76100
C  41.60700 1.16000 28.41000
N  34.88200 3.40500 27.50500
C  35.92200 3.14900 26.77800
C  35.64200 3.27700 25.20500
C  34.09800 3.29500 25.21300
C  33.81500 3.51600 26.72300
C  36.24800 4.47800 24.49500
C  33.42300 2.02500 24.64000
C  32.76900 1.00900 25.63100
N  33.12300 4.11700 29.60900
C  32.23500 4.18500 28.56500
C  30.96500 4.63700 28.97200
C  31.12100 4.86000 30.39300
C  32.50300 4.59000 30.67500
C  29.76600 4.85900 28.13000
C  30.46600 5.27700 31.58300
O  29.33800 5.74200 31.71800
C  31.54800 5.07900 32.73300
C  31.75700 6.41100 33.38700
O  32.33900 7.39500 32.90900
O  31.27200 6.33700 34.64900
C  31.43400 7.60500 35.39800
H  38.21500 2.84200 32.76700
H  37.88800 2.66500 26.35100
H  31.83700 4.03700 26.45600
H  34.21700 5.29100 34.26500
H  36.40000 3.34700 34.64800
H  37.61500 5.18700 35.01500
H  36.19300 6.19200 34.89800
H  37.27200 5.86300 33.52800
H  34.28100 2.32200 34.72400
H  32.73900 3.19800 34.62400
H  34.11300 2.61400 37.06000
H  32.75500 3.56000 36.71100
H  40.76200 1.14300 31.03000
H  40.07000 2.22500 32.33200
H  40.97700 2.97000 31.00000
H  42.03400 0.84900 27.45700
H  41.48500 0.21900 28.94700
H  42.08600 1.97200 28.95700
H  36.04000 2.37400 24.74200
H  33.64600 4.19000 24.78500
H  36.88400 4.17800 23.66300
H  36.89300 4.99800 25.20400
H  35.47900 5.13900 24.09500
H  34.03100 1.46600 23.92900
H  32.60300 2.46400 24.07200
H  33.46300 0.76100 26.43300
H  32.50100 0.09000 25.11000
H  31.79300 1.39400 25.92900
H  29.08400 5.58500 28.57200
H  29.30900 3.90800 27.85600
H  30.15500 5.25800 27.19400
H  31.13100 4.32000 33.39500
H  30.97600 8.41500 34.83000
H  32.46400 7.91400 35.57300
H  30.92000 7.33300 36.32000

