158

Mg 7.77100 3.34900 27.54400
C  9.28400 2.09600 30.44300
C  5.82800 5.46600 29.47700
C  6.54800 4.57600 24.70200
C  9.20500 0.65500 25.72900
N  7.69400 3.79700 29.70200
C  8.36300 3.14200 30.70000
C  7.91700 3.67000 32.06100
C  6.69600 4.61200 31.76900
C  6.71400 4.68300 30.21500
C  5.35400 4.07500 32.31400
C  9.11100 4.39800 32.78500
C  9.70600 3.72100 33.97700
H  10.07900 4.54600 35.16600
N  6.31700 4.68200 27.13900
C  5.65300 5.57600 28.08100
C  4.78900 6.48900 27.37700
C  4.89300 6.18000 25.95400
C  6.00300 5.12900 25.89000
C  3.98200 7.60600 28.08500
C  4.24100 6.86500 24.74400
O  4.55000 6.67700 23.57400
C  3.14200 7.90200 24.93500
N  7.75300 2.60300 25.54400
C  7.31600 3.43600 24.50800
C  7.62200 2.88000 23.15500
C  8.42400 1.64100 23.55700
C  8.52800 1.63800 25.05900
C  6.41600 2.68100 22.18200
C  9.83900 1.47200 22.79400
C  9.87800 0.27500 21.70600
N  9.02100 1.80200 27.93800
C  9.46000 0.73900 27.13200
C  10.17600 -0.24800 27.89500
C  10.20900 0.34600 29.22000
C  9.43300 1.53900 29.18100
C  10.75600 -1.50300 27.35900
C  10.68800 0.15100 30.53300
O  11.45900 -0.70200 30.83000
C  10.20200 1.28100 31.39100
C  9.47900 0.58400 32.52400
O  8.28500 0.37700 32.67900
O  10.45800 0.32600 33.44800
C  9.99500 0.15300 34.84700
H  5.30800 6.20900 30.08500
H  6.01300 4.86000 23.79300
H  9.68800 -0.09800 25.10300
H  7.52400 2.86600 32.68400
H  6.82400 5.59800 32.21500
H  4.93900 3.21100 31.79500
H  4.56100 4.82200 32.32900
H  5.50600 3.68200 33.31900
H  8.74500 5.40300 32.99500
H  9.92600 4.56500 32.08100
H  10.69900 3.39100 33.67300
H  9.00800 2.93700 34.26900
H  3.00300 7.12900 28.12200
H  3.96400 8.50100 27.46300
H  4.34700 7.84700 29.08300
H  2.28700 7.69400 25.57800
H  2.74300 8.20600 23.96800
H  3.60900 8.80800 25.32300
H  8.38600 3.56700 22.79200
H  7.79200 0.77500 23.36600
H  5.53700 3.12900 22.64500
H  6.27100 1.60900 22.04300
H  6.55000 3.12900 21.19800
H  10.77000 1.36000 23.34800
H  10.16000 2.29000 22.14900
H  8.89800 -0.18500 21.58200
H  10.58500 -0.44400 22.12100
H  10.27200 0.74900 20.80700
H  10.13500 -1.95600 26.58600
H  10.70000 -2.23200 28.16700
H  11.79200 -1.30400 27.08300
H  11.03600 1.88400 31.74900
H  10.02300 1.10000 35.38600
H  10.56500 -0.58400 35.41300
H  8.96500 -0.19900 34.92100
Mg 49.01500 46.52200 42.61800
C  45.74400 47.37100 41.77400
C  48.46300 43.55200 40.86000
C  52.26700 46.00600 42.62800
C  49.52300 49.87400 43.50900
N  47.30200 45.62700 41.37400
C  46.00900 46.05900 41.27000
C  44.98700 45.03000 40.80800
C  45.88600 43.75700 40.85300
C  47.28300 44.27500 41.05900
C  45.42400 42.71300 41.90800
C  44.24200 45.36000 39.49900
C  44.90600 46.30800 38.46500
H  45.80700 45.71400 37.42100
N  50.13600 44.85800 42.03800
C  49.76900 43.76600 41.30200
C  50.93000 42.91000 41.25700
C  52.00300 43.62900 41.87500
C  51.48600 44.96900 42.19300
C  50.94300 41.55700 40.66500
C  53.42700 42.98300 41.94000
O  53.54500 41.76300 41.78000
C  54.61300 43.77400 42.34700
N  50.73100 47.87100 42.70900
C  51.94000 47.34400 42.91800
C  52.96700 48.42100 43.34900
C  52.02600 49.62700 43.70100
C  50.68000 49.09700 43.23400
C  53.87900 47.95000 44.49600
C  52.34200 51.09400 43.08600
C  52.37600 52.20900 44.11600
N  47.90600 48.29300 42.66300
C  48.21300 49.52300 43.24000
C  46.99200 50.36200 43.29900
C  45.97900 49.54400 42.67600
C  46.57100 48.29500 42.41100
C  46.77400 51.82000 43.73200
C  44.60600 49.43300 42.28500
O  43.66700 50.23500 42.30500
C  44.37700 48.05600 41.78900
C  43.38300 47.40000 42.62300
O  43.55300 47.36200 43.81800
O  42.39300 46.82400 41.90800
C  41.49000 46.03100 42.76200
H  48.33900 42.58700 40.36300
H  53.34700 45.88000 42.72700
H  49.68200 50.89700 43.85700
H  44.28700 44.87700 41.62900
H  45.87800 43.25800 39.88400
H  46.20400 42.54300 42.65000
H  45.09900 41.78900 41.43100
H  44.51900 42.95500 42.46600
H  43.22800 45.66300 39.76000
H  44.07000 44.38200 39.05000
H  45.64200 46.93800 38.96400
H  44.16700 46.92800 37.95700
H  50.01500 41.54500 40.09300
H  50.87400 40.81700 41.46200
H  51.81900 41.30500 40.06800
H  54.33700 44.23700 43.29500
H  54.79500 44.39500 41.47000
H  55.40200 43.07400 42.62000
H  53.51700 48.77400 42.47700
H  52.02700 49.67100 44.79000
H  53.73500 46.87600 44.61400
H  53.58700 48.51900 45.37900
H  54.92800 48.11700 44.25000
H  51.58200 51.37100 42.35500
H  53.34000 50.99100 42.66200
H  51.99800 51.90600 45.09200
H  51.72900 53.03200 43.81200
H  53.35500 52.68000 44.20400
H  47.59500 52.13700 44.37400
H  45.82800 51.98100 44.24900
H  46.70100 52.44400 42.84100
H  43.93600 48.26200 40.81400
H  41.83300 45.00300 42.64400
H  40.50000 46.14600 42.32100
H  41.46900 45.97100 43.85000

