158

Mg 0.63400 7.75000 25.64600
C  1.58200 9.66200 28.45400
C  0.81800 4.91800 27.66200
C  0.20300 5.89400 22.95400
C  0.67900 10.61200 23.82300
N  1.24400 7.37800 27.84000
C  1.34500 8.33100 28.84700
C  1.34800 7.68500 30.25300
C  1.38100 6.19200 29.89500
C  1.16000 6.13400 28.38900
C  2.63000 5.41200 30.38200
C  0.02100 8.08500 31.04000
C  0.15400 8.17900 32.59800
H  1.42200 7.85700 33.24200
N  0.42300 5.67000 25.33600
C  0.55000 4.69500 26.31000
C  0.37400 3.35200 25.61900
C  0.15900 3.66500 24.22500
C  0.25700 5.11500 24.10600
C  0.47100 2.08700 26.35400
C  -0.20700 2.76000 23.04300
O  -0.42100 3.17200 21.88200
C  -0.38900 1.30600 23.32900
N  0.43100 8.17500 23.72500
C  0.25700 7.24500 22.75000
C  0.20400 7.89100 21.36900
C  -0.00700 9.39800 21.67600
C  0.32700 9.46000 23.19300
C  1.59900 7.65800 20.68100
C  -1.39200 9.99000 21.28800
C  -1.45400 11.30200 20.46300
N  1.27500 9.70500 25.98100
C  1.16500 10.76100 25.14700
C  1.52200 11.97300 25.83000
C  1.78600 11.63300 27.18900
C  1.53100 10.20300 27.22000
C  1.55900 13.45500 25.22600
C  2.03900 12.08700 28.49000
O  2.14800 13.17900 28.94700
C  1.82300 10.86100 29.38100
C  3.03900 10.77400 30.20400
O  3.90700 9.89800 30.16800
O  2.82200 11.71100 31.25000
C  3.50300 11.42800 32.49100
H  0.91200 3.99100 28.23100
H  0.12900 5.35900 22.00400
H  0.62500 11.56900 23.30000
H  2.22100 7.86900 30.88000
H  0.50200 5.66400 30.26400
H  2.19400 4.49200 30.77100
H  3.18000 5.96400 31.14400
H  3.20900 5.02000 29.54700
H  -0.76800 7.36100 30.83700
H  -0.28500 9.00300 30.53800
H  -0.58600 7.55400 33.09700
H  -0.11900 9.21500 32.79900
H  -0.27600 1.32200 26.14200
H  0.51900 2.20900 27.43600
H  1.38300 1.67200 25.92300
H  -1.13500 1.36500 24.12200
H  0.52600 0.78300 23.60600
H  -0.74800 0.84500 22.40800
H  -0.56600 7.44000 20.74300
H  0.68200 10.02300 21.10900
H  1.89700 8.39500 19.93500
H  1.61600 6.63400 20.30800
H  2.35000 7.78100 21.46100
H  -1.95900 10.19300 22.19700
H  -1.92000 9.12400 20.88900
H  -1.21900 11.10200 19.41700
H  -0.70700 12.04500 20.74200
H  -2.36900 11.89500 20.46600
H  2.53100 13.63800 24.76900
H  1.42600 14.14100 26.06400
H  0.78500 13.64300 24.48200
H  1.01400 11.03500 30.09100
H  3.92600 12.41500 32.67900
H  4.27300 10.65800 32.50800
H  2.74600 11.14600 33.22200
Mg 40.14700 8.26900 29.97800
C  41.48200 9.45300 32.98500
C  37.61300 6.77200 31.69100
C  39.14800 6.93800 27.16100
C  43.09000 9.58200 28.35600
N  39.65300 8.09200 32.05900
C  40.23700 8.82600 33.09000
C  39.42300 8.64700 34.38500
C  38.14800 7.80700 34.00700
C  38.49500 7.50200 32.52300
C  37.89900 6.56600 34.83300
C  39.12100 10.03800 35.07700
C  38.96300 9.95000 36.57600
H  39.94700 10.76100 37.43900
N  38.49100 7.11100 29.47600
C  37.54900 6.62400 30.33300
C  36.67100 5.78400 29.58000
C  37.03300 5.89400 28.24200
C  38.32500 6.72000 28.23900
C  35.55800 4.88900 30.25600
C  36.36300 5.28700 27.02000
O  36.92000 5.19200 25.94900
C  34.94600 4.62500 27.12500
N  41.08200 8.10700 28.08400
C  40.37700 7.60900 27.09900
C  41.15500 7.70800 25.74800
C  42.21700 8.78200 26.07400
C  42.11400 8.81900 27.60500
C  41.77200 6.35200 25.33800
C  42.03300 10.15900 25.26000
C  40.68600 10.69500 24.81300
N  41.91000 9.27800 30.49400
C  42.98100 9.79000 29.73000
C  43.90300 10.53100 30.53600
C  43.38600 10.37700 31.80800
C  42.21700 9.60100 31.78600
C  45.13100 11.31700 30.14900
C  43.65900 10.64900 33.17800
O  44.65500 11.24100 33.68500
C  42.42800 10.11900 33.96400
C  42.86800 9.03600 34.91700
O  43.41700 7.92900 34.63300
O  42.54800 9.41500 36.26200
C  42.60500 8.25500 37.17100
H  36.73900 6.44900 32.26000
H  38.93500 6.32300 26.28400
H  43.89300 10.09900 27.82700
H  40.06600 8.00100 34.98300
H  37.27700 8.46000 34.05900
H  36.86800 6.50900 35.18100
H  38.48800 6.65600 35.74600
H  38.12800 5.57800 34.43500
H  38.13900 10.42800 34.80700
H  39.86400 10.81100 34.88100
H  38.98700 8.90900 36.89800
H  37.95200 10.24800 36.85400
H  35.76400 4.89600 31.32700
H  35.63600 3.85900 29.91000
H  34.56400 5.29900 30.07600
H  34.91700 3.83900 27.88100
H  34.77300 4.26000 26.11300
H  34.30100 5.46900 27.36900
H  40.49400 8.02500 24.94200
H  43.19200 8.36700 25.82200
H  42.72000 6.50300 24.82200
H  41.12500 5.87700 24.60100
H  41.90600 5.62400 26.13800
H  42.64700 10.14700 24.36000
H  42.50300 10.91100 25.89300
H  40.35100 10.14600 23.93300
H  40.75900 11.78100 24.75800
H  39.87100 10.40200 25.47400
H  44.81800 11.70900 29.18200
H  46.07300 10.77000 30.09800
H  45.19800 12.13700 30.86400
H  41.91000 11.00900 34.32200
H  43.63600 7.90500 37.12800
H  41.81900 7.57300 36.84800
H  42.38800 8.58200 38.18800

