158

Mg 35.21200 48.51900 25.40100
C  35.80600 46.46100 28.12200
C  34.19000 51.03200 27.44100
C  34.69700 50.47800 22.69900
C  36.19400 45.93000 23.34200
N  34.78400 48.64500 27.50600
C  35.32500 47.71300 28.46700
C  35.25100 48.33800 29.88500
C  34.43100 49.64500 29.57800
C  34.49900 49.81200 28.04900
C  33.04900 49.83600 30.32300
C  36.62800 48.60300 30.44400
C  36.77800 48.46000 31.96800
H  35.49500 48.38000 32.85400
N  34.46300 50.49200 25.12100
C  34.28200 51.39100 26.09400
C  34.03000 52.70600 25.52100
C  34.08000 52.57300 24.12100
C  34.44300 51.15300 23.91900
C  33.70800 53.82600 26.49200
C  33.83700 53.55900 22.99400
O  34.04800 53.27700 21.82000
C  33.52800 54.99000 23.35600
N  35.26900 48.23800 23.28700
C  35.11800 49.17000 22.39900
C  35.39800 48.65000 20.98700
C  35.98700 47.29400 21.22100
C  35.80900 47.15400 22.74300
C  34.22900 48.74800 19.87800
C  37.47200 47.12700 20.71100
C  38.65800 46.94300 21.68200
N  35.77600 46.57300 25.62800
C  36.13300 45.63300 24.68300
C  36.50800 44.38600 25.34200
C  36.44600 44.72000 26.69700
C  35.87000 46.00000 26.81600
C  36.81000 43.03500 24.74400
C  36.64700 44.24800 28.00900
O  37.03100 43.13900 28.36200
C  36.31400 45.41000 29.04000
C  35.23500 44.96400 29.97200
O  34.08200 44.86400 29.63800
O  35.59500 44.84600 31.32700
C  34.50800 44.38400 32.20500
H  34.10000 51.78100 28.23100
H  34.60400 51.09800 21.80500
H  36.53700 45.03900 22.81300
H  34.72200 47.66800 30.56300
H  35.03000 50.43500 30.03100
H  32.33900 50.13700 29.55200
H  33.20400 50.69800 30.97100
H  32.73000 48.88600 30.75300
H  36.99800 49.58700 30.15700
H  37.35800 47.92800 29.99600
H  37.27500 49.35900 32.33300
H  37.44900 47.62900 32.18700
H  33.08900 53.43000 27.29700
H  33.13100 54.52900 25.89100
H  34.58000 54.34400 26.89200
H  32.60600 55.16000 23.91200
H  33.48000 55.65600 22.49400
H  34.36100 55.36800 23.94900
H  36.18500 49.32600 20.65400
H  35.43200 46.50500 20.71400
H  34.07800 47.75400 19.45700
H  34.54300 49.44100 19.09700
H  33.23600 49.07800 20.18000
H  37.73000 47.90200 19.99000
H  37.37700 46.20000 20.14500
H  39.49500 47.49400 21.25100
H  38.97900 45.91200 21.82600
H  38.44500 47.38100 22.65700
H  37.41300 43.19500 23.85000
H  35.97000 42.42100 24.41800
H  37.45000 42.57400 25.49700
H  37.15200 45.73000 29.65800
H  34.01800 43.50600 31.78400
H  33.79900 45.16900 32.46700
H  34.84100 43.95900 33.15200
Mg 16.80000 52.12600 26.04000
C  18.58400 50.75100 28.59500
C  14.26500 52.88600 28.22700
C  14.93700 53.44700 23.42500
C  19.05900 50.89600 23.73100
N  16.55100 51.91100 28.12500
C  17.47700 51.47400 28.98000
C  17.03200 51.83300 30.43000
C  15.48400 52.14800 30.29400
C  15.39900 52.31700 28.77500
C  14.42700 51.15300 30.89400
C  17.89800 52.94900 31.03900
C  18.44300 52.68200 32.49300
H  17.39700 52.06800 33.45000
N  14.97900 53.20500 25.82400
C  14.05500 53.34500 26.85900
C  12.93200 53.96100 26.39200
C  13.03800 54.11400 24.96700
C  14.34300 53.58400 24.67100
C  11.70300 54.20300 27.29800
C  11.98900 54.56200 23.96200
O  12.15800 54.55800 22.76200
C  10.67000 55.05500 24.44600
N  16.91200 52.11100 23.86700
C  16.04300 52.75000 23.05100
C  16.59300 52.84600 21.58900
C  17.91900 52.04900 21.74000
C  18.00200 51.70700 23.20000
C  15.58800 52.53400 20.42000
C  19.19200 52.83400 21.27400
C  19.86700 52.14300 20.03300
N  18.46900 51.07600 26.11200
C  19.30000 50.58800 25.15000
C  20.39300 49.85100 25.69300
C  20.18800 49.89900 27.06700
C  18.95700 50.59500 27.27100
C  21.50400 49.17600 24.89300
C  20.65700 49.46200 28.37300
O  21.44900 48.58300 28.64700
C  19.67900 50.12700 29.41800
C  19.17400 49.12000 30.35100
O  18.74600 48.01600 30.04800
O  19.44700 49.51100 31.64200
C  19.25300 48.47900 32.66500
H  13.38100 52.97000 28.86300
H  14.45000 53.91900 22.57000
H  19.78900 50.60500 22.97200
H  17.16600 50.93500 31.03400
H  15.38800 53.19500 30.58300
H  13.81500 50.66800 30.13300
H  13.69000 51.73700 31.44600
H  14.78300 50.38900 31.58500
H  17.53600 53.93400 30.74400
H  18.75300 52.94100 30.36300
H  18.91400 53.58300 32.88500
H  19.24000 51.95500 32.33700
H  10.95900 53.41300 27.19100
H  11.18000 55.13200 27.07000
H  11.94300 54.28100 28.35900
H  10.26000 55.28100 23.46100
H  10.72600 55.97600 25.02600
H  10.16600 54.19700 24.89100
H  16.74800 53.92400 21.53400
H  17.73100 51.09900 21.24100
H  16.05300 51.86600 19.69500
H  15.37600 53.38100 19.76900
H  14.65800 52.08500 20.76900
H  19.86400 52.98700 22.11800
H  18.80700 53.80800 20.97000
H  19.24800 52.40700 19.17600
H  20.04500 51.07700 20.17500
H  20.77700 52.62200 19.67000
H  21.89900 49.91400 24.19500
H  21.17200 48.25900 24.40400
H  22.33400 48.88300 25.53500
H  20.21100 50.88900 29.98700
H  18.20500 48.25600 32.46300
H  19.29900 48.76700 33.71500
H  19.83900 47.58700 32.44500

