158

Mg 36.37500 48.86100 25.05000
C  36.43600 46.86800 27.88900
C  35.50400 51.61400 27.12200
C  36.20200 50.68700 22.32100
C  36.80900 45.99900 23.12500
N  35.90000 49.17700 27.26200
C  36.14800 48.23500 28.17500
C  36.03000 48.72300 29.60600
C  35.59100 50.27000 29.29500
C  35.66100 50.41900 27.81600
C  34.15300 50.62800 29.82600
C  37.32500 48.56400 30.41400
C  37.29300 47.92900 31.84200
H  36.04500 48.30100 32.74200
N  35.99500 50.88000 24.81600
C  35.69900 51.85100 25.75000
C  35.78100 53.14400 25.15400
C  35.87900 52.91600 23.73400
C  35.98800 51.43300 23.52900
C  35.60100 54.47100 25.88300
C  35.86300 53.95000 22.68600
O  35.62300 53.56200 21.54100
C  36.28800 55.36200 23.03200
N  36.46000 48.45000 22.97400
C  36.25100 49.32000 22.00800
C  36.54200 48.78500 20.61300
C  37.09100 47.39600 21.02100
C  36.74500 47.26100 22.47800
C  35.26500 48.75700 19.74200
C  38.67600 47.45100 20.79200
C  39.28200 46.34500 20.01500
N  36.51300 46.77500 25.39000
C  36.75800 45.72500 24.47000
C  36.88100 44.46800 25.25200
C  36.74000 44.93500 26.57600
C  36.51800 46.31200 26.59600
C  37.11500 43.03200 24.68900
C  36.78500 44.52900 27.97100
O  36.96000 43.48500 28.51800
C  36.42200 45.71300 28.84800
C  35.02600 45.44300 29.27900
O  34.03800 45.49100 28.60000
O  35.06000 45.07700 30.61300
C  33.70500 44.68800 31.27600
H  35.07200 52.41200 27.73000
H  36.09900 51.27700 21.40800
H  36.97500 45.21900 22.37900
H  35.20500 48.23000 30.12100
H  36.12900 51.12200 29.71000
H  33.92200 49.91600 30.61900
H  33.51300 50.46900 28.95800
H  34.01600 51.63800 30.21400
H  37.86700 49.51000 30.42600
H  37.86700 47.89900 29.74200
H  38.15600 48.34800 32.35900
H  37.43900 46.85100 31.76800
H  34.65800 54.92400 25.57900
H  36.47200 55.08000 25.64100
H  35.63600 54.38600 26.96900
H  36.52400 55.91000 22.12000
H  37.18100 55.35100 23.65700
H  35.46900 55.84700 23.56400
H  37.20800 49.46700 20.08400
H  36.62400 46.63600 20.39600
H  34.92300 49.77900 19.57800
H  34.42100 48.21200 20.16300
H  35.40700 48.30400 18.76000
H  39.09400 47.34100 21.79300
H  39.01700 48.44000 20.48600
H  38.55100 45.89200 19.34500
H  39.67100 45.63000 20.74000
H  40.10400 46.74900 19.42200
H  36.31000 42.37400 25.01800
H  37.96800 42.61000 25.22200
H  37.19200 42.90700 23.60900
H  37.12100 45.69100 29.68400
H  33.28200 43.94300 30.60100
H  33.16800 45.63400 31.34800
H  33.72800 44.28900 32.29000
Mg 0.21800 44.11000 26.08200
C  2.24300 44.30700 28.91900
C  -2.55400 43.60200 28.35200
C  -1.76200 43.26100 23.44800
C  2.90500 44.08000 24.10200
N  -0.05400 44.05000 28.33100
C  0.90000 44.12400 29.25600
C  0.32700 44.03700 30.63600
C  -1.13900 43.64600 30.50400
C  -1.30200 43.83700 28.98700
C  -1.47200 42.18600 31.00200
C  0.59100 45.28700 31.55600
C  0.83200 45.11500 33.08900
H  0.46500 43.83100 33.84300
N  -1.83100 43.68800 25.90600
C  -2.83400 43.59200 26.95300
C  -4.15700 43.48200 26.39100
C  -3.90900 43.37200 24.95200
C  -2.47100 43.42000 24.68300
C  -5.45300 43.40700 27.26100
C  -5.02800 43.31900 23.89400
O  -4.75900 43.46600 22.69200
C  -6.46100 43.07000 24.34200
N  0.54800 43.50700 24.10100
C  -0.43300 43.35600 23.12200
C  0.14600 43.31700 21.75800
C  1.49000 44.01600 21.99300
C  1.69600 43.84100 23.51600
C  0.15300 41.90600 21.26800
C  1.52000 45.51900 21.53200
C  2.51600 45.88000 20.47100
N  2.27700 44.19600 26.37800
C  3.24300 44.17400 25.45600
C  4.52000 44.39400 26.13700
C  4.20300 44.50500 27.49900
C  2.80200 44.22900 27.63300
C  5.85900 44.54300 25.42000
C  4.71300 44.64500 28.86600
O  5.86200 44.77300 29.25100
C  3.43200 44.48600 29.87000
C  3.72500 43.26700 30.68300
O  3.81300 42.13600 30.18100
O  4.10000 43.64500 31.95400
C  4.82800 42.52000 32.63900
H  -3.37700 43.41900 29.04600
H  -2.43500 42.99200 22.63100
H  3.73500 44.32000 23.43400
H  0.77600 43.18000 31.13900
H  -1.77500 44.40300 30.96200
H  -2.32000 42.33200 31.67100
H  -0.65900 41.76400 31.59300
H  -1.62800 41.54000 30.13900
H  -0.34000 45.85200 31.50700
H  1.32400 45.99000 31.15900
H  0.27000 45.82300 33.69800
H  1.89400 45.17000 33.32700
H  -6.05300 44.30000 27.08900
H  -5.29000 43.33400 28.33700
H  -5.97400 42.47600 27.03700
H  -6.70600 42.04800 24.63100
H  -7.10800 43.16300 23.47000
H  -6.88500 43.68300 25.13800
H  -0.48800 43.83500 21.03900
H  2.32500 43.54800 21.47100
H  -0.10600 41.11300 21.97000
H  1.18600 41.63100 21.05400
H  -0.41600 41.87400 20.33900
H  1.87500 46.14400 22.35200
H  0.55000 45.99600 21.39200
H  2.02800 46.51600 19.73300
H  2.82700 45.03800 19.85200
H  3.31800 46.48700 20.89100
H  6.57700 45.22300 25.87900
H  5.65600 44.94800 24.42900
H  6.26400 43.53400 25.35100
H  3.32400 45.39200 30.46700
H  5.78500 42.26400 32.18500
H  4.18100 41.64600 32.71600
H  5.05600 42.80200 33.66700

