158

Mg 47.04800 25.79600 29.37200
C  48.32000 27.87900 32.02900
C  45.78700 23.77600 32.02200
C  46.50100 23.33300 27.22800
C  48.65400 27.73100 27.11000
N  46.76400 25.94300 31.72900
C  47.54600 26.81400 32.53700
C  47.18300 26.56100 34.04900
C  46.63500 25.07300 34.05000
C  46.44000 24.84600 32.53300
C  47.63900 24.10400 34.80400
C  46.21400 27.57600 34.70700
C  46.61000 28.17200 36.15400
H  45.48900 28.17400 37.20600
N  45.95700 23.90100 29.54400
C  45.63600 23.20500 30.73800
C  44.92500 21.97100 30.29200
C  44.95500 21.94800 28.86300
C  45.84800 23.06800 28.48900
C  44.29600 21.05100 31.33000
C  44.31400 21.01900 27.82500
O  44.53900 21.21400 26.64500
C  43.55300 19.70500 28.28300
N  47.60300 25.51800 27.49800
C  47.22400 24.43000 26.81400
C  47.77400 24.51700 25.36200
C  48.09200 26.06000 25.19300
C  48.14000 26.45500 26.72000
C  49.02100 23.57700 25.27100
C  47.09300 26.88500 24.41400
C  47.27400 26.85900 22.89500
N  48.15000 27.53700 29.46800
C  48.81900 28.26100 28.37900
C  49.55300 29.34600 28.97200
C  49.34600 29.23000 30.37100
C  48.51000 28.11100 30.63400
C  50.37600 30.37000 28.29500
C  49.72700 29.89100 31.65300
O  50.44900 30.83200 31.86000
C  48.93700 29.07400 32.79800
C  49.93500 28.70800 33.85600
O  50.97600 27.95400 33.72600
O  49.68200 29.36000 35.07000
C  50.70100 29.32300 36.12200
H  45.30300 23.24400 32.84400
H  46.33200 22.55000 26.48500
H  49.10700 28.31100 26.30300
H  48.13400 26.68100 34.56800
H  45.63600 25.09400 34.48600
H  47.23300 23.91900 35.79800
H  48.64500 24.52500 34.81200
H  47.71600 23.15300 34.27800
H  45.15800 27.31000 34.65500
H  46.16800 28.41300 34.01000
H  46.84800 29.22700 36.01400
H  47.44300 27.52700 36.43200
H  44.24900 20.03700 30.93300
H  43.25900 21.31400 31.53900
H  44.91300 21.05700 32.22800
H  44.22900 19.10100 28.88800
H  43.51200 19.23800 27.30000
H  42.59100 20.07300 28.64000
H  46.93400 24.42600 24.67300
H  49.08800 26.18400 24.76800
H  49.86100 24.20700 24.97700
H  48.83000 22.81300 24.51800
H  49.24500 22.97300 26.15000
H  47.29800 27.87800 24.81700
H  46.06700 26.65000 24.69600
H  46.43000 26.87200 22.20500
H  47.90100 26.02100 22.59000
H  47.78800 27.74300 22.51900
H  51.28700 30.45600 28.88800
H  49.91200 31.35300 28.21000
H  50.61700 30.08900 27.27000
H  48.28000 29.80800 33.26400
H  50.24200 28.58300 36.77800
H  50.97500 30.29000 36.54500
H  51.63200 28.85500 35.80000
Mg 30.87700 58.11400 40.00400
C  27.84500 56.48900 39.04200
C  32.54500 55.45300 38.75100
C  33.51900 60.02700 40.01900
C  28.89900 60.79900 40.97800
N  30.21700 56.30700 38.75800
C  28.98600 55.78900 38.59100
C  28.93500 54.43600 37.85700
C  30.44400 54.04900 38.12700
C  31.12200 55.37500 38.58000
C  30.67500 52.97100 39.23700
C  28.64000 54.59200 36.38500
C  27.26500 54.19600 35.84200
H  26.43400 55.21600 35.09800
N  32.82100 57.70800 39.65700
C  33.32700 56.56200 39.15700
C  34.71100 56.57700 39.26200
C  35.08600 57.96300 39.54900
C  33.78100 58.65600 39.77500
C  35.62300 55.35400 39.04600
C  36.37800 58.48200 39.64300
O  37.29500 57.76000 39.39500
C  36.72100 59.91900 40.02600
N  31.15900 60.10400 40.36100
C  32.32100 60.66500 40.19100
C  32.35900 62.10400 40.61600
C  30.99900 62.25800 41.36200
C  30.29800 60.99800 40.86100
C  33.50900 62.57400 41.55000
C  30.25700 63.69800 41.05100
C  29.63300 64.38200 42.24700
N  28.79100 58.57900 40.04200
C  28.15900 59.62900 40.59600
C  26.71000 59.49500 40.54600
C  26.54900 58.17700 40.01700
C  27.83700 57.73500 39.62500
C  25.72100 60.52900 40.84400
C  25.52900 57.23200 39.61200
O  24.31900 57.19400 39.70400
C  26.32000 56.05100 38.92300
C  26.01800 54.85100 39.61300
O  26.44000 54.54300 40.68700
O  25.18800 54.02800 38.87600
C  24.94300 52.67700 39.34300
H  33.04200 54.54100 38.41400
H  34.34600 60.73500 39.94200
H  28.34000 61.64300 41.38700
H  28.36100 53.69400 38.41100
H  30.95500 53.70500 37.22800
H  30.63600 53.47100 40.20500
H  31.64600 52.48100 39.16400
H  29.81200 52.30500 39.22800
H  29.36400 53.94000 35.89500
H  28.79100 55.64400 36.14300
H  26.67800 53.71800 36.62700
H  27.29300 53.39800 35.10100
H  36.24100 55.19600 39.93000
H  36.26600 55.72700 38.24800
H  35.11200 54.42300 38.80200
H  36.45900 60.60300 39.21800
H  37.76500 60.01900 40.32300
H  36.11400 60.03900 40.92300
H  32.43800 62.63100 39.66500
H  31.15900 62.08900 42.42700
H  34.08400 61.71000 41.88300
H  33.24000 63.15100 42.43500
H  34.25600 63.15400 41.00700
H  29.58000 63.71900 40.19700
H  30.93800 64.44000 40.63400
H  29.85200 65.44900 42.28900
H  29.98800 64.01100 43.20900
H  28.54400 64.37100 42.27800
H  26.08200 61.52800 40.59900
H  25.67200 60.39000 41.92400
H  24.72300 60.36800 40.43700
H  25.97100 55.98700 37.89300
H  24.10000 52.74800 40.03100
H  25.76700 52.21500 39.88700
H  24.57000 52.08000 38.51100

