158

Mg 46.96300 16.79800 27.97700
C  44.98800 16.90200 30.87800
C  49.33800 18.73900 29.69200
C  48.88800 17.08800 25.15600
C  44.45400 15.26800 26.26100
N  47.19700 17.71800 30.07000
C  46.23300 17.60700 31.05200
C  46.79100 18.11100 32.39600
C  48.01300 19.02200 31.90600
C  48.20600 18.54400 30.46600
C  47.84700 20.54600 31.98700
C  47.21700 16.98400 33.39000
C  47.43000 17.40800 34.85500
H  46.87700 18.76100 35.37000
N  48.86400 17.67100 27.50900
C  49.62400 18.43200 28.35800
C  50.83700 18.88800 27.73200
C  50.74200 18.54400 26.34600
C  49.45800 17.73900 26.25700
C  51.95800 19.69200 28.47300
C  51.61800 18.86500 25.23300
O  51.33700 18.77000 24.07200
C  52.91900 19.45300 25.51600
N  46.72400 16.33000 26.06800
C  47.63200 16.48900 25.09100
C  47.04700 16.09300 23.68400
C  45.67500 15.42100 24.05200
C  45.65000 15.56200 25.59300
C  46.95700 17.19800 22.62300
C  45.41300 13.95800 23.55800
C  44.26600 13.79100 22.53100
N  45.08100 16.31100 28.39900
C  44.18700 15.58600 27.63300
C  42.99500 15.27700 28.37000
C  43.29900 15.65700 29.66900
C  44.57200 16.32400 29.65500
C  41.78300 14.55900 27.94600
C  42.87300 15.59200 31.04900
O  41.96500 14.94100 31.58000
C  43.93400 16.50400 31.87900
C  43.24000 17.69300 32.49600
O  42.66600 18.61900 31.89400
O  43.35000 17.63200 33.86300
C  42.55200 18.64000 34.63900
H  50.14500 19.25800 30.21200
H  49.39800 17.22700 24.20000
H  43.76000 14.65000 25.68700
H  46.10200 18.81600 32.86200
H  48.84000 18.67900 32.52800
H  46.86900 20.86200 32.35100
H  47.82300 21.05400 31.02300
H  48.44900 21.03900 32.75000
H  48.12200 16.60700 32.91500
H  46.52600 16.15000 33.51000
H  48.51900 17.42500 34.89800
H  46.99900 16.65700 35.51800
H  51.98200 19.76600 29.56000
H  51.65500 20.69500 28.17300
H  52.98300 19.54600 28.13300
H  52.78400 20.37700 26.07800
H  53.41900 19.54700 24.55200
H  53.50200 18.77300 26.13600
H  47.71700 15.30000 23.34900
H  44.83600 15.99200 23.65400
H  45.93600 17.57300 22.54400
H  47.36800 16.84700 21.67600
H  47.61700 18.00100 22.94900
H  45.27400 13.32100 24.43100
H  46.24700 13.56400 22.97700
H  43.87800 12.77800 22.43000
H  44.62100 14.03800 21.53000
H  43.49800 14.52900 22.76200
H  41.59600 14.97800 26.95700
H  41.01800 14.72500 28.70400
H  41.95200 13.48200 27.95300
H  44.31100 15.90700 32.71000
H  41.75300 18.99700 33.99000
H  43.10200 19.51400 34.98600
H  42.08600 18.13200 35.48400
Mg 47.16700 25.48000 27.95300
C  48.04100 27.71800 30.65900
C  45.85700 23.37600 30.48900
C  46.65700 23.25500 25.60500
C  48.78600 27.62500 25.75200
N  47.10000 25.50000 30.31400
C  47.42100 26.56100 31.12400
C  46.89900 26.31000 32.58700
C  46.21600 24.84900 32.58000
C  46.47200 24.53200 31.06300
C  46.82500 23.76800 33.55800
C  45.86700 27.40700 33.19500
C  46.25000 28.05600 34.62300
H  45.24600 28.08500 35.67900
N  46.43900 23.61500 28.08600
C  45.86400 22.93700 29.15600
C  45.27200 21.71600 28.69700
C  45.52200 21.65700 27.27000
C  46.28900 22.87500 26.93800
C  44.75000 20.58900 29.58100
C  45.20100 20.48700 26.31000
O  45.25400 20.69900 25.10100
C  44.64000 19.16200 26.85200
N  47.94300 25.30100 26.03100
C  47.43500 24.37600 25.20100
C  47.70600 24.65900 23.71200
C  48.29900 26.08000 23.76800
C  48.30500 26.38100 25.27500
C  48.56500 23.63800 22.94500
C  47.52200 27.11600 22.88600
C  48.32800 28.16300 22.17100
N  48.13100 27.36000 28.12300
C  48.80300 28.07500 27.11500
C  49.48500 29.17500 27.67800
C  49.16200 29.15800 29.01400
C  48.33000 27.95100 29.25800
C  50.22400 30.29700 26.93100
C  49.23900 29.86900 30.22100
O  49.79500 30.94800 30.47300
C  48.50700 28.96400 31.37700
C  49.52500 28.73600 32.39900
O  50.61000 28.23500 32.17100
O  49.10900 29.14000 33.62400
C  50.26000 29.41900 34.50700
H  45.28000 22.81600 31.22800
H  46.38500 22.74000 24.68100
H  49.15800 28.23800 24.92800
H  47.72500 26.26400 33.29700
H  45.12800 24.85400 32.64600
H  46.03000 23.19000 34.03000
H  47.26600 24.34400 34.37200
H  47.60300 23.15700 33.10100
H  44.91500 26.90100 33.35900
H  45.75500 28.25100 32.51400
H  46.52100 29.10200 34.48300
H  47.16200 27.59200 34.99900
H  45.47500 19.77500 29.58200
H  43.75400 20.23500 29.31600
H  44.68000 20.97500 30.59800
H  45.31800 18.83100 27.63900
H  44.79800 18.47600 26.01900
H  43.60100 19.25700 27.16700
H  46.74500 24.68100 23.19800
H  49.38100 25.99900 23.66100
H  48.02300 23.15900 22.13000
H  48.72800 22.83400 23.66200
H  49.38400 24.22300 22.52700
H  46.80700 27.63000 23.52900
H  47.00200 26.58100 22.09100
H  48.41100 27.99400 21.09700
H  49.33300 28.14400 22.59100
H  47.90600 29.16700 22.19800
H  50.74300 29.82800 26.09500
H  50.75900 30.83300 27.71500
H  49.43500 30.90900 26.49400
H  47.70200 29.52600 31.85200
H  51.19100 29.72200 34.02700
H  50.48300 28.58200 35.16900
H  49.96500 30.28000 35.10700

