158

Mg 17.28600 -0.76100 27.10900
C  15.93800 1.10200 29.82000
C  19.25400 -2.45600 29.21200
C  18.41700 -2.40500 24.43300
C  15.44200 1.37000 24.91100
N  17.56800 -0.60600 29.22900
C  16.92600 0.17900 30.15900
C  17.24600 -0.20200 31.56900
C  18.48700 -1.20200 31.37500
C  18.54000 -1.40600 29.83500
C  19.81300 -0.70200 31.98300
C  16.02600 -0.85200 32.28000
C  16.14300 -0.96300 33.85900
H  17.30300 -0.33100 34.57900
N  18.61000 -2.30900 26.85500
C  19.25000 -2.90100 27.88600
C  20.02800 -3.94700 27.37500
C  19.76900 -4.04200 25.96800
C  18.84700 -2.90900 25.68500
C  20.72100 -4.88800 28.28800
C  20.33400 -5.01700 24.90100
O  20.01400 -4.93600 23.76400
C  21.44200 -5.94800 25.32800
N  16.97500 -0.57500 24.92700
C  17.56300 -1.37600 24.09700
C  17.25900 -1.01500 22.60100
C  16.20700 0.18600 22.72300
C  16.15800 0.29500 24.26400
C  18.51200 -0.49300 21.79800
C  14.74300 0.03200 22.14700
C  14.13400 1.27900 21.53400
N  15.92800 0.82500 27.26700
C  15.27700 1.58900 26.26600
C  14.47600 2.61500 26.92600
C  14.69100 2.45500 28.31700
C  15.50900 1.37400 28.46300
C  13.66300 3.74900 26.14700
C  14.28200 2.93900 29.63900
O  13.49500 3.89100 29.97900
C  15.08600 2.05900 30.62700
C  15.89500 2.96900 31.51200
O  16.81200 3.65600 31.08700
O  15.34600 2.94700 32.81100
C  15.90400 3.93300 33.72800
H  19.96600 -2.85700 29.93600
H  18.73800 -2.89400 23.51100
H  14.84900 2.00600 24.25000
H  17.49000 0.76700 32.00400
H  18.15800 -2.15700 31.78400
H  19.80300 0.33600 32.31400
H  20.51200 -0.72200 31.14700
H  20.16200 -1.26900 32.84600
H  15.98800 -1.88000 31.92100
H  15.07200 -0.46300 31.92300
H  16.22200 -2.03100 34.06500
H  15.21800 -0.62400 34.32500
H  20.43500 -5.93000 28.14700
H  20.71900 -4.59300 29.33800
H  21.78500 -4.94500 28.05700
H  21.01600 -6.91900 25.58200
H  22.21100 -5.59000 26.01200
H  21.85600 -6.25900 24.36900
H  16.86000 -1.79800 21.95700
H  16.55800 1.12800 22.30100
H  18.78700 -1.26100 21.07500
H  19.35400 -0.23000 22.43900
H  18.26800 0.36300 21.16800
H  14.06000 -0.17800 22.97000
H  14.67100 -0.77200 21.41400
H  14.98400 1.84000 21.14500
H  13.60900 1.83400 22.31100
H  13.34500 1.10200 20.80200
H  14.22000 4.35300 25.43200
H  13.24900 4.37400 26.93800
H  12.83200 3.21800 25.68100
H  14.43800 1.49300 31.29600
H  16.33500 4.83300 33.28800
H  16.66100 3.47400 34.36400
H  15.13400 4.20800 34.44900
Mg 42.70000 41.35100 26.22100
C  41.92200 43.92200 28.55100
C  43.62800 39.38300 28.66300
C  43.78200 39.25500 23.77600
C  41.99500 43.77700 23.68000
N  42.57500 41.59200 28.37000
C  42.26900 42.68400 29.12200
C  42.21800 42.26600 30.61700
C  43.01700 40.92100 30.58900
C  43.11900 40.60700 29.11100
C  44.41000 40.94500 31.32100
C  40.76900 42.27400 31.26700
C  40.58800 43.18100 32.45400
H  40.19200 42.59900 33.78600
N  43.35500 39.58500 26.20000
C  43.73700 38.91700 27.34900
C  44.36400 37.59600 26.96100
C  44.02400 37.42800 25.59100
C  43.70300 38.79000 25.09000
C  44.96800 36.68400 28.06300
C  43.98800 36.24600 24.72000
O  43.37500 36.35300 23.66600
C  44.47900 34.91500 25.14900
N  42.95100 41.52900 24.00800
C  43.44600 40.53100 23.29300
C  43.32000 40.73300 21.73800
C  42.63600 42.13300 21.72600
C  42.46500 42.49300 23.21300
C  44.70500 40.57000 20.92900
C  41.20200 42.13500 21.13600
C  40.67100 43.32900 20.31000
N  42.00000 43.40000 26.11900
C  41.73200 44.19000 25.02200
C  41.11100 45.41300 25.48400
C  41.17200 45.36500 26.83100
C  41.74200 44.16300 27.17000
C  40.67000 46.55600 24.51700
C  40.87500 46.14300 28.05600
O  40.25200 47.15500 28.17300
C  41.32200 45.22200 29.25400
C  42.38600 45.77700 30.11800
O  43.59800 45.59300 29.96700
O  41.83400 46.60800 31.06200
C  42.80800 47.26000 31.83800
H  43.94000 38.71000 29.46500
H  44.08900 38.66400 22.91100
H  41.72000 44.56800 22.98000
H  42.87200 43.03800 31.02300
H  42.41200 40.19900 31.13600
H  44.44300 40.09400 32.00100
H  44.48400 41.85600 31.91500
H  45.22200 40.98800 30.59400
H  40.58600 41.24600 31.58000
H  39.97800 42.48500 30.54800
H  39.75700 43.78400 32.08900
H  41.33800 43.96100 32.58400
H  45.30300 37.25900 28.92600
H  45.86000 36.20900 27.65600
H  44.25500 35.92500 28.38400
H  45.54800 35.04700 25.31500
H  44.44000 34.15500 24.36900
H  44.05100 34.60600 26.10300
H  42.54300 40.05400 21.38900
H  43.05800 42.94200 21.12900
H  45.27400 39.72700 21.32200
H  45.28200 41.47700 20.75000
H  44.43900 40.21800 19.93300
H  40.53500 42.08000 21.99700
H  40.93700 41.36500 20.41200
H  40.24000 44.07400 20.98000
H  39.93600 42.85200 19.66000
H  41.48400 43.81700 19.77300
H  40.14200 46.24900 23.61400
H  41.55900 47.16500 24.34800
H  39.97400 47.20100 25.05200
H  40.46100 44.99600 29.88300
H  43.54500 47.77200 31.22000
H  43.33500 46.60900 32.53500
H  42.33700 48.06500 32.40200

