158

Mg -0.28000 6.86700 25.42900
C  0.58300 9.10600 28.03200
C  0.21900 4.19000 27.70000
C  -0.76400 4.66500 22.93800
C  0.42500 9.39600 23.20700
N  0.38100 6.64400 27.59400
C  0.47300 7.74100 28.47000
C  0.38100 7.25000 29.89800
C  0.71800 5.71500 29.79400
C  0.40200 5.47700 28.31000
C  2.19200 5.32300 30.18600
C  -1.01000 7.59400 30.65500
C  -1.01100 7.41400 32.20300
H  0.24400 7.13300 33.06400
N  -0.41600 4.75000 25.32400
C  -0.22200 3.87200 26.34100
C  -0.42200 2.47600 25.88800
C  -0.76000 2.61800 24.51300
C  -0.66200 4.04400 24.24300
C  -0.43700 1.32000 26.87000
C  -0.92300 1.58800 23.47500
O  -1.00800 1.88300 22.29000
C  -0.84500 0.15600 23.88300
N  -0.01100 7.04500 23.38000
C  -0.46100 6.05100 22.52200
C  -0.78800 6.53200 21.08100
C  -0.21800 7.96100 21.20900
C  0.11500 8.16200 22.70000
C  -0.12800 5.60700 19.99300
C  -1.05600 9.06400 20.48900
C  -2.10300 9.74900 21.35700
N  0.16300 8.94600 25.54500
C  0.43100 9.84700 24.53100
C  0.91200 11.09200 25.13900
C  0.79800 10.87400 26.55300
C  0.40800 9.56100 26.70200
C  1.30000 12.38400 24.42800
C  0.97800 11.50300 27.81400
O  1.35500 12.67300 28.11400
C  0.80100 10.40500 28.87800
C  2.06900 10.23300 29.64200
O  3.02300 9.53000 29.33700
O  1.95300 11.04100 30.71600
C  2.99200 10.92000 31.77500
H  0.41500 3.25900 28.23600
H  -1.18000 4.11300 22.09200
H  0.57300 10.18400 22.46600
H  1.22000 7.66100 30.46000
H  0.05200 5.25600 30.52400
H  2.18000 4.93800 31.20600
H  2.84900 6.14600 29.90300
H  2.49300 4.57800 29.45000
H  -1.85400 7.02300 30.26700
H  -1.31900 8.57100 30.28200
H  -1.64900 6.54600 32.36500
H  -1.51900 8.26200 32.66400
H  0.32300 0.57900 26.62300
H  -1.38200 0.82900 26.63600
H  -0.53800 1.57100 27.92600
H  -1.61900 -0.15400 24.58500
H  0.14400 -0.27900 24.02600
H  -1.10700 -0.30700 22.93100
H  -1.87600 6.47200 21.05000
H  0.72900 7.91700 20.67000
H  0.55400 4.87100 20.41900
H  0.38500 6.27100 19.29700
H  -0.85200 5.01000 19.43800
H  -1.54900 8.60900 19.63000
H  -0.29900 9.82200 20.28500
H  -1.90000 10.78400 21.63200
H  -2.14000 9.21400 22.30600
H  -3.15300 9.72200 21.06800
H  1.45800 12.17800 23.37000
H  2.23200 12.82200 24.78500
H  0.52300 13.11000 24.67100
H  0.07700 10.55400 29.67900
H  3.74000 11.68400 31.56000
H  3.48900 9.95200 31.71400
H  2.54700 11.26600 32.70800
Mg -6.23800 24.64500 26.04700
C  -4.40900 25.92200 28.81000
C  -8.11900 22.63000 28.15800
C  -7.49400 22.92100 23.41300
C  -4.13000 26.48500 24.03800
N  -6.22600 24.30700 28.20300
C  -5.33300 24.91500 29.10100
C  -5.76600 24.39900 30.60700
C  -6.65600 23.19300 30.30800
C  -7.10800 23.39400 28.80500
C  -5.91700 21.86800 30.57400
C  -6.55600 25.54900 31.37300
C  -5.80400 26.01600 32.64700
H  -5.53100 25.00500 33.84600
N  -7.73000 23.11400 25.77900
C  -8.39100 22.51500 26.74700
C  -9.43400 21.64900 26.13300
C  -9.22200 21.67900 24.76900
C  -8.08600 22.58100 24.59100
C  -10.49000 20.83700 26.94200
C  -9.89600 20.99100 23.61600
O  -9.57700 21.16100 22.46300
C  -10.91400 20.01000 23.93400
N  -5.60900 24.45000 24.10000
C  -6.34500 23.71200 23.17000
C  -5.80000 23.94900 21.74400
C  -4.72600 25.14900 21.92800
C  -4.80800 25.39200 23.44900
C  -5.28300 22.64300 21.05100
C  -5.05700 26.36500 20.94100
C  -3.90800 26.89500 20.03100
N  -4.70200 26.13600 26.31600
C  -3.98900 26.76900 25.35900
C  -3.11100 27.72100 25.95800
C  -3.18400 27.44700 27.36500
C  -4.20100 26.47400 27.49700
C  -2.18600 28.65800 25.25900
C  -2.58900 27.72700 28.70200
O  -1.64700 28.41200 29.10600
C  -3.42700 26.72000 29.61200
C  -2.47100 25.81500 30.29300
O  -2.12900 24.74400 29.99400
O  -2.06900 26.37100 31.47500
C  -1.28700 25.45900 32.38000
H  -8.65200 22.00700 28.87900
H  -7.77300 22.45400 22.46600
H  -3.50600 26.95500 23.27500
H  -4.87000 24.15800 31.17900
H  -7.55300 23.16900 30.92700
H  -4.92700 21.95400 31.02100
H  -5.83000 21.31300 29.64000
H  -6.45200 21.20800 31.25800
H  -7.62900 25.38700 31.48000
H  -6.50500 26.40100 30.69500
H  -6.31600 26.86900 33.09100
H  -4.82600 26.31100 32.26700
H  -10.28600 20.70200 28.00500
H  -10.60700 19.79200 26.65400
H  -11.51100 21.11800 26.68500
H  -11.33600 19.49700 23.06900
H  -11.68400 20.55900 24.47700
H  -10.32300 19.27900 24.48400
H  -6.69200 24.23000 21.18500
H  -3.79100 24.62300 21.73700
H  -5.56700 21.76500 21.63200
H  -4.20100 22.74600 21.13700
H  -5.49200 22.66600 19.98200
H  -5.31700 27.21800 21.56700
H  -5.90400 26.15800 20.28700
H  -3.83800 27.96300 20.23600
H  -4.21800 26.72400 19.00000
H  -2.95500 26.37100 20.10000
H  -2.71000 29.59500 25.07500
H  -1.93400 28.24900 24.28000
H  -1.35900 28.79100 25.95700
H  -3.89900 27.37300 30.34600
H  -0.35900 25.19500 31.87300
H  -1.86000 24.57700 32.66600
H  -1.04800 26.06100 33.25700

