158

Mg 1.80500 -1.24900 44.09300
C  5.17500 -0.54700 43.36400
C  0.99100 1.59800 42.31100
C  -1.33400 -2.13800 44.49100
C  2.80400 -4.52700 45.35100
N  3.00200 0.22100 42.85800
C  4.29700 0.45500 42.91900
C  4.71100 1.77100 42.16100
C  3.35800 2.46000 41.96900
C  2.34100 1.36500 42.41800
C  3.19300 3.88400 42.60400
C  5.48600 1.51800 40.90200
C  6.41300 2.66500 40.39500
H  6.05700 3.47000 39.16500
N  0.03600 -0.46400 43.42300
C  -0.10000 0.71400 42.75900
C  -1.54300 0.97100 42.58500
C  -2.29700 -0.01100 43.28700
C  -1.21300 -0.91000 43.80200
C  -2.10600 2.27800 41.86600
C  -3.85200 -0.20100 43.32700
O  -4.63200 0.63700 42.85200
C  -4.49700 -1.37200 44.08000
N  0.89500 -3.10100 44.80400
C  -0.40600 -3.21600 44.85500
C  -0.88200 -4.56600 45.32300
C  0.40000 -5.20800 45.74000
C  1.46900 -4.25600 45.27300
C  -2.01600 -4.35600 46.44400
C  0.45100 -6.69500 45.13300
C  0.93000 -7.74600 46.06200
N  3.59400 -2.32300 44.47100
C  3.84300 -3.56800 45.03100
C  5.29000 -3.74800 45.15400
C  5.84700 -2.62200 44.55100
C  4.77000 -1.75400 44.07500
C  6.04100 -4.85500 45.88900
C  7.02600 -1.93000 44.21300
O  8.20500 -2.20000 44.31700
C  6.64900 -0.64900 43.43300
C  7.22200 0.66400 43.94100
O  6.87700 1.11400 45.01700
O  8.09500 1.22700 43.00700
C  8.75600 2.44100 43.56100
H  0.67900 2.48600 41.75600
H  -2.34900 -2.48900 44.68800
H  3.16400 -5.51000 45.66500
H  5.27100 2.41200 42.84100
H  3.14300 2.62800 40.91400
H  4.14500 4.20800 43.02300
H  2.35500 3.86300 43.30100
H  3.04800 4.67400 41.86700
H  4.79800 1.31100 40.08200
H  6.07000 0.59900 40.95600
H  7.43100 2.28900 40.29000
H  6.58800 3.37600 41.20200
H  -2.36300 2.07200 40.82700
H  -1.36500 3.07700 41.83300
H  -3.00700 2.66500 42.34200
H  -5.57700 -1.24300 44.01900
H  -4.10200 -1.38700 45.09600
H  -4.15200 -2.15800 43.40800
H  -1.41300 -5.10000 44.53500
H  0.45900 -5.21800 46.82800
H  -1.82900 -4.87700 47.38300
H  -2.87200 -4.98100 46.19000
H  -2.38500 -3.34000 46.58500
H  1.17100 -6.65900 44.31500
H  -0.52300 -6.95500 44.72100
H  0.25900 -8.59900 46.17500
H  1.01600 -7.35600 47.07600
H  1.90200 -8.17800 45.82400
H  5.43100 -5.54100 46.47700
H  6.72800 -4.30500 46.53200
H  6.40100 -5.39400 45.01300
H  7.06500 -0.86500 42.44900
H  9.14100 2.98900 42.70100
H  9.42000 2.22600 44.39900
H  8.02800 3.02700 44.12200
Mg 47.25200 25.07200 27.99700
C  48.06700 27.25500 30.59800
C  46.45800 22.70500 30.34900
C  46.77900 22.84300 25.56400
C  48.71000 27.32100 25.78400
N  47.61500 24.96900 30.30000
C  47.47500 26.04100 31.06300
C  47.17800 25.68800 32.52900
C  46.69800 24.20500 32.39200
C  46.99200 23.91600 30.93100
C  47.35300 23.20200 33.40500
C  46.19600 26.70700 33.27400
C  45.65200 26.28200 34.67400
H  45.94700 27.25900 35.83700
N  46.59700 23.06800 27.96400
C  46.25400 22.26500 29.03500
C  45.90300 20.92100 28.51800
C  46.22800 20.92000 27.12700
C  46.54900 22.33400 26.85500
C  45.32900 19.89100 29.51000
C  46.49500 19.69300 26.22000
O  47.02300 19.76900 25.08200
C  46.07700 18.30100 26.65600
N  47.60100 25.12700 26.04400
C  47.23000 24.12500 25.23900
C  47.29400 24.61300 23.71300
C  47.90700 26.03000 23.78500
C  48.16500 26.15000 25.27400
C  47.97000 23.63200 22.63900
C  47.01600 27.15300 23.22000
C  47.86500 28.23400 22.42500
N  48.19000 26.89400 28.10300
C  48.76100 27.70300 27.15300
C  49.12900 28.94800 27.75500
C  48.83600 28.76700 29.06900
C  48.28100 27.54300 29.26300
C  49.78800 30.05100 27.02200
C  48.93100 29.51300 30.31800
O  49.34900 30.61300 30.53800
C  48.31300 28.56200 31.32900
C  49.28800 28.36400 32.49900
O  50.18900 27.53900 32.48900
O  48.87300 29.10100 33.60400
C  49.58000 28.71200 34.86200
H  46.14200 22.02200 31.14000
H  46.59100 22.16600 24.72800
H  49.08800 27.98800 25.00600
H  48.10500 25.63700 33.10000
H  45.60900 24.15200 32.39800
H  48.14700 22.64000 32.91300
H  46.66000 22.43600 33.75400
H  47.91300 23.65700 34.22200
H  45.33700 27.07300 32.71100
H  46.81100 27.58100 33.49200
H  45.95400 25.25300 34.86700
H  44.57800 26.21400 34.50400
H  45.87700 19.90600 30.45200
H  45.01300 18.92200 29.12400
H  44.35700 20.32600 29.74200
H  45.94800 17.67100 25.77500
H  45.08700 18.65400 26.94100
H  46.67400 17.95600 27.50000
H  46.24600 24.68700 23.42400
H  48.90200 26.06700 23.34200
H  47.38000 23.46400 21.73800
H  48.29400 22.63000 22.92300
H  48.82800 24.19900 22.27800
H  46.51800 27.78400 23.95600
H  46.34800 26.64100 22.52700
H  47.88000 29.21100 22.90700
H  47.45200 28.36200 21.42400
H  48.92300 27.98600 22.33900
H  49.70300 29.97400 25.93800
H  50.85400 30.08100 27.24500
H  49.30500 30.99800 27.26200
H  47.34200 28.90000 31.69000
H  50.66800 28.75300 34.80300
H  49.35800 27.73600 35.29300
H  49.19800 29.45100 35.56700

