158

Mg 10.11900 47.78200 25.95800
C  7.87600 47.72800 28.58900
C  12.42800 49.19600 28.15100
C  12.56500 47.95300 23.48600
C  7.74800 47.03000 23.72600
N  10.07300 48.65500 28.13100
C  9.11600 48.21700 29.00200
C  9.67200 48.65200 30.41800
C  10.77200 49.72500 30.18300
C  11.13100 49.23900 28.72600
C  10.34200 51.20400 30.25300
C  10.22600 47.37700 31.22100
C  9.77100 47.34300 32.68900
H  10.03300 46.07400 33.58300
N  12.17700 48.36800 25.90700
C  12.95300 48.79800 26.91300
C  14.34500 48.76200 26.58200
C  14.46000 48.35600 25.19500
C  13.06400 48.14900 24.78500
C  15.51100 49.09100 27.50800
C  15.61600 48.18100 24.25000
O  15.54800 47.97000 23.02800
C  16.99700 48.29000 24.70300
N  10.12900 47.61200 23.88500
C  11.22500 47.67600 23.06700
C  10.89000 47.52200 21.63100
C  9.38100 47.18500 21.71900
C  9.04900 47.18600 23.19000
C  11.23300 48.88000 20.80000
C  9.02400 45.86300 21.05600
C  8.76900 44.55400 21.93100
N  8.13300 47.43300 26.07600
C  7.27000 47.07100 25.04200
C  5.92600 46.91400 25.66600
C  6.13100 47.08900 27.05100
C  7.48400 47.42300 27.19600
C  4.63300 46.60300 24.88800
C  5.49900 47.09200 28.37100
O  4.37300 46.73100 28.71800
C  6.56200 47.58700 29.37800
C  6.74600 46.59400 30.51400
O  7.36900 45.54600 30.44700
O  6.00000 47.03800 31.48300
C  6.00300 46.30600 32.82000
H  13.20500 49.64700 28.77300
H  13.28900 48.00800 22.67000
H  6.91400 46.87300 23.03900
H  8.89100 49.15600 30.98700
H  11.57000 49.59100 30.91300
H  9.29000 51.33100 30.51000
H  10.49000 51.66300 29.27500
H  10.98000 51.73500 30.95900
H  11.31100 47.48200 31.23400
H  9.96700 46.51300 30.61000
H  8.68300 47.40200 32.68200
H  10.09500 48.23800 33.22100
H  15.31500 49.46200 28.51400
H  16.02900 49.97800 27.14300
H  16.25100 48.29900 27.62600
H  17.44800 47.33200 24.96000
H  17.14900 49.09300 25.42500
H  17.62400 48.53700 23.84600
H  11.49700 46.71900 21.21300
H  8.84700 48.01100 21.24900
H  10.98300 49.85500 21.22000
H  10.78100 48.81600 19.81000
H  12.28200 49.05800 20.56700
H  9.70800 45.68300 20.22700
H  8.04400 46.00000 20.59900
H  9.54800 43.83700 21.67200
H  7.75200 44.16500 21.86800
H  8.93200 44.63800 23.00600
H  4.29800 47.50300 24.37100
H  3.87000 46.34300 25.62100
H  4.87200 45.76600 24.23200
H  6.15700 48.50400 29.80600
H  5.35600 45.43300 32.74100
H  5.53300 46.94100 33.57100
H  6.90600 45.86400 33.24300
Mg -12.57700 15.98500 41.40700
C  -9.41500 14.30400 41.10300
C  -11.11600 18.66000 39.80100
C  -15.59000 17.27100 41.18400
C  -13.98700 12.72400 41.64100
N  -10.48700 16.46400 40.59100
C  -9.39000 15.60700 40.51900
C  -8.14500 16.27400 39.89800
C  -8.75500 17.73700 39.56100
C  -10.21800 17.63100 40.04300
C  -7.94900 18.86200 40.29500
C  -7.64400 15.50000 38.60700
C  -6.14200 15.15000 38.62300
H  -5.42500 15.64900 37.37100
N  -13.25400 17.84000 40.84400
C  -12.53500 18.76900 40.20600
C  -13.43400 19.91100 40.00800
C  -14.67100 19.57600 40.58000
C  -14.52000 18.19800 40.90100
C  -12.92100 21.25200 39.51900
C  -15.89700 20.42800 40.86400
O  -15.88600 21.58300 40.52800
C  -17.11600 20.01000 41.70900
N  -14.56400 15.08700 41.21100
C  -15.66300 15.90400 41.28900
C  -16.95100 15.05700 41.35500
C  -16.38500 13.60500 41.38700
C  -14.85400 13.82900 41.45600
C  -17.88600 15.38300 42.58800
C  -17.01500 12.61800 40.34400
C  -18.21400 11.79300 40.82500
N  -11.89200 13.97000 41.56100
C  -12.57100 12.74800 41.64800
C  -11.62600 11.69400 41.92600
C  -10.38000 12.26400 41.73400
C  -10.60100 13.65400 41.51000
C  -12.07800 10.30100 42.17700
C  -8.95400 11.91600 41.52900
O  -8.34200 10.86800 41.49500
C  -8.32600 13.26600 41.21800
C  -7.25000 13.62600 42.15000
O  -7.46700 13.96200 43.33800
O  -5.98800 13.57500 41.51900
C  -4.79600 13.80100 42.34400
H  -10.81100 19.53400 39.22200
H  -16.58800 17.68800 41.03800
H  -14.32000 11.68600 41.70000
H  -7.32800 16.22800 40.61800
H  -8.56500 17.89700 38.50000
H  -6.95400 18.49100 40.54200
H  -8.48000 19.02400 41.23300
H  -7.97500 19.85700 39.85000
H  -7.67300 16.14700 37.73000
H  -8.26700 14.61000 38.52200
H  -5.94900 14.08700 38.76600
H  -5.65900 15.61800 39.48000
H  -12.23600 21.05500 38.69400
H  -12.53200 21.85800 40.33700
H  -13.73000 21.79600 39.03300
H  -17.55700 20.87600 42.20300
H  -16.58500 19.40400 42.44300
H  -17.87000 19.45200 41.15300
H  -17.52200 15.10000 40.42800
H  -16.58300 13.17400 42.36900
H  -18.51200 16.27300 42.53500
H  -17.18300 15.39000 43.42200
H  -18.50900 14.49800 42.71500
H  -16.22200 11.94600 40.01500
H  -17.46500 13.20400 39.54200
H  -19.06000 12.17300 40.25100
H  -18.43900 11.77800 41.89100
H  -17.98700 10.79000 40.46300
H  -12.53600 9.91600 41.26600
H  -12.96100 10.31900 42.81600
H  -11.26000 9.64300 42.46900
H  -7.83400 13.11500 40.25700
H  -5.10000 14.25200 43.28800
H  -4.21000 14.40700 41.65200
H  -4.15000 12.95500 42.57900

