158

Mg 8.97800 3.70300 27.35800
C  10.30600 2.42200 30.25100
C  7.04100 5.84700 29.27100
C  7.42700 4.60800 24.56000
C  10.43200 1.08900 25.53900
N  8.63800 3.99800 29.56500
C  9.51200 3.50300 30.52800
C  9.16300 4.10800 31.93700
C  8.03300 5.20600 31.65100
C  7.81200 4.98200 30.05700
C  6.72900 4.95900 32.47100
C  10.36800 4.71500 32.70900
C  10.73600 3.99200 34.03900
H  10.36300 4.83300 35.29600
N  7.49900 5.04200 26.96300
C  6.81600 5.87600 27.85800
C  5.91300 6.76300 27.14400
C  6.05200 6.44700 25.75600
C  7.05700 5.34900 25.69700
C  5.03100 7.80600 27.70000
C  5.37800 7.00400 24.46000
O  5.57800 6.61000 23.31600
C  4.19700 7.97800 24.71400
N  9.06300 3.00300 25.22100
C  8.31400 3.60000 24.29600
C  8.45000 2.87300 22.93000
C  9.43100 1.68300 23.20200
C  9.73300 1.96700 24.71500
C  7.09900 2.54700 22.19000
C  10.78300 1.71800 22.44600
C  11.37600 0.31800 22.05100
N  10.13100 2.01500 27.68000
C  10.66000 1.10800 26.88400
C  11.48400 0.25200 27.67300
C  11.36400 0.65800 29.03400
C  10.61600 1.83600 28.94000
C  12.33400 -0.84800 27.22800
C  11.72200 0.40600 30.37800
O  12.50500 -0.44700 30.75900
C  11.05500 1.50700 31.22300
C  10.01900 0.86400 32.11200
O  8.85800 0.68700 31.76900
O  10.54900 0.60300 33.37300
C  9.56000 0.14000 34.32900
H  6.63500 6.66400 29.87100
H  6.91700 4.87500 23.63200
H  10.92300 0.21100 25.11200
H  8.84600 3.23800 32.51300
H  8.28200 6.24900 31.84800
H  5.87900 5.00800 31.79000
H  6.70700 5.77700 33.19100
H  6.74900 4.02400 33.03100
H  10.12400 5.75700 32.91500
H  11.26200 4.66900 32.08800
H  11.81500 3.84400 34.07900
H  10.20600 3.05300 34.20300
H  4.01500 7.54900 27.40200
H  5.22700 8.83200 27.38600
H  5.01000 7.78000 28.79000
H  4.65000 8.89300 25.09500
H  3.43800 7.61700 25.40800
H  3.77300 8.20200 23.73500
H  8.93100 3.59600 22.27200
H  8.92000 0.72700 23.09900
H  6.19700 3.02500 22.57300
H  7.03700 1.46100 22.13000
H  7.10600 2.91400 21.16400
H  11.61100 2.18900 22.97500
H  10.57700 2.19200 21.48600
H  12.18300 0.06900 22.74000
H  11.83200 0.59200 21.10000
H  10.62600 -0.46900 21.98800
H  13.10300 -1.08700 27.96300
H  12.83700 -0.41000 26.36600
H  11.76200 -1.69500 26.84900
H  11.76000 2.13600 31.76700
H  8.83900 0.95000 34.44700
H  10.09600 -0.04600 35.25900
H  8.93100 -0.73700 34.17400
Mg 43.07500 3.49500 46.82300
C  41.39400 6.60700 47.01600
C  39.81900 1.91100 46.83100
C  44.42400 0.62900 46.12900
C  46.06600 5.25900 46.28100
N  40.94400 4.24800 46.93600
C  40.54100 5.53900 47.03200
C  39.00900 5.70200 47.19600
C  38.57500 4.18800 47.14500
C  39.84300 3.35800 46.98800
C  37.69900 3.69000 48.36400
C  38.21000 6.45600 46.13600
C  38.84600 6.49700 44.65000
H  38.08600 5.76800 43.48800
N  42.24700 1.49400 46.46700
C  40.91300 1.03700 46.63500
C  40.91800 -0.36900 46.41100
C  42.25900 -0.77700 46.16600
C  43.09500 0.42100 46.21400
C  39.69000 -1.20400 46.56300
C  42.69400 -2.26800 45.93700
O  41.84900 -3.16800 45.74800
C  44.07200 -2.62300 45.53700
N  44.96700 3.04600 46.21900
C  45.25800 1.74000 46.10100
C  46.78300 1.61400 46.03300
C  47.34600 3.03900 45.79200
C  46.05400 3.84400 46.13700
C  47.34600 1.01500 47.30800
C  47.93100 3.28700 44.42300
C  49.16400 4.04100 44.27400
N  43.69700 5.49000 46.75000
C  44.91200 6.04700 46.51900
C  44.75600 7.52000 46.56900
C  43.39600 7.68900 46.72600
C  42.82500 6.50300 46.88300
C  45.85200 8.60900 46.42600
C  42.37900 8.81700 46.80400
O  42.44700 10.06500 46.72600
C  41.06900 8.10400 46.95800
C  40.52300 8.65800 48.27100
O  40.96400 8.54700 49.38200
O  39.36700 9.32600 48.00900
C  38.82300 10.00400 49.20600
H  38.84200 1.42200 46.81900
H  45.00300 -0.29600 46.10300
H  46.96400 5.87000 46.17000
H  38.86800 6.17900 48.16500
H  38.09500 3.92000 46.20400
H  37.80000 2.61800 48.53200
H  36.65600 3.92700 48.15700
H  37.94200 4.11200 49.33900
H  38.10300 7.45300 46.56400
H  37.21300 6.07200 45.91600
H  39.79700 5.97000 44.56600
H  38.93600 7.56900 44.47700
H  39.82600 -2.18800 47.01300
H  39.06100 -1.10700 45.67900
H  39.03100 -0.72500 47.28700
H  44.56700 -2.69700 46.50600
H  44.35700 -1.85300 44.82100
H  44.11600 -3.56000 44.98200
H  46.99100 1.06400 45.11500
H  47.99000 3.45900 46.56500
H  46.66300 0.54500 48.01600
H  47.84700 1.81500 47.85200
H  48.10700 0.30800 46.97600
H  47.21400 3.82700 43.80300
H  47.90200 2.39000 43.80400
H  49.00400 4.93500 43.67200
H  49.90900 3.41600 43.78200
H  49.50900 4.31500 45.27200
H  46.90100 8.31200 46.41400
H  45.71500 9.25700 47.29100
H  45.76200 9.13800 45.47700
H  40.37300 8.24700 46.13200
H  38.57100 9.20800 49.90700
H  37.83800 10.40800 48.97200
H  39.43400 10.79000 49.65100

