158

Mg 2.18200 -2.09900 44.92200
C  5.45200 -0.78400 44.83300
C  1.19000 0.80300 43.39800
C  -0.79300 -3.50600 44.59700
C  3.58700 -5.19500 45.97300
N  3.28800 -0.22100 44.00500
C  4.56900 0.08500 44.17200
C  4.92400 1.49600 43.69800
C  3.42200 2.09300 43.57700
C  2.55200 0.85000 43.64100
C  3.08500 3.03600 44.73300
C  5.76400 1.55300 42.35900
C  5.29700 0.73000 41.16100
H  5.06000 1.48400 39.85200
N  0.39200 -1.47600 44.12300
C  0.20800 -0.23000 43.47800
C  -1.17700 -0.08800 43.16800
C  -1.79000 -1.36400 43.50000
C  -0.70600 -2.16300 44.09900
C  -1.74900 1.19600 42.47900
C  -3.21700 -1.64200 43.37300
O  -3.90300 -0.74400 42.83900
C  -3.77600 -2.92800 43.69600
N  1.54900 -4.16700 45.20000
C  0.17600 -4.42900 45.07500
C  -0.07800 -5.87200 45.55400
C  1.34800 -6.41100 45.91100
C  2.21700 -5.20800 45.65300
C  -1.07000 -5.92400 46.72800
C  1.77100 -7.62000 44.98200
C  2.26300 -8.98200 45.66400
N  4.10100 -2.92900 45.39400
C  4.54400 -4.13400 45.77900
C  5.98400 -4.13900 46.07800
C  6.37500 -2.76900 45.69000
C  5.21200 -2.09900 45.30600
C  6.80100 -5.34200 46.56900
C  7.45100 -1.88300 45.48500
O  8.65200 -2.00100 45.68500
C  6.93700 -0.57600 45.05500
C  7.23900 0.28800 46.24100
O  6.73500 0.18900 47.33900
O  8.05200 1.29200 45.88500
C  8.48800 2.27200 46.85700
H  0.85700 1.79800 43.09800
H  -1.74800 -4.02400 44.70000
H  3.98700 -6.08900 46.45600
H  5.58700 1.92700 44.44800
H  3.24300 2.56300 42.61000
H  3.13100 4.09800 44.49300
H  3.86400 2.85600 45.47400
H  2.12000 2.79800 45.18000
H  6.69900 1.07900 42.65500
H  5.96500 2.58400 42.06800
H  4.47100 0.09500 41.48200
H  6.14800 0.06600 41.01400
H  -2.27600 1.89300 43.13100
H  -2.34300 0.83000 41.64200
H  -0.91300 1.75700 42.06100
H  -4.75100 -2.98900 43.21400
H  -3.68400 -3.16700 44.75600
H  -3.18500 -3.63000 43.10800
H  -0.40800 -6.47000 44.70400
H  1.30800 -6.63100 46.97800
H  -1.57300 -6.88500 46.62000
H  -1.81800 -5.13200 46.70900
H  -0.62200 -5.97400 47.72000
H  2.58100 -7.30800 44.32300
H  1.03100 -7.76200 44.19400
H  2.63100 -8.87800 46.68500
H  3.08500 -9.25000 45.00000
H  1.43200 -9.68700 45.64300
H  7.22600 -5.77200 45.66100
H  6.11800 -6.09400 46.96300
H  7.47300 -4.89300 47.30000
H  7.52500 -0.27000 44.19000
H  9.56300 2.40100 46.73200
H  8.31700 2.11700 47.92200
H  8.12100 3.24400 46.52800
Mg -12.30200 15.86400 42.07300
C  -9.17500 14.27000 41.65600
C  -11.21700 18.47200 40.07900
C  -15.34800 17.08800 42.10600
C  -13.35300 12.91200 43.76200
N  -10.37500 16.32200 41.00300
C  -9.23100 15.58200 40.98300
C  -8.10400 16.29700 40.26400
C  -8.86800 17.54400 39.62400
C  -10.25300 17.46500 40.28600
C  -8.09000 18.90900 39.95900
C  -7.28500 15.46000 39.20600
C  -5.79300 15.55800 39.34600
H  -4.95600 14.80200 38.38000
N  -13.14600 17.62700 41.34000
C  -12.51000 18.57400 40.57000
C  -13.41100 19.68600 40.33400
C  -14.70500 19.27200 40.81700
C  -14.45400 17.94800 41.45800
C  -12.91100 20.99000 39.66900
C  -15.94400 20.06500 40.68100
O  -15.91000 21.11400 40.02300
C  -17.18500 19.66500 41.16000
N  -14.19400 14.96800 42.66400
C  -15.25600 15.80500 42.70700
C  -16.42800 14.99900 43.27900
C  -15.74800 13.82400 44.01800
C  -14.34500 13.89200 43.47300
C  -17.39600 15.88400 44.08300
C  -16.55700 12.51500 43.74100
C  -17.11400 11.89800 45.07400
N  -11.51200 13.93200 42.60400
C  -12.07000 12.85600 43.24800
C  -11.03100 11.83500 43.49300
C  -9.90800 12.35900 42.97200
C  -10.23300 13.60000 42.31400
C  -11.30100 10.59700 44.30800
C  -8.50300 12.07900 42.64400
O  -7.75700 11.10200 42.94200
C  -7.98900 13.30100 41.75600
C  -6.93000 13.94400 42.48100
O  -7.13800 14.88200 43.26300
O  -5.73900 13.38200 42.10900
C  -4.53900 14.06100 42.62500
H  -10.92600 19.22600 39.34500
H  -16.38200 17.41700 42.22200
H  -13.66400 12.06500 44.37700
H  -7.51500 16.73100 41.07200
H  -9.00400 17.58800 38.54400
H  -8.51500 19.40900 40.82900
H  -8.13200 19.48500 39.03400
H  -7.03600 18.66700 40.09400
H  -7.62200 15.81400 38.23200
H  -7.66800 14.44000 39.15700
H  -5.53300 15.15100 40.32300
H  -5.48700 16.59000 39.51600
H  -11.84500 21.13600 39.84000
H  -13.37500 21.84400 40.16300
H  -13.19700 20.98400 38.61700
H  -17.50400 18.74100 40.67800
H  -17.84500 20.50300 40.93500
H  -17.11300 19.53200 42.23900
H  -16.99000 14.62400 42.42400
H  -15.71900 14.05700 45.08300
H  -17.59600 15.41200 45.04500
H  -18.28900 16.08400 43.49100
H  -17.05100 16.89000 44.32300
H  -15.81900 11.82400 43.33300
H  -17.36100 12.70700 43.03100
H  -18.16700 11.73700 44.84100
H  -17.01000 12.50000 45.97600
H  -16.67800 10.91800 45.26700
H  -11.80800 10.85900 45.23700
H  -10.34100 10.16600 44.59300
H  -11.94100 9.93000 43.73000
H  -7.50200 12.98900 40.83200
H  -3.74600 13.93200 41.88700
H  -4.22500 13.55900 43.54000
H  -4.49100 15.13600 42.79200

