158

Mg 53.68600 24.09800 44.10200
C  51.33200 26.49900 43.62100
C  51.56200 21.70700 42.76600
C  56.28600 21.86200 44.02200
C  55.82800 26.54300 45.52900
N  51.68400 24.12300 43.05800
C  50.84800 25.23100 43.15300
C  49.51000 24.86900 42.44700
C  49.44700 23.30800 42.62200
C  50.98400 23.01200 42.86100
C  48.66000 22.67300 43.75300
C  49.40300 25.47800 41.00300
C  49.99500 24.66600 39.80100
H  50.61600 25.33900 38.55100
N  53.93600 22.02600 43.45600
C  52.90900 21.27300 42.93200
C  53.42400 19.94400 42.56800
C  54.82200 19.98900 42.88000
C  55.12200 21.36800 43.48000
C  52.49600 18.88700 41.99400
C  55.77300 18.84400 42.83900
O  55.28400 17.86600 42.34500
C  57.11200 18.81800 43.30600
N  55.82600 24.21500 44.64900
C  56.58300 23.16300 44.55700
C  57.96100 23.47400 45.15200
C  57.87800 24.93000 45.57400
C  56.43200 25.26500 45.30100
C  58.33500 22.50800 46.21900
C  58.78500 25.99700 44.80000
C  60.04300 26.51800 45.61600
N  53.66100 26.12900 44.46000
C  54.54000 26.97600 45.07400
C  53.95400 28.28200 45.24400
C  52.63500 28.11700 44.69600
C  52.55300 26.81000 44.20800
C  54.47700 29.42900 45.98400
C  51.32400 28.72600 44.51000
O  50.87600 29.83000 44.81800
C  50.46600 27.76100 43.80000
C  50.16900 28.41500 42.56600
O  50.89300 28.98800 41.81800
O  48.82700 28.23800 42.27500
C  48.27100 28.67800 40.99200
H  50.84000 20.89400 42.66600
H  57.19800 21.30700 43.79100
H  56.40500 27.43700 45.77800
H  48.70400 25.32600 43.02000
H  49.11700 22.95700 41.64400
H  48.23300 23.44400 44.39400
H  49.32200 22.04500 44.35000
H  47.84000 22.11900 43.29500
H  50.04500 26.35300 41.10400
H  48.38600 25.76300 40.73200
H  49.27600 23.96600 39.37700
H  50.86300 24.15700 40.22000
H  52.28000 18.98300 40.93000
H  51.52000 18.89000 42.47900
H  52.97100 17.91400 42.12000
H  57.09000 19.05400 44.37000
H  57.78400 19.47700 42.75600
H  57.60400 17.84500 43.31900
H  58.60700 23.38900 44.27900
H  57.99700 25.02900 46.65300
H  57.45000 21.95200 46.52700
H  58.77600 22.99900 47.08600
H  59.02900 21.86300 45.67900
H  58.22100 26.74900 44.24900
H  59.14700 25.37300 43.98300
H  60.08200 25.99300 46.57000
H  60.14400 27.59000 45.78400
H  60.92900 26.17600 45.08100
H  55.53900 29.39100 46.22800
H  53.97900 29.30900 46.94600
H  54.32400 30.39200 45.49600
H  49.52600 27.52800 44.30000
H  48.91900 28.53800 40.12600
H  47.94500 29.71500 41.07000
H  47.47200 27.94800 40.86200
Mg -11.52500 16.05000 41.04300
C  -8.59000 14.11700 41.34000
C  -9.59200 18.70100 39.94400
C  -14.33100 17.71300 40.31600
C  -13.34700 13.19000 41.97300
N  -9.35400 16.34900 40.81400
C  -8.38100 15.38100 40.87400
C  -7.06200 15.96800 40.45600
C  -7.37900 17.42300 40.02400
C  -8.86100 17.50700 40.33500
C  -6.53100 18.55900 40.67100
C  -6.37800 15.02100 39.41400
C  -4.90700 14.54100 39.80400
H  -3.81700 14.71600 38.72300
N  -11.91100 17.98000 40.25800
C  -10.97800 18.95100 39.98700
C  -11.65900 20.16100 39.54400
C  -13.06000 19.83000 39.48600
C  -13.20200 18.49900 40.05300
C  -10.86300 21.50300 39.04600
C  -14.16800 20.73100 38.82500
O  -13.81300 21.84700 38.47000
C  -15.64700 20.36900 38.71100
N  -13.47100 15.51000 41.00500
C  -14.50500 16.43500 40.75600
C  -15.89000 15.78000 40.83700
C  -15.48600 14.33500 41.36300
C  -14.00900 14.33200 41.45700
C  -17.01100 16.43900 41.74900
C  -16.22900 13.12600 40.56400
C  -17.04200 12.32600 41.58400
N  -11.13300 14.02400 41.54800
C  -11.94400 12.99400 41.99400
C  -11.13900 11.88500 42.55300
C  -9.82600 12.30500 42.28000
C  -9.91300 13.56700 41.67400
C  -11.65800 10.58800 43.08600
C  -8.48500 11.89600 42.41800
O  -8.00800 10.90800 42.86000
C  -7.59000 13.15800 41.99300
C  -6.84200 13.63100 43.18100
O  -7.29800 14.42100 44.02100
O  -5.55800 13.14800 43.12200
C  -4.62700 14.01000 43.82300
H  -8.99500 19.54400 39.58800
H  -15.27800 18.23200 40.15500
H  -14.00600 12.36300 42.24400
H  -6.51700 15.99600 41.39900
H  -7.12300 17.44900 38.96500
H  -7.11400 19.26400 41.26400
H  -5.94600 19.00000 39.86400
H  -5.79600 18.05000 41.29500
H  -6.23700 15.53600 38.46400
H  -6.99900 14.14700 39.21400
H  -5.01200 13.48900 40.06800
H  -4.67100 15.12800 40.69300
H  -10.80200 21.42600 37.96000
H  -9.91600 21.54300 39.58300
H  -11.38400 22.41000 39.35200
H  -16.18700 21.00700 38.01200
H  -16.04100 20.42200 39.72600
H  -15.71100 19.37200 38.27500
H  -16.26400 15.69900 39.81700
H  -15.80500 14.35500 42.40500
H  -16.49200 17.06100 42.47800
H  -17.51100 15.56500 42.16500
H  -17.78500 17.03900 41.27100
H  -15.50100 12.47300 40.08400
H  -17.03100 13.48000 39.91700
H  -18.07000 12.63900 41.76800
H  -16.42500 12.40700 42.48000
H  -17.10700 11.30300 41.21300
H  -10.72300 10.06500 43.28800
H  -12.30400 10.05000 42.39300
H  -12.31700 10.62900 43.95400
H  -6.75200 13.06700 41.30200
H  -4.70300 13.85900 44.90000
H  -4.75200 15.06600 43.57900
H  -3.63800 13.63100 43.56800

