158

Mg 27.34200 50.52200 26.86700
C  25.05700 51.64800 29.45500
C  29.52000 49.67100 29.20900
C  29.31300 49.78500 24.34600
C  24.89700 51.75200 24.57800
N  27.24900 50.65200 29.05300
C  26.18500 50.94600 29.90500
C  26.59100 50.64400 31.31500
C  28.07300 50.19100 31.20200
C  28.28900 50.11500 29.74000
C  29.04700 51.25200 31.93300
C  25.74300 49.65300 32.15600
C  25.07500 50.08600 33.48600
H  25.91100 50.23800 34.68700
N  29.21600 49.84600 26.77100
C  29.94000 49.42200 27.84000
C  31.18000 48.78300 27.38600
C  31.20600 48.82900 25.96300
C  29.91300 49.52900 25.64000
C  32.10000 48.17500 28.32500
C  32.10300 48.23600 24.93700
O  31.90900 48.39100 23.75100
C  33.22100 47.42200 25.35000
N  27.19600 50.81300 24.77100
C  28.13200 50.31600 23.94100
C  27.68300 50.57800 22.48600
C  26.20700 50.88000 22.59000
C  26.01800 51.14800 24.09100
C  28.42700 51.67000 21.66400
C  25.18500 49.80400 22.07700
C  25.41200 48.34500 22.36600
N  25.50100 51.62900 26.98500
C  24.62500 52.09100 25.98100
C  23.59700 52.89300 26.55500
C  23.76600 52.70100 27.93300
C  24.87700 51.96100 28.12100
C  22.59100 53.71600 25.82100
C  23.11300 52.94900 29.19900
O  22.17000 53.59700 29.53200
C  24.00500 52.29800 30.24700
C  24.52900 53.40800 31.08500
O  25.58800 54.02400 30.90500
O  23.73700 53.46000 32.23800
C  24.03000 54.40000 33.28600
H  30.19000 49.27300 29.97400
H  29.91900 49.44800 23.50300
H  24.07700 52.04600 23.92000
H  26.50500 51.61200 31.80900
H  28.28000 49.17200 31.52800
H  28.54900 52.15100 32.29700
H  29.84800 51.54800 31.25600
H  29.59900 50.75400 32.72900
H  26.26300 48.70400 32.28400
H  24.95800 49.36700 31.45600
H  24.30700 49.40400 33.85200
H  24.70600 51.09100 33.28300
H  32.13500 47.08900 28.23900
H  31.82200 48.15400 29.37800
H  33.04900 48.70900 28.26300
H  33.61800 47.12100 24.38000
H  32.81800 46.49500 25.76000
H  33.93800 48.03700 25.89400
H  27.90200 49.61300 22.02900
H  25.87300 51.76200 22.04300
H  28.89800 51.22100 20.78900
H  29.26700 52.00900 22.27000
H  27.84600 52.57900 21.51300
H  25.17400 49.90500 20.99200
H  24.16900 50.06100 22.37500
H  25.76800 47.78600 21.50000
H  24.45400 47.91200 22.65500
H  26.08700 48.17300 23.20500
H  22.38800 53.17400 24.89700
H  23.00900 54.69700 25.59400
H  21.68800 53.89600 26.40400
H  23.46500 51.51300 30.77600
H  23.09900 54.91500 33.52500
H  24.76000 55.13800 32.95300
H  24.47600 53.87600 34.13200
Mg -11.64800 16.28000 41.60800
C  -8.82600 14.25700 41.13700
C  -9.83800 18.96700 40.40400
C  -14.56100 18.02300 41.22700
C  -13.52900 13.48700 42.53400
N  -9.61700 16.54400 40.68500
C  -8.60200 15.58900 40.67300
C  -7.28900 16.25400 40.15600
C  -7.57800 17.75300 40.35100
C  -9.15400 17.77800 40.33500
C  -7.01700 18.30200 41.69300
C  -7.07800 15.80900 38.70400
C  -5.65000 15.43300 38.20600
H  -5.08300 16.17200 36.98100
N  -12.15700 18.22800 40.94000
C  -11.25300 19.17700 40.60600
C  -11.96600 20.43700 40.49400
C  -13.32600 20.19600 40.67000
C  -13.41200 18.76900 40.97200
C  -11.27100 21.67800 40.03200
C  -14.41200 21.28800 40.81500
O  -14.07800 22.41000 40.65800
C  -15.87000 20.99100 41.19900
N  -13.74900 15.73500 41.74700
C  -14.71200 16.67700 41.54900
C  -16.10200 16.08000 41.74600
C  -15.76800 14.85000 42.56700
C  -14.24000 14.63400 42.27800
C  -17.13400 16.95500 42.50400
C  -16.66400 13.68400 41.97800
C  -17.13900 12.73200 43.07600
N  -11.31800 14.27300 41.82000
C  -12.12700 13.26500 42.38600
C  -11.35500 12.13600 42.61800
C  -10.05800 12.48800 42.21900
C  -10.07200 13.72600 41.65400
C  -11.83200 10.88100 43.20300
C  -8.64400 12.07000 42.15400
O  -8.10700 11.09200 42.64200
C  -7.80300 13.15500 41.46500
C  -6.78400 13.71000 42.37700
O  -7.09400 14.20400 43.45100
O  -5.52500 13.71400 41.74300
C  -4.47100 14.33500 42.49600
H  -9.42000 19.92200 40.08100
H  -15.48800 18.56500 41.02900
H  -13.99800 12.60100 42.96800
H  -6.36500 16.02000 40.68500
H  -7.23600 18.35500 39.50900
H  -6.83400 17.46300 42.36400
H  -7.74800 19.00700 42.08800
H  -6.02600 18.72700 41.53200
H  -7.35500 16.61100 38.02100
H  -7.79800 14.99800 38.60300
H  -5.51600 14.35400 38.13100
H  -4.92500 15.57600 39.00700
H  -10.25700 21.58000 39.64200
H  -11.05800 22.28200 40.91400
H  -11.90100 22.24100 39.34400
H  -16.02500 20.29100 42.02000
H  -16.42400 20.70100 40.30600
H  -16.31400 21.93500 41.51600
H  -16.37500 15.94600 40.69900
H  -15.95200 14.87900 43.64200
H  -17.48100 16.50400 43.43400
H  -17.93500 17.05900 41.77200
H  -16.72700 17.93600 42.75000
H  -15.96500 13.11200 41.36700
H  -17.55300 14.14200 41.54700
H  -16.85900 11.68000 43.01800
H  -18.21200 12.57800 42.96300
H  -17.00600 13.15300 44.07200
H  -12.69400 10.42800 42.71300
H  -11.90800 11.15000 44.25700
H  -11.08200 10.11100 43.02100
H  -7.27700 12.81700 40.57200
H  -4.76400 15.12100 43.19200
H  -3.67900 14.79800 41.90700
H  -4.16500 13.40100 42.96800

