158

Mg 23.66000 -6.04800 46.55600
C  26.11300 -3.54700 45.80400
C  21.54000 -4.45200 44.38500
C  21.70300 -8.66300 46.90400
C  26.38100 -7.93000 48.08000
N  23.89600 -4.22600 45.23600
C  24.96200 -3.35200 45.12300
C  24.70900 -2.40800 43.98800
C  23.09300 -2.46200 43.76500
C  22.83300 -3.83000 44.49400
C  22.30900 -1.25900 44.40900
C  25.48600 -2.85500 42.74200
C  26.78700 -2.08300 42.50600
H  27.08300 -1.48400 41.14000
N  21.82000 -6.48600 45.83100
C  21.05000 -5.66000 45.03100
C  19.73500 -6.27900 44.84100
C  19.70900 -7.51800 45.54300
C  21.14600 -7.63300 46.15000
C  18.63500 -5.60200 44.06200
C  18.55700 -8.51700 45.58900
O  17.46700 -8.44100 45.00000
C  18.69100 -9.68700 46.42500
N  23.94900 -7.96600 47.43600
C  22.95900 -8.86100 47.42400
C  23.43600 -10.23200 48.01500
C  25.01300 -10.09000 48.11000
C  25.14300 -8.58400 47.88300
C  22.73000 -10.81200 49.22700
C  25.78300 -10.91700 47.09400
C  26.69300 -11.97600 47.83600
N  25.70300 -5.76900 47.07800
C  26.62700 -6.64100 47.68000
C  27.85200 -5.95500 47.88300
C  27.76100 -4.83600 47.04200
C  26.41200 -4.72600 46.64600
C  29.14200 -6.45300 48.57900
C  28.50800 -3.72700 46.55300
O  29.65300 -3.45500 46.68400
C  27.43500 -2.80200 45.92300
C  27.36600 -1.51000 46.67700
O  27.08700 -1.31200 47.88300
O  27.42600 -0.42900 45.87200
C  27.09000 0.92700 46.39100
H  20.78700 -3.97400 43.75400
H  21.12100 -9.57200 47.07100
H  27.15800 -8.58700 48.47500
H  25.02600 -1.42500 44.33600
H  22.80600 -2.48300 42.71400
H  22.96200 -0.46200 44.76500
H  21.65400 -1.64600 45.19000
H  21.66100 -0.94700 43.59000
H  24.85400 -2.96800 41.86100
H  25.72600 -3.90000 42.94100
H  27.62200 -2.77400 42.61400
H  26.84200 -1.29600 43.25900
H  17.78100 -6.25700 43.89000
H  18.89200 -5.07400 43.14300
H  18.28100 -4.91200 44.82800
H  17.73800 -10.21500 46.46100
H  18.90600 -9.22000 47.38600
H  19.43200 -10.40000 46.06300
H  23.16700 -10.97500 47.26400
H  25.29900 -10.25700 49.14900
H  23.31000 -11.55100 49.78000
H  21.75500 -11.25800 49.02900
H  22.52700 -9.99200 49.91600
H  26.38000 -10.29600 46.42600
H  25.12800 -11.51000 46.45700
H  27.71500 -12.03300 47.45900
H  26.42000 -12.95200 47.43500
H  26.64800 -11.88200 48.92100
H  29.02700 -7.22000 49.34400
H  29.57600 -5.58900 49.08200
H  29.73000 -6.89500 47.77400
H  27.81900 -2.54700 44.93500
H  26.24000 0.86200 47.07000
H  27.06800 1.63900 45.56600
H  27.95300 1.12400 47.02700
Mg 30.11300 58.16900 39.98000
C  27.37300 56.24900 39.13800
C  32.12000 55.52600 38.97800
C  32.80500 60.16500 40.06700
C  27.96300 60.95100 40.08900
N  29.77100 56.08700 39.37200
C  28.56300 55.49400 39.03500
C  28.75600 54.02000 38.75100
C  30.12900 53.68300 39.33200
C  30.79100 55.18100 39.23500
C  30.16700 53.07500 40.76200
C  28.70600 53.67000 37.21100
C  27.62600 52.64900 36.62100
H  26.73500 53.35900 35.60100
N  32.19100 57.90000 39.46200
C  32.80600 56.77700 39.09200
C  34.20100 56.94200 39.00500
C  34.47000 58.29000 39.43200
C  33.13000 58.94400 39.59400
C  35.05400 55.83500 38.60700
C  35.83300 58.86800 39.63400
O  36.79700 58.14600 39.37500
C  36.01600 60.27600 40.16200
N  30.32300 60.36800 39.88400
C  31.59200 60.87400 40.18600
C  31.38800 62.32100 40.59900
C  29.81700 62.46500 40.74700
C  29.28300 61.17200 40.15100
C  32.11300 62.83100 41.91400
C  29.15200 63.65700 39.97600
C  28.50700 64.67100 40.85300
N  28.03300 58.53000 39.89200
C  27.35800 59.71600 39.89700
C  25.94800 59.37400 39.87600
C  25.89500 57.96300 39.59300
C  27.20500 57.58600 39.50200
C  24.89200 60.38800 40.02700
C  25.05600 56.87300 39.32100
O  23.85400 56.79600 39.30200
C  26.02900 55.68900 38.98700
C  25.60100 54.48000 39.71100
O  26.01900 54.11800 40.81200
O  24.81500 53.61900 38.91700
C  24.31600 52.36100 39.48500
H  32.67900 54.61900 38.74200
H  33.65200 60.81900 40.28700
H  27.27900 61.73400 40.42200
H  28.02200 53.43000 39.30100
H  30.63700 53.10200 38.56300
H  29.24700 53.40500 41.24400
H  31.05000 53.50700 41.23400
H  30.31600 51.99500 40.75300
H  29.63400 53.35800 36.73100
H  28.52000 54.60800 36.68700
H  26.89900 52.30500 37.35700
H  28.21000 51.84600 36.17200
H  35.28000 55.32200 39.54200
H  35.95300 56.21900 38.12500
H  34.55100 55.02400 38.08000
H  35.57900 60.60100 41.10500
H  35.98900 60.92500 39.28700
H  37.09400 60.22600 40.31900
H  31.69300 62.87700 39.71300
H  29.51100 62.54700 41.79000
H  32.31800 61.93000 42.49300
H  31.47200 63.55400 42.42000
H  33.04400 63.34100 41.66500
H  28.30100 63.35500 39.36600
H  29.91500 64.19600 39.41300
H  28.24500 64.44600 41.88700
H  27.60600 64.92700 40.29500
H  29.17400 65.52500 40.96700
H  23.96200 59.84900 39.84200
H  25.02800 61.14900 39.25900
H  24.95400 60.90400 40.98500
H  25.87800 55.31700 37.97400
H  24.17400 51.63600 38.68300
H  23.38800 52.49400 40.04200
H  25.00600 51.93600 40.21300

