158

Mg 3.24700 -1.89300 44.31100
C  6.65200 -1.12300 43.75500
C  2.33300 0.72400 42.27400
C  0.11600 -3.21200 44.16900
C  4.38300 -5.01700 45.71200
N  4.36700 -0.41500 43.12800
C  5.75700 -0.22200 43.17100
C  6.12100 1.02900 42.39100
C  4.75800 1.62200 41.92000
C  3.69400 0.53100 42.33300
C  4.48500 3.04600 42.57200
C  7.00800 0.67900 41.15100
C  8.28200 1.56600 40.99600
H  8.80200 1.97400 39.60100
N  1.46700 -1.24000 43.53200
C  1.30100 -0.08700 42.78900
C  -0.13400 0.12300 42.59700
C  -0.83600 -1.01200 43.14300
C  0.23800 -1.88800 43.68500
C  -0.70500 1.39100 41.88400
C  -2.32600 -1.27100 43.11000
O  -3.10900 -0.45100 42.51000
C  -2.97700 -2.47300 43.81600
N  2.38100 -3.93700 44.78900
C  1.05300 -4.15700 44.63300
C  0.63600 -5.55200 45.15100
C  2.08300 -6.19700 45.61100
C  3.00800 -4.94200 45.43700
C  -0.39300 -5.66800 46.31700
C  2.67400 -7.37300 44.74900
C  2.42800 -8.82100 45.29600
N  5.10300 -2.91700 44.69800
C  5.39300 -4.10700 45.33800
C  6.84200 -4.17000 45.57900
C  7.31200 -3.06000 44.93800
C  6.25700 -2.32000 44.44700
C  7.58400 -5.27900 46.31100
C  8.54800 -2.35900 44.71700
O  9.69100 -2.69700 45.05700
C  8.12400 -0.96100 43.94800
C  8.54800 0.22700 44.70700
O  8.29900 0.36500 45.84100
O  9.09100 1.14800 43.91400
C  9.41700 2.43600 44.60500
H  2.11600 1.64600 41.72900
H  -0.87200 -3.66500 44.06900
H  4.80700 -5.92800 46.14100
H  6.68100 1.77800 42.95100
H  4.64800 1.75600 40.84400
H  3.88800 2.90800 43.47400
H  3.90200 3.76000 41.99100
H  5.41200 3.61200 42.66200
H  6.50200 0.86600 40.20300
H  7.38200 -0.34100 41.06600
H  9.17500 1.09900 41.41200
H  8.19400 2.54000 41.47700
H  0.06400 1.78400 41.21900
H  -0.92100 2.13600 42.65000
H  -1.63700 1.16000 41.36800
H  -2.66800 -2.77000 44.81700
H  -2.63700 -3.23800 43.11800
H  -4.05700 -2.33200 43.76200
H  0.32000 -6.12200 44.27700
H  2.07600 -6.47100 46.66600
H  -1.02500 -4.78700 46.42700
H  0.11600 -6.00100 47.22200
H  -1.16200 -6.35000 45.95600
H  3.74000 -7.16400 44.65400
H  2.18800 -7.25900 43.78000
H  1.63100 -8.90400 46.03500
H  3.35900 -9.25300 45.66100
H  2.10800 -9.35400 44.40100
H  6.84200 -5.79700 46.91800
H  8.30000 -4.82500 46.99600
H  8.09900 -6.05800 45.74800
H  8.74900 -0.89200 43.05800
H  10.38800 2.32300 45.08600
H  8.64100 2.76300 45.29600
H  9.50100 3.27200 43.91100
Mg 47.05300 16.38700 28.26800
C  45.32600 15.85200 31.46300
C  49.25400 18.40500 30.00500
C  48.33400 17.39900 25.34800
C  44.35800 14.96800 26.66400
N  47.25300 16.98400 30.50800
C  46.48100 16.64000 31.62700
C  46.99600 17.31500 32.93300
C  48.14800 18.33800 32.37600
C  48.15400 17.97700 30.79100
C  47.90200 19.82000 32.62700
C  47.45100 16.18500 33.97600
C  47.58700 16.63900 35.48700
H  47.10500 18.04600 35.97000
N  48.67000 17.49000 27.81100
C  49.50800 18.16200 28.67300
C  50.68700 18.68100 27.90000
C  50.38700 18.53300 26.46400
C  49.05000 17.81900 26.47300
C  51.97900 19.23300 28.60500
C  51.27100 18.89800 25.16500
O  50.90500 18.73700 24.00400
C  52.46200 19.83300 25.40200
N  46.37400 16.28400 26.31900
C  47.13400 16.65100 25.24100
C  46.48000 16.32100 23.86500
C  45.38200 15.28800 24.31600
C  45.33600 15.51100 25.86400
C  46.00900 17.52200 23.04000
C  45.51400 13.75100 23.99100
C  46.83800 13.18100 24.42900
N  45.26300 15.52500 28.87100
C  44.27400 14.93500 28.06900
C  43.29900 14.26800 28.89200
C  43.69200 14.61800 30.19400
C  44.86700 15.38500 30.17300
C  42.04400 13.60100 28.36800
C  43.15300 14.61300 31.53600
O  42.07000 14.21600 32.01900
C  44.17600 15.45000 32.40500
C  43.42400 16.61000 33.02500
O  43.23900 17.72100 32.57100
O  43.04000 16.29900 34.33500
C  42.27300 17.33700 35.06300
H  49.95000 18.96800 30.63000
H  48.86600 17.69700 24.44200
H  43.55700 14.50300 26.08400
H  46.13300 17.84200 33.34200
H  49.09100 17.95200 32.76100
H  47.04600 19.96300 33.28800
H  47.69700 20.21600 31.63300
H  48.74300 20.45800 32.89800
H  48.34800 15.69100 33.60100
H  46.69600 15.40500 33.88600
H  48.62200 16.42600 35.75200
H  47.07100 15.86300 36.05300
H  52.83300 18.59200 28.38500
H  51.86400 19.10100 29.68000
H  52.18400 20.27900 28.37300
H  52.80000 20.47700 24.59100
H  53.32500 19.27400 25.76300
H  52.28900 20.54800 26.20600
H  47.23800 15.82800 23.25700
H  44.37900 15.56600 23.99200
H  45.21600 17.38500 22.30600
H  46.89300 17.73600 22.44000
H  45.72100 18.33500 23.70700
H  45.33200 13.72500 22.91700
H  44.63100 13.27600 24.41900
H  46.70100 12.22900 24.94200
H  47.30400 13.80600 25.19000
H  47.45300 12.85300 23.59000
H  42.38400 12.78200 27.73400
H  41.45300 14.18700 27.66400
H  41.52700 13.23100 29.25300
H  44.70600 14.90900 33.18900
H  42.92400 18.10400 35.48400
H  41.77400 16.81700 35.88000
H  41.51000 17.87700 34.50100

