158

Mg -1.68400 17.80300 26.85100
C  -2.64700 15.80800 29.53100
C  -2.67000 20.56500 28.61100
C  -1.00200 19.71500 24.07500
C  -1.68200 14.91300 24.79200
N  -2.63600 18.12400 28.76100
C  -2.69700 17.19100 29.80700
C  -2.95800 17.79400 31.10100
C  -3.40500 19.21100 30.72500
C  -2.90800 19.31900 29.25300
C  -4.92100 19.51000 30.81800
C  -1.76100 17.89100 32.00600
C  -1.95200 17.36100 33.44500
H  -0.70900 17.13600 34.38100
N  -1.69800 19.87200 26.48000
C  -2.16500 20.80300 27.31000
C  -2.15700 22.09300 26.67600
C  -1.42000 21.89700 25.46300
C  -1.26100 20.44700 25.29100
C  -2.74100 23.37000 27.29900
C  -0.95200 23.00900 24.44000
O  -0.35400 22.70700 23.39600
C  -1.00100 24.42000 24.92700
N  -1.40200 17.41600 24.81300
C  -1.06500 18.32300 23.83700
C  -0.98700 17.69500 22.41600
C  -0.76300 16.19400 22.77600
C  -1.31400 16.12200 24.24800
C  -2.16600 18.01000 21.43500
C  0.65800 15.66100 22.76600
C  1.75500 16.63800 23.30000
N  -2.00300 15.77700 27.06300
C  -2.01500 14.76400 26.19900
C  -2.35900 13.50600 26.85700
C  -2.49500 13.87300 28.16700
C  -2.34000 15.26300 28.29100
C  -2.37800 12.14400 26.30300
C  -2.82000 13.34600 29.46300
O  -3.17800 12.19700 29.79400
C  -2.85500 14.59800 30.39800
C  -1.64700 14.31900 31.29700
O  -0.49600 14.62400 30.92200
O  -1.98900 13.84000 32.58800
C  -0.83000 13.68200 33.42500
H  -2.93200 21.39900 29.26500
H  -0.85500 20.37200 23.21500
H  -1.75800 13.96000 24.26300
H  -3.81800 17.21100 31.43100
H  -2.93800 20.06400 31.21800
H  -5.14800 20.42000 30.26200
H  -5.22100 19.58900 31.86300
H  -5.46500 18.70700 30.32100
H  -1.37400 18.90900 32.04000
H  -0.97800 17.35600 31.46700
H  -2.41900 16.37800 33.37100
H  -2.64000 18.05400 33.92800
H  -3.27400 23.96100 26.55400
H  -1.88300 23.99900 27.53900
H  -3.44200 23.22000 28.12000
H  -0.54100 24.47300 25.91400
H  -2.04900 24.70800 25.00700
H  -0.40000 25.04000 24.26200
H  -0.08000 18.11000 21.97700
H  -1.26700 15.49400 22.10900
H  -2.78600 18.78500 21.88600
H  -2.72600 17.12200 21.14300
H  -1.80600 18.35500 20.46600
H  0.88400 15.54600 21.70500
H  0.76200 14.72600 23.31700
H  2.59500 15.99300 23.55400
H  1.46800 17.22900 24.17000
H  2.15100 17.22100 22.46800
H  -1.67000 11.96000 25.49500
H  -3.41100 11.90700 26.05000
H  -2.10700 11.48100 27.12500
H  -3.77700 14.65400 30.97700
H  -0.42300 12.67100 33.42200
H  -1.21400 13.86500 34.42900
H  -0.02600 14.40400 33.28400
Mg 40.85200 8.85600 29.93500
C  42.72700 9.99600 32.72200
C  38.67300 7.38900 31.89200
C  39.30000 7.59300 27.13000
C  43.67500 9.59600 28.00000
N  40.86800 8.61500 32.10200
C  41.66800 9.16600 33.07300
C  41.04000 8.88300 34.46100
C  39.83900 7.85400 34.13200
C  39.73600 7.90500 32.58600
C  39.98000 6.50900 34.81100
C  40.77200 10.17400 35.35400
C  41.22400 10.02500 36.80200
H  41.45600 11.35200 37.56800
N  39.18500 7.74800 29.62500
C  38.35400 7.25200 30.55000
C  37.19700 6.71300 29.97500
C  37.27900 6.91100 28.55600
C  38.66000 7.38100 28.40500
C  36.05200 6.08600 30.77100
C  36.35400 6.68500 27.43800
O  36.59500 6.73400 26.23800
C  35.06000 6.09700 27.79300
N  41.42600 8.69400 27.89000
C  40.53400 8.12200 26.91900
C  41.20100 8.13700 25.49800
C  42.63200 8.82700 25.87900
C  42.59700 9.02900 27.35000
C  41.35500 6.76500 24.68100
C  42.87400 10.16500 25.05800
C  41.97400 11.37200 25.41300
N  42.70100 9.74800 30.21500
C  43.67500 10.06700 29.27800
C  44.79900 10.74400 29.90000
C  44.36100 10.84200 31.22200
C  43.16400 10.14300 31.37500
C  46.18700 11.11400 29.35600
C  44.78000 11.34400 32.55600
O  45.72400 12.01500 32.81000
C  43.60800 10.91000 33.60800
C  44.31900 10.14800 34.70600
O  44.73000 9.00200 34.63300
O  44.57200 10.95400 35.78400
C  45.48200 10.41000 36.86100
H  37.96200 6.89400 32.55700
H  38.85500 7.21800 26.20500
H  44.52900 10.01600 27.46400
H  41.75300 8.31600 35.05900
H  38.93600 8.16600 34.65800
H  40.45700 5.71500 34.23700
H  39.06700 6.09500 35.23800
H  40.68000 6.47900 35.64600
H  39.69300 10.32800 35.33500
H  41.18600 11.10400 34.96500
H  42.25000 9.67100 36.70100
H  40.64200 9.27400 37.33600
H  35.95600 5.01900 30.57200
H  35.10700 6.62900 30.77400
H  36.39100 6.07600 31.80700
H  35.04600 5.04200 28.06400
H  34.45800 6.37200 26.92700
H  34.68000 6.71400 28.60700
H  40.54500 8.87900 25.04200
H  43.42000 8.07600 25.81400
H  42.26000 6.72500 24.07400
H  40.57100 6.74500 23.92400
H  41.30200 5.88000 25.31500
H  42.67300 9.93900 24.01100
H  43.93000 10.43200 25.10500
H  41.52100 11.25700 26.39700
H  41.23200 11.57200 24.64000
H  42.70600 12.16600 25.55900
H  46.56900 10.21300 28.87600
H  46.97100 11.44900 30.03500
H  45.86300 11.80700 28.58000
H  43.10100 11.77900 34.03000
H  46.33900 9.84200 36.49800
H  44.90900 9.75400 37.51600
H  45.88000 11.26500 37.40700

