158

Mg 49.19600 45.79100 42.01500
C  45.83000 46.69600 41.62300
C  48.43400 42.66900 40.73200
C  52.44600 44.97900 42.13100
C  49.86600 49.07600 42.92900
N  47.36800 44.84000 41.20700
C  46.15300 45.40400 41.12500
C  45.09900 44.53400 40.41500
C  45.87400 43.13500 40.49100
C  47.31300 43.52100 40.82200
C  45.30900 41.96700 41.31600
C  44.61400 45.12000 39.10700
C  43.24000 44.66500 38.66900
H  43.28800 44.11300 37.21600
N  50.30800 44.01900 41.54500
C  49.80400 42.79000 41.07500
C  50.88200 41.80600 41.05600
C  52.08100 42.48200 41.46400
C  51.67700 43.86900 41.75700
C  50.71900 40.34500 40.54300
C  53.47300 41.84800 41.32900
O  53.61500 40.60800 41.00700
C  54.73500 42.56500 41.58400
N  50.99600 46.91700 42.34200
C  52.15500 46.31800 42.28500
C  53.24700 47.39100 42.56400
C  52.40000 48.68700 42.84400
C  50.99500 48.23100 42.65400
C  54.39700 47.06700 43.61300
C  52.77500 49.88600 41.93400
C  53.50000 51.00400 42.73900
N  48.11100 47.56800 42.34100
C  48.51600 48.79200 42.73500
C  47.36500 49.71100 42.62400
C  46.27300 48.89700 42.34900
C  46.76900 47.60600 42.08500
C  47.47400 51.19700 43.11000
C  44.87700 48.91600 42.27000
O  44.09600 49.86900 42.45300
C  44.52300 47.48600 41.61700
C  43.36200 46.89600 42.26000
O  43.44900 46.35400 43.35300
O  42.16700 47.10500 41.53000
C  41.08100 46.23200 42.12900
H  48.16800 41.66100 40.40600
H  53.51300 44.75900 42.20300
H  50.16000 50.10600 43.13900
H  44.21400 44.45100 41.04500
H  45.88800 42.72300 39.48200
H  45.96100 41.51500 42.06400
H  44.96000 41.25600 40.56800
H  44.45700 42.45500 41.79000
H  45.43700 44.87700 38.43400
H  44.55800 46.18000 39.35100
H  42.57600 45.52800 38.63200
H  42.85100 43.90600 39.34800
H  51.25200 40.31900 39.59300
H  49.67100 40.11000 40.35900
H  50.97700 39.71600 41.39600
H  54.69600 43.42900 40.92100
H  55.51200 41.84200 41.33700
H  54.82300 42.87700 42.62500
H  53.79000 47.48900 41.62400
H  52.33800 48.93800 43.90300
H  55.36200 47.04400 43.10500
H  54.15800 46.19500 44.22100
H  54.38800 47.83800 44.38300
H  52.00200 50.27400 41.27000
H  53.50900 49.52300 41.21500
H  54.13400 50.60400 43.53000
H  52.75100 51.64200 43.20900
H  54.18200 51.51800 42.06200
H  46.52500 51.28600 43.63900
H  47.67300 51.92300 42.32100
H  48.30700 51.18500 43.81400
H  44.27700 47.80800 40.60500
H  40.62700 46.78800 42.95000
H  41.59100 45.31900 42.43800
H  40.27700 45.87500 41.48500
Mg 10.38700 47.55400 25.96700
C  8.54300 47.07700 28.96600
C  12.89300 48.99100 27.74400
C  11.99100 48.20600 23.05900
C  7.63300 46.62700 24.27000
N  10.62800 48.05100 28.16900
C  9.79000 47.68400 29.20800
C  10.54400 47.93500 30.58700
C  11.88000 48.66800 30.05300
C  11.80100 48.58600 28.51600
C  12.01700 50.15100 30.62000
C  10.89000 46.65700 31.49300
C  10.15300 46.91700 32.88500
H  10.40900 45.86800 33.94000
N  12.23200 48.43300 25.50400
C  13.16000 48.85600 26.36000
C  14.37200 49.25600 25.63900
C  14.21400 48.82100 24.28000
C  12.80200 48.45400 24.22900
C  15.60800 49.82300 26.43300
C  15.15000 48.81700 23.20200
O  14.92000 48.49000 22.05900
C  16.55200 49.40200 23.42500
N  9.93400 47.46500 23.90900
C  10.73300 47.79700 22.89400
C  9.90600 47.90500 21.59300
C  8.74500 46.92200 21.99300
C  8.75900 46.94500 23.50300
C  9.57700 49.34400 21.11200
C  8.84000 45.54600 21.37700
C  9.88100 44.67100 21.92400
N  8.40600 46.99800 26.49100
C  7.38400 46.70900 25.66400
C  6.16400 46.37700 26.37500
C  6.59800 46.44900 27.72300
C  7.94100 46.87700 27.70300
C  4.79500 45.96800 25.92200
C  6.20300 46.22200 29.00000
O  5.11500 45.83800 29.37700
C  7.51900 46.56300 29.98400
C  7.84500 45.31400 30.61000
O  8.49400 44.42200 30.09300
O  7.16500 45.14800 31.75400
C  6.95500 43.82900 32.43300
H  13.70800 49.23500 28.42900
H  12.38400 48.59300 22.11600
H  6.80900 46.15200 23.73400
H  9.82600 48.59600 31.07300
H  12.78800 48.18600 30.41500
H  12.88400 50.24200 31.27400
H  11.16800 50.19500 31.30200
H  11.89000 50.92300 29.86100
H  11.95200 46.65500 31.73600
H  10.53200 45.69400 31.12800
H  9.07800 47.08600 32.82000
H  10.70200 47.78600 33.24800
H  15.94400 50.61400 25.76300
H  16.33700 49.01400 26.47000
H  15.34100 50.25500 27.39800
H  17.03800 49.59900 22.46900
H  17.20300 48.92400 24.15600
H  16.31800 50.42100 23.73100
H  10.48900 47.41700 20.81200
H  7.78900 47.33900 21.67600
H  10.02600 49.62400 20.15900
H  9.93100 50.10800 21.80400
H  8.49700 49.49300 21.09400
H  8.86400 45.54200 20.28700
H  7.82800 45.19200 21.57300
H  10.42400 45.21700 22.69600
H  10.60400 44.33200 21.18300
H  9.39500 43.80500 22.37300
H  4.66900 45.83100 24.84800
H  4.06600 46.73200 26.19300
H  4.49100 45.01900 26.36300
H  7.47600 47.39300 30.68900
H  5.90400 43.55500 32.34100
H  7.35400 43.71700 33.44100
H  7.41000 42.98300 31.91700

