158

Mg 41.24500 8.82500 29.42800
C  42.99400 9.51100 32.43100
C  39.11900 6.82700 31.25100
C  39.94800 7.81600 26.48300
C  44.06200 10.02700 27.70900
N  41.20400 8.21600 31.62800
C  41.79100 8.87600 32.69800
C  41.16300 8.57900 34.05600
C  40.00100 7.59100 33.65000
C  40.03200 7.59800 32.07000
C  40.26300 6.10900 34.07200
C  40.62200 9.97800 34.67000
C  40.72400 10.20100 36.16100
H  41.19800 11.60900 36.80700
N  39.63900 7.66300 28.99700
C  38.90400 6.92500 29.88600
C  37.80500 6.31200 29.11700
C  37.94600 6.75100 27.71900
C  39.21000 7.43600 27.67300
C  36.75400 5.40100 29.78300
C  37.09800 6.50800 26.49400
O  37.47600 6.86600 25.36400
C  35.77300 5.74600 26.58200
N  41.94300 8.93500 27.32200
C  41.19800 8.43800 26.34200
C  41.76300 8.85300 24.99600
C  43.05400 9.66700 25.39600
C  43.07700 9.55700 26.87000
C  42.10600 7.61300 24.14900
C  43.00200 11.14700 24.97800
C  41.78600 12.01400 25.16400
N  43.14500 9.59600 29.86900
C  44.15100 10.05700 29.08300
C  45.24400 10.65100 29.85000
C  44.81300 10.49800 31.19800
C  43.54000 9.81900 31.11500
C  46.55600 11.36600 29.40800
C  45.19000 10.80200 32.51800
O  46.11300 11.45200 32.99500
C  44.00000 10.12900 33.44700
C  44.52700 9.09400 34.44700
O  44.46200 7.87300 34.37800
O  45.18600 9.77100 35.39400
C  45.63600 8.98100 36.54400
H  38.29200 6.36300 31.79300
H  39.61900 7.45200 25.50700
H  44.81300 10.61400 27.17600
H  41.85300 8.09600 34.74800
H  39.04300 7.92700 34.04800
H  39.53700 5.83300 34.83600
H  41.28000 5.98000 34.44400
H  40.25800 5.42900 33.22000
H  39.54300 10.05700 34.53800
H  41.05800 10.76600 34.05600
H  41.34000 9.38900 36.54600
H  39.76500 9.97600 36.62900
H  37.06700 4.97900 30.73800
H  36.58500 4.51800 29.16700
H  35.82600 5.93100 29.99500
H  35.18300 6.38900 27.23500
H  35.96700 4.87500 27.20800
H  35.41400 5.61600 25.56100
H  41.05000 9.46800 24.44700
H  43.93300 9.12700 25.04600
H  42.08300 6.74800 24.81200
H  43.02900 7.62400 23.57100
H  41.36800 7.41600 23.37200
H  42.96000 11.20100 23.89000
H  43.99600 11.51100 25.23800
H  42.18000 13.00800 25.37800
H  41.14600 11.67500 25.97800
H  41.26200 12.21600 24.23000
H  46.33900 12.37100 29.76900
H  46.52000 11.43100 28.32100
H  47.38200 10.85500 29.90400
H  43.52300 10.90600 34.04400
H  46.38300 9.56300 37.08400
H  46.09100 8.02900 36.27200
H  44.75200 8.89000 37.17400
Mg 54.08000 23.89000 44.87700
C  51.82400 26.45600 43.74800
C  51.78000 21.60500 43.75400
C  56.41800 21.73600 45.29700
C  56.22200 26.53800 46.04500
N  52.06700 24.04200 43.69800
C  51.38900 25.18800 43.44100
C  50.05600 24.81900 42.75500
C  49.76900 23.42100 43.33200
C  51.30400 22.95800 43.63200
C  48.86800 23.46200 44.57000
C  50.09400 24.81800 41.21400
C  48.77500 25.27300 40.51200
H  48.31600 24.46300 39.29600
N  54.10900 21.90400 44.44200
C  53.06200 21.13300 44.13000
C  53.43400 19.73800 44.32300
C  54.83200 19.67400 44.66000
C  55.22600 21.16400 44.80600
C  52.51400 18.47800 43.85200
C  55.65800 18.40600 44.90400
O  55.17000 17.31000 44.85900
C  57.14100 18.50400 45.06400
N  56.15200 24.15800 45.40300
C  56.84300 23.03300 45.73100
C  58.22700 23.25300 46.28100
C  58.07500 24.80700 46.62200
C  56.70600 25.25100 45.99900
C  58.72200 22.39300 47.37500
C  59.27400 25.53000 45.95900
C  60.53400 25.64900 46.87700
N  54.05300 26.04700 44.99400
C  54.92800 26.90400 45.53600
C  54.26200 28.21500 45.65400
C  53.03900 28.09500 44.96000
C  52.99400 26.76700 44.49900
C  54.87600 29.44700 46.19900
C  51.82300 28.82500 44.46100
O  51.46800 29.99300 44.62100
C  50.98100 27.72900 43.67000
C  50.80200 28.27100 42.26200
O  51.70300 28.27400 41.41700
O  49.50000 28.69700 42.07900
C  49.10600 29.23300 40.76900
H  51.03400 20.84000 43.52700
H  57.12700 21.04600 45.75700
H  56.73900 27.41500 46.43900
H  49.26100 25.48300 43.09100
H  49.10100 22.85000 42.68800
H  48.06600 22.73600 44.43500
H  48.34300 24.38900 44.79700
H  49.38600 23.06000 45.44100
H  50.26700 23.81500 40.82500
H  50.94900 25.44600 40.96400
H  48.97600 26.30300 40.21800
H  47.96500 25.16200 41.23300
H  52.56900 18.41600 42.76500
H  51.48000 18.69200 44.12400
H  52.64300 17.44200 44.16500
H  57.55600 17.50800 44.91200
H  57.29800 18.88000 46.07500
H  57.41700 19.12400 44.21100
H  58.98300 23.03200 45.52700
H  58.22600 25.05900 47.67200
H  59.44500 21.74600 46.87900
H  57.94300 21.77100 47.81600
H  59.13000 23.05000 48.14400
H  59.01500 26.56700 45.74300
H  59.59500 25.06200 45.02800
H  60.52700 25.38000 47.93400
H  60.81400 26.70200 46.85200
H  61.41900 25.17200 46.45600
H  54.15700 30.26700 46.20500
H  55.69900 29.64800 45.51300
H  55.12100 29.19600 47.23100
H  49.98600 27.74600 44.11400
H  49.76200 29.99900 40.35400
H  48.08000 29.59900 40.77000
H  49.14100 28.41500 40.05000

