158

Mg 24.17800 -4.35800 46.06900
C  26.59900 -2.40200 44.72400
C  21.98700 -3.18100 43.68300
C  22.25300 -6.92600 46.76600
C  26.65500 -5.70400 48.39900
N  24.30500 -2.95400 44.46700
C  25.36500 -2.21900 44.11700
C  25.03100 -1.30800 42.87500
C  23.47000 -1.23400 43.03900
C  23.22100 -2.52800 43.85100
C  23.04600 0.03600 43.85600
C  25.65400 -1.91400 41.60100
C  26.15100 -0.85800 40.60200
H  25.55000 -0.87500 39.15500
N  22.29700 -4.89600 45.29200
C  21.57600 -4.32200 44.29500
C  20.42400 -5.11500 44.19700
C  20.50500 -6.28200 44.95200
C  21.72600 -6.09600 45.71300
C  19.34500 -4.77300 43.11300
C  19.49700 -7.39100 44.94000
O  18.56500 -7.43800 44.10900
C  19.59200 -8.55200 45.89900
N  24.54800 -6.09900 47.39000
C  23.48200 -6.90800 47.53500
C  23.65800 -7.86800 48.75200
C  24.96700 -7.33500 49.40300
C  25.44400 -6.38500 48.33800
C  22.39400 -7.92600 49.67900
C  26.01800 -8.47800 49.61100
C  27.02300 -8.38000 50.75800
N  26.21600 -4.04400 46.56900
C  27.05600 -4.67400 47.48000
C  28.41400 -4.09500 47.34300
C  28.26700 -3.16300 46.29600
C  26.90300 -3.27600 45.83100
C  29.59900 -4.56000 48.16900
C  28.99400 -2.24500 45.49600
O  30.16600 -1.85100 45.59100
C  27.96500 -1.69600 44.46100
C  27.89000 -0.24000 44.70500
O  27.07600 0.35700 45.44100
O  28.83400 0.36000 43.96000
C  29.14600 1.78300 44.08300
H  21.33800 -2.71900 42.93600
H  21.62200 -7.77600 47.03500
H  27.42400 -6.01300 49.10900
H  25.53100 -0.37300 43.12700
H  23.07400 -1.28900 42.02500
H  23.80700 0.81600 43.88700
H  22.77600 -0.27000 44.86700
H  22.17300 0.47700 43.37500
H  24.85600 -2.45000 41.08500
H  26.35400 -2.74500 41.68500
H  27.23700 -0.88700 40.69100
H  25.77000 0.05400 41.06200
H  18.38700 -5.04400 43.55800
H  19.49000 -5.32000 42.18200
H  19.26100 -3.71300 42.87100
H  18.89300 -9.33300 45.59900
H  19.27000 -8.39400 46.92900
H  20.55500 -9.06000 45.84800
H  23.85300 -8.84200 48.30400
H  24.72100 -6.74400 50.28400
H  21.61800 -7.25000 49.32300
H  22.46500 -7.59600 50.71500
H  21.97300 -8.92400 49.80200
H  26.54800 -8.48100 48.65900
H  25.57600 -9.46300 49.76100
H  26.82700 -9.05400 51.59100
H  27.03300 -7.34600 51.10300
H  27.99600 -8.68900 50.37600
H  29.91900 -5.51100 47.74200
H  29.37300 -4.71900 49.22300
H  30.44000 -3.87000 48.09300
H  28.27500 -1.84400 43.42600
H  30.08700 2.07800 43.61900
H  29.26700 1.99800 45.14400
H  28.29000 2.35700 43.72800
Mg 49.52300 45.48700 42.22500
C  46.27900 46.23900 41.07800
C  49.24600 42.49800 40.68400
C  52.86900 45.28500 42.47700
C  49.69600 48.66300 43.53400
N  47.89600 44.50100 41.03500
C  46.66000 44.98300 40.66100
C  45.86200 43.92900 39.84300
C  46.69100 42.69400 40.16700
C  48.03900 43.24800 40.60800
C  46.14100 41.65900 41.22900
C  45.70500 44.38900 38.27400
C  44.35400 44.10400 37.62500
H  44.34400 43.14600 36.42400
N  50.83900 44.06400 41.69000
C  50.54700 42.87700 41.10800
C  51.74400 42.08200 41.08700
C  52.84000 42.87500 41.54900
C  52.20200 44.17200 41.96600
C  51.71600 40.64000 40.61600
C  54.28500 42.36400 41.70400
O  54.63200 41.16300 41.48900
C  55.44200 43.24900 42.12100
N  51.09600 46.85600 42.90100
C  52.38000 46.54400 42.87100
C  53.24900 47.65700 43.35000
C  52.23700 48.68700 43.84400
C  50.92200 48.06600 43.35500
C  54.32800 47.21600 44.36400
C  52.61000 50.12200 43.38000
C  52.84600 51.27400 44.38900
N  48.22600 47.05300 42.51600
C  48.41700 48.27000 43.09400
C  47.17700 49.01200 43.13100
C  46.31300 48.24400 42.31000
C  46.99200 47.05000 41.98500
C  46.88300 50.42400 43.70500
C  44.98600 48.18200 41.75200
O  44.04200 48.90700 41.80800
C  44.94900 46.90100 40.81900
C  43.75200 46.02900 41.21000
O  42.99100 45.47300 40.41100
O  43.79700 45.71100 42.56100
C  42.89300 44.65700 43.04200
H  49.22400 41.47700 40.29500
H  53.95500 45.18800 42.54200
H  49.67300 49.72400 43.79100
H  44.87300 43.71000 40.24500
H  46.72100 42.12200 39.23900
H  45.99500 40.63900 40.87400
H  45.14000 41.96000 41.53700
H  46.74800 41.53000 42.12500
H  46.52900 43.89000 37.76300
H  45.91000 45.45000 38.12700
H  43.94700 45.06400 37.30800
H  43.67700 43.58700 38.30600
H  51.72100 40.73900 39.53000
H  50.86700 40.13600 41.07600
H  52.58600 40.09600 40.98400
H  55.28700 43.59400 43.14400
H  55.47100 44.10400 41.44600
H  56.36800 42.67700 42.18400
H  53.61300 48.04400 42.39800
H  52.20100 48.69400 44.93400
H  54.31000 46.13500 44.50100
H  54.10200 47.57100 45.36900
H  55.25100 47.69500 44.03800
H  51.77700 50.49500 42.78300
H  53.56300 50.07000 42.85500
H  52.07800 52.04700 44.37300
H  53.80200 51.79900 44.37300
H  52.89900 50.81600 45.37700
H  47.78600 50.68700 44.25500
H  45.99000 50.28700 44.31500
H  46.66700 51.16800 42.93700
H  44.76700 47.13000 39.76900
H  42.08900 45.25700 43.46700
H  43.45500 44.07900 43.77600
H  42.46500 43.94700 42.33400

