158

Mg 44.57700 4.93600 47.60100
C  42.23900 7.38800 46.71600
C  42.03800 2.66400 47.02900
C  46.85100 2.58900 47.22400
C  47.12600 7.43500 47.52000
N  42.38400 5.03900 47.07500
C  41.72500 6.13200 46.73600
C  40.26800 5.86000 46.51600
C  40.15200 4.42300 47.19500
C  41.59700 4.02200 47.12900
C  39.56100 4.43800 48.65700
C  39.78100 5.83700 45.04100
C  38.62700 6.82600 44.75400
H  38.90600 7.86200 43.65200
N  44.40500 2.82700 47.36700
C  43.29200 2.14500 47.12700
C  43.63700 0.69600 47.08500
C  45.07700 0.64700 47.03700
C  45.51700 2.05500 47.23000
C  42.59600 -0.43300 47.16200
C  45.90700 -0.64100 46.85300
O  45.32700 -1.73500 46.76200
C  47.46600 -0.53300 46.66300
N  46.67800 5.04300 47.41000
C  47.36200 3.84100 47.32800
C  48.90000 4.04200 47.43900
C  48.98100 5.59100 47.60400
C  47.53500 6.06400 47.44300
C  49.62800 3.16300 48.56200
C  49.86000 6.35500 46.57900
C  50.42800 7.65600 47.06000
N  44.68300 7.06600 47.48600
C  45.81400 7.94300 47.48800
C  45.31800 9.25000 47.41400
C  43.95300 9.14000 47.03500
C  43.59000 7.79500 47.05300
C  46.21800 10.48100 47.49400
C  42.75200 9.88500 46.70100
O  42.52300 11.02400 46.58200
C  41.65000 8.74700 46.50800
C  40.53900 9.03000 47.52200
O  40.49800 8.82700 48.76200
O  39.51800 9.60000 46.82400
C  38.18300 9.62500 47.47500
H  41.17300 1.99900 47.06100
H  47.60300 1.79800 47.27100
H  47.88500 8.21900 47.46800
H  39.71700 6.66600 47.00100
H  39.48900 3.74700 46.65500
H  39.27400 5.40600 49.06900
H  40.31900 4.08800 49.35900
H  38.71100 3.76000 48.58200
H  39.50200 4.82100 44.76100
H  40.58500 6.15900 44.38000
H  38.33800 7.30500 45.68900
H  37.71500 6.24700 44.60600
H  42.65300 -1.12900 46.32500
H  41.57100 -0.08300 47.28300
H  42.95800 -1.02000 48.00600
H  48.00800 -0.16700 47.53500
H  47.54100 0.23200 45.89000
H  47.83700 -1.49100 46.29800
H  49.33700 3.78400 46.47500
H  49.23200 5.86400 48.62900
H  48.85300 2.59400 49.07600
H  50.22700 3.60500 49.35800
H  50.20100 2.46700 47.95000
H  49.15000 6.60300 45.79000
H  50.50800 5.67800 46.02200
H  50.39600 7.86900 48.12900
H  49.93600 8.45600 46.50700
H  51.48300 7.71500 46.79100
H  46.76800 10.54300 46.55500
H  46.78900 10.26500 48.39700
H  45.60400 11.36300 47.67600
H  41.22700 8.92800 45.52000
H  37.96500 10.39100 48.21900
H  37.87200 8.70900 47.97600
H  37.49700 9.73100 46.63400
Mg 48.29000 16.32100 28.19900
C  46.09700 16.04000 30.94500
C  50.42900 18.18600 30.20900
C  50.23000 16.53100 25.68900
C  45.57800 15.24600 26.12100
N  48.21000 17.03400 30.29900
C  47.29400 16.75300 31.24500
C  47.67300 17.35200 32.63500
C  48.89600 18.23100 32.30100
C  49.21500 17.81200 30.85000
C  48.76000 19.73800 32.47900
C  48.03100 16.17400 33.63100
C  47.58900 16.35500 35.01900
H  47.67300 17.81600 35.61100
N  50.13700 17.10100 28.01400
C  50.94200 17.73700 28.93700
C  52.22500 18.01500 28.34500
C  52.15400 17.52000 27.03800
C  50.80600 17.05700 26.81300
C  53.36800 18.48200 29.23400
C  53.28900 17.49700 25.95800
O  53.10900 16.94000 24.91600
C  54.64700 18.23700 26.05500
N  47.89500 16.11600 26.15800
C  48.97400 16.06400 25.34400
C  48.69100 15.33100 23.96400
C  47.10200 15.10200 24.08100
C  46.81600 15.53000 25.52900
C  49.10100 15.95200 22.55800
C  46.53300 13.67100 23.73300
C  46.79100 12.60500 24.73200
N  46.21800 15.76800 28.42700
C  45.28100 15.28500 27.49500
C  44.09700 14.82700 28.19000
C  44.37600 15.13700 29.52900
C  45.66300 15.73600 29.62600
C  42.80300 14.23800 27.69700
C  43.78200 15.15400 30.85200
O  42.63400 14.86600 31.22100
C  44.85500 15.78700 31.86400
C  44.28700 17.08300 32.32900
O  44.20800 18.10500 31.68700
O  43.94500 16.87900 33.67900
C  43.12700 18.02700 34.18500
H  51.05300 18.90100 30.74900
H  50.77400 16.45300 24.74600
H  44.85900 14.88900 25.38200
H  46.79100 17.86200 33.02200
H  49.77300 17.99600 32.90400
H  48.97500 20.29500 31.56800
H  49.41900 20.07300 33.28000
H  47.72100 19.95600 32.72900
H  49.06800 15.83900 33.60500
H  47.42200 15.33400 33.29700
H  48.20900 15.65000 35.57300
H  46.54600 16.04100 35.02100
H  53.79600 19.41800 28.87500
H  54.26400 17.87400 29.10700
H  53.08200 18.61900 30.27700
H  55.40300 17.75600 25.43400
H  55.15500 18.15600 27.01500
H  54.45900 19.28200 25.80700
H  49.08600 14.31500 23.98600
H  46.57400 15.80700 23.43900
H  48.23700 16.06800 21.90400
H  49.85500 15.32600 22.08100
H  49.55400 16.93300 22.69900
H  46.90000 13.32000 22.76900
H  45.47000 13.79900 23.52900
H  47.37200 11.76200 24.35700
H  45.90700 12.17300 25.20100
H  47.40000 12.95700 25.56500
H  42.27400 13.71000 28.49100
H  43.05400 13.49600 26.93900
H  42.01700 14.85100 27.25600
H  44.98800 15.04900 32.65600
H  42.76700 18.68600 33.39500
H  43.72800 18.57800 34.90900
H  42.21300 17.83000 34.74600

