158

Mg 36.38900 2.45600 30.54600
C  34.02800 3.63500 32.71900
C  38.62000 2.24000 33.01700
C  38.78800 1.64800 28.14100
C  34.03100 2.61200 27.84600
N  36.38000 3.09400 32.62700
C  35.25200 3.38800 33.35600
C  35.44400 3.22500 34.83400
C  37.02900 3.05200 34.88800
C  37.39500 2.77700 33.44500
C  37.91700 4.16100 35.59200
C  34.68400 2.00000 35.44900
C  34.12500 2.29100 36.84200
H  34.64000 3.48700 37.64300
N  38.42000 1.95100 30.63200
C  39.14900 1.84500 31.74800
C  40.44100 1.34400 31.42200
C  40.55700 1.17600 30.05200
C  39.22700 1.67200 29.53600
C  41.36600 1.02800 32.59400
C  41.78600 0.65000 29.25900
O  41.81900 0.67300 28.00800
C  43.00400 0.06800 30.04700
N  36.39300 2.26100 28.19300
C  37.51000 1.92800 27.53400
C  37.21700 1.78400 26.07900
C  35.63200 1.98300 25.97800
C  35.27000 2.28900 27.40300
C  38.14600 2.81800 25.23500
C  34.86700 0.87100 25.16900
C  34.72700 -0.46700 25.91800
N  34.42000 2.98400 30.27800
C  33.60000 2.96300 29.20100
C  32.21800 3.24300 29.59900
C  32.44000 3.51300 31.00300
C  33.78600 3.42900 31.32800
C  31.01300 3.23400 28.68500
C  31.70900 3.93100 32.16400
O  30.49200 4.14100 32.25500
C  32.69000 3.98700 33.29400
C  32.72600 5.29700 34.00700
O  33.24300 6.32800 33.54200
O  32.09500 5.14400 35.21900
C  32.19700 6.42600 35.92500
H  39.25900 2.10200 33.89200
H  39.62200 1.36500 27.49600
H  33.29200 2.63400 27.04200
H  35.11700 4.19700 35.20500
H  37.18500 2.08600 35.36800
H  38.90000 4.20400 35.12200
H  38.01100 3.79700 36.61500
H  37.37000 5.10400 35.60100
H  35.24700 1.07400 35.56400
H  33.86100 1.67600 34.81200
H  34.40500 1.41600 37.42900
H  33.06600 2.40300 36.61100
H  41.11800 1.36600 33.60000
H  42.33400 1.38400 32.24000
H  41.23200 -0.05200 32.66500
H  43.39600 1.04900 30.31600
H  43.50900 -0.56400 29.31700
H  42.63800 -0.59400 30.83200
H  37.41600 0.80300 25.64600
H  35.33800 2.90300 25.47200
H  38.99800 2.25100 24.86000
H  38.49900 3.73800 25.70000
H  37.49700 3.15100 24.42500
H  35.33700 0.68400 24.20300
H  33.95400 1.40900 24.91400
H  34.74800 -1.20100 25.11300
H  33.80600 -0.55400 26.49400
H  35.60400 -0.78500 26.48300
H  30.04900 3.15900 29.18900
H  31.13000 2.43800 27.95000
H  31.03300 4.19500 28.17100
H  32.37500 3.26500 34.04700
H  31.72900 7.28200 35.43800
H  33.25400 6.59300 36.13400
H  31.74300 6.25500 36.90100
Mg 41.24100 41.36900 26.67300
C  40.74700 44.11800 29.01900
C  41.87100 39.31700 29.35900
C  42.06500 39.10400 24.52000
C  41.14300 43.77200 24.19000
N  41.27500 41.73900 28.92600
C  40.91900 42.80900 29.64100
C  40.96600 42.55500 31.10700
C  41.43700 41.02600 31.32500
C  41.63600 40.70700 29.80200
C  42.74500 40.60500 32.12800
C  39.64700 42.86300 31.92500
C  39.81400 43.78900 33.19400
H  39.32100 43.25900 34.54800
N  41.80500 39.48300 26.93000
C  42.00500 38.80600 28.08700
C  42.41300 37.45800 27.82800
C  42.38400 37.33000 26.42300
C  42.07600 38.70300 25.88200
C  42.90200 36.42200 28.90400
C  42.58400 36.14000 25.53000
O  42.46600 36.17500 24.31700
C  43.12900 34.89700 26.08000
N  41.69200 41.39000 24.65000
C  41.85600 40.31200 23.94900
C  41.67800 40.56600 22.43500
C  41.35700 42.10600 22.35000
C  41.41600 42.48000 23.82900
C  42.90400 40.10300 21.57500
C  40.01100 42.48300 21.69700
C  38.69300 42.26200 22.46500
N  40.94900 43.53400 26.56500
C  41.00500 44.31700 25.45000
C  40.83100 45.66500 25.90600
C  40.78000 45.62500 27.31500
C  40.84100 44.32300 27.66700
C  40.79200 46.85300 25.09700
C  40.70600 46.40800 28.46600
O  40.69100 47.61900 28.62500
C  40.68600 45.42300 29.65800
C  41.81700 45.79500 30.52900
O  42.96600 45.34000 30.40400
O  41.42100 46.79900 31.37600
C  42.56200 47.30500 32.17500
H  42.06300 38.79000 30.29600
H  42.11900 38.45200 23.64600
H  41.05200 44.57000 23.45000
H  41.77400 43.09500 31.60000
H  40.67700 40.33200 31.68300
H  42.69300 39.60800 32.56500
H  42.70700 41.36100 32.91200
H  43.59500 40.70600 31.45200
H  39.26800 41.92100 32.32100
H  38.89300 43.39400 31.34300
H  39.15900 44.64900 33.05800
H  40.86100 43.98700 33.42400
H  43.92300 36.07400 28.74100
H  42.32200 35.50500 29.01100
H  42.89500 36.87400 29.89600
H  42.41600 34.49600 26.80000
H  44.01000 35.08700 26.69400
H  43.38000 34.22100 25.26200
H  40.76300 40.02000 22.20500
H  42.15900 42.62000 21.82000
H  43.64400 39.53700 22.14000
H  43.57300 40.77500 21.03700
H  42.52200 39.33300 20.90500
H  39.85400 42.01000 20.72800
H  40.06500 43.52700 21.38700
H  38.80100 42.03500 23.52600
H  38.17300 41.48800 21.90000
H  38.15800 43.20300 22.34300
H  40.04300 47.57100 25.42900
H  40.57100 46.69100 24.04200
H  41.75800 47.34700 24.98800
H  39.69700 45.61000 30.07500
H  43.34900 47.72400 31.54800
H  43.06900 46.48900 32.69000
H  42.28500 48.11200 32.85300

