158

Mg 26.08000 1.47600 28.99900
C  27.71000 0.85800 31.94300
C  23.08300 1.55400 30.90600
C  24.38900 2.05500 26.18500
C  28.95600 1.07300 27.21100
N  25.48100 1.20500 31.23300
C  26.37900 1.03900 32.27600
C  25.67800 1.16200 33.59800
C  24.13800 0.96100 33.17300
C  24.22200 1.16600 31.67400
C  23.43600 -0.37200 33.57000
C  26.02000 2.46300 34.37200
C  26.45700 2.28000 35.85200
H  26.15000 3.31100 36.97400
N  23.99100 1.83600 28.54700
C  23.00000 1.80500 29.46900
C  21.74100 2.08300 28.81600
C  22.03200 2.34800 27.45700
C  23.53300 2.06200 27.29900
C  20.46200 2.24500 29.59600
C  21.10100 2.75300 26.25300
O  21.53300 2.92900 25.13800
C  19.60100 2.93900 26.56100
N  26.63900 1.51000 26.97100
C  25.76000 1.78400 25.96400
C  26.47100 1.79100 24.65600
C  28.02000 1.57500 25.00400
C  27.91000 1.45800 26.48500
C  25.89100 0.71900 23.60600
C  28.92700 2.76900 24.49000
C  29.92600 2.48300 23.41000
N  27.91500 0.81300 29.37400
C  28.95700 0.73600 28.57400
C  30.14100 0.33700 29.37900
C  29.66900 0.44500 30.65400
C  28.32400 0.77900 30.63700
C  31.47900 -0.01600 28.94000
C  30.13500 0.42500 32.03600
O  31.21400 0.24200 32.58400
C  28.84000 0.65900 32.92400
C  28.68500 -0.46300 33.81400
O  28.23900 -1.54200 33.40200
O  29.08800 -0.20900 35.11200
C  28.86900 -1.25800 36.15500
H  22.13300 1.56800 31.44400
H  23.89700 2.27900 25.23700
H  29.91000 0.91900 26.70300
H  25.89800 0.27000 34.18500
H  23.62600 1.77300 33.69100
H  22.39400 -0.11400 33.75800
H  23.81900 -0.78500 34.50300
H  23.46400 -0.97400 32.66200
H  25.11800 3.07400 34.34300
H  26.81200 3.01400 33.86600
H  27.53500 2.19700 35.71400
H  26.09200 1.32200 36.22200
H  19.85300 1.34900 29.47300
H  19.74100 3.01700 29.32600
H  20.52400 2.58000 30.63100
H  18.99100 3.15200 25.68300
H  19.54100 3.69400 27.34500
H  19.20800 2.05200 27.05700
H  26.40800 2.73800 24.12000
H  28.37400 0.64700 24.55600
H  24.98600 0.23600 23.97400
H  26.59100 -0.07500 23.34600
H  25.75400 1.28900 22.68700
H  29.43300 3.25000 25.32700
H  28.32300 3.57300 24.06900
H  29.79900 1.43300 23.14900
H  30.95400 2.65300 23.72700
H  29.71400 3.09600 22.53300
H  31.88200 0.86100 28.43300
H  31.26900 -0.82800 28.24400
H  32.07200 -0.30900 29.80600
H  29.13900 1.50100 33.54800
H  28.07600 -0.82700 36.76700
H  29.76200 -1.25400 36.78000
H  28.71500 -2.26700 35.77400
Mg -1.51400 34.70900 27.18600
C  -3.25000 32.77100 29.61600
C  -0.24900 36.65900 29.53900
C  0.06800 36.22800 24.62600
C  -3.20300 32.64300 24.70400
N  -1.89600 34.86500 29.33000
C  -2.51000 33.89500 30.15700
C  -2.41300 34.31400 31.64000
C  -1.57500 35.57600 31.59100
C  -1.12300 35.65400 30.07100
C  -2.27000 36.86700 32.14600
C  -1.81100 33.13800 32.51800
C  -1.07200 33.41900 33.89900
H  -1.58500 32.69600 35.12900
N  -0.40900 36.32000 27.08600
C  0.01900 37.01100 28.15400
C  0.84500 38.11100 27.73200
C  0.97300 37.97900 26.33400
C  0.21700 36.77500 25.91800
C  1.55600 39.03300 28.74800
C  1.78200 38.94200 25.33200
O  1.71900 38.75700 24.14600
C  2.62900 40.04600 25.71300
N  -1.64400 34.53800 25.05800
C  -0.80800 35.20000 24.23400
C  -0.80400 34.69500 22.76600
C  -1.86600 33.61600 22.80700
C  -2.26400 33.55500 24.29300
C  -1.05100 35.78700 21.68300
C  -1.20700 32.23100 22.25200
C  -0.27700 31.58700 23.27900
N  -2.98000 33.11100 27.14700
C  -3.54300 32.41200 26.07000
C  -4.38600 31.34000 26.61200
C  -4.31400 31.43900 28.00200
C  -3.39200 32.48900 28.26900
C  -5.22000 30.35200 25.83100
C  -4.74300 30.88700 29.19700
O  -5.51200 30.02000 29.45200
C  -4.14800 31.81600 30.36100
C  -5.29100 32.35900 31.17300
O  -6.32100 32.85500 30.68400
O  -5.04300 32.17000 32.42700
C  -5.98700 32.68800 33.44700
H  0.41200 37.10000 30.28800
H  0.51500 36.80600 23.81400
H  -3.58800 31.93600 23.96600
H  -3.43800 34.49000 31.96700
H  -0.64600 35.55700 32.16100
H  -2.40000 37.54400 31.30100
H  -1.74700 37.41000 32.93300
H  -3.29000 36.64500 32.46100
H  -1.08800 32.62800 31.88100
H  -2.59100 32.41700 32.76600
H  -1.34900 34.47000 33.97800
H  0.01700 33.38400 33.85900
H  1.08100 40.00800 28.64100
H  2.62200 39.06400 28.52400
H  1.43700 38.73100 29.78900
H  2.01400 40.90100 25.99500
H  3.11300 40.30600 24.77100
H  3.40100 39.82100 26.44900
H  0.19700 34.32800 22.53800
H  -2.75600 33.85700 22.22700
H  -0.26700 35.97100 20.94900
H  -1.28100 36.76000 22.11800
H  -1.94600 35.57900 21.09800
H  -0.60700 32.30400 21.34500
H  -2.06000 31.56500 22.11900
H  -0.67900 30.57500 23.23000
H  -0.31100 31.97500 24.29700
H  0.74700 31.46700 22.92500
H  -5.03000 30.54800 24.77600
H  -6.26700 30.49300 26.09800
H  -4.83900 29.38700 26.16400
H  -3.61000 31.24500 31.11900
H  -6.81700 33.07900 32.85900
H  -5.51100 33.51700 33.97100
H  -6.19700 31.89100 34.16000

