158

Mg 49.40500 45.20800 43.01100
C  45.93200 45.09700 42.45900
C  49.40900 41.78300 42.68300
C  52.69400 45.32600 43.21600
C  49.10900 48.71300 43.04500
N  47.81200 43.65500 42.62200
C  46.49900 43.85100 42.41600
C  45.67200 42.53600 42.16700
C  46.88200 41.48100 42.43000
C  48.13000 42.33500 42.61500
C  46.61400 40.49600 43.60800
C  45.01100 42.41700 40.73100
C  45.67500 43.00600 39.48800
H  45.77000 42.27700 38.16800
N  50.87000 43.72100 42.97200
C  50.68900 42.42200 42.88000
C  51.93000 41.69600 42.92000
C  52.91300 42.73500 42.99100
C  52.21100 44.00900 43.05200
C  52.06100 40.19000 42.84000
C  54.43600 42.48700 42.99700
O  54.96300 41.37700 43.09800
C  55.50200 43.60900 42.99500
N  50.76600 46.77900 43.08600
C  52.09700 46.61700 43.18100
C  52.76800 47.92800 43.44400
C  51.69700 49.03100 43.07000
C  50.44800 48.11600 43.04900
C  53.33900 48.04200 44.85800
C  51.87800 49.77000 41.71400
C  51.25900 51.20600 41.77500
N  47.88000 46.68300 42.77700
C  47.91400 48.06700 42.86800
C  46.65000 48.60400 42.60500
C  45.81300 47.52800 42.48800
C  46.59300 46.35100 42.58800
C  46.28900 50.01700 42.38900
C  44.45100 47.17600 42.19200
O  43.46600 47.82200 41.89200
C  44.47400 45.54500 42.16800
C  43.35400 44.93500 42.94700
O  42.67300 44.01800 42.50800
O  43.20800 45.51100 44.19800
C  42.11400 44.92900 44.92200
H  49.58300 40.70600 42.69700
H  53.75300 45.32800 43.48100
H  49.04900 49.80400 43.02900
H  44.82500 42.44400 42.84600
H  47.03600 40.92800 41.50300
H  45.54300 40.63000 43.75900
H  47.13300 40.74000 44.53500
H  46.74200 39.46400 43.28200
H  43.95400 42.68200 40.76400
H  44.91800 41.34100 40.57900
H  46.64800 43.37300 39.81500
H  45.18500 43.95200 39.26000
H  53.09200 39.88600 42.65700
H  51.46500 39.73900 42.04600
H  51.73100 39.66700 43.73700
H  55.23600 44.34200 42.23400
H  56.45800 43.18000 42.69300
H  55.63300 44.00900 44.00100
H  53.57900 47.91000 42.71500
H  51.66000 49.81200 43.82900
H  52.81200 48.76700 45.47900
H  54.35900 48.42400 44.81000
H  53.31500 47.03700 45.28000
H  51.43800 49.16100 40.92400
H  52.95200 49.72800 41.53200
H  50.85000 51.59200 40.84100
H  51.98800 51.94300 42.11100
H  50.48300 51.20100 42.54100
H  46.33100 50.62400 43.29300
H  45.34700 50.14100 41.85400
H  47.08300 50.39100 41.74300
H  44.19100 45.29500 41.14600
H  42.06900 45.29300 45.94800
H  42.13800 43.84200 44.84200
H  41.17300 45.22200 44.45600
Mg -1.24000 34.28000 26.40400
C  -2.86600 32.54600 28.96800
C  0.35800 36.16200 28.77400
C  -0.08400 35.98900 23.88700
C  -3.17300 32.40000 24.16600
N  -1.41400 34.39400 28.70500
C  -2.06000 33.55400 29.57700
C  -1.77700 33.90000 31.03900
C  -0.92700 35.19200 30.90800
C  -0.62500 35.27900 29.33000
C  -1.58800 36.46100 31.51500
C  -0.97400 32.80100 31.82400
C  -1.47700 32.69900 33.33100
H  -0.40700 32.68200 34.43900
N  0.03400 35.74000 26.35500
C  0.62000 36.41100 27.39400
C  1.66100 37.27000 26.82400
C  1.61800 37.15200 25.40200
C  0.45400 36.27600 25.16500
C  2.53100 38.13100 27.71500
C  2.50800 37.73200 24.24400
O  2.37200 37.52500 23.08600
C  3.67200 38.53100 24.64300
N  -1.71700 34.26000 24.33700
C  -1.04200 35.05600 23.51000
C  -1.55000 34.90700 22.12900
C  -2.10100 33.42500 22.15900
C  -2.35100 33.36600 23.60000
C  -2.65300 36.01600 21.65700
C  -1.02000 32.33000 21.77700
C  -0.81600 32.22600 20.19300
N  -2.73000 32.82600 26.51700
C  -3.39200 32.12400 25.50600
C  -4.32800 31.22700 26.09600
C  -4.09500 31.21700 27.47000
C  -3.15600 32.34600 27.65300
C  -5.34200 30.37000 25.47600
C  -4.45800 30.73200 28.76500
O  -5.11100 29.78800 29.19100
C  -3.73200 31.62400 29.82500
C  -4.67800 32.27200 30.72500
O  -5.47000 33.18500 30.45100
O  -4.50400 31.71200 31.97000
C  -5.11700 32.50600 32.97500
H  0.91800 36.70900 29.53500
H  0.27400 36.52000 23.00200
H  -3.70200 31.81600 23.41000
H  -2.75400 34.04700 31.50100
H  0.09600 35.16100 31.28300
H  -2.55000 36.07700 31.85400
H  -1.85000 37.26500 30.82700
H  -1.01400 36.88500 32.33900
H  0.07100 33.08700 31.70600
H  -1.11200 31.79900 31.41700
H  -2.02900 31.78100 33.53100
H  -2.09800 33.57700 33.50800
H  2.38400 37.92500 28.77500
H  2.24800 39.16000 27.49600
H  3.54800 37.87800 27.41400
H  4.48900 37.87500 24.94400
H  3.43000 39.35800 25.31100
H  3.83300 39.02800 23.68600
H  -0.79200 34.80600 21.35200
H  -3.05600 33.55500 21.65100
H  -3.04100 36.44200 22.58200
H  -3.46100 35.54900 21.09400
H  -2.08900 36.76300 21.09800
H  -1.43000 31.36800 22.08400
H  -0.13800 32.67400 22.31600
H  -0.83100 31.22200 19.77000
H  0.11300 32.69800 19.87200
H  -1.55600 32.85600 19.69900
H  -5.21700 29.29000 25.55800
H  -5.55800 30.69300 24.45700
H  -6.31600 30.64000 25.88500
H  -3.14400 30.96400 30.46300
H  -4.75400 33.53400 32.97500
H  -5.07800 32.04100 33.96000
H  -6.19900 32.39200 32.90000

