158

Mg 47.65000 24.11400 27.67700
C  48.56500 26.10500 30.44400
C  47.09500 21.55500 30.12100
C  47.00100 22.00300 25.32400
C  48.81100 26.51100 25.54400
N  47.65400 23.87900 30.04700
C  48.05500 24.90000 30.94500
C  47.94100 24.46500 32.43500
C  47.43400 22.96400 32.33200
C  47.44600 22.73400 30.73500
C  48.42100 21.96600 33.01200
C  47.03400 25.36100 33.30900
C  47.65500 25.90400 34.64300
H  46.58700 26.31900 35.64800
N  47.04400 22.06200 27.69300
C  46.87100 21.22500 28.76600
C  46.32500 19.91900 28.27900
C  46.30600 20.02300 26.87600
C  46.83600 21.37100 26.55700
C  45.92600 18.73700 29.08400
C  45.73100 19.02600 25.88500
O  45.93900 19.21600 24.69000
C  45.20600 17.65900 26.29900
N  47.76800 24.34600 25.72700
C  47.38900 23.29100 24.88600
C  47.14600 23.78100 23.42600
C  47.77400 25.29500 23.54900
C  48.25300 25.36500 24.97100
C  47.91000 22.92200 22.40700
C  46.77200 26.37800 23.15000
C  46.73600 26.57700 21.71400
N  48.39900 25.99600 27.91100
C  48.80800 26.85100 26.91700
C  49.35100 28.05700 27.53500
C  49.28000 27.81600 28.91000
C  48.67300 26.55800 29.08000
C  49.87800 29.19900 26.84000
C  49.49800 28.38400 30.23700
O  49.85600 29.50800 30.54100
C  49.13700 27.29500 31.22400
C  50.37400 26.92300 31.90600
O  51.14500 26.05200 31.52800
O  50.46900 27.67100 33.02500
C  51.53000 27.06600 33.89800
H  46.84200 20.75500 30.82000
H  46.75100 21.40000 24.44800
H  49.14300 27.35800 24.94000
H  48.94500 24.56100 32.84700
H  46.41400 22.86200 32.70400
H  49.02000 22.63200 33.63200
H  49.05000 21.37300 32.34900
H  47.91100 21.37600 33.77300
H  46.14500 24.83500 33.65700
H  46.67100 26.16300 32.66700
H  48.27100 26.75100 34.34100
H  48.39200 25.15000 34.92200
H  46.75700 18.04000 28.98200
H  44.92000 18.41500 28.81200
H  45.77700 18.96800 30.13900
H  45.86500 17.15000 27.00300
H  45.18700 17.04900 25.39600
H  44.21000 17.70200 26.73800
H  46.05600 23.78700 23.42900
H  48.65000 25.41000 22.91100
H  48.22500 22.07200 23.01200
H  48.74700 23.41100 21.90900
H  47.34300 22.54500 21.55500
H  47.07200 27.33600 23.57600
H  45.74100 26.16200 23.43000
H  47.68300 26.39000 21.21000
H  46.49600 27.61200 21.46900
H  46.01900 25.94300 21.19300
H  49.61200 29.22000 25.78300
H  50.95100 29.37000 26.93100
H  49.40700 30.06700 27.30200
H  48.56900 27.81600 31.99400
H  51.53700 27.76900 34.73100
H  52.53500 27.04300 33.47500
H  51.36800 26.02500 34.17800
Mg 34.49600 47.59300 24.69200
C  35.09500 46.21200 27.86700
C  32.87000 50.32700 26.09900
C  33.62900 48.58400 21.65600
C  36.22800 44.94100 23.25400
N  34.07400 48.29300 26.77500
C  34.36300 47.51000 27.86900
C  33.91200 48.27800 29.17000
C  33.18800 49.57100 28.55400
C  33.36700 49.42500 27.07100
C  31.70200 49.85700 29.06600
C  35.00500 48.38000 30.24500
C  34.76400 47.68500 31.58200
H  33.40000 47.57100 32.24500
N  33.47700 49.30500 23.99800
C  32.88300 50.29400 24.72500
C  32.29800 51.27500 23.79200
C  32.33300 50.69900 22.55100
C  33.14100 49.43400 22.69700
C  31.72200 52.69700 24.28500
C  31.83500 51.25500 21.23500
O  31.84200 50.66200 20.17300
C  31.09400 52.60900 21.21400
N  34.90500 46.86100 22.72700
C  34.50500 47.50900 21.66000
C  35.13000 46.90500 20.36800
C  36.08600 45.84600 20.96500
C  35.76600 45.89800 22.38600
C  34.19200 46.37400 19.22100
C  37.55200 45.96000 20.55900
C  38.45600 44.68600 20.62700
N  35.39500 45.97000 25.36500
C  36.03300 44.91200 24.63300
C  36.39400 43.85000 25.59500
C  36.05400 44.25900 26.89000
C  35.49100 45.58700 26.65900
C  37.09600 42.55100 25.21700
C  36.05700 43.88600 28.29500
O  36.48200 42.88200 28.87800
C  35.36500 45.11700 29.02900
C  34.06400 44.71700 29.77200
O  32.92500 44.59800 29.27200
O  34.32100 44.47400 31.12000
C  33.21000 43.77300 31.80300
H  32.50700 51.26300 26.52900
H  33.37100 48.94500 20.65900
H  36.76800 44.05900 22.90500
H  33.09800 47.68800 29.59100
H  33.67600 50.46000 28.95300
H  31.05100 49.91900 28.19400
H  31.65400 50.84400 29.52600
H  31.41000 49.06200 29.75300
H  35.06400 49.45200 30.42900
H  35.95800 48.03300 29.84500
H  35.27000 48.31500 32.31400
H  35.19400 46.68500 31.63500
H  32.23900 53.48900 23.74200
H  31.96400 52.79300 25.34300
H  30.66200 52.81100 24.05800
H  31.80200 53.33800 21.61100
H  30.15600 52.72800 21.75700
H  30.76300 52.84100 20.20200
H  35.74500 47.68500 19.91900
H  35.76000 44.82300 20.77600
H  33.18000 46.52400 19.59600
H  34.31300 45.30000 19.08100
H  34.27600 46.85000 18.24400
H  37.97600 46.66100 21.27700
H  37.58100 46.46200 19.59200
H  39.24900 44.83900 21.35900
H  38.87200 44.58000 19.62500
H  37.87000 43.82000 20.93300
H  37.94700 42.71400 24.55600
H  36.47200 41.81200 24.71300
H  37.54900 42.16100 26.12900
H  35.96300 45.44200 29.88000
H  33.68500 43.42600 32.72000
H  32.78500 42.95900 31.21600
H  32.39700 44.46600 32.02000

