158

Mg 17.17400 -1.52000 27.77600
C  15.89300 0.28300 30.48800
C  19.32000 -2.96400 30.03400
C  18.46700 -3.17200 25.20800
C  15.10200 0.23000 25.46600
N  17.41300 -1.39400 30.02500
C  16.91600 -0.55200 30.89100
C  17.42100 -0.71500 32.33000
C  18.75500 -1.56200 32.12800
C  18.46800 -1.95800 30.63200
C  20.03600 -0.78200 32.52700
C  16.42100 -1.44100 33.17400
C  16.50100 -1.17400 34.73800
H  17.72500 -0.53000 35.33900
N  18.74400 -2.86900 27.63200
C  19.38600 -3.40700 28.65100
C  20.24700 -4.48900 28.06500
C  19.96400 -4.62300 26.69500
C  19.05400 -3.53400 26.46100
C  21.13000 -5.39900 28.96400
C  20.59500 -5.52500 25.63100
O  20.38700 -5.42300 24.45700
C  21.43100 -6.76900 26.02700
N  16.75400 -1.55400 25.58400
C  17.62200 -2.12600 24.77800
C  17.30100 -1.89600 23.30600
C  16.18400 -0.79700 23.34700
C  15.98800 -0.68300 24.91600
C  18.50700 -1.70000 22.42300
C  14.91100 -1.00400 22.49700
C  15.05200 -0.86300 21.00300
N  15.77000 -0.11000 27.85400
C  14.92900 0.52400 26.88300
C  13.96000 1.34200 27.63700
C  14.28200 1.26000 28.99700
C  15.46400 0.37500 29.12600
C  12.86100 2.06000 26.97000
C  13.91900 1.63300 30.32300
O  13.05600 2.41100 30.70000
C  14.92100 1.03400 31.34300
C  15.52400 2.20100 32.12600
O  16.31000 3.01500 31.65800
O  15.13000 2.10700 33.46600
C  15.90800 3.01500 34.25900
H  20.07900 -3.42500 30.67000
H  18.83400 -3.75800 24.36300
H  14.38700 0.70500 24.79200
H  17.47600 0.26200 32.81000
H  18.74700 -2.45000 32.76000
H  19.90200 0.19000 33.00100
H  20.60500 -0.66400 31.60400
H  20.63000 -1.55500 33.01400
H  16.54500 -2.51100 33.00500
H  15.37200 -1.17400 33.04600
H  16.46500 -2.15200 35.21600
H  15.53500 -0.74900 35.01100
H  20.72500 -6.40900 29.01900
H  21.10500 -5.16100 30.02700
H  22.12400 -5.51900 28.53300
H  22.39700 -6.45100 26.41900
H  21.43800 -7.58500 25.30500
H  20.92800 -7.28700 26.84400
H  16.93900 -2.86600 22.96300
H  16.68800 0.08500 22.95200
H  19.43100 -1.90700 22.96300
H  18.60300 -0.66500 22.09400
H  18.51200 -2.36800 21.56200
H  14.24900 -0.18300 22.77100
H  14.30500 -1.88700 22.69600
H  16.02700 -0.55400 20.62600
H  14.35100 -0.06400 20.76500
H  14.74300 -1.80400 20.54600
H  12.99100 2.37000 25.93400
H  12.54100 2.94800 27.51500
H  12.06600 1.31400 26.99600
H  14.39900 0.47700 32.12000
H  16.96200 3.10400 33.99500
H  15.85800 2.72000 35.30700
H  15.42000 3.98900 34.23100
Mg 47.35300 25.63300 27.84700
C  48.46400 27.70100 30.41400
C  46.81500 23.15000 30.15300
C  46.94300 23.53500 25.36200
C  48.54800 28.09900 25.63100
N  47.56700 25.50900 29.97900
C  47.96000 26.53700 30.87600
C  47.66400 26.11300 32.35800
C  47.39800 24.61700 32.20100
C  47.22300 24.35900 30.66100
C  48.53900 23.79500 32.89700
C  46.69400 27.01100 33.26800
C  47.34900 27.55900 34.49800
H  46.39000 28.07000 35.63600
N  46.95000 23.63800 27.74800
C  46.64400 22.81900 28.80700
C  46.01500 21.59700 28.32600
C  46.08800 21.67600 26.89600
C  46.76900 22.92900 26.62000
C  45.45700 20.47900 29.27700
C  45.71300 20.64000 25.89000
O  45.87600 20.69500 24.63300
C  45.12000 19.33900 26.36200
N  47.69600 25.79400 25.79000
C  47.44400 24.79700 24.90800
C  47.55700 25.26100 23.48300
C  48.02600 26.71900 23.50600
C  47.97100 26.94300 25.03600
C  48.25600 24.30000 22.38800
C  47.19000 27.76100 22.72500
C  47.94200 28.50900 21.61500
N  48.24500 27.49200 27.90400
C  48.69200 28.35400 26.97900
C  49.24500 29.61900 27.53500
C  49.09600 29.41300 28.89100
C  48.56700 28.02200 29.08400
C  49.87200 30.81100 26.84500
C  49.22900 29.99400 30.20000
O  49.67300 31.08200 30.51500
C  48.84600 28.89100 31.24900
C  50.08700 28.83600 32.11300
O  51.12800 28.29100 31.80800
O  49.82100 29.27300 33.39500
C  50.87100 29.05100 34.41900
H  46.62400 22.37700 30.90100
H  46.66300 22.94100 24.48900
H  48.97000 28.77900 24.88800
H  48.66200 26.33300 32.73800
H  46.43500 24.33900 32.63100
H  48.01100 23.04500 33.48700
H  49.01900 24.37600 33.68500
H  49.11600 23.25200 32.14900
H  45.92700 26.36300 33.69200
H  46.15000 27.80100 32.74900
H  47.95000 28.41800 34.19900
H  48.06600 26.90000 34.98700
H  45.52200 20.78300 30.32200
H  46.08300 19.59200 29.38200
H  44.41000 20.24400 29.08800
H  45.85200 18.77400 26.93800
H  44.93100 18.79300 25.43800
H  44.17600 19.51800 26.87700
H  46.51300 25.37000 23.18500
H  49.05800 26.85700 23.18400
H  49.01100 23.73100 22.92900
H  48.63800 25.02700 21.67100
H  47.43000 23.68700 22.02900
H  46.69400 28.50000 23.35500
H  46.44400 27.24300 22.12300
H  48.17200 27.80000 20.81900
H  48.78200 29.01700 22.08800
H  47.31100 29.34200 21.30500
H  49.32900 31.02500 25.92500
H  50.88100 30.46900 26.61600
H  49.91600 31.73200 27.42800
H  48.06500 29.34400 31.86000
H  50.57400 28.27700 35.12700
H  51.03400 29.93800 35.03000
H  51.89800 28.97600 34.06300

