158

Mg 26.83900 50.77300 25.52900
C  25.12400 52.11300 28.15200
C  29.57300 50.13300 27.75600
C  28.73600 49.79300 22.91700
C  24.48100 52.20900 23.35700
N  27.26300 51.06300 27.77400
C  26.29900 51.52800 28.59500
C  26.63100 51.13200 30.01300
C  28.21600 50.80800 29.89900
C  28.41000 50.61400 28.39200
C  29.16700 51.87400 30.46500
C  25.76800 50.13000 30.77500
C  25.35900 50.42900 32.23100
H  26.47800 50.59100 33.24100
N  28.77800 49.88900 25.36500
C  29.70400 49.71500 26.39100
C  30.83900 48.97600 25.89300
C  30.57700 48.76700 24.48400
C  29.35800 49.47300 24.16000
C  32.00700 48.36300 26.66100
C  31.43600 47.89700 23.51800
O  31.08600 47.61500 22.43000
C  32.72700 47.33600 23.99100
N  26.64800 51.04000 23.40700
C  27.61000 50.51500 22.55700
C  27.23800 50.81000 21.05100
C  25.76400 51.37100 21.17700
C  25.61400 51.59600 22.74100
C  28.22700 51.60600 20.16500
C  24.53200 50.47300 20.69400
C  24.22800 49.19700 21.50300
N  25.11300 51.78100 25.64000
C  24.21500 52.30800 24.68700
C  23.08600 52.93700 25.37000
C  23.43200 52.85900 26.76600
C  24.67400 52.23100 26.85100
C  21.94900 53.63800 24.75500
C  22.96400 53.20000 28.12100
O  21.90400 53.69400 28.40600
C  24.06900 52.75700 29.06200
C  24.52900 53.78200 30.04500
O  25.34100 54.66600 29.76700
O  23.68300 53.84200 31.15400
C  23.87100 54.94000 32.09000
H  30.43600 49.95800 28.40100
H  29.34700 49.42000 22.09300
H  23.72100 52.52300 22.63900
H  26.67900 52.05600 30.59000
H  28.50500 49.84100 30.31000
H  30.00400 52.15600 29.82500
H  29.53400 51.40700 31.37800
H  28.87500 52.90000 30.69000
H  26.34000 49.20900 30.88000
H  24.86000 49.96300 30.19600
H  24.73600 49.54300 32.35300
H  24.68200 51.27100 32.37800
H  31.86400 48.44800 27.73900
H  32.97000 48.83100 26.45900
H  31.99800 47.27300 26.65000
H  33.15200 46.88000 23.09700
H  32.50600 46.52600 24.68600
H  33.45200 47.99800 24.46500
H  27.14300 49.82700 20.59000
H  25.79400 52.35600 20.70900
H  29.03600 51.82900 20.86100
H  27.88500 52.55300 19.74600
H  28.54500 50.94000 19.36200
H  24.80300 50.02600 19.73800
H  23.59300 51.01400 20.57700
H  24.74100 49.19500 22.46500
H  24.61100 48.32000 20.98100
H  23.19600 49.06900 21.82700
H  22.32400 54.18900 23.89300
H  21.49300 54.21100 25.56200
H  21.13400 52.98400 24.44300
H  23.61000 51.97200 29.66300
H  24.61600 54.67800 32.84100
H  22.89500 55.12100 32.54200
H  24.27100 55.78800 31.53400
Mg -1.50900 35.25700 26.42200
C  -2.86300 33.32400 28.92300
C  -0.75400 37.70200 28.73700
C  -0.09200 36.97600 23.91500
C  -2.94500 33.05100 24.02000
N  -2.01200 35.53400 28.62200
C  -2.42300 34.53600 29.45900
C  -2.24500 34.99800 30.91100
C  -1.64800 36.52900 30.76100
C  -1.48500 36.63500 29.27000
C  -2.63500 37.58400 31.33500
C  -1.18200 34.10300 31.68700
C  -1.50300 33.26900 32.87500
H  -0.62400 33.36000 34.13000
N  -0.53800 37.02200 26.30800
C  -0.34900 37.88900 27.38000
C  0.51600 38.94200 26.92000
C  0.68400 38.79500 25.49500
C  0.03300 37.51400 25.19000
C  1.15600 39.95000 27.83300
C  1.38900 39.73300 24.56000
O  1.64100 39.45700 23.37400
C  1.88000 41.03600 25.05600
N  -1.49300 35.00800 24.29200
C  -0.71500 35.77000 23.47900
C  -0.67400 35.35100 21.95700
C  -1.48800 33.99200 22.12100
C  -2.08100 34.06600 23.57700
C  -1.28400 36.29400 20.93500
C  -0.67800 32.70200 21.76000
C  0.48200 32.39900 22.78200
N  -2.89500 33.68800 26.45000
C  -3.36300 32.94000 25.40100
C  -4.15400 31.94200 25.97300
C  -3.91000 31.95700 27.35600
C  -3.24800 33.16500 27.57900
C  -4.95000 30.91200 25.15700
C  -4.18900 31.22700 28.56100
O  -4.89900 30.23400 28.72100
C  -3.42500 32.11800 29.69200
C  -4.41000 32.35600 30.82800
O  -5.18900 33.24400 30.91400
O  -4.17300 31.39000 31.68600
C  -5.18700 31.34600 32.78300
H  -0.35400 38.37400 29.49900
H  0.22800 37.59500 23.07300
H  -3.36200 32.31100 23.33400
H  -3.16800 34.93200 31.48800
H  -0.66700 36.60900 31.22900
H  -3.37700 36.98400 31.86100
H  -3.03100 38.13400 30.48100
H  -2.19600 38.27400 32.05600
H  -0.27300 34.68500 31.83900
H  -0.99700 33.25900 31.02200
H  -1.47000 32.24600 32.50000
H  -2.50900 33.65900 33.02500
H  0.83500 39.89000 28.87300
H  1.04100 40.94300 27.39700
H  2.23000 39.76600 27.85400
H  2.61200 40.83700 25.83900
H  0.98400 41.53400 25.42700
H  2.23200 41.59600 24.18900
H  0.35100 35.08500 21.69600
H  -2.39700 33.99700 21.51900
H  -2.20900 35.87100 20.54300
H  -0.66900 36.36700 20.03800
H  -1.49500 37.27600 21.35900
H  -0.25700 32.91300 20.77700
H  -1.21700 31.75800 21.68200
H  0.20800 31.41700 23.16800
H  0.41600 33.08500 23.62700
H  1.44800 32.46800 22.28200
H  -5.96100 31.31400 25.08900
H  -5.05000 29.97000 25.69600
H  -4.45400 30.78700 24.19500
H  -2.60200 31.56400 30.14400
H  -5.19100 30.36200 33.25200
H  -6.20200 31.65800 32.53500
H  -4.73200 32.08300 33.44300

