158

Mg -1.48300 17.78400 27.24500
C  -1.86900 15.32100 29.72700
C  -2.06500 20.16800 29.48100
C  -1.36900 19.89400 24.67200
C  -1.58300 15.03400 24.73900
N  -1.91200 17.66400 29.41200
C  -1.96500 16.62800 30.26100
C  -2.31400 17.17900 31.65700
C  -2.60900 18.67600 31.40500
C  -2.18700 18.87400 29.96300
C  -4.02500 19.09500 31.74500
C  -1.16900 16.84800 32.69000
C  -1.59000 16.06300 33.94800
H  -0.44200 15.98700 34.99000
N  -1.61400 19.76500 27.04800
C  -1.70100 20.58400 28.16600
C  -1.57200 21.92900 27.73800
C  -1.38200 21.91000 26.38200
C  -1.37400 20.53100 25.97700
C  -1.82200 23.15300 28.62300
C  -1.13200 22.99800 25.38600
O  -1.03300 22.84200 24.18800
C  -1.02000 24.41200 25.85300
N  -1.45100 17.46600 25.05100
C  -1.46600 18.57400 24.25100
C  -1.83300 18.16600 22.78700
C  -1.67500 16.63600 22.80100
C  -1.54500 16.40600 24.28100
C  -3.22900 18.51300 22.31400
C  -0.47600 15.98900 22.03100
C  0.99400 16.28800 22.56100
N  -1.56800 15.64700 27.19000
C  -1.54800 14.72600 26.14100
C  -1.76900 13.38700 26.70400
C  -1.90400 13.58700 28.08900
C  -1.74300 14.98100 28.32100
C  -2.09100 12.20700 25.92200
C  -2.17900 12.90700 29.29400
O  -2.30100 11.68600 29.51100
C  -2.22200 13.98900 30.43200
C  -1.11500 13.58500 31.42000
O  0.04800 13.97100 31.34000
O  -1.55200 12.93000 32.52900
C  -0.62300 12.55000 33.64500
H  -2.15500 21.02000 30.15800
H  -1.52500 20.50300 23.77900
H  -1.66000 14.21000 24.02800
H  -3.20700 16.70700 32.06700
H  -1.99300 19.39900 31.94100
H  -4.55900 18.49000 32.47800
H  -4.52000 19.19900 30.78000
H  -3.96600 20.12100 32.11000
H  -0.79500 17.82900 32.98200
H  -0.37900 16.35400 32.12400
H  -1.82700 15.04400 33.63900
H  -2.40600 16.63500 34.39000
H  -2.67400 23.75700 28.31000
H  -0.89300 23.69800 28.78600
H  -2.18400 22.99600 29.63900
H  -1.93700 24.70100 26.36600
H  -0.86900 25.03000 24.96800
H  -0.29000 24.41000 26.66300
H  -1.12200 18.64900 22.11600
H  -2.56700 16.12700 22.43800
H  -3.59800 18.96200 23.23700
H  -3.85000 17.63400 22.14500
H  -3.22300 19.17100 21.44500
H  -0.57200 16.34100 21.00400
H  -0.53500 14.90100 21.99700
H  1.02500 16.75500 23.54500
H  1.49200 16.92000 21.82500
H  1.60700 15.39900 22.71000
H  -2.22800 11.46700 26.71000
H  -1.34300 11.84700 25.21600
H  -3.05400 12.41700 25.45700
H  -3.22400 13.93200 30.85600
H  -0.01100 11.68700 33.38400
H  -1.14400 12.35800 34.58400
H  0.06500 13.39000 33.73600
Mg 26.92100 50.48400 25.59000
C  25.13400 51.70100 28.30200
C  29.69100 49.93400 27.62900
C  28.80700 49.75000 22.87300
C  24.51700 51.87100 23.46100
N  27.32200 50.50100 27.82100
C  26.37800 51.11800 28.71000
C  26.89300 51.04600 30.14500
C  28.42400 50.56400 29.85100
C  28.51700 50.40900 28.35800
C  29.42400 51.57300 30.51000
C  26.00400 50.08900 31.02200
C  25.35800 50.75800 32.22700
H  26.23700 50.88500 33.46700
N  28.85600 49.72600 25.30500
C  29.89200 49.58000 26.29800
C  31.04900 48.86500 25.66300
C  30.65800 48.75000 24.27400
C  29.44700 49.41900 24.06200
C  32.35300 48.57100 26.40900
C  31.30900 48.01500 23.21500
O  30.92400 47.96100 22.01700
C  32.63700 47.32200 23.53400
N  26.58900 50.56700 23.51800
C  27.58400 50.35100 22.63100
C  27.14700 50.68900 21.12900
C  25.63800 51.19500 21.38700
C  25.56700 51.14700 22.88200
C  28.12300 51.66900 20.44600
C  24.52100 50.36400 20.67100
C  23.73500 51.14200 19.58200
N  25.16900 51.47000 25.81100
C  24.26000 51.94100 24.90500
C  23.09900 52.56600 25.57500
C  23.43900 52.47300 26.90800
C  24.61700 51.74800 26.98900
C  22.06700 53.31200 24.87400
C  22.93600 52.77000 28.14900
O  21.91600 53.37100 28.54100
C  24.02400 52.31600 29.15300
C  24.47000 53.52100 29.92900
O  25.49300 54.21600 29.68400
O  23.53400 53.70300 30.91300
C  24.01200 54.63200 31.97400
H  30.49900 49.68300 28.31900
H  29.41900 49.60400 21.98000
H  23.91900 52.44800 22.75300
H  26.73300 52.06600 30.49600
H  28.56900 49.60700 30.35200
H  28.85200 52.15900 31.22800
H  30.07900 52.13400 29.84300
H  30.11600 50.96700 31.09500
H  26.62500 49.27900 31.40300
H  25.19200 49.58800 30.49600
H  24.59300 50.09400 32.62800
H  24.85500 51.71400 32.08600
H  32.47000 47.52100 26.67700
H  32.15800 49.09600 27.34400
H  33.26600 49.04500 26.04900
H  32.55200 46.79900 24.48700
H  33.37400 48.11000 23.68400
H  33.12700 46.74700 22.74900
H  27.12700 49.75900 20.56100
H  25.55100 52.24800 21.11600
H  28.87400 52.02800 21.15100
H  27.51800 52.46500 20.01000
H  28.60600 51.01400 19.72200
H  23.77100 50.11500 21.42200
H  24.89200 49.43100 20.24500
H  23.47900 50.39800 18.82800
H  24.20400 52.03500 19.16600
H  22.72900 51.45000 19.86500
H  21.53300 52.69600 24.15100
H  22.56100 54.07800 24.27600
H  21.43500 53.76600 25.63700
H  23.68600 51.54800 29.84800
H  24.55600 55.51700 31.64200
H  24.43600 54.16300 32.86200
H  23.10900 55.11200 32.35000

