158

Mg 48.83900 35.37000 28.37200
C  46.70700 33.93500 30.75500
C  49.12300 38.11600 30.54900
C  50.56000 37.03100 26.06200
C  47.92800 32.92600 26.17400
N  48.01800 35.95800 30.38200
C  47.36500 35.04800 31.22100
C  47.30000 35.61000 32.66100
C  47.47500 37.10300 32.35200
C  48.25600 37.09600 31.05300
C  46.05000 37.79300 32.30500
C  48.41100 34.80500 33.39600
C  49.32600 35.52900 34.45900
H  48.69900 36.19200 35.68500
N  49.88500 37.34900 28.35800
C  49.81700 38.31600 29.36900
C  50.69100 39.34600 28.90200
C  51.12200 39.07800 27.53400
C  50.49800 37.79300 27.24100
C  51.12200 40.51800 29.92500
C  51.96300 39.84400 26.68300
O  52.08400 39.56600 25.49800
C  52.54300 41.19100 27.11200
N  49.04600 35.07900 26.37400
C  50.00600 35.81300 25.67200
C  50.54100 34.99500 24.40400
C  49.64200 33.79900 24.41000
C  48.86100 33.85200 25.73900
C  50.49500 35.77500 23.07300
C  50.34700 32.47400 24.28700
C  50.71300 32.15300 22.84400
N  47.60300 33.63000 28.43600
C  47.27800 32.67800 27.41700
C  46.45000 31.69900 27.97600
C  46.14800 32.14100 29.29400
C  46.85800 33.32600 29.54700
C  45.95800 30.49700 27.35900
C  45.37600 31.82800 30.50800
O  44.68200 30.83300 30.79300
C  45.57400 33.13900 31.39300
C  45.69000 32.73300 32.79500
O  46.43800 31.95000 33.30600
O  44.74000 33.38800 33.55100
C  44.77000 33.07200 34.96700
H  49.33600 38.87100 31.30900
H  51.20300 37.44800 25.28400
H  47.70300 32.19300 25.39700
H  46.29900 35.32200 32.98100
H  48.03200 37.61300 33.13800
H  45.24000 37.08200 32.46100
H  45.79400 38.42800 31.45700
H  46.02600 38.49500 33.13900
H  49.17200 34.30300 32.79900
H  47.91500 34.07200 34.03300
H  49.84400 36.32600 33.92500
H  50.13800 34.87600 34.77700
H  52.20100 40.59400 30.05800
H  50.92000 40.25100 30.96200
H  50.64600 41.49200 29.81200
H  51.75200 41.92400 27.27400
H  53.21700 41.44400 26.29300
H  53.29900 40.96300 27.86300
H  51.56700 34.72800 24.65600
H  48.89700 33.86600 23.61700
H  51.51600 36.00800 22.77000
H  50.03000 36.72400 23.34100
H  49.86500 35.29200 22.32600
H  49.71500 31.71400 24.74600
H  51.26300 32.25400 24.83500
H  50.36400 32.85200 22.08400
H  50.54900 31.09900 22.62000
H  51.80200 32.19000 22.81500
H  46.70000 29.70800 27.47700
H  45.62400 30.82900 26.37600
H  45.06700 30.23500 27.92900
H  44.65000 33.71500 31.37100
H  44.72200 32.01600 35.23600
H  44.10800 33.69200 35.57000
H  45.75000 33.39500 35.32000
Mg 30.96600 58.32500 39.96700
C  28.15300 56.50900 39.16100
C  32.97000 55.89100 38.73900
C  33.55200 60.49500 40.08400
C  28.88700 61.08600 40.91000
N  30.61200 56.50200 38.97300
C  29.35100 55.90100 38.78200
C  29.46400 54.64500 37.93400
C  30.96900 54.26900 38.14800
C  31.60300 55.61400 38.66300
C  31.24000 53.05600 39.19000
C  29.19800 54.84200 36.40300
C  27.97900 54.09500 35.81900
H  27.11900 54.92600 34.95200
N  32.94400 58.12600 39.65600
C  33.56300 57.04400 39.17000
C  35.03700 57.26100 39.17900
C  35.24800 58.59800 39.49500
C  33.90000 59.16200 39.72000
C  35.98900 56.23000 38.69900
C  36.65100 59.21000 39.47300
O  37.73100 58.62700 39.23800
C  36.81300 60.59600 40.00300
N  31.18700 60.59200 40.20500
C  32.37700 61.14800 40.33000
C  32.29700 62.56500 40.88800
C  30.82700 62.64000 41.36400
C  30.21500 61.36000 40.81100
C  33.44800 62.89400 41.93900
C  30.02800 63.91100 40.91400
C  29.37800 64.73900 41.99600
N  28.90400 58.78100 40.03100
C  28.21600 59.91000 40.39300
C  26.84900 59.69800 40.12100
C  26.76500 58.38100 39.73600
C  28.05000 57.82900 39.69800
C  25.80000 60.81700 40.05300
C  25.89100 57.35800 39.38100
O  24.70100 57.44200 39.17000
C  26.70200 56.03300 39.05300
C  26.44500 55.02800 40.15600
O  27.28900 54.60900 40.89300
O  25.18100 54.54400 40.06800
C  24.83200 53.42000 40.90500
H  33.56200 55.00200 38.51100
H  34.42600 61.08700 40.36200
H  28.18800 61.86600 41.21900
H  28.78700 53.87700 38.30900
H  31.28200 53.84900 37.19100
H  30.26600 52.62200 39.41900
H  31.72900 53.37200 40.11200
H  31.85700 52.25100 38.79300
H  30.01800 54.47000 35.78800
H  29.02600 55.87200 36.09200
H  27.38000 53.72800 36.65300
H  28.42500 53.28100 35.24900
H  36.97300 56.59700 38.40900
H  35.58000 55.67100 37.85800
H  36.13900 55.51500 39.50800
H  36.22700 61.37300 39.51100
H  37.83600 60.97500 40.00700
H  36.48600 60.63300 41.04200
H  32.37700 63.25300 40.04600
H  30.89700 62.68500 42.45100
H  33.67900 61.99500 42.51000
H  32.98500 63.65300 42.57000
H  34.37300 63.21200 41.45900
H  29.25800 63.65000 40.18800
H  30.65300 64.66500 40.43600
H  28.34300 64.94000 41.71900
H  29.84100 65.72000 42.10100
H  29.26200 64.25200 42.96500
H  25.40700 61.08200 41.03400
H  25.05000 60.51400 39.32200
H  26.22900 61.76400 39.72400
H  26.57100 55.71200 38.02000
H  25.57200 52.66900 40.62400
H  23.82000 53.10400 40.65300
H  24.87600 53.71600 41.95300

