158

Mg 1.06900 -0.98500 45.68100
C  4.30300 0.47900 45.31300
C  -0.24300 1.59300 44.01900
C  -1.82300 -2.79800 45.54500
C  2.78900 -3.87200 46.85800
N  1.99500 0.80100 44.73200
C  3.22600 1.28700 44.86600
C  3.36600 2.69800 44.20400
C  1.83600 3.07100 44.07300
C  1.10000 1.78300 44.33700
C  1.28500 4.26400 45.01800
C  4.15100 2.85100 42.80700
C  4.29400 4.33800 42.40100
H  3.60400 4.87300 41.14100
N  -0.80400 -0.65400 44.90500
C  -1.15000 0.46400 44.26400
C  -2.58900 0.44100 43.90100
C  -3.04000 -0.84700 44.28800
C  -1.87400 -1.51700 44.93600
C  -3.36800 1.56000 43.17200
C  -4.48200 -1.38700 44.07300
O  -5.28000 -0.72600 43.38000
C  -4.89600 -2.75600 44.62700
N  0.54500 -2.97500 46.15900
C  -0.71900 -3.41100 46.15800
C  -0.93400 -4.81700 46.75100
C  0.56300 -5.25000 46.99900
C  1.39300 -3.93600 46.70000
C  -1.79600 -4.81300 48.06300
C  0.87600 -6.50700 46.05100
C  1.35400 -7.74900 46.95800
N  3.08000 -1.56100 46.24300
C  3.67600 -2.72500 46.75500
C  5.10400 -2.60900 46.73200
C  5.40600 -1.38700 46.23400
C  4.17300 -0.79200 45.92200
C  6.06900 -3.56500 47.32900
C  6.43500 -0.52000 45.81500
O  7.62900 -0.77300 45.81300
C  5.80600 0.75700 45.21000
C  6.30200 1.90300 46.03400
O  6.06600 2.05600 47.22800
O  7.10300 2.75400 45.25300
C  7.52800 4.02500 45.84900
H  -0.73600 2.45100 43.55700
H  -2.66200 -3.48100 45.39700
H  3.18600 -4.85600 47.11800
H  3.88700 3.25700 44.98100
H  1.54400 3.37600 43.06800
H  2.11900 4.92300 45.25600
H  0.76500 3.92400 45.91300
H  0.61900 4.85700 44.39100
H  3.67100 2.31500 41.98800
H  5.17300 2.56000 43.04700
H  5.36200 4.51700 42.27200
H  4.06700 4.98100 43.25100
H  -2.95000 2.47000 43.60200
H  -4.45100 1.55400 43.29000
H  -3.20200 1.61700 42.09600
H  -4.30200 -3.47600 44.06500
H  -5.91300 -3.01200 44.32800
H  -4.88800 -2.87500 45.71100
H  -1.43000 -5.47300 46.03500
H  0.77400 -5.52700 48.03200
H  -2.43700 -3.95100 48.25100
H  -1.09500 -4.90500 48.89200
H  -2.37500 -5.73500 48.00800
H  1.61100 -6.25900 45.28600
H  0.02600 -6.89200 45.48800
H  1.05500 -8.69100 46.50000
H  1.09100 -7.80500 48.01400
H  2.43800 -7.83700 46.87900
H  6.93500 -3.64000 46.67200
H  5.74100 -4.60400 47.31800
H  6.47700 -3.27200 48.29700
H  6.08500 0.75600 44.15600
H  8.20600 3.84500 46.68400
H  6.70700 4.70900 46.06400
H  8.14100 4.60400 45.15900
Mg 40.35000 10.29700 29.75700
C  42.52100 10.82600 32.44900
C  38.24600 8.63200 31.98600
C  38.43200 9.35100 27.21300
C  42.95200 10.98300 27.52900
N  40.40400 9.75200 31.90500
C  41.33100 10.21900 32.86800
C  40.95600 9.97600 34.29400
C  39.67400 9.08400 34.05500
C  39.41000 9.10100 32.51700
C  39.88500 7.67200 34.58900
C  40.63200 11.35100 34.97200
C  40.04400 11.16900 36.35100
H  40.83500 11.82500 37.57200
N  38.56800 9.23500 29.60500
C  37.78700 8.65400 30.61700
C  36.49300 8.27000 30.11100
C  36.52500 8.58600 28.74200
C  37.88400 9.06400 28.44500
C  35.34400 7.69600 31.04100
C  35.35100 8.45600 27.67100
O  35.48600 8.75900 26.48300
C  34.01900 7.98200 28.22600
N  40.76100 9.90100 27.66000
C  39.73900 9.65500 26.86000
C  39.94600 9.99800 25.35600
C  41.47500 10.53900 25.45100
C  41.80000 10.45800 26.96200
C  39.71200 8.97200 24.24800
C  41.58400 12.06400 24.98700
C  41.05300 13.20200 25.78100
N  42.28300 10.88200 29.86100
C  43.21800 11.21500 28.90300
C  44.53600 11.62700 29.54700
C  44.20300 11.54800 30.94900
C  42.89400 11.06300 31.11300
C  45.82400 11.99500 28.78900
C  44.70300 11.87500 32.25000
O  45.81600 12.31500 32.58500
C  43.64400 11.45000 33.33100
C  44.32500 10.54700 34.25400
O  44.99000 9.49900 34.02500
O  44.05700 11.00200 35.49000
C  44.64000 10.29700 36.66600
H  37.52300 8.25500 32.71200
H  37.77400 9.34900 26.34200
H  43.69300 11.31900 26.80100
H  41.84100 9.49300 34.70800
H  38.86700 9.51700 34.64600
H  39.17000 7.43300 35.37600
H  40.89200 7.63000 35.00400
H  39.61200 6.84100 33.93900
H  39.96200 11.97700 34.38400
H  41.63500 11.77200 35.05000
H  40.05900 10.10100 36.56900
H  39.05200 11.60600 36.23600
H  35.61900 7.96900 32.05900
H  35.09000 6.65500 30.83700
H  34.41300 8.25000 30.92600
H  33.80000 8.76400 28.95400
H  34.10800 7.00700 28.70500
H  33.23100 8.01600 27.47400
H  39.37800 10.90900 25.17000
H  42.19300 9.92000 24.91300
H  38.85200 9.16400 23.60600
H  39.59000 7.96100 24.63800
H  40.59100 8.88700 23.60800
H  41.24200 12.23800 23.96700
H  42.65100 12.17900 24.79600
H  40.85500 12.93000 26.81700
H  40.23200 13.68700 25.25300
H  41.87800 13.91400 25.75200
H  46.50000 12.41900 29.53100
H  45.60300 12.46300 27.83000
H  46.33900 11.10500 28.42800
H  43.26100 12.29300 33.90600
H  43.89400 10.25400 37.46000
H  45.54600 10.86700 36.87100
H  44.77500 9.23600 36.45600

