158

Mg 44.12400 3.42200 47.30000
C  41.57700 5.68700 46.48500
C  41.66500 0.83100 47.22400
C  46.62200 1.10600 47.26200
C  46.43900 5.99800 47.07300
N  41.92800 3.19500 46.65800
C  41.11900 4.32400 46.44300
C  39.67200 3.88400 46.33400
C  39.67700 2.45600 46.85000
C  41.16800 2.07200 46.91500
C  38.92200 2.17000 48.14200
C  39.13200 3.98000 44.86500
C  38.11300 5.08200 44.38500
H  38.53900 5.83100 43.16300
N  44.20200 1.26500 47.28000
C  43.03800 0.49000 47.41500
C  43.46500 -0.85900 47.67400
C  44.90400 -0.81900 47.70400
C  45.29300 0.53500 47.39900
C  42.57500 -2.08500 47.91300
C  45.78000 -1.98600 48.11900
O  45.25500 -3.05000 48.35300
C  47.25700 -2.00000 48.16500
N  46.20700 3.50300 46.97500
C  47.00800 2.40300 47.11600
C  48.53700 2.84700 47.10000
C  48.45700 4.39900 47.23600
C  46.94400 4.67200 47.09700
C  49.36600 2.08500 48.23700
C  49.42000 5.11600 46.16900
C  50.85900 5.48000 46.68500
N  44.06500 5.41000 46.89500
C  45.09800 6.34400 46.79900
C  44.54200 7.61300 46.53800
C  43.14300 7.46800 46.51900
C  42.89400 6.10400 46.65100
C  45.29400 8.91900 46.41100
C  41.83000 8.18100 46.36700
O  41.56000 9.33900 46.16600
C  40.81200 6.96900 46.33900
C  39.85800 7.13300 47.48500
O  40.00200 6.65600 48.61900
O  38.76200 7.83100 47.08000
C  37.68000 8.12700 48.05700
H  40.88600 0.07400 47.33100
H  47.38800 0.33300 47.35100
H  47.17400 6.80000 47.17000
H  39.01000 4.57100 46.86200
H  39.24900 1.68400 46.21100
H  38.58700 3.10300 48.59700
H  39.61500 1.64100 48.79600
H  38.01900 1.58800 47.95900
H  38.66600 3.02300 44.62900
H  39.88900 4.15900 44.10100
H  37.85200 5.72600 45.22500
H  37.18400 4.53200 44.23200
H  42.57700 -2.29400 48.98200
H  42.82700 -2.99300 47.36400
H  41.51900 -1.95800 47.67200
H  47.61000 -1.82000 47.14900
H  47.54800 -2.93900 48.63500
H  47.67300 -1.23000 48.81500
H  48.96200 2.51200 46.15400
H  48.62300 4.80800 48.23300
H  48.69500 1.66700 48.98800
H  50.08600 2.79700 48.64100
H  50.01400 1.32500 47.80200
H  48.82800 5.97000 45.83900
H  49.59400 4.45600 45.31800
H  51.57900 5.07900 45.97200
H  51.04900 4.98800 47.63900
H  50.98600 6.55900 46.78200
H  46.23800 8.67000 45.92700
H  45.55700 9.26100 47.41200
H  44.77000 9.63500 45.77800
H  40.35600 7.14100 45.36400
H  38.01500 8.11400 49.09400
H  36.80700 7.49900 47.88200
H  37.49800 9.19800 47.95900
Mg 46.45400 15.63100 27.46300
C  44.53100 15.47600 30.43900
C  48.64300 17.66800 29.05800
C  48.22200 16.03800 24.52900
C  43.93700 14.00300 25.73600
N  46.56200 16.46600 29.50300
C  45.69100 16.31500 30.59600
C  46.24000 16.95600 31.83300
C  47.48400 17.82300 31.30600
C  47.58000 17.28800 29.89300
C  47.29200 19.31700 31.25400
C  46.56200 15.91900 32.97200
C  46.04200 16.27400 34.37000
H  46.97900 15.96900 35.53300
N  48.32200 16.48900 26.94700
C  49.01000 17.40600 27.73800
C  50.17200 17.80900 27.04300
C  50.11500 17.31500 25.76100
C  48.88600 16.49800 25.71000
C  51.29500 18.68500 27.67000
C  51.04000 17.42400 24.47200
O  50.90000 16.72600 23.51200
C  52.26800 18.26400 24.50200
N  46.14100 15.09600 25.37100
C  46.98900 15.32000 24.32400
C  46.45900 14.71900 23.01500
C  45.24200 13.84900 23.51800
C  45.12900 14.24000 24.96700
C  46.18000 15.70900 21.95300
C  45.40100 12.31300 23.29500
C  46.56100 11.68700 24.11300
N  44.60600 14.97300 27.92600
C  43.70300 14.28000 27.11100
C  42.53400 13.86300 27.92100
C  42.88500 14.37400 29.20700
C  44.11900 15.01000 29.15900
C  41.27600 13.28500 27.45900
C  42.29600 14.58100 30.49600
O  41.17000 14.33900 30.85100
C  43.36000 15.22900 31.40700
C  42.85700 16.51700 32.03500
O  42.89500 17.62400 31.46900
O  42.35000 16.37200 33.32700
C  42.36200 17.57700 34.11600
H  49.27900 18.46200 29.45500
H  48.69500 16.49600 23.65800
H  43.17500 13.32700 25.34300
H  45.51200 17.60800 32.31600
H  48.35200 17.64600 31.94100
H  46.39100 19.57300 31.81200
H  47.20200 19.68900 30.23300
H  48.22600 19.70900 31.65600
H  47.64100 15.77100 33.00500
H  46.05300 14.98400 32.73700
H  45.13100 15.75700 34.66900
H  45.77100 17.32100 34.50900
H  51.03400 19.68400 28.01800
H  52.16700 18.65900 27.01700
H  51.60400 18.12600 28.55400
H  52.82800 18.25700 23.56700
H  52.81900 17.72200 25.27000
H  52.00900 19.27600 24.81400
H  47.27400 14.06200 22.70900
H  44.37400 14.16100 22.93800
H  45.98800 16.67700 22.41500
H  45.31100 15.45000 21.35000
H  46.99700 15.76300 21.23300
H  45.53400 12.20900 22.21800
H  44.50800 11.75200 23.57000
H  47.35100 11.38500 23.42600
H  46.14800 10.95700 24.80900
H  46.99000 12.48700 24.71600
H  41.27100 13.53800 26.39900
H  40.55300 13.87400 28.02500
H  41.11700 12.23000 27.68000
H  43.59800 14.60300 32.26700
H  41.71400 18.34800 33.69800
H  43.36900 17.98700 34.18600
H  41.94600 17.28700 35.08100

