158

Mg 26.32100 1.60800 29.25100
C  28.24400 1.06400 32.19700
C  23.57300 2.13500 31.35500
C  24.37300 1.65600 26.52400
C  29.05000 0.42100 27.44600
N  25.96700 1.54900 31.49500
C  26.92200 1.37800 32.47800
C  26.35500 1.58500 33.92800
C  24.78700 1.72300 33.59500
C  24.74600 1.80800 32.01800
C  23.86900 0.51200 34.14100
C  26.97300 2.82900 34.74600
C  26.38500 3.21200 36.11400
H  27.34900 3.62200 37.20700
N  24.24400 1.97300 28.94300
C  23.31900 2.15200 29.92700
C  22.07800 2.49700 29.25800
C  22.22900 2.17200 27.92200
C  23.67800 1.96200 27.72800
C  20.75900 2.74800 30.00700
C  21.23600 2.07100 26.78800
O  21.56100 1.68900 25.71800
C  19.79400 2.38300 27.05600
N  26.63500 1.14900 27.31200
C  25.72000 1.31800 26.32800
C  26.38800 1.00900 24.95400
C  27.85900 0.82500 25.27800
C  27.83100 0.71100 26.80500
C  25.70100 -0.17400 24.17900
C  28.83500 1.91700 24.75800
C  30.30700 1.57200 24.59300
N  28.24600 0.92800 29.68300
C  29.20900 0.41000 28.84400
C  30.33500 -0.04600 29.57800
C  30.06000 0.21400 30.90600
C  28.76900 0.83700 30.93900
C  31.43600 -0.74600 28.97400
C  30.55700 0.03900 32.24700
O  31.57200 -0.41600 32.62200
C  29.40500 0.63200 33.15000
C  28.97400 -0.49100 34.06700
O  28.29900 -1.47000 33.77800
O  29.53000 -0.25000 35.30100
C  29.30800 -1.27000 36.34900
H  22.61000 2.29200 31.84400
H  23.84000 1.70100 25.57200
H  29.93300 0.08600 26.89700
H  26.65000 0.63700 34.37800
H  24.56500 2.72200 33.97100
H  24.57800 -0.25100 34.46200
H  23.28100 0.20900 33.27500
H  23.15100 0.81500 34.90300
H  26.80800 3.58400 33.97800
H  28.03800 2.68500 34.92900
H  25.90700 2.35600 36.59000
H  25.60800 3.96100 35.96100
H  20.43500 3.72100 29.63700
H  20.88600 2.83000 31.08600
H  19.93300 2.04700 29.89400
H  19.25100 1.62900 27.62500
H  19.30600 2.36500 26.08200
H  19.61500 3.39500 27.41900
H  26.32600 1.93700 24.38700
H  28.18800 -0.09300 24.79000
H  24.82500 -0.61700 24.65200
H  26.47500 -0.91300 23.97400
H  25.23000 0.20300 23.27100
H  28.64200 2.79500 25.37500
H  28.34300 2.19600 23.82700
H  30.64800 1.96900 23.63700
H  30.54900 0.51100 24.64900
H  30.82300 2.04600 25.42800
H  32.14200 0.02900 28.67300
H  31.22100 -1.45700 28.17600
H  31.78500 -1.31500 29.83500
H  29.59200 1.54200 33.72000
H  29.00900 -2.26700 36.02500
H  28.44100 -0.96900 36.93600
H  30.12600 -1.23200 37.06800
Mg 35.69400 47.86700 25.64400
C  35.51400 46.35800 28.79400
C  34.27500 50.74800 27.06500
C  35.29300 49.30600 22.42900
C  36.71400 44.95500 24.24100
N  34.84300 48.42700 27.65000
C  35.13800 47.74400 28.84000
C  34.94600 48.63100 30.11400
C  34.36800 49.98000 29.47100
C  34.49000 49.70000 27.97300
C  32.83100 50.36800 29.79300
C  36.28400 48.79500 30.88700
C  36.36700 48.31700 32.36200
H  35.10200 48.16300 33.20700
N  34.91400 49.82500 24.79700
C  34.36600 50.82400 25.63200
C  34.00900 51.92300 24.71600
C  34.36500 51.49700 23.39900
C  34.84500 50.13900 23.46700
C  33.52400 53.28900 25.16900
C  34.18200 52.28400 22.07300
O  34.40500 51.78300 21.00100
C  33.76000 53.62800 22.02500
N  35.83100 47.19400 23.65500
C  35.81000 48.00700 22.51600
C  36.46700 47.37700 21.32200
C  37.06200 46.07700 21.87100
C  36.54600 46.06600 23.38900
C  35.53900 47.12200 20.10000
C  38.62000 46.01600 21.94300
C  39.25400 46.23000 20.56300
N  36.15900 46.04900 26.31600
C  36.51800 44.89100 25.64300
C  36.69800 43.78300 26.62500
C  36.17700 44.34400 27.84000
C  35.96000 45.68400 27.62000
C  37.27800 42.40200 26.30900
C  36.05100 44.02500 29.26600
O  36.27600 43.06200 29.93800
C  35.49600 45.32900 29.87400
C  34.16700 45.16500 30.54600
O  33.06400 45.12200 30.01800
O  34.39000 45.02900 31.86800
C  33.15200 44.85300 32.62800
H  33.92700 51.68800 27.49800
H  35.42100 49.84800 21.49000
H  37.14100 44.05200 23.80000
H  34.26000 48.05800 30.73700
H  34.99800 50.85200 29.64400
H  32.57100 49.82000 30.69900
H  32.14700 50.06000 29.00300
H  32.76600 51.45200 29.89400
H  36.58000 49.84300 30.83100
H  37.03100 48.28300 30.28100
H  36.99100 48.93000 33.01300
H  36.95600 47.40200 32.29700
H  34.23700 54.00100 24.75400
H  33.60400 53.44700 26.24500
H  32.52600 53.58500 24.84600
H  32.88300 53.82300 22.64300
H  33.49300 53.82300 20.98600
H  34.52200 54.34200 22.33700
H  37.15600 48.14600 20.97200
H  36.60400 45.27100 21.29900
H  35.92000 46.27300 19.53200
H  35.47700 48.05500 19.54000
H  34.53000 46.78800 20.34300
H  38.91700 45.02700 22.29300
H  38.90600 46.78200 22.66300
H  38.47500 46.34800 19.80900
H  39.85000 45.39600 20.19300
H  39.85800 47.10200 20.81300
H  37.81300 42.44600 25.36100
H  36.56600 41.59600 26.12900
H  37.87900 42.24800 27.20500
H  36.24800 45.52200 30.63900
H  32.43900 44.08200 32.33300
H  32.72900 45.84300 32.79900
H  33.29800 44.50700 33.65100

