158

Mg 0.85400 7.89100 25.66400
C  1.49200 10.03500 28.37800
C  1.08200 5.16000 27.80600
C  0.84000 5.86900 23.00100
C  1.24900 10.67800 23.55100
N  1.26500 7.62200 27.79400
C  1.35300 8.71200 28.77100
C  1.54200 8.11600 30.22500
C  1.55900 6.51700 29.93300
C  1.27900 6.40400 28.40800
C  2.90900 5.77400 30.37400
C  0.33700 8.53700 31.11900
C  0.48300 8.50900 32.60900
H  1.73200 7.89500 33.20000
N  0.69500 5.85100 25.46900
C  0.84200 4.90000 26.46600
C  0.87300 3.59300 25.86400
C  0.85600 3.74500 24.45700
C  0.79000 5.17600 24.24400
C  0.97300 2.34800 26.73800
C  0.80300 2.73700 23.33800
O  0.60400 3.05200 22.19100
C  0.91100 1.34400 23.63800
N  1.11700 8.24700 23.63400
C  0.90100 7.24200 22.72300
C  0.94000 7.73500 21.24600
C  1.05100 9.31800 21.44000
C  1.09200 9.44200 22.97900
C  2.01800 7.11200 20.32700
C  -0.04800 10.14200 20.75400
C  -1.40000 10.19800 21.44800
N  1.20500 9.98400 25.86800
C  1.39900 10.95300 24.91100
C  1.73800 12.22700 25.53700
C  1.76200 11.92300 26.93700
C  1.48600 10.53400 27.06500
C  2.10600 13.57000 24.99000
C  1.91900 12.49500 28.23200
O  2.09200 13.68200 28.53600
C  1.74600 11.22700 29.23100
C  2.89700 11.13700 30.26100
O  4.08300 11.20900 29.97800
O  2.34900 11.10700 31.48900
C  3.25000 11.30500 32.58700
H  1.26000 4.38100 28.55000
H  0.94600 5.18000 22.16000
H  1.29800 11.52000 22.85800
H  2.44400 8.56400 30.64000
H  0.67200 6.03200 30.34200
H  3.52300 6.36900 31.05000
H  3.49300 5.43500 29.51800
H  2.66800 4.84000 30.88100
H  -0.47500 7.83900 30.91600
H  -0.09400 9.52200 30.94300
H  -0.45200 8.15700 33.04600
H  0.52500 9.55200 32.92100
H  1.59400 1.57600 26.28400
H  -0.06000 1.99900 26.76900
H  1.30000 2.55200 27.75800
H  0.60500 0.82500 22.73000
H  0.20000 1.05300 24.41100
H  1.97200 1.13900 23.77700
H  -0.02800 7.56000 20.77500
H  2.01600 9.69600 21.10400
H  2.79400 6.85700 21.05000
H  2.50400 7.79300 19.62900
H  1.57100 6.24800 19.83500
H  -0.10500 9.62700 19.79500
H  0.20200 11.17300 20.50500
H  -2.30300 9.96100 20.88400
H  -1.49600 11.19100 21.88800
H  -1.50000 9.42700 22.21100
H  2.88100 13.48200 24.22800
H  2.49100 14.20800 25.78600
H  1.26000 14.02700 24.47800
H  0.86700 11.45500 29.83400
H  2.62500 11.19500 33.47400
H  3.74500 12.27100 32.49000
H  4.03600 10.56800 32.75000
Mg 46.88000 16.49400 28.23100
C  44.96700 15.74800 31.04800
C  49.23000 17.87700 30.21100
C  48.57400 17.25000 25.46400
C  44.35500 14.96000 26.16600
N  47.11400 16.74500 30.35300
C  46.18000 16.38800 31.37600
C  46.69900 16.69100 32.79600
C  48.07600 17.40100 32.44300
C  48.19800 17.29600 30.90300
C  48.18200 18.84300 33.03200
C  46.94900 15.31300 33.49600
C  46.50700 15.27200 34.97500
H  46.39500 16.54900 35.73400
N  48.68800 17.41600 27.92300
C  49.47000 17.94200 28.87500
C  50.57000 18.71200 28.22900
C  50.33500 18.55600 26.81400
C  49.17000 17.71200 26.65400
C  51.72800 19.39100 28.94100
C  51.17300 19.15800 25.67100
O  50.88900 18.97600 24.49700
C  52.37000 20.02500 25.96300
N  46.50000 16.12300 26.02200
C  47.40300 16.60200 25.19600
C  46.84400 16.41200 23.75600
C  45.70000 15.33500 24.00600
C  45.49600 15.44100 25.51600
C  46.30400 17.76600 23.14300
C  46.16200 13.83500 23.67500
C  45.13600 12.98900 22.81600
N  45.01400 15.57500 28.45000
C  44.16000 15.02800 27.57500
C  42.98700 14.45200 28.38300
C  43.24200 14.81600 29.72700
C  44.50700 15.50800 29.69900
C  41.80800 13.66700 27.93800
C  42.80400 14.67500 31.08000
O  41.80000 14.09500 31.53800
C  43.85300 15.33700 31.98400
C  43.32800 16.56000 32.59500
O  43.34800 17.69800 32.19900
O  42.85800 16.24100 33.79200
C  42.55300 17.37400 34.69900
H  50.01400 18.37800 30.78300
H  49.07300 17.72900 24.61800
H  43.60700 14.43000 25.57100
H  45.96800 17.34000 33.27700
H  48.87700 16.76600 32.82000
H  48.06000 19.55300 32.21400
H  49.08400 19.10500 33.58500
H  47.33300 18.93700 33.70900
H  47.98500 14.98400 33.57100
H  46.51700 14.48600 32.93200
H  47.19300 14.63400 35.53300
H  45.45600 14.98200 34.96700
H  52.61600 18.89300 28.55000
H  51.68800 19.24200 30.02000
H  51.71500 20.46900 28.78000
H  52.80400 20.43100 25.05000
H  53.13100 19.33500 26.32600
H  52.17800 20.78300 26.72300
H  47.58200 15.87300 23.16200
H  44.78900 15.56100 23.45200
H  47.06400 18.16300 22.46900
H  46.07500 18.53400 23.88100
H  45.47000 17.62200 22.45700
H  46.08000 13.34400 24.64500
H  47.13700 13.79400 23.19100
H  44.46800 13.59900 22.20700
H  44.43900 12.44000 23.44900
H  45.66500 12.25800 22.20500
H  41.80400 13.78000 26.85400
H  40.91800 14.11900 28.37500
H  42.14700 12.67300 28.23200
H  44.10600 14.62700 32.77200
H  43.26900 18.19300 34.62700
H  42.71900 17.09700 35.74000
H  41.55600 17.80400 34.60200

