158

Mg -0.01800 7.86700 27.08500
C  0.99000 10.23500 29.64600
C  0.33000 5.52400 29.68300
C  -0.33600 5.65800 24.71300
C  0.43800 10.50100 24.69000
N  0.76700 7.92800 29.37200
C  0.93200 8.99600 30.14800
C  0.91700 8.72200 31.64900
C  0.90500 7.11300 31.65200
C  0.56200 6.80400 30.14500
C  2.19300 6.39600 32.10500
C  -0.38800 9.21300 32.22400
C  -0.76700 8.97800 33.69300
H  0.33500 8.42800 34.61500
N  -0.13800 5.91800 27.22800
C  0.04300 5.09900 28.37900
C  -0.17300 3.80700 27.94700
C  -0.45600 3.80200 26.53500
C  -0.25700 5.18200 26.07300
C  0.02300 2.65200 28.86600
C  -0.66800 2.59700 25.61500
O  -0.86800 2.68000 24.39300
C  -0.77300 1.18800 26.14200
N  0.09200 8.07800 24.95900
C  -0.13900 6.93000 24.19500
C  -0.18300 7.32200 22.70400
C  -0.25700 8.88900 22.78700
C  0.07700 9.22700 24.22400
C  1.03300 6.88200 21.88100
C  -1.54300 9.64600 22.19800
C  -1.19200 10.65400 21.10200
N  0.51700 9.98800 27.11700
C  0.68100 10.91900 26.03700
C  1.05100 12.16300 26.57500
C  1.13600 11.90500 28.00100
C  0.80500 10.55400 28.26500
C  1.24800 13.44900 25.79900
C  1.54800 12.57600 29.29300
O  1.97500 13.76500 29.54600
C  1.40700 11.48200 30.39200
C  2.65700 11.29400 31.15900
O  3.64600 10.58000 30.87700
O  2.62800 12.09700 32.29900
C  3.46900 11.78900 33.46700
H  0.30600 4.87100 30.55800
H  -0.58400 4.96500 23.90600
H  0.61000 11.29200 23.95700
H  1.78300 9.02600 32.23800
H  0.05500 6.83200 32.27400
H  2.66100 6.02600 31.19200
H  1.97000 5.54200 32.74500
H  2.92100 6.98800 32.66000
H  -1.16800 8.68100 31.68000
H  -0.36500 10.28600 32.02900
H  -1.64900 8.33700 33.71400
H  -1.11500 9.89300 34.17300
H  0.91800 2.04200 28.75200
H  -0.80400 1.97100 28.66600
H  -0.03200 2.91400 29.92200
H  -0.99700 0.43400 25.38700
H  -1.61900 1.05200 26.81600
H  0.24000 0.90900 26.43400
H  -1.10100 6.96600 22.23600
H  0.61900 9.30300 22.28700
H  1.85600 6.68400 22.56700
H  1.13500 7.63400 21.09900
H  0.97700 5.90800 21.39400
H  -1.99200 10.16800 23.04400
H  -2.31700 8.99200 21.79700
H  -1.13400 11.59600 21.64700
H  -2.00600 10.72100 20.38100
H  -0.35900 10.35400 20.46700
H  0.32100 13.63800 25.25800
H  2.11000 13.27000 25.15500
H  1.40800 14.24500 26.52600
H  0.61300 11.83000 31.05300
H  2.84400 11.85300 34.35800
H  4.16700 12.62400 33.51500
H  4.01600 10.84700 33.41800
Mg -11.84200 16.70200 42.91500
C  -8.45300 15.62800 42.41700
C  -10.85000 19.75800 41.58000
C  -15.12700 17.34700 42.40100
C  -12.57400 13.56400 44.04100
N  -9.85600 17.47600 41.92200
C  -8.64900 16.90200 41.99000
C  -7.60400 17.81600 41.38200
C  -8.27900 19.29300 41.48500
C  -9.74500 18.88900 41.63800
C  -7.72300 20.28400 42.55200
C  -6.97600 17.28100 40.06900
C  -5.46400 17.19500 40.00000
H  -4.75300 16.27100 38.93600
N  -12.86100 18.29100 42.13200
C  -12.24400 19.44900 41.64700
C  -13.30900 20.32800 41.14700
C  -14.57500 19.65500 41.28000
C  -14.24300 18.38100 41.96600
C  -13.08600 21.65200 40.34900
C  -15.95300 20.20700 40.77800
O  -15.99200 21.29100 40.18000
C  -17.23100 19.47200 40.84900
N  -13.72000 15.61500 43.17000
C  -14.95200 16.10800 42.97100
C  -15.98900 15.21200 43.42000
C  -15.16800 14.09800 44.08500
C  -13.70700 14.39700 43.73500
C  -17.12100 15.73400 44.29800
C  -15.67400 12.63000 43.75900
C  -15.59400 11.52900 44.85900
N  -10.77100 14.88300 43.19400
C  -11.19700 13.73200 43.81400
C  -10.03100 12.82000 43.95100
C  -8.96300 13.52500 43.42400
C  -9.46400 14.77900 42.93500
C  -10.01800 11.38600 44.57300
C  -7.55500 13.51900 43.27800
O  -6.82000 12.62000 43.64600
C  -7.08800 14.89400 42.63100
C  -6.28000 15.67700 43.60400
O  -6.73300 16.45800 44.45400
O  -4.98500 15.41100 43.44700
C  -4.04300 16.35800 44.17300
H  -10.60700 20.79500 41.33800
H  -16.17000 17.57300 42.16800
H  -12.87900 12.64600 44.54600
H  -6.76900 17.87000 42.08000
H  -8.22500 19.74400 40.49400
H  -7.42000 21.19500 42.03600
H  -6.88600 19.96000 43.17100
H  -8.57000 20.55000 43.18300
H  -7.45100 17.90800 39.31400
H  -7.39800 16.30500 39.82900
H  -5.03400 16.90900 40.96000
H  -5.13000 18.21500 39.81000
H  -13.67900 21.76300 39.44100
H  -12.04900 21.71700 40.02100
H  -13.31400 22.46400 41.04000
H  -17.61700 19.54600 41.86600
H  -17.12100 18.42100 40.58400
H  -17.97500 20.00800 40.26000
H  -16.38100 14.90100 42.45200
H  -15.33900 14.25800 45.15000
H  -17.97100 16.16900 43.77100
H  -16.67900 16.47900 44.95900
H  -17.46800 14.87400 44.87000
H  -15.11800 12.28900 42.88600
H  -16.74400 12.62100 43.54800
H  -15.15300 11.92400 45.77400
H  -15.07000 10.69000 44.40200
H  -16.60900 11.16400 45.01600
H  -9.13100 11.08300 45.12800
H  -10.12000 10.60300 43.82200
H  -10.93700 11.30000 45.15300
H  -6.47600 14.80400 41.73400
H  -4.03600 16.03100 45.21300
H  -4.33100 17.40900 44.17300
H  -3.01200 16.22800 43.84300

