158

Mg 8.96600 2.83900 27.29400
C  10.36500 1.50600 30.32800
C  7.12800 4.97800 29.29000
C  7.35700 3.90800 24.55300
C  10.50600 0.25000 25.53600
N  8.69200 3.09700 29.64800
C  9.54200 2.60100 30.55400
C  9.23600 3.24100 31.94000
C  8.13000 4.33200 31.53700
C  7.95000 4.11000 30.05600
C  6.87700 4.23600 32.42100
C  10.54800 3.80700 32.60400
C  11.14600 3.10300 33.85000
H  11.48400 4.04600 35.07700
N  7.51300 4.30700 26.91700
C  6.91700 5.11600 27.88000
C  6.02800 6.02800 27.18200
C  6.10000 5.78800 25.75300
C  7.03300 4.62000 25.72000
C  5.07100 7.07500 27.90400
C  5.37700 6.55800 24.62100
O  5.53800 6.25900 23.38500
C  4.56900 7.73400 24.92100
N  8.81000 2.14100 25.43500
C  8.23900 2.85400 24.40700
C  8.62100 2.34300 23.01200
C  9.54600 1.08500 23.37400
C  9.64200 1.15200 24.89000
C  7.35800 1.99800 22.13400
C  10.88300 1.02200 22.61500
C  10.83700 1.11200 21.07300
N  10.21700 1.17700 27.75200
C  10.71600 0.16700 26.95900
C  11.47500 -0.67800 27.81600
C  11.46400 -0.18000 29.12100
C  10.62800 0.92700 29.01900
C  12.21700 -1.89900 27.48900
C  11.99100 -0.37800 30.43000
O  12.65100 -1.30400 30.90000
C  11.21500 0.69800 31.30200
C  10.43400 0.03300 32.35200
O  9.33600 -0.39900 32.18700
O  11.15800 -0.07600 33.49500
C  10.42300 -0.66300 34.62800
H  6.60500 5.70500 29.91500
H  6.85200 4.27100 23.65500
H  11.08200 -0.53600 25.04400
H  8.67800 2.50500 32.51900
H  8.58800 5.28000 31.82000
H  6.49600 5.23900 32.61200
H  7.05800 3.78900 33.39900
H  6.16400 3.58800 31.91100
H  10.40700 4.81600 32.99100
H  11.26500 3.86700 31.78600
H  12.10100 2.62700 33.62500
H  10.55900 2.22500 34.12100
H  5.50800 8.05500 27.71200
H  4.94300 6.84300 28.96100
H  4.08300 7.22700 27.47000
H  5.21000 8.36200 25.54000
H  3.58200 7.45600 25.29100
H  4.39600 8.28800 23.99900
H  9.27300 3.08700 22.55500
H  9.11700 0.10200 23.17800
H  7.41300 1.14600 21.45600
H  7.24500 2.82000 21.42700
H  6.47300 1.92800 22.76700
H  11.36500 0.06000 22.79600
H  11.46500 1.86200 22.99400
H  11.39600 1.98100 20.72600
H  9.83900 0.98100 20.65400
H  11.38200 0.23600 20.72200
H  13.28600 -1.69200 27.44300
H  11.82800 -2.23800 26.52800
H  12.04300 -2.69400 28.21500
H  12.07900 1.20500 31.73200
H  9.89600 -1.54100 34.25600
H  9.66400 -0.01400 35.06500
H  11.25900 -0.92000 35.27900
Mg 5.83900 54.62000 40.64400
C  5.73800 51.03600 40.43900
C  9.19500 54.29800 39.62800
C  5.85700 57.86500 40.10400
C  2.50600 54.69000 41.29400
N  7.26600 52.81800 40.00500
C  6.99200 51.50100 39.97600
C  8.22500 50.67400 39.51900
C  9.38200 51.72400 39.60900
C  8.57500 53.04700 39.70100
C  10.32000 51.62700 40.92900
C  8.16700 49.88700 38.15800
C  7.99400 50.72800 36.83200
H  6.72300 50.58200 36.02000
N  7.30200 55.90800 40.05400
C  8.63600 55.61900 39.82100
C  9.42800 56.83700 39.64100
C  8.52600 57.84700 39.84500
C  7.15300 57.27800 39.96000
C  10.83800 56.93100 39.14100
C  8.86800 59.29400 39.97500
O  10.06400 59.56200 39.94200
C  7.82900 60.31600 40.22300
N  4.24000 56.06500 40.32800
C  4.58500 57.34800 40.36300
C  3.35900 58.25000 40.69400
C  2.24900 57.16200 40.79100
C  3.02700 55.89200 40.89500
C  3.67800 59.00400 42.11000
C  1.26300 57.11900 39.56900
C  -0.16300 57.61600 39.87000
N  4.33400 53.17100 40.88900
C  3.03500 53.38500 41.26100
C  2.44800 52.04900 41.50600
C  3.49600 51.14700 41.25100
C  4.61800 51.83800 40.83700
C  1.19000 51.58400 42.09300
C  3.90300 49.70200 41.26200
O  3.23800 48.71200 41.64500
C  5.34300 49.57700 40.64700
C  5.00100 48.88500 39.34200
O  4.58100 49.39000 38.28300
O  5.29000 47.54500 39.50400
C  4.81700 46.64300 38.37400
H  10.18700 54.34900 39.17400
H  5.83000 58.95200 40.00000
H  1.49000 54.72000 41.69400
H  8.37800 49.93100 40.30200
H  10.02000 51.73500 38.72600
H  11.33100 51.51100 40.53800
H  10.06700 50.79400 41.58500
H  10.31700 52.51400 41.56200
H  7.39600 49.12200 38.24200
H  9.09600 49.33100 38.02700
H  8.90300 50.53000 36.26300
H  7.95800 51.79200 37.06400
H  10.97500 57.70300 38.38300
H  11.35000 56.00100 38.89200
H  11.49300 57.23500 39.95800
H  8.29900 61.26800 40.47000
H  7.22200 60.01400 41.07700
H  7.19800 60.39800 39.33800
H  3.18300 58.89600 39.83400
H  1.62800 57.36300 41.66500
H  2.92900 59.79500 42.13400
H  4.69600 59.38500 42.19500
H  3.42500 58.44600 43.01100
H  1.10900 56.07600 39.29400
H  1.80000 57.69000 38.81100
H  -0.85400 56.83700 39.54700
H  -0.37500 58.55300 39.35500
H  -0.23900 57.82300 40.93800
H  0.62400 52.50400 42.24400
H  1.36700 51.06600 43.03600
H  0.84700 50.92500 41.29600
H  6.06200 48.98100 41.20900
H  3.73900 46.64300 38.21600
H  5.04500 45.60400 38.61100
H  5.27000 47.06100 37.47400

