158

Mg 1.34500 41.76800 25.75000
C  3.21400 41.95000 28.76400
C  -1.23100 40.62800 27.76700
C  -0.39300 41.35500 23.03700
C  4.21300 42.72400 23.98900
N  1.06700 41.40600 28.12800
C  1.93000 41.71600 29.09500
C  1.35400 41.67100 30.50300
C  -0.11700 41.15500 30.07000
C  -0.11300 41.02100 28.54900
C  -0.60500 39.84100 30.89400
C  1.46800 43.05700 31.28200
C  2.10900 43.11700 32.64800
H  1.72700 42.05700 33.66700
N  -0.44400 40.90400 25.43300
C  -1.38400 40.58400 26.35700
C  -2.59100 39.99800 25.64900
C  -2.44500 40.37300 24.28500
C  -1.06000 40.91300 24.14600
C  -3.66600 39.29800 26.38700
C  -3.39700 40.28800 23.17900
O  -3.21700 40.68800 22.08600
C  -4.72100 39.85400 23.43900
N  1.85800 41.94000 23.79400
C  0.91600 41.73100 22.82300
C  1.61200 41.81000 21.44000
C  2.95600 42.43800 21.73900
C  3.03100 42.39200 23.26900
C  1.73000 40.47000 20.73400
C  3.08600 43.89700 21.12800
C  4.32400 44.08200 20.38000
N  3.33100 42.22600 26.19200
C  4.34800 42.57300 25.38300
C  5.50300 42.72000 26.16600
C  5.15800 42.44700 27.49400
C  3.73600 42.19100 27.48200
C  6.80900 43.26400 25.77400
C  5.73600 42.22600 28.78200
O  6.85400 42.29600 29.22600
C  4.43200 42.10500 29.69700
C  4.76200 40.91600 30.57900
O  4.52500 39.75100 30.29500
O  5.35300 41.34200 31.73400
C  5.63600 40.38400 32.76300
H  -2.10100 40.38000 28.37800
H  -0.87300 41.25000 22.06200
H  5.14300 43.03600 23.51000
H  1.89700 40.89400 31.04100
H  -0.86000 41.87600 30.41000
H  -1.29900 40.27400 31.61500
H  0.26400 39.51800 31.46700
H  -1.15700 39.10300 30.31100
H  0.42900 43.37700 31.35900
H  1.96200 43.74400 30.59600
H  1.73600 44.04000 33.09300
H  3.19000 43.15000 32.50900
H  -3.36500 38.95900 27.37800
H  -3.98400 38.42000 25.82500
H  -4.54600 39.93300 26.48800
H  -5.15900 40.40900 24.26900
H  -4.74500 38.77000 23.54500
H  -5.29800 40.06300 22.53900
H  0.95100 42.44500 20.85000
H  3.84900 41.86400 21.49300
H  1.45900 39.56600 21.28000
H  2.77900 40.39800 20.44600
H  1.12600 40.52800 19.82900
H  3.03800 44.65700 21.90800
H  2.24500 44.10000 20.46500
H  4.86200 44.86100 20.92100
H  4.05400 44.47100 19.39800
H  4.84700 43.12900 20.30500
H  6.68100 44.08400 25.06700
H  7.24700 42.42200 25.23800
H  7.41600 43.60400 26.61200
H  4.23700 42.94800 30.36000
H  5.50400 40.76100 33.77700
H  6.49200 39.70900 32.73000
H  4.75300 39.75100 32.67300
Mg -5.55400 25.09900 25.91800
C  -3.96000 26.46600 28.73000
C  -7.23600 22.96300 27.88100
C  -6.94700 23.76700 23.17800
C  -3.62500 27.43600 23.88000
N  -5.44700 24.71300 28.07500
C  -4.87200 25.47300 28.97100
C  -5.37400 25.08400 30.38300
C  -6.12500 23.72900 30.14200
C  -6.28700 23.76300 28.61800
C  -5.29100 22.50100 30.65000
C  -6.31000 26.10500 30.96000
C  -6.36000 26.35900 32.51400
H  -5.66500 25.27600 33.36400
N  -6.90600 23.53900 25.59300
C  -7.44700 22.83700 26.54600
C  -8.48200 21.98600 26.00500
C  -8.49200 22.17800 24.58200
C  -7.37000 23.15700 24.34600
C  -9.35700 21.05400 26.74700
C  -9.53100 21.58000 23.52000
O  -9.41000 21.82600 22.36900
C  -10.70900 20.72100 23.94000
N  -5.13100 25.29600 23.88100
C  -5.92700 24.75800 22.97500
C  -5.45700 25.15500 21.57400
C  -4.63300 26.45900 21.84500
C  -4.39900 26.38600 23.29100
C  -4.64500 24.04500 20.89000
C  -5.41500 27.76900 21.37100
C  -4.53700 28.81000 20.62400
N  -4.01200 26.53600 26.17700
C  -3.32300 27.37500 25.26100
C  -2.43100 28.16300 26.04600
C  -2.60100 27.80600 27.36600
C  -3.62100 26.87100 27.48700
C  -1.38800 29.13300 25.49100
C  -2.18500 28.15400 28.75300
O  -1.22700 28.84900 29.09500
C  -3.12200 27.30800 29.67800
C  -2.31300 26.54000 30.69900
O  -1.98100 25.37900 30.48400
O  -2.19900 27.27800 31.88000
C  -1.35400 26.71300 32.93100
H  -7.90300 22.38200 28.52100
H  -7.41100 23.35500 22.27900
H  -3.02200 28.02900 23.18900
H  -4.52800 24.96800 31.06100
H  -7.08500 23.79100 30.65400
H  -5.81800 21.84500 31.34200
H  -4.34900 22.81500 31.10000
H  -5.00000 21.94200 29.76100
H  -7.35500 25.98500 30.67500
H  -6.02200 27.07200 30.54700
H  -7.39800 26.29000 32.84000
H  -5.89900 27.29700 32.82300
H  -9.26100 20.07500 26.27600
H  -10.34900 21.49600 26.66500
H  -9.08800 20.90200 27.79200
H  -11.46600 21.25200 24.51700
H  -10.33200 19.83600 24.45300
H  -11.23300 20.27900 23.09200
H  -6.25700 25.31800 20.85200
H  -3.65700 26.43600 21.36100
H  -3.73800 24.50700 20.50000
H  -5.22400 23.69300 20.03600
H  -4.53000 23.21100 21.58200
H  -6.01100 28.21700 22.16600
H  -6.15700 27.34700 20.69300
H  -4.63100 29.73600 21.19100
H  -5.03800 29.07800 19.69300
H  -3.47900 28.59800 20.46800
H  -1.71700 30.16200 25.63800
H  -1.32200 28.96900 24.41500
H  -0.37500 29.06500 25.88900
H  -3.79600 27.99700 30.18700
H  -1.95400 26.01500 33.51500
H  -0.90500 27.45400 33.59300
H  -0.58900 26.14500 32.40200

