158

Mg 36.64300 2.04300 29.58700
C  34.32600 2.96900 32.19300
C  38.98700 1.94600 32.00900
C  38.73900 1.23100 27.14800
C  34.04100 2.59900 27.26700
N  36.63200 2.29700 31.82500
C  35.54400 2.53800 32.71700
C  35.88500 2.67100 34.12400
C  37.47300 2.71100 34.00300
C  37.74000 2.32600 32.46600
C  38.28700 4.02800 34.21700
C  35.25600 1.55800 35.02300
C  34.75200 1.99000 36.40300
H  35.16700 3.32000 37.01000
N  38.67300 1.61100 29.54500
C  39.48500 1.61300 30.66000
C  40.87600 1.19100 30.25000
C  40.74700 0.97000 28.83300
C  39.34200 1.20200 28.41700
C  42.07500 1.04300 31.19300
C  41.80200 0.61700 27.76600
O  41.58400 0.54400 26.52600
C  43.18700 0.33200 28.24000
N  36.41200 2.02300 27.48200
C  37.40300 1.56800 26.62000
C  37.05500 1.63900 25.15100
C  35.46900 1.75000 25.35100
C  35.30300 2.14600 26.79100
C  37.76500 2.87900 24.41400
C  34.64200 0.47400 24.89100
C  33.27000 0.66200 24.09700
N  34.60600 2.57100 29.66000
C  33.70700 2.76100 28.61200
C  32.47600 3.25700 29.17400
C  32.67500 3.36100 30.52300
C  34.00400 2.97600 30.84000
C  31.22600 3.49200 28.37300
C  32.07600 3.68700 31.82300
O  30.97000 4.16100 32.02200
C  33.10200 3.46200 32.97300
C  33.27600 4.76000 33.74700
O  34.05300 5.62100 33.37900
O  32.29800 4.85700 34.73600
C  32.36300 6.08600 35.51500
H  39.66000 2.01500 32.86600
H  39.47700 1.05100 26.36300
H  33.29200 2.83700 26.50900
H  35.49500 3.66000 34.36500
H  38.02000 1.97000 34.58500
H  38.83700 3.88100 35.14600
H  37.60800 4.88000 34.25700
H  39.00700 4.08200 33.40000
H  35.96000 0.76800 35.28400
H  34.40200 1.03400 34.59400
H  35.09400 1.17800 37.04500
H  33.66500 1.94700 36.34000
H  42.84000 1.76000 30.89400
H  42.48300 0.03700 31.08900
H  41.80900 1.10400 32.24900
H  43.83900 -0.10600 27.48400
H  43.03700 -0.40900 29.02600
H  43.45100 1.35700 28.50100
H  37.40600 0.68000 24.77000
H  35.10500 2.63300 24.82600
H  38.28700 2.54300 23.51800
H  38.40400 3.38800 25.13500
H  36.99600 3.57600 24.08200
H  34.39400 0.05800 25.86800
H  35.26900 -0.28700 24.42700
H  33.06700 1.71800 23.91600
H  32.44000 0.15700 24.59100
H  33.41700 0.15600 23.14400
H  31.45600 4.04700 27.46300
H  30.38000 3.88100 28.93800
H  30.84900 2.49100 28.16500
H  32.59200 2.67600 33.53000
H  32.59000 5.71500 36.51400
H  31.37400 6.53000 35.40300
H  33.15200 6.78000 35.22700
Mg 34.97800 49.37500 26.74500
C  35.42600 46.82800 29.13200
C  34.00000 51.49000 29.29100
C  34.38900 51.60000 24.50000
C  35.80000 46.96800 24.36000
N  34.78300 49.20600 28.96500
C  35.05600 48.08400 29.73400
C  35.01000 48.37700 31.20300
C  34.18400 49.71800 31.19600
C  34.30500 50.24300 29.71000
C  32.70100 49.50100 31.55700
C  36.47000 48.54600 31.85700
C  36.55400 47.94600 33.25300
H  36.33500 48.98900 34.39300
N  34.30100 51.36100 26.84900
C  34.06300 52.10800 28.03000
C  33.91300 53.50800 27.61100
C  34.00500 53.55300 26.18900
C  34.25900 52.14100 25.76800
C  33.71100 54.64800 28.58700
C  34.03400 54.75000 25.27500
O  34.43900 54.72400 24.08100
C  33.63100 56.12600 25.90900
N  34.68900 49.16900 24.69400
C  34.56200 50.30200 23.95700
C  34.75400 49.97800 22.45600
C  35.60500 48.71800 22.60000
C  35.42200 48.27100 23.98200
C  33.40200 49.75700 21.69100
C  37.12900 48.91400 22.39200
C  37.85200 47.95200 21.52800
N  35.58100 47.36100 26.72900
C  35.87100 46.54300 25.67500
C  36.24300 45.19000 26.12900
C  36.09400 45.30500 27.53800
C  35.66800 46.61100 27.77600
C  36.62200 44.03700 25.30900
C  36.20700 44.62800 28.83000
O  36.55100 43.49500 29.09800
C  35.79000 45.62000 29.89200
C  34.59300 45.10900 30.61800
O  33.48300 44.95200 30.18300
O  35.07400 44.63800 31.83000
C  34.16300 43.77100 32.54700
H  33.64200 52.19600 30.04300
H  34.49000 52.38700 23.75000
H  36.15600 46.28300 23.58700
H  34.53900 47.59000 31.79300
H  34.58700 50.40800 31.93700
H  32.05400 49.78600 30.72700
H  32.47400 50.15100 32.40100
H  32.54200 48.46100 31.84200
H  36.72400 49.60200 31.76400
H  37.09400 47.87900 31.26300
H  37.56400 47.54900 33.35100
H  35.85200 47.13800 33.46200
H  34.48600 55.41200 28.51600
H  33.73700 54.26300 29.60700
H  32.68400 54.99600 28.48100
H  32.58400 56.08000 26.20900
H  33.69100 56.82200 25.07200
H  34.33800 56.44800 26.67300
H  35.41600 50.73300 22.03400
H  35.32700 47.95100 21.87700
H  32.65500 49.70800 22.48400
H  33.45500 48.82600 21.12700
H  33.19700 50.54400 20.96500
H  37.68300 48.88800 23.33100
H  37.44100 49.86300 21.95600
H  38.17600 48.49000 20.63700
H  37.37100 46.99900 21.30700
H  38.70300 47.60800 22.11600
H  36.09200 44.07200 24.35700
H  36.44400 43.07400 25.78900
H  37.68700 44.03200 25.07700
H  36.60000 45.78000 30.60300
H  33.49400 44.35300 33.18100
H  34.78800 43.14100 33.18000
H  33.66600 43.15700 31.79500

