158

Mg 24.39500 -6.00500 44.77900
C  26.66600 -3.88000 43.46800
C  21.94600 -4.54600 43.05700
C  22.50400 -8.82400 45.27500
C  27.03300 -7.72500 46.34700
N  24.35300 -4.44200 43.28500
C  25.36900 -3.62900 43.01400
C  25.02400 -2.55200 41.99900
C  23.48400 -2.59700 42.16400
C  23.24800 -3.91100 42.96900
C  22.81700 -1.43300 43.01000
C  25.71400 -2.84900 40.67200
C  26.40700 -1.75900 39.89000
H  26.21400 -1.90000 38.38900
N  22.42300 -6.57500 44.28500
C  21.49700 -5.79200 43.66000
C  20.25400 -6.49100 43.58600
C  20.35600 -7.75500 44.18200
C  21.83300 -7.79600 44.62200
C  19.03500 -5.92100 42.82800
C  19.25000 -8.81400 44.30400
O  18.10200 -8.59000 43.95800
C  19.55900 -10.23700 44.90200
N  24.85600 -8.14900 45.37100
C  23.85900 -9.01200 45.61700
C  24.30000 -10.32800 46.33000
C  25.64900 -9.85200 46.95700
C  25.84300 -8.48900 46.15400
C  23.32200 -10.85400 47.31300
C  26.87300 -10.90500 46.86400
C  27.57400 -11.18000 48.26500
N  26.47500 -5.82000 45.06400
C  27.40200 -6.54600 45.73700
C  28.75000 -5.91000 45.60100
C  28.45200 -4.81500 44.77300
C  27.10000 -4.85200 44.43900
C  30.11500 -6.38100 46.09600
C  29.03500 -3.67300 44.10400
O  30.15500 -3.20700 44.05900
C  27.85000 -2.94400 43.34100
C  27.62000 -1.63900 43.83000
O  26.85100 -1.39000 44.71300
O  28.35300 -0.66800 43.07400
C  28.04700 0.74200 43.34600
H  21.13700 -4.00800 42.55900
H  21.81000 -9.60100 45.60200
H  27.86400 -8.31300 46.74200
H  25.33200 -1.56000 42.33000
H  23.00200 -2.75400 41.19900
H  22.77100 -0.49800 42.45300
H  23.40300 -1.22800 43.90600
H  21.84600 -1.81200 43.33000
H  24.88700 -3.29600 40.12000
H  26.43400 -3.66700 40.70900
H  27.47400 -1.69200 40.10200
H  26.13400 -0.79000 40.30700
H  18.81800 -6.47100 41.91200
H  19.10100 -4.84400 42.67900
H  18.16700 -6.03000 43.47900
H  18.68600 -10.88700 44.84200
H  19.85900 -10.11000 45.94200
H  20.37100 -10.73500 44.37300
H  24.52400 -10.99400 45.49700
H  25.47600 -9.55800 47.99200
H  23.85800 -11.08500 48.23400
H  22.96400 -11.82900 46.98500
H  22.42300 -10.28100 47.54100
H  27.51000 -10.40800 46.13400
H  26.48100 -11.73400 46.27500
H  27.38200 -12.25200 48.31300
H  27.13100 -10.59800 49.07300
H  28.64700 -10.99900 48.20500
H  30.37200 -7.43700 46.02100
H  30.18200 -6.21300 47.17100
H  30.91600 -5.78300 45.66100
H  28.08600 -2.77200 42.29100
H  28.50100 1.05500 44.28600
H  26.97900 0.96000 43.36800
H  28.60700 1.24900 42.56000
Mg 47.18700 16.66100 28.55100
C  45.09100 16.24700 31.27800
C  49.34700 18.39300 30.61900
C  48.74600 18.08100 25.96500
C  44.76100 15.17800 26.56500
N  47.07000 17.30700 30.70000
C  46.24800 16.88900 31.63900
C  46.74000 17.26400 33.07700
C  47.98700 18.18500 32.78200
C  48.17400 17.99600 31.28800
C  47.78200 19.67000 33.03600
C  47.10900 16.05000 33.95800
C  46.65300 16.13400 35.48100
H  46.27600 17.54500 35.98600
N  48.93100 17.82100 28.29400
C  49.71300 18.27100 29.29000
C  50.90600 18.90200 28.76700
C  50.70000 18.95400 27.38400
C  49.41800 18.30800 27.10900
C  52.11000 19.36600 29.65900
C  51.56400 19.44500 26.20500
O  51.29700 19.36000 25.06300
C  52.93800 19.95700 26.59700
N  46.89300 16.53600 26.56600
C  47.56000 17.33900 25.68500
C  46.89300 17.22700 24.27400
C  45.83600 16.10800 24.53900
C  45.82000 15.94600 25.98800
C  46.27600 18.51300 23.85300
C  46.06500 14.74300 23.82600
C  46.95400 13.71300 24.63500
N  45.35900 15.65700 28.88500
C  44.48800 15.21100 27.94900
C  43.31400 14.69700 28.58400
C  43.48300 15.02900 29.95500
C  44.68700 15.71000 30.01800
C  42.11700 14.07100 27.90500
C  42.91300 15.06800 31.29800
O  41.82700 14.71200 31.75700
C  43.97200 15.79900 32.26200
C  43.25600 16.94400 32.95400
O  42.84200 17.99100 32.47400
O  43.05600 16.59600 34.30900
C  42.24300 17.55600 35.11200
H  50.13100 18.82100 31.24700
H  49.06400 18.66100 25.09600
H  43.91300 14.75700 26.02200
H  45.99900 17.87500 33.59400
H  48.84900 17.78600 33.31500
H  46.69800 19.59800 32.94800
H  48.15000 20.27300 32.20500
H  48.14700 19.98900 34.01200
H  48.19400 15.94600 33.95900
H  46.79800 15.13400 33.45600
H  47.48200 15.72800 36.06100
H  45.79500 15.46600 35.55800
H  52.26300 20.43000 29.47900
H  53.04000 18.93500 29.28800
H  51.99900 19.28500 30.74000
H  53.52400 19.12600 26.99000
H  52.80500 20.65100 27.42700
H  53.38100 20.46500 25.74000
H  47.69500 16.99300 23.57400
H  44.85100 16.46000 24.23300
H  46.60100 19.31400 24.51700
H  45.18600 18.53500 23.88000
H  46.68500 18.73400 22.86700
H  46.51200 14.95800 22.85500
H  45.09300 14.25200 23.87600
H  47.59000 14.11100 25.42600
H  47.69700 13.35600 23.92300
H  46.33700 12.97200 25.14300
H  41.23300 14.70400 27.97300
H  41.91400 13.19100 28.51400
H  42.25200 13.77300 26.86500
H  44.15400 14.99500 32.97500
H  41.16700 17.49100 34.95100
H  42.56400 18.55500 34.81600
H  42.41700 17.34300 36.16700

