158

Mg 46.67000 24.77100 28.28400
C  47.55700 27.11600 30.87200
C  45.24200 22.85000 30.71500
C  46.64900 22.23500 25.94200
C  48.42800 26.73000 26.03200
N  46.49600 24.92500 30.56100
C  46.90500 25.99300 31.34600
C  46.38800 25.89100 32.75400
C  45.79300 24.36200 32.76700
C  45.84000 23.97400 31.25800
C  46.52400 23.27500 33.69600
C  45.39800 26.98600 33.08900
C  45.28200 27.23800 34.67100
H  43.92500 27.80400 35.20800
N  46.02300 22.85900 28.24800
C  45.38800 22.26200 29.38000
C  44.80000 20.98600 28.89600
C  45.14100 20.82600 27.53000
C  45.98300 22.00000 27.17500
C  44.13700 20.12100 29.91900
C  44.82200 19.72300 26.61300
O  45.09800 19.70900 25.36400
C  44.18600 18.41300 27.25200
N  47.60400 24.42700 26.37800
C  47.39700 23.34700 25.56800
C  48.29500 23.49500 24.31000
C  48.26600 25.06000 24.16700
C  48.10800 25.44300 25.59700
C  49.71500 22.89500 24.50300
C  47.16200 25.49700 23.23700
C  47.62800 26.22500 21.95600
N  47.70900 26.57600 28.35500
C  48.25300 27.26100 27.28200
C  48.63000 28.60200 27.77000
C  48.39500 28.53500 29.13600
C  47.86200 27.30600 29.49300
C  49.40200 29.62700 27.04800
C  48.64800 29.23600 30.38700
O  49.18600 30.35600 30.53700
C  48.06500 28.38200 31.54700
C  49.09600 28.23000 32.66500
O  50.13400 27.60700 32.52200
O  48.68700 28.76800 33.88500
C  49.47300 28.43500 35.08800
H  44.66100 22.48300 31.56400
H  46.63300 21.46100 25.17200
H  48.91500 27.37100 25.29400
H  47.22100 25.89600 33.45700
H  44.77400 24.45000 33.14300
H  46.70100 22.36000 33.13000
H  46.03900 23.08000 34.65200
H  47.46700 23.72500 34.00500
H  44.38300 26.72800 32.78800
H  45.51200 27.92200 32.54100
H  46.06200 27.93300 34.98200
H  45.56300 26.33200 35.20900
H  43.27000 19.53500 29.61500
H  43.64200 20.71600 30.68600
H  44.87800 19.59400 30.52100
H  43.12900 18.50000 27.50300
H  44.84200 18.18500 28.09200
H  44.26800 17.54300 26.60100
H  47.81400 23.02700 23.45100
H  49.24600 25.37600 23.81100
H  49.64300 22.33300 25.43400
H  50.53700 23.60700 24.57700
H  50.01800 22.12400 23.79400
H  46.59600 26.29100 23.72600
H  46.60000 24.58400 23.04100
H  47.33300 27.27200 22.01800
H  47.07100 25.76900 21.13700
H  48.70600 26.21800 21.79600
H  49.73900 30.37700 27.76300
H  48.70400 30.13800 26.38400
H  50.29300 29.20900 26.57900
H  47.30800 28.86200 32.16800
H  49.57500 29.29000 35.75600
H  50.48100 28.08000 34.87000
H  49.04300 27.64400 35.70200
Mg 0.85400 42.72800 26.42400
C  1.98900 43.42500 29.65000
C  -2.13500 41.52000 27.81400
C  -0.12300 41.99100 23.32200
C  3.88700 43.63500 25.16300
N  -0.04000 42.63000 28.59600
C  0.61800 43.04400 29.69500
C  -0.32300 42.91500 30.92100
C  -1.52500 42.17000 30.35500
C  -1.15700 41.97000 28.81700
C  -2.01100 40.76900 31.05100
C  -0.69900 44.24300 31.77900
C  0.01100 44.39700 33.07600
H  -0.61200 43.73500 34.46100
N  -0.82900 41.92600 25.71700
C  -1.96200 41.53800 26.41300
C  -2.93900 41.05800 25.52300
C  -2.39400 41.25400 24.21100
C  -1.06800 41.82700 24.37000
C  -4.41300 40.55900 25.93400
C  -3.05600 40.85800 22.88100
O  -2.75400 41.18600 21.79100
C  -4.33400 39.95500 22.89900
N  1.84600 42.59600 24.51500
C  1.16700 42.39900 23.36200
C  1.96700 42.64100 22.11500
C  3.16800 43.37800 22.76900
C  2.94300 43.20700 24.21900
C  2.37600 41.31300 21.35000
C  3.24600 44.83400 22.22700
C  3.26100 45.07200 20.72900
N  2.63100 43.28700 27.21800
C  3.79300 43.57300 26.55000
C  4.79600 43.99700 27.52300
C  4.08400 43.95000 28.73600
C  2.77500 43.48400 28.49800
C  6.15700 44.51900 27.32600
C  4.29100 44.17900 30.16000
O  5.26000 44.56800 30.82900
C  2.93800 43.75300 30.84900
C  3.08500 42.57000 31.79300
O  3.15500 41.43000 31.34800
O  3.26400 43.00500 33.04500
C  3.57300 41.93000 34.02200
H  -3.06900 41.06900 28.15800
H  -0.55900 41.91300 22.32400
H  4.72500 44.24400 24.81700
H  0.00200 42.22500 31.70100
H  -2.45600 42.70400 30.54600
H  -2.02600 39.93700 30.34600
H  -3.00800 40.88600 31.47600
H  -1.41100 40.44500 31.90200
H  -1.78000 44.31500 31.90500
H  -0.43100 45.13200 31.20800
H  -0.00100 45.47800 33.21600
H  1.06500 44.13200 32.99400
H  -5.18500 40.94600 25.26800
H  -4.74400 40.90700 26.91300
H  -4.45100 39.47000 25.94800
H  -5.23600 40.39100 23.32900
H  -4.01400 38.96900 23.23700
H  -4.51100 39.72800 21.84800
H  1.37400 43.30100 21.48300
H  4.14200 42.97100 22.49600
H  1.99000 40.46100 21.90900
H  3.41700 41.13500 21.08000
H  1.82600 41.29300 20.40900
H  4.16600 45.29000 22.59200
H  2.47700 45.47900 22.65300
H  4.08000 45.78300 20.62400
H  2.41800 45.64900 20.35000
H  3.64600 44.22600 20.16000
H  6.41700 45.24900 28.09200
H  6.11200 45.02900 26.36400
H  6.92300 43.74600 27.26100
H  2.43300 44.50300 31.45700
H  3.21000 40.97400 33.64700
H  3.05800 42.03300 34.97800
H  4.65400 41.89800 34.15400

