158

Mg -0.75900 17.34800 26.58000
C  -1.23200 14.96100 29.28700
C  -1.31500 19.87900 28.94000
C  -0.71200 19.55300 24.14400
C  -0.47600 14.73800 24.52500
N  -1.37900 17.36200 28.93600
C  -1.47200 16.29300 29.80400
C  -1.67100 16.85400 31.22700
C  -1.64400 18.37400 31.02200
C  -1.38900 18.56900 29.54200
C  -2.93800 19.19600 31.44400
C  -0.78400 16.20200 32.41800
C  -0.45100 17.17200 33.58200
H  -0.48400 16.62900 34.97600
N  -0.98200 19.43500 26.53100
C  -1.04600 20.32600 27.63100
C  -1.04100 21.65600 27.07000
C  -0.80000 21.60300 25.67400
C  -0.75300 20.18400 25.40100
C  -1.32800 22.90500 27.90900
C  -0.62500 22.62000 24.67800
O  -0.54700 22.46300 23.46200
C  -0.50100 24.12800 25.10600
N  -0.67200 17.16900 24.60200
C  -0.62800 18.19900 23.74100
C  -0.76400 17.73500 22.35000
C  -0.20900 16.28600 22.50800
C  -0.43000 16.04500 23.98800
C  -2.24700 17.76800 21.80100
C  1.35100 16.07200 22.13100
C  2.51000 16.49600 23.10000
N  -0.91800 15.26200 26.76600
C  -0.78400 14.31000 25.87600
C  -0.95500 13.03500 26.42900
C  -1.04600 13.26100 27.73700
C  -1.05200 14.59200 27.96800
C  -1.06800 11.82200 25.58000
C  -1.18100 12.50000 29.01000
O  -1.32600 11.29100 29.17500
C  -1.28400 13.62800 30.09600
C  -0.14700 13.32000 30.97800
O  0.97100 13.76000 30.89600
O  -0.57300 12.36100 31.84200
C  0.29400 12.07200 32.97900
H  -1.27400 20.64000 29.72300
H  -0.62500 20.19400 23.26400
H  -0.43200 13.97600 23.74400
H  -2.66100 16.49100 31.50600
H  -0.82400 18.81800 31.58700
H  -3.45200 19.63900 30.59100
H  -2.68900 19.78600 32.32600
H  -3.70500 18.46100 31.68800
H  0.17000 16.02600 31.92000
H  -1.14200 15.25300 32.81700
H  -1.17400 17.98700 33.56300
H  0.55100 17.56700 33.41500
H  -1.86800 23.63500 27.30600
H  -0.49600 23.44000 28.36600
H  -1.94500 22.59900 28.75400
H  0.42200 24.15800 25.68500
H  -1.39300 24.53700 25.58100
H  -0.29300 24.84700 24.31400
H  -0.18300 18.39800 21.70900
H  -0.84300 15.53900 22.03100
H  -2.61900 18.68900 22.25200
H  -2.80200 16.93800 22.23900
H  -2.12400 17.74700 20.71800
H  1.48400 16.62400 21.20100
H  1.34500 15.07000 21.70300
H  2.09700 16.59500 24.10300
H  3.05700 17.41900 22.90500
H  3.21600 15.66500 23.09100
H  -1.57400 12.18600 24.68500
H  -1.68000 11.08000 26.09300
H  -0.08700 11.45500 25.28000
H  -2.21600 13.54900 30.65700
H  0.90500 11.17400 32.89300
H  -0.32700 11.89400 33.85700
H  0.89300 12.97200 33.11900
Mg 34.49000 49.41000 25.47400
C  34.65800 47.63800 28.58000
C  33.17200 52.07800 27.18400
C  34.01000 50.74200 22.52100
C  34.98400 46.31900 23.83800
N  33.94200 49.75600 27.58800
C  34.23700 48.93400 28.71600
C  34.04300 49.65800 30.03400
C  33.38200 51.01500 29.58000
C  33.50600 50.97100 28.05800
C  31.95200 51.29600 30.10500
C  35.24200 49.79300 31.02600
C  35.05300 49.42600 32.53700
H  33.55500 49.58600 33.11700
N  33.75300 51.20100 24.95000
C  33.21900 52.16200 25.77700
C  32.71500 53.25000 24.96600
C  33.12200 52.96200 23.60500
C  33.68700 51.59200 23.67000
C  31.69000 54.20700 25.55200
C  32.83200 53.76500 22.32400
O  33.25300 53.43100 21.22300
C  31.89400 54.96800 22.44600
N  34.40200 48.60000 23.40600
C  34.24300 49.39400 22.35500
C  34.44800 48.73400 20.94600
C  34.79300 47.28700 21.47400
C  34.74300 47.38200 23.01500
C  33.28500 48.72500 19.92800
C  36.22800 46.93900 21.05900
C  37.47400 47.55900 21.78600
N  34.86300 47.37600 26.02900
C  35.01700 46.20600 25.26900
C  35.22000 45.08800 26.12300
C  35.07400 45.55400 27.41200
C  34.86900 46.95800 27.30400
C  35.60500 43.66800 25.65700
C  35.17000 45.21500 28.81700
O  35.35900 44.15100 29.40400
C  34.81000 46.51000 29.58700
C  33.51700 46.16100 30.33300
O  32.42700 46.15400 29.79000
O  33.75200 45.74500 31.62500
C  32.52800 45.61700 32.44500
H  32.78100 52.94600 27.71800
H  33.84600 51.30800 21.60100
H  35.18800 45.31200 23.46700
H  33.28300 49.00500 30.46300
H  33.97400 51.79400 30.06100
H  31.47100 50.36600 30.40600
H  31.26400 51.75700 29.39700
H  31.95200 51.86600 31.03400
H  35.55800 50.83600 31.03200
H  36.00100 49.15600 30.57200
H  35.64900 50.14100 33.10400
H  35.47100 48.47800 32.87500
H  30.82400 54.47800 24.94900
H  32.13400 55.13200 25.92100
H  31.24200 53.79300 26.45500
H  32.26700 55.60600 23.24700
H  30.89100 54.55700 22.56500
H  32.01600 55.52200 21.51600
H  35.30000 49.15600 20.41300
H  34.10000 46.46800 21.28000
H  32.36500 49.05800 20.40700
H  33.25900 47.73100 19.48100
H  33.51700 49.31400 19.04100
H  36.42500 47.14600 20.00700
H  36.18200 45.85800 21.18500
H  37.27500 48.61200 21.98600
H  38.32100 47.51600 21.10200
H  37.69500 47.02600 22.71100
H  36.45300 43.30500 26.23800
H  35.87200 43.61900 24.60100
H  34.80300 42.97400 25.90900
H  35.51900 46.62900 30.40600
H  32.24200 44.56500 32.46900
H  31.70000 46.25300 32.13300
H  32.77100 45.87500 33.47600

