158

Mg 0.59900 6.81400 26.05300
C  1.18200 8.72700 28.99600
C  0.51800 4.02200 28.09200
C  -0.00000 4.96900 23.36800
C  1.10800 9.67700 24.20100
N  0.96800 6.50700 28.29200
C  0.94100 7.43100 29.29200
C  0.77500 6.81700 30.65300
C  0.84500 5.28600 30.30600
C  0.71000 5.23400 28.79600
C  2.10300 4.45600 30.70000
C  -0.57600 7.27300 31.42100
C  -0.48600 7.76100 32.85200
H  0.72800 7.39500 33.71700
N  0.44600 4.71100 25.74800
C  0.34500 3.75100 26.70700
C  0.09600 2.47800 26.04100
C  0.00500 2.74400 24.64700
C  0.17300 4.16800 24.53000
C  0.15400 1.11200 26.71800
C  -0.14000 1.74600 23.46900
O  -0.11300 2.10600 22.28500
C  -0.12600 0.20800 23.70100
N  0.49900 7.27600 24.12400
C  0.18700 6.36800 23.20800
C  -0.05600 6.99300 21.83100
C  0.39600 8.45700 22.06000
C  0.77000 8.42500 23.57300
C  0.62800 6.26800 20.55600
C  -0.63800 9.54500 21.63400
C  -1.86200 9.64100 22.63000
N  0.96500 8.79800 26.49600
C  1.29700 9.81200 25.60000
C  1.58300 11.06900 26.26200
C  1.53400 10.63500 27.65100
C  1.20000 9.27800 27.70000
C  2.06600 12.38800 25.59300
C  1.84700 11.10300 28.93300
O  2.26200 12.24000 29.26700
C  1.44800 9.90900 29.93400
C  2.53800 9.83800 30.89100
O  3.60300 9.30400 30.71900
O  2.27100 10.56400 32.00500
C  3.43900 10.75900 32.85100
H  0.35400 3.14800 28.72600
H  -0.28500 4.47900 22.43400
H  1.16800 10.51900 23.50800
H  1.59600 7.07000 31.32300
H  0.01800 4.70100 30.70900
H  2.81800 4.95800 31.35100
H  2.65000 4.10600 29.82500
H  1.68700 3.54300 31.12700
H  -1.36700 6.56700 31.16800
H  -0.87800 8.15500 30.85500
H  -1.39500 7.44000 33.36100
H  -0.47200 8.83800 32.68700
H  0.56100 1.12800 27.72900
H  0.79300 0.46100 26.12100
H  -0.87700 0.76600 26.64900
H  0.84800 -0.26700 23.81700
H  -0.49800 -0.22400 22.77200
H  -0.80300 0.01000 24.53200
H  -1.13600 7.01000 21.68300
H  1.23200 8.73500 21.41900
H  1.04000 5.31400 20.88400
H  1.34000 6.96600 20.11500
H  -0.07700 6.03500 19.75800
H  -1.04800 9.29600 20.65600
H  -0.26000 10.54200 21.40600
H  -2.82900 9.70800 22.13300
H  -1.71200 10.54600 23.21800
H  -1.90500 8.76000 23.27100
H  2.86100 12.16200 24.88200
H  2.50100 13.03800 26.35300
H  1.24100 12.88600 25.08200
H  0.52700 10.15200 30.46400
H  3.99200 11.64400 32.53500
H  4.11100 9.90100 32.86500
H  3.07300 10.98300 33.85300
Mg 8.07600 2.91000 27.45300
C  9.49200 1.35500 30.26500
C  6.27100 5.01900 29.45900
C  6.73800 4.11100 24.71900
C  9.70400 0.34000 25.49500
N  7.66200 2.96600 29.70900
C  8.59500 2.42900 30.58700
C  8.37100 3.08800 32.00000
C  7.01000 3.95900 31.77300
C  7.00800 4.06300 30.19500
C  5.72700 3.53700 32.48100
C  9.51200 3.84800 32.67500
C  9.93100 3.36300 34.09900
H  10.40900 4.39000 35.17800
N  6.80800 4.50700 27.11000
C  6.15000 5.30600 28.07900
C  5.42800 6.35300 27.42100
C  5.44100 6.03100 26.05800
C  6.40100 4.86700 25.88900
C  4.80200 7.57000 28.11100
C  4.80600 6.67100 24.91300
O  4.92900 6.19200 23.80900
C  4.00800 7.95700 25.06600
N  8.09700 2.13400 25.48400
C  7.43900 2.90300 24.51300
C  7.68600 2.40300 23.10600
C  8.86000 1.30200 23.36500
C  8.88000 1.29000 24.89800
C  6.38300 1.88800 22.47100
C  10.24500 1.60700 22.73200
C  10.85700 0.51400 21.84400
N  9.11800 1.01700 27.78000
C  9.79800 0.18500 26.88200
C  10.65900 -0.74800 27.66000
C  10.59400 -0.28700 28.97400
C  9.61400 0.73500 28.98900
C  11.53400 -1.79000 27.14200
C  11.12600 -0.35700 30.32400
O  12.01400 -1.07300 30.69900
C  10.43400 0.70800 31.23700
C  9.78100 -0.16700 32.29400
O  9.09200 -1.13700 32.00900
O  10.29500 0.23600 33.50400
C  9.86000 -0.56200 34.71000
H  5.79900 5.74600 30.12300
H  6.38000 4.42200 23.73500
H  10.37200 -0.30300 24.91800
H  8.14800 2.24600 32.65500
H  7.19600 4.99800 32.04400
H  5.24100 4.40300 32.93100
H  5.96800 2.72200 33.16300
H  4.97300 3.21500 31.76200
H  9.31300 4.91400 32.78300
H  10.36000 3.74500 31.99700
H  10.78600 2.70200 33.95500
H  9.09300 2.87400 34.59400
H  5.38800 8.39300 27.70300
H  4.85000 7.46700 29.19600
H  3.73700 7.55900 27.87900
H  3.51800 8.04700 24.09600
H  4.75300 8.71500 25.30900
H  3.27600 7.75000 25.84600
H  7.92200 3.29500 22.52600
H  8.50900 0.33100 23.01500
H  6.38800 2.32100 21.47100
H  5.48400 2.27300 22.95200
H  6.55100 0.81200 22.42700
H  10.93800 1.82200 23.54500
H  10.23700 2.51100 22.12300
H  11.93300 0.39900 21.97700
H  10.63700 0.70400 20.79300
H  10.40200 -0.45000 22.07000
H  12.60000 -1.69900 27.35100
H  11.49200 -1.90900 26.06000
H  11.22700 -2.74500 27.56700
H  11.25900 1.31600 31.60900
H  9.45800 -1.56400 34.55600
H  9.44700 0.21500 35.35300
H  10.80900 -0.76800 35.20500

