158

Mg 24.21100 -5.85200 45.68200
C  26.39900 -3.40600 44.23200
C  21.74100 -4.31900 43.77200
C  22.35200 -8.64400 46.14100
C  27.02900 -7.35000 47.19600
N  24.12100 -4.02600 44.24600
C  25.09800 -3.22700 43.75400
C  24.61500 -2.27800 42.69900
C  23.07100 -2.35000 42.92200
C  22.93200 -3.69200 43.69200
C  22.50600 -1.08700 43.61900
C  25.08600 -2.79200 41.32300
C  25.60900 -1.65800 40.39300
H  25.22800 -1.92700 38.89800
N  22.23600 -6.34100 45.20000
C  21.38300 -5.54600 44.47700
C  20.10000 -6.15800 44.32600
C  20.19700 -7.43500 45.01700
C  21.57400 -7.55700 45.56100
C  18.95900 -5.59500 43.56700
C  19.13700 -8.51200 45.12900
O  18.04200 -8.38900 44.58400
C  19.33200 -9.77500 45.98400
N  24.56000 -7.70600 46.63000
C  23.66100 -8.66600 46.64700
C  24.19900 -9.84300 47.48300
C  25.58300 -9.42100 48.06500
C  25.78900 -8.11700 47.27100
C  23.23300 -10.53000 48.51500
C  26.73300 -10.53300 48.04500
C  27.32600 -11.01700 49.33700
N  26.25300 -5.38200 45.89800
C  27.23700 -6.11200 46.53100
C  28.47700 -5.42000 46.35700
C  28.24900 -4.29800 45.50400
C  26.84200 -4.40100 45.18800
C  29.81200 -5.88800 46.86300
C  28.87800 -3.23100 44.76400
O  30.04100 -2.84100 44.66800
C  27.66300 -2.62000 43.98300
C  27.57900 -1.16200 44.16800
O  27.42900 -0.54900 45.23500
O  27.91600 -0.55900 42.99400
C  27.89600 0.87400 42.91600
H  21.01900 -3.74700 43.18500
H  21.91100 -9.64200 46.12800
H  27.98100 -7.68200 47.61400
H  25.10300 -1.36400 43.03800
H  22.57900 -2.57400 41.97500
H  23.13000 -0.19600 43.68900
H  22.19500 -1.32600 44.63600
H  21.55600 -0.91100 43.11300
H  24.24100 -3.28900 40.84700
H  25.79900 -3.61600 41.34300
H  26.68500 -1.54300 40.52300
H  25.17300 -0.73500 40.77600
H  18.93100 -6.14700 42.62800
H  19.00900 -4.52300 43.37600
H  18.04300 -5.79500 44.12400
H  18.32400 -10.07800 46.26600
H  19.89400 -9.60700 46.90200
H  19.66100 -10.56400 45.30800
H  24.32900 -10.71500 46.84200
H  25.36200 -9.17300 49.10300
H  22.43000 -9.84400 48.78500
H  23.79600 -10.75300 49.42100
H  22.87100 -11.51700 48.22800
H  27.55700 -10.13800 47.45000
H  26.45800 -11.40400 47.45100
H  26.93400 -10.39200 50.14000
H  28.39300 -10.79500 49.31400
H  27.20000 -12.08300 49.52400
H  30.10200 -6.78200 46.31100
H  29.79100 -5.95800 47.95000
H  30.45600 -5.04000 46.62900
H  27.89900 -2.75000 42.92700
H  27.04600 1.30500 43.44600
H  28.03500 1.29000 41.91900
H  28.84300 1.10800 43.40200
Mg 44.32000 3.77800 47.17500
C  42.48000 6.81500 47.44100
C  41.36100 2.06300 46.61400
C  46.11400 1.15900 46.33900
C  47.32700 5.82500 47.08800
N  42.19300 4.46600 47.20600
C  41.71700 5.68100 47.46900
C  40.18000 5.55200 47.53400
C  39.90400 4.05100 47.27200
C  41.23200 3.47400 47.05100
C  39.26900 3.24600 48.47700
C  39.46200 6.54600 46.50400
C  39.99700 6.57000 45.05800
H  39.12800 6.06100 43.85100
N  43.84600 1.76000 46.65700
C  42.57500 1.27200 46.55500
C  42.70100 -0.10500 45.98400
C  44.10800 -0.42800 45.92000
C  44.74700 0.82600 46.33500
C  41.47800 -0.98200 45.75500
C  44.76000 -1.67800 45.39300
O  43.96100 -2.57800 45.09200
C  46.29500 -1.94100 45.35700
N  46.36200 3.59100 46.63100
C  46.85200 2.31100 46.56000
C  48.39500 2.33500 46.36400
C  48.68700 3.86900 46.54700
C  47.36500 4.48100 46.80400
C  49.19900 1.30000 47.23600
C  49.57900 4.54700 45.47600
C  51.00400 4.92900 45.85200
N  44.84300 5.89800 47.21600
C  46.07500 6.54700 47.19500
C  45.87800 7.91900 47.14600
C  44.44000 8.09700 47.34800
C  43.90200 6.87600 47.30400
C  46.93500 9.01000 47.30700
C  43.45700 9.05700 47.54700
O  43.48200 10.30300 47.56200
C  42.13500 8.31900 47.57500
C  41.37100 8.48700 48.84000
O  41.39700 7.77000 49.84600
O  40.52800 9.59900 48.75600
C  39.74500 9.90400 49.94300
H  40.40100 1.63800 46.31300
H  46.86700 0.42300 46.04900
H  48.28300 6.34600 47.17600
H  40.06300 5.73900 48.60100
H  39.29900 3.94100 46.37200
H  38.62800 2.40300 48.22200
H  38.63500 3.96400 48.99700
H  40.06500 2.81400 49.08400
H  39.55000 7.56800 46.87200
H  38.39600 6.32400 46.46100
H  40.87700 5.94600 44.90000
H  40.40600 7.57800 44.98800
H  41.51500 -1.83600 46.43100
H  41.43000 -1.28500 44.71000
H  40.58000 -0.42700 46.02800
H  46.82200 -1.78100 46.29800
H  46.73700 -1.33700 44.56500
H  46.42600 -2.96900 45.01800
H  48.60600 2.02800 45.33900
H  49.20500 3.95000 47.50300
H  48.58900 0.65600 47.86900
H  50.02600 1.76700 47.77200
H  49.69200 0.76000 46.42800
H  48.98100 5.37700 45.10100
H  49.71600 3.83300 44.66300
H  51.61200 4.56700 45.02300
H  51.40100 4.44300 46.74300
H  51.05800 6.01700 45.84400
H  47.77300 8.75900 46.65600
H  47.45200 8.95300 48.26500
H  46.61600 10.01000 47.01300
H  41.64400 8.51900 46.62300
H  40.17300 10.78900 50.41400
H  39.51600 9.07300 50.61000
H  38.74300 10.18100 49.61500

