158

Mg 36.59400 49.25500 25.81600
C  36.50500 47.04500 28.66700
C  35.72900 51.83900 28.14800
C  36.18700 51.23100 23.26900
C  37.03400 46.38200 23.83800
N  36.08500 49.44500 28.13400
C  36.19000 48.41800 29.09500
C  35.98100 48.89100 30.52600
C  35.53500 50.41100 30.28300
C  35.83600 50.61700 28.78100
C  34.01300 50.72700 30.70700
C  37.22800 48.87700 31.46200
C  36.81300 48.58200 32.97600
H  35.35500 48.75300 33.59200
N  36.23200 51.31500 25.71700
C  35.84600 52.19200 26.73700
C  35.74000 53.49200 26.15300
C  36.03900 53.37000 24.73100
C  36.14200 51.95700 24.49600
C  35.48100 54.86600 26.98500
C  36.26900 54.46900 23.74300
O  36.41800 54.18500 22.55600
C  36.32200 55.98600 24.16700
N  36.52100 48.79100 23.85600
C  36.37300 49.84200 22.93700
C  36.66900 49.35000 21.47400
C  37.17700 47.82200 21.71400
C  36.86300 47.66600 23.20700
C  35.49400 49.54800 20.52300
C  38.63700 47.46100 21.40000
C  38.85900 46.05800 20.75800
N  36.68200 47.15600 26.13200
C  36.83500 46.11000 25.22800
C  37.08900 44.87300 25.91600
C  37.01700 45.23400 27.28700
C  36.70400 46.60600 27.34100
C  37.32900 43.56300 25.28900
C  36.96700 44.65300 28.62700
O  37.27400 43.58500 29.08200
C  36.52500 45.80500 29.58300
C  35.28200 45.48300 30.31100
O  34.18300 45.90000 30.03100
O  35.56500 44.83600 31.42800
C  34.42100 44.56700 32.35100
H  35.50900 52.66900 28.82200
H  36.27600 51.93500 22.43900
H  37.56900 45.53200 23.40900
H  35.26600 48.22100 31.00400
H  36.15600 51.11000 30.84100
H  34.01200 51.48700 31.48800
H  33.44800 49.87700 31.09000
H  33.45700 51.20500 29.90000
H  37.81000 49.79100 31.34000
H  37.73500 48.08800 30.90700
H  37.46900 49.19000 33.59900
H  37.00900 47.51400 33.07100
H  35.08600 54.62200 27.97100
H  34.83400 55.58700 26.48400
H  36.50500 55.22300 27.08900
H  36.96400 56.20200 25.02100
H  35.28000 56.26600 24.31600
H  36.73700 56.54200 23.32500
H  37.58800 49.82500 21.13000
H  36.46600 47.13900 21.24900
H  35.26500 48.57900 20.07900
H  35.74300 50.15300 19.65100
H  34.67200 49.77000 21.20300
H  39.26200 47.40000 22.29100
H  39.18100 48.07300 20.68100
H  39.44800 46.16400 19.84700
H  37.91700 45.61300 20.43900
H  39.29900 45.44100 21.54100
H  36.53900 43.35100 24.56900
H  37.21800 42.78000 26.04000
H  38.32100 43.47900 24.84400
H  37.31300 45.92300 30.32600
H  34.69900 44.58700 33.40500
H  34.11600 43.52500 32.25100
H  33.52300 45.16300 32.18900
Mg -10.42000 40.04800 39.14000
C  -9.17800 36.85700 38.67700
C  -7.29800 41.34300 38.54800
C  -11.80100 43.08600 39.16800
C  -13.74100 38.61300 39.18100
N  -8.48200 39.16100 38.69100
C  -8.16200 37.86400 38.60000
C  -6.62500 37.68600 38.51500
C  -6.12200 39.12600 38.85100
C  -7.36600 39.95000 38.70000
C  -5.40600 39.17800 40.19200
C  -6.10100 37.04700 37.18400
C  -6.74400 37.51600 35.87300
H  -7.19900 36.50400 34.87200
N  -9.67600 41.93100 38.87300
C  -8.34300 42.27800 38.74700
C  -8.29800 43.75900 38.63000
C  -9.62600 44.27100 38.78000
C  -10.41300 43.09900 38.91600
C  -7.02300 44.54200 38.43600
C  -9.98600 45.80400 38.73500
O  -9.06800 46.60600 38.56900
C  -11.38700 46.38500 38.95000
N  -12.48800 40.76200 39.04800
C  -12.72100 42.03700 39.30900
C  -14.19500 42.36200 39.63600
C  -14.84900 41.00300 39.25300
C  -13.66500 40.04400 39.15200
C  -14.37000 42.74900 41.12600
C  -15.64500 40.96300 37.91900
C  -17.12500 40.56400 38.03000
N  -11.30500 38.10700 39.14400
C  -12.62200 37.72500 39.19100
C  -12.75100 36.24500 39.27700
C  -11.40300 35.84900 39.04200
C  -10.62000 36.99400 38.90700
C  -14.01300 35.39900 39.54600
C  -10.48900 34.70700 38.95700
O  -10.80000 33.55900 38.98100
C  -9.04900 35.37400 38.69900
C  -8.33300 34.83500 39.88800
O  -8.76700 34.90400 41.05300
O  -7.23100 34.12500 39.48600
C  -6.31700 33.64900 40.50900
H  -6.30200 41.73800 38.33600
H  -12.23700 44.08400 39.23700
H  -14.68300 38.06700 39.26100
H  -6.52600 37.04800 39.39300
H  -5.54400 39.38100 37.96200
H  -5.92400 39.88800 40.83700
H  -4.39700 39.46400 39.89600
H  -5.32200 38.24700 40.75200
H  -6.07100 35.96000 37.26900
H  -5.07600 37.40600 37.27800
H  -5.94900 38.07500 35.38000
H  -7.60600 38.16700 36.02100
H  -6.93700 45.12200 37.51800
H  -6.07400 44.00700 38.48700
H  -6.92300 45.29800 39.21500
H  -12.13200 46.09200 38.21000
H  -11.44800 47.45700 39.13900
H  -11.58000 45.88000 39.89700
H  -14.60000 43.13800 38.98600
H  -15.46600 40.69400 40.09700
H  -15.11900 42.14200 41.63500
H  -14.70300 43.78600 41.16100
H  -13.46200 42.78800 41.72700
H  -15.16700 40.15000 37.37200
H  -15.59200 41.93300 37.42500
H  -17.68700 41.40800 38.43000
H  -17.25900 39.74000 38.73000
H  -17.49700 40.22400 37.06300
H  -13.77300 34.36200 39.31300
H  -14.89700 35.79100 39.04200
H  -14.31900 35.41600 40.59200
H  -8.65500 34.78400 37.87100
H  -5.72500 34.51600 40.80200
H  -5.79000 32.92800 39.88400
H  -6.77800 33.11000 41.33700

