158

Mg -1.84500 17.26200 26.40900
C  -2.14600 14.67300 28.83400
C  -2.36100 19.56800 28.85500
C  -2.04300 19.84700 24.06700
C  -2.34300 14.80300 24.02200
N  -2.18800 17.06800 28.54300
C  -2.14100 15.98400 29.42600
C  -2.39800 16.33700 30.91400
C  -2.28800 17.91700 30.78000
C  -2.25200 18.19600 29.32500
C  -3.37700 18.67200 31.63300
C  -1.30000 15.78800 31.93600
C  -1.15600 16.47200 33.26500
H  -1.36500 15.67200 34.54600
N  -2.12300 19.38800 26.50400
C  -2.30700 20.12300 27.55200
C  -2.47400 21.53800 27.28300
C  -2.14900 21.61300 25.90800
C  -2.06700 20.25800 25.44100
C  -2.67300 22.59800 28.40000
C  -2.01100 22.91200 25.04600
O  -1.55200 22.96100 23.89300
C  -2.41800 24.18400 25.75200
N  -2.34100 17.39400 24.40300
C  -2.20300 18.48700 23.59000
C  -2.33300 18.10700 22.06700
C  -2.36600 16.59100 22.09300
C  -2.35000 16.20800 23.59100
C  -3.45200 18.88900 21.45000
C  -1.21100 15.91100 21.32200
C  -1.42000 15.65400 19.82500
N  -2.02500 15.14100 26.35700
C  -2.29600 14.33700 25.32000
C  -2.47500 12.97900 25.76100
C  -2.46300 13.08600 27.13900
C  -2.13100 14.40900 27.47100
C  -2.63600 11.69300 25.02900
C  -2.61200 12.31100 28.34000
O  -2.92100 11.09800 28.39900
C  -2.40700 13.32600 29.49800
C  -1.33600 12.85200 30.41400
O  -0.19000 13.17400 30.36500
O  -1.87800 11.87000 31.17500
C  -1.03400 11.39500 32.26600
H  -2.53300 20.29500 29.65100
H  -2.06600 20.70000 23.38500
H  -2.41500 14.07400 23.21200
H  -3.44000 16.19000 31.19900
H  -1.32600 18.20900 31.20100
H  -3.03200 19.51600 32.23100
H  -3.84800 17.97100 32.32200
H  -4.19100 18.97500 30.97600
H  -0.34300 15.73100 31.41800
H  -1.73400 14.80600 32.12200
H  -1.77600 17.36000 33.38800
H  -0.15200 16.88900 33.34600
H  -1.77000 23.20800 28.42700
H  -2.88900 22.20200 29.39300
H  -3.54300 23.24500 28.29400
H  -2.39600 25.01200 25.04400
H  -1.75100 24.31700 26.60500
H  -3.38000 24.00600 26.23200
H  -1.40700 18.34200 21.54200
H  -3.29000 16.23400 21.63700
H  -3.87300 19.48500 22.26000
H  -4.30100 18.33500 21.04900
H  -3.09000 19.38500 20.54900
H  -1.10000 14.86900 21.62100
H  -0.27700 16.44500 21.49500
H  -2.22800 16.22900 19.37300
H  -1.60800 14.60300 19.60300
H  -0.49300 15.93900 19.32700
H  -3.45000 11.07100 25.40200
H  -1.63500 11.28900 25.17600
H  -2.95300 11.87200 24.00200
H  -3.33400 13.30800 30.07200
H  -1.22400 12.19000 32.98800
H  0.03000 11.37000 32.03100
H  -1.34900 10.43700 32.68000
Mg 9.48000 48.03300 26.01900
C  7.44700 48.43900 28.87600
C  12.15700 49.20700 27.95100
C  11.39800 48.10900 23.24900
C  6.57300 47.69900 24.14100
N  9.67300 48.83400 28.12500
C  8.79000 48.74700 29.17700
C  9.49800 49.00500 30.55900
C  10.93900 49.58200 30.19500
C  10.95800 49.18300 28.66000
C  11.20400 51.15700 30.30200
C  9.55700 47.71900 31.42900
C  10.38800 47.77100 32.68000
H  9.83300 46.99200 33.86900
N  11.55700 48.35000 25.71000
C  12.45400 48.81800 26.60600
C  13.78100 48.83900 25.95900
C  13.59800 48.42400 24.60800
C  12.14600 48.31000 24.47200
C  15.07600 49.12100 26.68400
C  14.64900 48.15600 23.58300
O  14.30600 47.77800 22.46900
C  16.20000 48.24800 23.85900
N  9.10500 47.61300 24.09800
C  10.02500 47.80500 23.05300
C  9.38600 47.63000 21.62700
C  7.91400 47.33500 21.98700
C  7.84300 47.57100 23.52800
C  9.67400 48.60000 20.43600
C  7.38200 46.00300 21.47900
C  6.54300 46.07600 20.20300
N  7.42700 47.95200 26.38800
C  6.35800 47.78600 25.48000
C  5.07900 47.84900 26.19100
C  5.49000 48.07900 27.60000
C  6.88500 48.20400 27.58600
C  3.69800 47.61000 25.64700
C  5.00500 48.29100 28.91300
O  3.87300 48.22100 29.37400
C  6.29500 48.43300 29.88700
C  6.22700 47.21200 30.71100
O  6.51900 46.14100 30.30300
O  5.73200 47.40500 31.98700
C  5.22200 46.29300 32.78500
H  13.02400 49.60400 28.48400
H  11.87200 48.00200 22.27100
H  5.72600 47.54900 23.46800
H  8.89200 49.79200 31.00600
H  11.86400 49.17000 30.59800
H  11.54700 51.33100 31.32200
H  10.20700 51.56000 30.12200
H  11.85400 51.59800 29.54600
H  9.88000 46.98800 30.68800
H  8.54300 47.51000 31.77000
H  10.54500 48.82600 32.90100
H  11.32900 47.32200 32.36000
H  15.00900 49.69600 27.60800
H  15.63300 49.75100 25.99000
H  15.70100 48.27700 26.97500
H  16.36400 47.61400 24.73000
H  16.50700 49.27200 24.07200
H  16.85600 47.91700 23.05400
H  9.85400 46.67000 21.40800
H  7.35000 48.19400 21.62400
H  10.33300 48.18100 19.67600
H  10.17300 49.44900 20.90300
H  8.75300 48.99600 20.00900
H  6.64700 45.63200 22.19400
H  8.13000 45.21600 21.37800
H  6.75600 47.00600 19.67400
H  5.48300 46.03200 20.45200
H  6.85000 45.15500 19.70800
H  2.92200 47.75200 26.39900
H  3.78000 46.54100 25.45000
H  3.47500 48.03600 24.66900
H  6.33500 49.27500 30.57700
H  4.83500 46.74000 33.70100
H  6.07600 45.64600 32.98700
H  4.50000 45.62200 32.32000

