158

Mg 41.57900 6.85100 29.62600
C  43.12400 8.42300 32.38100
C  39.12100 5.57700 31.76000
C  39.98100 5.48600 27.01500
C  44.03400 8.03600 27.66600
N  41.17400 6.91900 31.79900
C  41.87500 7.85700 32.66400
C  41.11700 7.86100 33.97100
C  40.07400 6.69200 33.91300
C  40.09400 6.35600 32.40200
C  40.49200 5.42400 34.69000
C  40.49100 9.18700 34.48600
C  40.49800 9.35300 36.00200
H  41.38800 10.40400 36.63600
N  39.87600 5.66100 29.40100
C  38.99100 5.28200 30.39600
C  37.93800 4.58700 29.81900
C  38.04800 4.68200 28.47800
C  39.33900 5.27800 28.20400
C  36.79400 4.12500 30.68900
C  37.02000 4.25400 27.43700
O  37.21000 4.49600 26.27300
C  35.68400 3.53100 27.80800
N  42.21800 6.41300 27.66200
C  41.21300 6.02500 26.71400
C  41.79900 6.21900 25.29200
C  43.00700 7.18600 25.48600
C  43.06300 7.25400 27.07600
C  42.29200 4.88300 24.67800
C  42.90400 8.54800 24.84100
C  41.56700 9.36000 25.12900
N  43.43800 7.83100 29.94700
C  44.29700 8.24900 29.03100
C  45.44700 8.92200 29.67700
C  45.04400 9.05300 31.02400
C  43.77500 8.34200 31.11200
C  46.64600 9.55200 29.03900
C  45.26700 9.71700 32.30400
O  46.07700 10.57300 32.65100
C  44.02200 9.29100 33.26300
C  44.70400 8.60100 34.37600
O  45.40500 7.62300 34.33100
O  44.42300 9.17600 35.55800
C  44.82100 8.63300 36.85700
H  38.33100 5.30700 32.46500
H  39.40400 5.11900 26.16400
H  44.82900 8.40100 27.01300
H  41.87700 7.56100 34.69200
H  39.05100 6.89600 34.23000
H  40.97400 4.73000 34.00100
H  39.57500 4.93100 35.01200
H  41.18400 5.67100 35.49600
H  39.42900 9.22100 34.24000
H  41.01000 9.93400 33.88600
H  40.52500 8.40500 36.53900
H  39.49500 9.68700 36.26400
H  35.79600 4.48600 30.44100
H  36.93900 4.16900 31.76900
H  36.85400 3.05000 30.51700
H  36.05500 2.79900 28.52500
H  35.18900 3.00600 26.99100
H  35.12800 4.19800 28.46800
H  41.09000 6.69200 24.61300
H  43.97500 6.79900 25.16900
H  43.35900 4.66500 24.68600
H  42.04800 4.85200 23.61600
H  41.82500 3.99000 25.09400
H  42.90200 8.47900 23.75300
H  43.74900 9.21600 25.00800
H  41.12900 9.01100 26.06400
H  40.77800 9.19800 24.39500
H  41.88700 10.40200 25.14500
H  46.46000 9.58500 27.96500
H  47.55500 8.98600 29.24500
H  46.77400 10.60400 29.29200
H  43.57600 10.23000 33.59000
H  44.94800 7.56300 36.69300
H  44.06500 8.71800 37.63700
H  45.78900 9.01100 37.18800
Mg 47.74300 45.22700 43.17200
C  44.27500 44.93900 43.18400
C  47.90700 41.78200 43.02600
C  51.00400 45.49200 42.48000
C  47.33900 48.73100 42.73300
N  46.25100 43.58100 42.90800
C  44.86600 43.69700 43.10800
C  44.23200 42.26700 43.19000
C  45.45900 41.34400 43.47900
C  46.59600 42.28000 43.11800
C  45.57900 40.90000 44.94700
C  43.46500 41.85000 41.91500
C  43.47200 42.79500 40.71700
H  42.84800 42.36800 39.35800
N  49.20200 43.85900 42.70400
C  49.08800 42.51000 42.76800
C  50.40500 41.90500 42.47900
C  51.35000 42.92000 42.30100
C  50.53500 44.17600 42.48900
C  50.55000 40.41000 42.26500
C  52.87000 42.74800 41.90300
O  53.36500 41.64000 41.96300
C  53.70200 43.94200 41.58200
N  48.94300 46.84100 42.49800
C  50.26600 46.65000 42.47500
C  50.95200 47.98600 42.71000
C  49.83500 49.06900 42.55100
C  48.58700 48.18200 42.61400
C  51.70200 48.08100 44.10200
C  49.97400 49.80700 41.17300
C  49.74000 51.31000 41.29400
N  46.24600 46.60800 43.02100
C  46.20300 47.99600 42.92700
C  44.81000 48.44500 43.01900
C  44.05800 47.27000 43.05100
C  44.92200 46.20900 43.12600
C  44.41500 49.86400 43.05400
C  42.67900 46.79700 43.22400
O  41.63200 47.44000 43.20300
C  42.77900 45.28600 43.25200
C  42.21800 44.88400 44.53900
O  42.59100 45.26500 45.62100
O  41.20200 43.90500 44.37800
C  40.59600 43.47200 45.59800
H  48.02700 40.73100 43.29700
H  52.07700 45.69000 42.43900
H  47.21900 49.79600 42.52600
H  43.63900 42.22400 44.10400
H  45.45500 40.53400 42.75000
H  44.69900 40.29100 45.15700
H  45.54000 41.74900 45.62900
H  46.59000 40.49600 45.00300
H  42.42800 41.73600 42.22900
H  43.90300 40.90900 41.58100
H  44.47100 43.10700 40.41100
H  42.90200 43.67500 41.01300
H  50.65200 40.34200 41.18200
H  49.77400 39.73300 42.62300
H  51.53200 40.04900 42.57000
H  53.23900 44.43100 40.72500
H  54.73200 43.61200 41.44400
H  53.66100 44.56100 42.47900
H  51.69600 48.05500 41.91600
H  49.83000 49.77200 43.38400
H  51.51300 48.90300 44.79300
H  52.72100 48.09800 43.71700
H  51.59700 47.12500 44.61500
H  49.22300 49.36900 40.51500
H  50.96200 49.72200 40.71900
H  48.79000 51.48100 40.78700
H  50.51700 51.77000 40.68400
H  49.68600 51.53700 42.35900
H  45.06700 50.41800 43.72900
H  43.40100 50.03300 43.41600
H  44.54200 50.23900 42.03800
H  42.19700 44.96500 42.38900
H  40.04200 44.32500 45.98900
H  41.26100 43.13500 46.39400
H  40.01600 42.60800 45.27200

