158

Mg -1.87900 34.18500 27.31400
C  -3.58300 32.14900 29.75200
C  -0.62600 36.03100 30.08600
C  -0.61800 36.45600 25.24000
C  -3.55100 32.58300 24.81600
N  -2.12200 34.08300 29.62800
C  -2.88400 33.24900 30.36800
C  -2.86400 33.51100 31.83200
C  -2.03200 34.86600 31.84800
C  -1.52400 35.04700 30.48300
C  -2.95100 36.10800 32.32900
C  -2.16900 32.33300 32.55700
C  -2.95700 31.70700 33.79400
H  -2.23500 31.77400 35.15400
N  -0.67300 35.89300 27.64800
C  -0.17200 36.39500 28.83900
C  0.77800 37.46100 28.49900
C  0.72700 37.69800 27.09500
C  -0.23700 36.70500 26.60000
C  1.61700 38.18000 29.45400
C  1.32700 38.72700 26.25200
O  1.12200 38.91300 25.06400
C  2.35400 39.61700 26.87700
N  -2.06500 34.46500 25.31900
C  -1.51900 35.55300 24.71300
C  -1.93500 35.57900 23.22900
C  -2.53800 34.19200 23.07600
C  -2.77200 33.74400 24.48200
C  -2.97600 36.76400 22.91200
C  -1.70400 33.20000 22.15400
C  -0.94300 32.08400 22.88800
N  -3.23000 32.67600 27.22000
C  -3.75700 32.10000 26.07800
C  -4.71400 31.10300 26.50900
C  -4.59500 31.07800 27.88500
C  -3.68800 32.03400 28.26500
C  -5.59100 30.25400 25.60300
C  -5.09600 30.38500 29.05800
O  -5.88000 29.44200 29.13900
C  -4.48100 31.03900 30.30400
C  -5.67500 31.53000 31.08900
O  -6.54100 32.28400 30.74200
O  -5.62900 30.90300 32.30900
C  -6.79700 30.82000 33.20500
H  -0.17500 36.70900 30.81400
H  -0.27000 37.21000 24.53000
H  -4.07900 32.25200 23.91900
H  -3.88500 33.76600 32.11600
H  -1.23700 34.78700 32.59000
H  -2.45400 36.50300 33.21500
H  -3.97600 35.76400 32.46900
H  -2.92800 36.88600 31.56600
H  -1.17800 32.70400 32.81700
H  -2.03400 31.58100 31.77900
H  -3.28500 30.69000 33.57800
H  -3.90600 32.22600 33.92900
H  1.53900 37.71300 30.43600
H  1.18100 39.17900 29.44200
H  2.61100 38.04000 29.02800
H  1.95100 40.19800 27.70700
H  2.73500 40.33800 26.15400
H  3.20100 39.06700 27.28500
H  -1.08100 35.77000 22.57900
H  -3.54200 34.31900 22.67300
H  -3.90400 36.47800 22.41800
H  -2.48100 37.60800 22.43000
H  -3.33700 37.06000 23.89700
H  -0.96900 33.69600 21.52000
H  -2.36000 32.76800 21.39800
H  -0.43600 32.53000 23.74400
H  -0.17200 31.70400 22.21900
H  -1.65200 31.30500 23.17000
H  -6.49500 30.00900 26.16100
H  -5.11300 29.33800 25.25500
H  -5.90800 30.89600 24.78200
H  -3.85500 30.32100 30.83400
H  -6.92500 29.79000 33.53900
H  -7.72300 31.04900 32.67800
H  -6.61300 31.42200 34.09500
Mg -5.82900 25.44600 25.98700
C  -4.26500 26.65200 28.93800
C  -7.82300 23.51700 28.13300
C  -6.98000 23.83100 23.32100
C  -3.49600 27.12900 24.12200
N  -5.92200 25.15500 28.27300
C  -5.30100 25.78900 29.24300
C  -5.78300 25.36600 30.66400
C  -6.66400 24.15100 30.33200
C  -6.82300 24.23600 28.80100
C  -6.19400 22.89800 30.99200
C  -6.47700 26.53600 31.36600
C  -6.23500 26.81700 32.83800
H  -6.16800 25.52500 33.72700
N  -7.25600 23.91800 25.74700
C  -7.97500 23.28800 26.73600
C  -9.01200 22.50600 26.14800
C  -8.76000 22.53000 24.73900
C  -7.62700 23.43400 24.53000
C  -10.19800 21.84700 26.95600
C  -9.46900 21.70200 23.67200
O  -9.09200 21.68800 22.48500
C  -10.76000 20.98400 24.05300
N  -5.30400 25.51500 24.02200
C  -5.94600 24.81600 23.10900
C  -5.36300 24.98900 21.67600
C  -4.25100 26.04900 21.92000
C  -4.37200 26.27200 23.45000
C  -4.95100 23.77700 20.88800
C  -4.63600 27.45900 21.21700
C  -3.83200 27.64500 19.86900
N  -4.20200 26.72900 26.37500
C  -3.30400 27.33100 25.51200
C  -2.31300 28.06200 26.31800
C  -2.64300 27.86700 27.65100
C  -3.78400 27.01100 27.61600
C  -1.11700 28.91100 25.81600
C  -2.28800 28.18100 29.03300
O  -1.43900 28.92200 29.55400
C  -3.29900 27.35100 29.91600
C  -2.50700 26.45900 30.75900
O  -1.84200 25.55900 30.32700
O  -2.44300 26.96100 32.03100
C  -1.33400 26.52200 32.91700
H  -8.51000 23.09900 28.87300
H  -7.29900 23.38500 22.37700
H  -2.70700 27.60700 23.53800
H  -4.84100 25.07700 31.12900
H  -7.62600 24.29800 30.82200
H  -5.54600 23.15100 31.83100
H  -5.60600 22.32300 30.27600
H  -7.01200 22.26700 31.33800
H  -7.56000 26.49000 31.24900
H  -6.17000 27.43200 30.82500
H  -6.97900 27.46400 33.30200
H  -5.24100 27.26000 32.90100
H  -11.08900 22.28700 26.50800
H  -10.17000 22.24900 27.96900
H  -10.18600 20.78500 26.71100
H  -11.27500 20.66000 23.14800
H  -11.41100 21.75300 24.46800
H  -10.68100 20.13900 24.73700
H  -6.17500 25.38600 21.06500
H  -3.23200 25.73600 21.69000
H  -5.66300 22.95400 20.81400
H  -4.02400 23.42000 21.33800
H  -4.69300 24.09700 19.87900
H  -4.37300 28.33200 21.81300
H  -5.71300 27.50400 21.05100
H  -3.52600 26.77100 19.29300
H  -3.05100 28.39200 20.01800
H  -4.51600 28.23300 19.25700
H  -0.79700 28.48100 24.86700
H  -0.20300 28.85500 26.40800
H  -1.39600 29.95700 25.69000
H  -3.97200 27.97700 30.50100
H  -1.71000 25.56000 33.26600
H  -1.13300 27.20700 33.74100
H  -0.40000 26.34600 32.38200

