158

Mg 35.14300 3.15100 30.30100
C  32.91400 3.91700 32.73100
C  37.67500 2.87200 32.80100
C  37.56800 2.65700 27.93700
C  32.77100 3.61900 27.81600
N  35.20400 3.38800 32.48800
C  34.12500 3.72900 33.26400
C  34.53000 3.84100 34.76700
C  36.13100 3.92400 34.64200
C  36.37100 3.35500 33.22100
C  36.64200 5.37500 34.90600
C  34.02600 2.62800 35.50800
C  33.65400 2.85700 36.93500
H  34.29300 4.03800 37.80200
N  37.29500 2.71300 30.39000
C  38.08700 2.56000 31.53400
C  39.35600 2.12700 31.08700
C  39.43800 2.15300 29.71700
C  38.05900 2.51100 29.25800
C  40.31900 1.60700 32.18800
C  40.62700 1.73800 28.76300
O  40.52400 1.89500 27.58200
C  41.89900 1.23500 29.50900
N  35.26800 3.28100 28.20200
C  36.26100 2.88000 27.44900
C  35.93300 2.93500 25.92700
C  34.36400 2.86700 25.92300
C  34.09100 3.25900 27.38800
C  36.63400 4.03800 25.16500
C  33.92900 1.35700 25.82500
C  33.60000 0.94500 24.38100
N  33.24900 3.55400 30.18500
C  32.35200 3.75700 29.10400
C  31.01600 4.15000 29.61100
C  31.14500 4.09000 31.00400
C  32.55100 3.82000 31.34300
C  29.89700 4.42100 28.69900
C  30.42900 4.39300 32.21800
O  29.24300 4.53400 32.42600
C  31.54200 4.30500 33.36900
C  31.50800 5.64300 33.86700
O  31.63700 6.70000 33.25700
O  31.09700 5.71100 35.18200
C  30.85600 7.00600 35.90300
H  38.40100 2.73900 33.60600
H  38.26700 2.48400 27.11500
H  31.99300 3.44000 27.07100
H  34.09600 4.73700 35.21100
H  36.67000 3.27900 35.33600
H  35.77600 6.01400 34.73800
H  37.44200 5.68600 34.23400
H  36.98100 5.54100 35.92900
H  34.67200 1.79600 35.22600
H  33.01200 2.44800 35.15100
H  34.08000 2.04000 37.51700
H  32.56900 2.90700 37.02800
H  41.12700 0.99600 31.78500
H  39.80100 0.98200 32.91600
H  40.85300 2.39900 32.71300
H  42.29100 1.92500 30.25600
H  42.65500 1.19600 28.72500
H  41.66600 0.22400 29.84300
H  36.43400 2.03300 25.57500
H  33.81800 3.46000 25.19000
H  35.92000 4.52200 24.50000
H  37.43000 3.55700 24.59600
H  37.18700 4.78600 25.73400
H  32.96200 1.24900 26.31600
H  34.60600 0.59100 26.20400
H  33.91500 1.76500 23.73500
H  32.56700 0.67500 24.16300
H  34.23200 0.07900 24.18300
H  29.02800 4.61800 29.32700
H  29.73000 3.52000 28.11000
H  30.07900 5.35900 28.17500
H  31.39100 3.59500 34.18200
H  29.86100 7.09800 36.33800
H  31.09100 7.90900 35.34000
H  31.54500 7.07000 36.74600
Mg -3.16700 34.75500 26.72000
C  -5.20700 33.03700 29.03200
C  -2.42200 36.94300 29.39600
C  -1.49100 36.52800 24.62600
C  -4.24500 32.52800 24.31400
N  -3.72800 34.83800 28.95700
C  -4.47800 34.01000 29.68900
C  -4.29200 34.31000 31.19800
C  -3.73200 35.79700 31.15900
C  -3.32000 35.92500 29.70700
C  -4.80500 36.82800 31.58000
C  -3.47300 33.30900 31.93700
C  -3.47400 33.59900 33.44100
H  -2.18900 33.78400 34.11300
N  -2.07500 36.39900 26.93700
C  -1.85200 37.15300 28.11800
C  -0.85000 38.12300 27.81900
C  -0.47300 38.06600 26.49300
C  -1.43000 36.99100 25.96900
C  -0.24700 39.08100 28.85600
C  0.50300 38.86400 25.58800
O  0.77100 38.63400 24.37000
C  1.30300 39.94800 26.17000
N  -2.94100 34.64500 24.66800
C  -2.11500 35.42100 24.00700
C  -1.80000 34.88900 22.52000
C  -2.70900 33.61400 22.50100
C  -3.40900 33.62000 23.89800
C  -1.95300 35.88200 21.28400
C  -1.96700 32.24600 22.21900
C  -2.64600 31.33400 21.14900
N  -4.53800 33.24200 26.58700
C  -4.86000 32.42900 25.55700
C  -5.77500 31.34100 25.98100
C  -5.86900 31.57600 27.33100
C  -5.13300 32.73700 27.63800
C  -6.34600 30.27600 25.10400
C  -6.48600 31.00500 28.52900
O  -7.17300 29.99100 28.67100
C  -6.03200 32.00400 29.68200
C  -7.21200 32.41200 30.36700
O  -8.04700 33.25600 30.10900
O  -7.28600 31.69000 31.50800
C  -8.23600 32.06100 32.55700
H  -2.36100 37.68200 30.19800
H  -0.84700 36.95800 23.85500
H  -4.37000 31.74900 23.56000
H  -5.29700 34.31800 31.62100
H  -2.85800 35.93800 31.79500
H  -4.23300 37.48000 32.24100
H  -5.60000 36.37000 32.16700
H  -5.24100 37.56100 30.90100
H  -2.47400 33.27400 31.50300
H  -4.00200 32.37100 31.77000
H  -4.04500 32.87200 34.01800
H  -3.99200 34.53800 33.63400
H  -0.67200 40.08100 28.93300
H  0.84100 39.11900 28.79800
H  -0.42900 38.62200 29.82800
H  0.82200 40.65200 26.84900
H  1.68100 40.51100 25.31700
H  2.14300 39.52200 26.72000
H  -0.74800 34.60200 22.54300
H  -3.58000 33.78900 21.86900
H  -2.30700 35.36000 20.39500
H  -0.95100 36.22100 21.02200
H  -2.56800 36.73300 21.57800
H  -1.85000 31.71600 23.16400
H  -1.02400 32.66200 21.86400
H  -1.84500 31.17700 20.42600
H  -3.61700 31.69100 20.80500
H  -2.83700 30.36700 21.61400
H  -5.65600 29.63200 24.56000
H  -6.97300 30.89400 24.46000
H  -7.00000 29.59600 25.65000
H  -5.39500 31.39600 30.32400
H  -7.80500 32.71500 33.31500
H  -8.72400 31.23600 33.07400
H  -9.03500 32.65900 32.12000

