158

Mg 45.67000 3.85100 47.33900
C  43.67100 6.56500 46.89400
C  42.70500 1.78800 47.35500
C  47.55900 0.98800 46.98600
C  48.48100 5.72600 46.88400
N  43.48800 4.13100 47.01900
C  42.90600 5.36600 46.86400
C  41.44300 5.23700 46.63500
C  41.11300 3.80300 47.21400
C  42.49000 3.19400 47.26200
C  40.42400 3.72100 48.55800
C  40.96600 5.52800 45.13100
C  40.00100 6.64000 44.84700
H  40.26200 7.45500 43.54300
N  45.19700 1.69800 47.10900
C  43.91500 1.08400 47.19300
C  44.13100 -0.31900 46.96800
C  45.50100 -0.57400 46.79900
C  46.16800 0.75800 46.93600
C  42.96200 -1.29200 46.89800
C  46.06800 -1.84600 46.52900
O  45.33800 -2.81700 46.53000
C  47.53100 -2.04100 46.16800
N  47.62900 3.37000 47.12100
C  48.19700 2.22700 47.04500
C  49.75900 2.35300 47.04800
C  49.99700 3.79800 46.81800
C  48.59000 4.36300 46.93900
C  50.52200 1.76800 48.26500
C  50.65700 3.99300 45.40400
C  49.71400 3.84200 44.14800
N  46.08800 5.78600 47.06400
C  47.26700 6.45900 46.91600
C  47.02100 7.87200 47.07600
C  45.62800 7.96100 47.07600
C  45.06700 6.69700 47.04000
C  48.01800 9.00000 47.10500
C  44.54500 8.90800 47.02800
O  44.57900 10.10300 47.04900
C  43.18700 8.05400 46.86300
C  42.23900 8.32600 47.90300
O  42.04700 7.62100 48.90800
O  41.48500 9.37800 47.45800
C  40.29500 9.68400 48.31200
H  41.83500 1.12800 47.33900
H  48.30700 0.19200 46.96300
H  49.41700 6.28000 46.78500
H  41.00400 5.99600 47.28200
H  40.55500 3.23200 46.47200
H  39.95200 4.65400 48.86800
H  41.02900 3.20100 49.30100
H  39.53600 3.09400 48.49000
H  40.52800 4.64000 44.67700
H  41.81300 5.65500 44.45700
H  40.05200 7.33500 45.68600
H  38.98100 6.25800 44.88300
H  43.10200 -1.86200 45.97900
H  41.96700 -0.84600 46.90600
H  42.94500 -1.89900 47.80300
H  48.21900 -1.88600 47.00000
H  47.79000 -1.23300 45.48400
H  47.73100 -3.03200 45.76000
H  50.15900 1.78200 46.21000
H  50.61800 4.20300 47.61700
H  51.22800 2.43200 48.76500
H  51.02700 0.86700 47.91700
H  49.75600 1.41300 48.95400
H  51.41300 3.26600 45.10600
H  51.10100 4.98900 45.40800
H  49.77100 4.66900 43.44000
H  48.69300 3.57700 44.42000
H  50.06000 2.94700 43.63000
H  48.82800 8.66700 46.45700
H  48.40900 9.14700 48.11200
H  47.50600 9.88000 46.71500
H  42.62500 8.14400 45.93400
H  40.20200 10.77000 48.30800
H  40.21600 9.37500 49.35500
H  39.44300 9.42500 47.68400
Mg 55.03800 23.36200 44.39800
C  52.30800 25.61300 43.70800
C  52.94300 20.70900 43.28800
C  57.67600 21.27300 44.42600
C  57.03100 26.04600 45.22000
N  52.89400 23.23700 43.49000
C  52.02900 24.30100 43.37000
C  50.71600 23.72700 42.71400
C  50.82300 22.23000 43.03900
C  52.34300 21.97500 43.37300
C  49.84300 21.78600 44.18700
C  50.65400 23.90100 41.14800
C  49.36200 24.56800 40.61300
H  48.98900 24.17600 39.15000
N  55.24700 21.27300 43.89400
C  54.31700 20.39000 43.37100
C  54.92700 19.12200 43.09300
C  56.26800 19.20400 43.64400
C  56.45700 20.60600 44.04200
C  54.23300 17.95600 42.47600
C  57.21300 18.09600 43.70000
O  56.88800 16.98500 43.26400
C  58.57700 18.21500 44.38500
N  57.01800 23.59400 44.82700
C  57.95700 22.57900 44.78000
C  59.38100 23.05600 45.06600
C  59.17800 24.59400 45.36200
C  57.69100 24.77900 45.01900
C  60.14400 22.31600 46.18100
C  60.09700 25.62400 44.60000
C  61.46200 25.14700 44.12500
N  54.75700 25.42600 44.59900
C  55.65100 26.34400 44.96400
C  54.97500 27.62800 45.08700
C  53.68500 27.40000 44.59900
C  53.57300 26.00800 44.31200
C  55.55100 28.93600 45.37800
C  52.41600 28.06900 44.30200
O  52.12800 29.26500 44.30400
C  51.43200 26.88800 43.65600
C  51.24600 27.43300 42.23100
O  52.12800 27.53700 41.38000
O  49.97600 27.73100 41.97000
C  49.56400 28.34500 40.68200
H  52.28300 19.84500 43.19000
H  58.66000 20.81000 44.32600
H  57.74100 26.84700 45.43800
H  49.84500 24.12300 43.23700
H  50.40400 21.66100 42.20800
H  49.89500 20.70000 44.26700
H  48.82300 22.16200 44.11800
H  50.27900 22.21200 45.09100
H  50.93200 23.01900 40.57100
H  51.40700 24.65600 40.92200
H  49.51700 25.64500 40.67500
H  48.48200 24.23600 41.16500
H  53.37300 18.36000 41.94200
H  53.85500 17.29000 43.25100
H  54.87200 17.46000 41.74500
H  59.21900 18.84300 43.76700
H  59.11400 17.26800 44.33300
H  58.41500 18.65800 45.36800
H  59.88800 23.03200 44.10100
H  59.22500 24.84000 46.42300
H  61.19000 22.13200 45.93400
H  59.65400 21.39400 46.49400
H  60.29700 22.96100 47.04600
H  60.14900 26.48600 45.26500
H  59.51500 26.04100 43.77800
H  62.22400 25.91000 44.28900
H  61.49500 25.00800 43.04400
H  61.63800 24.22500 44.67800
H  55.26300 29.25200 46.38100
H  55.18100 29.66000 44.65200
H  56.62500 29.03500 45.22500
H  50.43300 26.74000 44.06600
H  49.68600 27.69000 39.82000
H  50.18700 29.21700 40.48200
H  48.59000 28.83400 40.68700

