158

Mg 41.31000 40.32500 27.38700
C  40.91500 42.79000 29.91600
C  42.38400 38.20800 29.64000
C  41.88000 38.16400 24.82300
C  40.52300 42.90800 25.00900
N  41.63500 40.50400 29.58600
C  41.31600 41.53100 30.46300
C  41.60000 41.15500 31.96300
C  42.37800 39.75900 31.66400
C  42.10600 39.44900 30.19100
C  43.90100 39.89200 31.97300
C  40.26300 41.01100 32.81800
C  40.19300 41.96000 34.05100
H  39.40500 41.48600 35.35100
N  42.07700 38.42900 27.21800
C  42.36500 37.68200 28.33600
C  42.70800 36.30300 27.89500
C  42.45600 36.32700 26.47100
C  42.16400 37.67300 26.10500
C  43.17800 35.22200 28.91500
C  42.38000 35.14900 25.57100
O  41.93400 35.30600 24.46800
C  42.83100 33.87200 25.99100
N  41.29100 40.58600 25.25500
C  41.51500 39.47000 24.47800
C  41.26700 39.81000 23.00300
C  40.61200 41.22300 23.10900
C  40.85700 41.67400 24.53200
C  42.46900 39.72400 22.02600
C  39.04000 41.10200 22.86700
C  38.27400 40.03200 23.54300
N  40.83800 42.44200 27.40400
C  40.50000 43.26000 26.34000
C  40.21800 44.61800 26.92300
C  40.34800 44.40100 28.28700
C  40.66600 43.07800 28.52800
C  39.91600 45.88200 26.04100
C  40.27100 45.10900 29.53300
O  39.84600 46.22400 29.72200
C  40.63000 44.10100 30.63500
C  41.69200 44.70500 31.39100
O  42.81500 44.55800 31.12000
O  41.13700 45.28900 32.57200
C  42.18900 45.92700 33.40100
H  42.69900 37.45600 30.36600
H  42.08300 37.65900 23.87600
H  40.36900 43.72400 24.29900
H  42.27400 41.94600 32.29300
H  42.03000 38.95300 32.31000
H  44.40600 40.85800 31.94700
H  44.47500 39.29400 31.26600
H  44.12300 39.52000 32.97300
H  40.11100 39.98100 33.13900
H  39.44900 41.25700 32.13700
H  39.81200 42.94500 33.78100
H  41.23500 42.08600 34.34600
H  42.54200 34.34100 28.99300
H  43.43600 35.58800 29.90900
H  44.20000 34.98200 28.61900
H  43.83700 33.77700 26.40200
H  42.77800 33.19400 25.14000
H  42.12300 33.51900 26.74100
H  40.75000 38.90600 22.68200
H  41.09200 41.85600 22.36200
H  42.66600 40.66300 21.50900
H  42.35100 38.99300 21.22600
H  43.44400 39.58600 22.49500
H  38.96700 40.92400 21.79400
H  38.47000 42.01500 23.03500
H  37.87800 39.29100 22.84800
H  37.54300 40.61300 24.10600
H  38.92700 39.61400 24.30900
H  39.08700 45.53900 25.42100
H  40.74900 46.04700 25.35800
H  39.62200 46.73100 26.65800
H  39.75500 44.08400 31.28500
H  43.09600 46.29900 32.92400
H  42.46600 45.27700 34.23200
H  41.75300 46.76500 33.94500
Mg 9.27400 48.15500 25.54000
C  6.70700 48.85700 27.97400
C  11.58000 49.07000 27.86800
C  11.66700 47.67400 23.25300
C  6.71500 47.91600 23.18000
N  9.06800 48.85000 27.69900
C  7.98100 48.89200 28.50900
C  8.51800 48.88300 29.99200
C  10.00700 49.33200 29.78800
C  10.25100 49.03100 28.35100
C  10.40700 50.79400 30.14800
C  8.29200 47.54000 30.87600
C  7.79700 47.64300 32.35400
H  8.76100 47.23200 33.48500
N  11.32400 48.47400 25.54500
C  12.09100 48.88100 26.57500
C  13.50600 48.89600 26.10400
C  13.46200 48.23800 24.87700
C  12.09700 48.05400 24.49600
C  14.60200 49.30600 27.04200
C  14.63400 47.65700 24.09600
O  14.49100 47.00900 23.13600
C  16.03900 47.87600 24.59200
N  9.19500 47.97600 23.42900
C  10.31200 47.53700 22.75100
C  9.85800 47.06300 21.39400
C  8.29600 47.47600 21.29800
C  8.04200 47.81500 22.71900
C  10.60800 47.55700 20.23400
C  7.43500 46.30700 20.67700
C  6.81200 46.73600 19.39700
N  7.15300 48.18000 25.53600
C  6.26200 48.09000 24.48400
C  4.85500 48.23000 24.94800
C  5.02600 48.40000 26.36000
C  6.41100 48.50100 26.64200
C  3.54800 48.23800 24.24400
C  4.24600 48.67300 27.58100
O  3.04000 48.72000 27.77100
C  5.34200 49.21600 28.64100
C  5.07000 48.66100 29.98200
O  4.98100 47.44800 30.27900
O  4.79100 49.73200 30.90200
C  4.25900 49.34900 32.22400
H  12.38500 49.31000 28.56600
H  12.32200 47.33200 22.44900
H  5.92600 47.79300 22.43500
H  7.90600 49.55500 30.59300
H  10.69100 48.76800 30.42100
H  11.22100 50.81000 30.87200
H  9.65300 51.28800 30.76100
H  10.67600 51.43000 29.30400
H  9.25400 47.03300 30.94200
H  7.63700 46.90400 30.28100
H  6.82500 47.16400 32.47300
H  7.56600 48.70400 32.45400
H  15.34800 48.55800 27.30900
H  14.34700 49.74300 28.00800
H  15.03600 50.11300 26.45000
H  16.11700 48.93800 24.82300
H  16.67300 47.48100 23.79900
H  16.16000 47.25700 25.48200
H  10.16600 46.03700 21.59300
H  8.10000 48.34100 20.66500
H  9.90800 47.52100 19.39900
H  11.46700 46.93300 19.98900
H  11.05400 48.54700 20.32400
H  6.63900 46.02200 21.36400
H  8.11900 45.48800 20.45500
H  6.60400 45.85600 18.78800
H  7.49000 47.38000 18.83700
H  5.85500 47.25800 19.40600
H  2.70200 47.68400 24.64900
H  3.61800 47.76300 23.26500
H  3.16400 49.25700 24.30300
H  5.44100 50.30000 28.71000
H  5.16400 49.07700 32.76700
H  3.52600 48.55800 32.06100
H  3.69800 50.14000 32.72300

