158

Mg 1.49800 -1.59500 43.23100
C  4.95400 -1.04000 42.55900
C  0.83100 1.26000 41.35000
C  -1.76000 -2.25000 43.45500
C  2.35200 -4.68500 44.51300
N  2.81300 -0.16600 41.95200
C  4.17800 -0.07000 41.93200
C  4.68000 1.07700 41.02000
C  3.36100 1.81300 40.64200
C  2.23400 0.93400 41.30200
C  3.30800 3.28900 40.98900
C  5.53000 0.57200 39.86200
C  7.01500 1.20900 39.81200
H  7.55900 1.71000 38.37300
N  -0.21300 -0.62200 42.59500
C  -0.26800 0.52900 41.79300
C  -1.64300 0.87900 41.48300
C  -2.48800 -0.11900 42.13500
C  -1.48300 -1.03900 42.83800
C  -2.02800 2.09700 40.62900
C  -3.99700 -0.15200 42.06800
O  -4.65900 0.76100 41.54300
C  -4.78700 -1.26700 42.65500
N  0.42800 -3.33000 43.70000
C  -0.95200 -3.27000 43.90100
C  -1.43700 -4.62200 44.43200
C  -0.11300 -5.45700 44.73600
C  0.94700 -4.44900 44.26600
C  -2.52500 -4.62500 45.52100
C  0.00500 -6.82300 44.02400
C  0.60600 -7.91600 44.84800
N  3.26100 -2.69000 43.53500
C  3.46900 -3.89400 44.17100
C  4.87800 -4.11800 44.38700
C  5.52700 -2.96700 43.84200
C  4.47300 -2.18100 43.27200
C  5.51600 -5.30700 44.97000
C  6.83300 -2.30400 43.53700
O  7.94400 -2.66400 43.82600
C  6.48200 -1.04900 42.75400
C  7.03600 0.07000 43.51300
O  6.90100 0.18700 44.71800
O  7.59200 1.05000 42.72300
C  7.75700 2.35600 43.37700
H  0.65300 2.25200 40.93000
H  -2.79600 -2.56700 43.59500
H  2.59300 -5.59500 45.06700
H  5.23600 1.77600 41.64400
H  3.25000 1.68700 39.56500
H  2.23700 3.48000 41.05500
H  3.71000 3.83200 40.13400
H  3.87800 3.61600 41.85900
H  4.95500 0.90100 38.99700
H  5.72400 -0.49800 39.78600
H  7.71400 0.49000 40.23800
H  7.11100 2.07100 40.47300
H  -2.96000 2.03800 40.06500
H  -1.16600 2.24800 39.98000
H  -1.99700 2.97300 41.27500
H  -5.83200 -0.95800 42.64200
H  -4.46700 -1.41000 43.68700
H  -4.60600 -2.13100 42.01500
H  -1.97500 -5.08300 43.60400
H  -0.00300 -5.59600 45.81200
H  -2.08000 -4.97100 46.45400
H  -3.24700 -5.38800 45.23000
H  -3.02300 -3.67100 45.69900
H  0.66700 -6.68400 43.16800
H  -0.96300 -7.09300 43.60200
H  0.01100 -8.82900 44.85200
H  0.81900 -7.61200 45.87300
H  1.57800 -8.13300 44.40600
H  4.94300 -5.73400 45.79400
H  6.55100 -5.28100 45.31100
H  5.59300 -6.01100 44.14100
H  7.08500 -1.11300 41.84800
H  8.59700 2.26900 44.06600
H  6.87500 2.73700 43.89100
H  8.00400 3.14800 42.67000
Mg 9.13200 48.16800 26.26200
C  6.81200 48.35200 28.79200
C  11.63500 48.74400 28.42800
C  11.25400 47.79400 23.64700
C  6.58400 47.83400 23.90600
N  9.21000 48.38700 28.33800
C  8.17900 48.40400 29.24900
C  8.63800 48.68200 30.72100
C  10.13300 49.06000 30.45500
C  10.34300 48.65300 29.01600
C  10.58800 50.52800 30.70200
C  8.35100 47.48600 31.67800
C  9.22800 47.53900 33.00600
H  8.49700 47.33800 34.38000
N  11.17700 48.39100 25.99100
C  12.03700 48.62300 27.04500
C  13.36500 48.55400 26.55600
C  13.30900 48.26900 25.21700
C  11.87900 48.19200 24.86300
C  14.52900 48.77100 27.51800
C  14.40500 48.19400 24.20000
O  14.12800 47.98500 23.00400
C  15.87600 48.27600 24.59400
N  8.95800 48.28400 23.98100
C  9.95700 47.95600 23.23200
C  9.63700 47.53300 21.85100
C  8.05800 47.42900 21.91000
C  7.78300 47.86400 23.32400
C  10.15500 48.49500 20.74500
C  7.43100 46.12000 21.49000
C  6.26600 46.12100 20.42400
N  7.13000 48.22300 26.27900
C  6.24100 48.08900 25.25000
C  4.86900 48.22200 25.86800
C  5.09600 48.24800 27.26500
C  6.45300 48.30100 27.43800
C  3.44100 48.12500 25.20000
C  4.37200 48.33000 28.48100
O  3.20900 48.17500 28.74400
C  5.51400 48.40300 29.58400
C  5.22900 47.25700 30.50300
O  5.48700 46.10700 30.23100
O  4.71600 47.66600 31.68900
C  4.64500 46.65000 32.74400
H  12.32800 48.89600 29.25900
H  11.96300 47.32000 22.96500
H  5.76700 47.66000 23.20200
H  8.05200 49.48700 31.16500
H  10.83500 48.39500 30.95800
H  11.55400 50.41900 31.19500
H  9.96200 51.03000 31.43900
H  10.72000 51.07400 29.76700
H  8.35200 46.50600 31.20000
H  7.30500 47.58900 31.96500
H  9.68800 48.52700 33.00500
H  9.97300 46.76200 32.83400
H  14.22600 48.71900 28.56400
H  14.80200 49.75900 27.14700
H  15.37100 48.09300 27.37400
H  16.02500 47.49500 25.34100
H  16.19000 49.29500 24.81700
H  16.38700 47.84600 23.73300
H  9.99200 46.51200 21.71600
H  7.59900 48.26300 21.37900
H  10.50600 49.43300 21.17400
H  9.37300 48.68000 20.00800
H  10.92600 48.04200 20.12200
H  6.98700 45.69800 22.39100
H  8.20100 45.50000 21.03100
H  6.18600 47.14300 20.05500
H  5.31400 45.76700 20.82000
H  6.57800 45.42500 19.64600
H  2.80900 48.88000 25.66700
H  2.99100 47.15600 25.41600
H  3.60100 48.16800 24.12300
H  5.40900 49.31400 30.17300
H  3.76800 46.99000 33.29500
H  5.63400 46.46400 33.16000
H  4.38900 45.68500 32.30500

