158

Mg -0.10500 7.18600 26.55700
C  0.30800 9.37600 29.20800
C  0.52900 4.56700 28.86800
C  -0.59500 5.02400 24.24800
C  -0.05100 9.77200 24.38300
N  0.21700 6.94500 28.74100
C  0.21700 8.04200 29.62500
C  0.01000 7.54200 31.06400
C  0.74300 6.10300 30.85900
C  0.62400 5.87400 29.40200
C  2.22200 6.01300 31.26100
C  -1.48400 7.48400 31.39500
C  -1.78000 7.64900 32.91400
H  -0.64700 7.38700 33.88200
N  -0.03700 5.05200 26.53400
C  0.16900 4.20900 27.57000
C  0.09700 2.91000 27.07500
C  -0.30700 2.97300 25.70800
C  -0.31400 4.37200 25.42600
C  0.41700 1.69800 27.84700
C  -0.56400 1.88900 24.70000
O  -0.82400 2.10700 23.54000
C  -0.34200 0.46100 25.14800
N  -0.33500 7.34700 24.56700
C  -0.54000 6.30300 23.79100
C  -0.85600 6.70700 22.31300
C  -0.73700 8.28000 22.44900
C  -0.38500 8.53000 23.88300
C  0.16100 6.19800 21.27400
C  -1.97600 9.10000 21.95500
C  -1.85700 10.06200 20.77700
N  0.21100 9.20000 26.68300
C  0.32400 10.15900 25.69000
C  0.59600 11.42400 26.28200
C  0.49200 11.19800 27.70400
C  0.31200 9.80800 27.88100
C  0.63800 12.76700 25.65900
C  0.54400 11.83000 29.01100
O  0.70900 13.00900 29.39800
C  0.34100 10.60400 29.98500
C  1.47000 10.59200 30.92100
O  2.55100 10.08500 30.69100
O  1.21800 11.22800 32.13300
C  2.37200 11.43700 33.01100
H  0.65400 3.73300 29.56200
H  -0.89700 4.33900 23.45300
H  -0.11100 10.65900 23.74900
H  0.54200 8.20700 31.74400
H  0.20100 5.35500 31.43800
H  2.24900 5.27600 32.06400
H  2.59000 6.98700 31.58200
H  2.72700 5.58900 30.39300
H  -1.99300 6.62100 30.96500
H  -2.00200 8.29500 30.88400
H  -2.68400 7.11600 33.20800
H  -2.12800 8.66300 33.11000
H  -0.44300 1.03100 27.78400
H  0.44800 1.86400 28.92400
H  1.34800 1.20600 27.56300
H  0.67100 0.27800 25.50600
H  -0.46500 -0.19000 24.28300
H  -1.15600 0.38100 25.86800
H  -1.91400 6.45400 22.24400
H  0.08600 8.59000 21.80400
H  0.38800 5.15000 21.47400
H  1.09000 6.76800 21.27300
H  -0.35900 6.26500 20.31800
H  -2.44000 9.63300 22.78500
H  -2.74800 8.37400 21.69900
H  -2.04900 11.10700 21.02200
H  -2.56300 9.86400 19.97100
H  -0.88900 9.94900 20.29000
H  0.09700 13.47600 26.28600
H  0.27700 12.83600 24.63200
H  1.67400 13.10600 25.63600
H  -0.54800 10.68400 30.61000
H  2.81800 12.38100 32.69800
H  3.02700 10.56500 33.01900
H  2.02600 11.64000 34.02400
Mg 36.43200 49.03900 24.91200
C  36.72400 47.52900 28.01200
C  34.54900 51.62000 26.52600
C  35.64400 50.34000 21.97500
C  37.94200 46.42100 23.38700
N  35.59800 49.47300 26.99300
C  36.04000 48.74200 28.12000
C  35.74200 49.53200 29.38100
C  34.91700 50.80100 28.86600
C  35.01700 50.61600 27.39400
C  33.52200 50.97300 29.49000
C  36.95500 50.02300 30.25400
C  36.89500 49.82500 31.73900
H  35.51400 49.58800 32.39400
N  35.23100 50.72100 24.32500
C  34.65000 51.71900 25.10300
C  34.04100 52.68900 24.26300
C  34.54100 52.35400 22.95700
C  35.16000 51.12400 23.02300
C  33.33300 53.97100 24.78700
C  34.44800 53.14700 21.69600
O  34.85800 52.76200 20.55500
C  33.86700 54.56200 21.68300
N  36.45000 48.27100 22.93900
C  36.18500 49.04900 21.89200
C  36.55200 48.39800 20.58100
C  37.47000 47.23800 21.06200
C  37.31200 47.32900 22.57200
C  35.34700 47.84400 19.74200
C  38.98700 47.46800 20.61300
C  39.33400 46.52900 19.46200
N  37.36600 47.36400 25.54700
C  37.93200 46.34800 24.81500
C  38.58100 45.34900 25.69200
C  38.06800 45.76200 26.99300
C  37.36500 46.97200 26.84800
C  39.32600 44.06700 25.38000
C  37.97800 45.42200 28.38300
O  38.50200 44.46700 29.05500
C  37.09600 46.58200 29.06100
C  35.95600 46.07700 29.84200
O  34.89700 45.79000 29.44500
O  36.44000 45.70800 31.06500
C  35.59500 44.94700 32.01900
H  33.96600 52.42000 26.98700
H  35.60900 50.75400 20.96500
H  38.54600 45.63200 22.93500
H  35.16800 48.78700 29.93400
H  35.49100 51.70900 29.04900
H  33.22300 50.11900 30.09700
H  32.71400 50.99700 28.75900
H  33.35200 51.86000 30.10100
H  37.18100 51.08900 30.22600
H  37.82900 49.45300 29.94100
H  37.35000 50.69400 32.21500
H  37.47500 48.93400 31.97800
H  34.03800 54.80200 24.79200
H  32.89000 53.69600 25.74500
H  32.56100 54.15700 24.04100
H  33.88900 54.91600 20.65200
H  34.25300 55.36200 22.31400
H  32.78500 54.48700 21.79100
H  36.99600 49.17700 19.96100
H  37.03700 46.27200 20.80200
H  34.43800 47.99200 20.32500
H  35.47300 46.79400 19.47600
H  35.31500 48.43100 18.82500
H  39.75200 47.20300 21.34300
H  39.08500 48.53300 20.40500
H  40.20100 45.96700 19.81100
H  39.54100 46.97700 18.49000
H  38.49500 45.84700 19.32600
H  38.78600 43.39700 24.71100
H  39.52900 43.65400 26.36800
H  40.20700 44.37800 24.81900
H  37.80700 47.09500 29.70800
H  36.15800 44.08400 32.37200
H  34.59100 44.65500 31.71000
H  35.52900 45.65200 32.84800

