158

Mg -1.43900 17.51600 26.68300
C  -1.70600 15.35800 29.41800
C  -2.11300 20.18100 28.88400
C  -1.34700 19.55600 24.00900
C  -1.56900 14.75800 24.56600
N  -1.85400 17.73400 28.93200
C  -1.75000 16.69400 29.81600
C  -1.91900 17.27000 31.30200
C  -2.07500 18.87200 31.05900
C  -2.10300 18.95700 29.54500
C  -3.28300 19.49200 31.90500
C  -0.74800 16.86900 32.34200
C  -0.44200 17.65000 33.64900
H  -0.22800 16.90700 34.99800
N  -1.78200 19.56400 26.44600
C  -2.07400 20.52800 27.45400
C  -1.98300 21.83700 26.84800
C  -1.69100 21.62900 25.45000
C  -1.54300 20.20000 25.26900
C  -2.07100 23.11300 27.73900
C  -1.50100 22.68200 24.28600
O  -1.02800 22.44100 23.16200
C  -1.79500 24.09700 24.56400
N  -1.55900 17.19800 24.59500
C  -1.24000 18.20700 23.70800
C  -0.97700 17.74300 22.26100
C  -0.95200 16.20700 22.47100
C  -1.37200 15.98600 23.94100
C  -2.04000 18.21800 21.20600
C  0.42200 15.55300 22.20600
C  1.63000 16.05200 22.96600
N  -1.51600 15.51800 26.92500
C  -1.69300 14.48600 25.94100
C  -1.87500 13.24300 26.62500
C  -1.89100 13.53300 27.96700
C  -1.72300 14.92200 28.10200
C  -1.96400 11.96300 25.90600
C  -1.97200 12.86400 29.28000
O  -2.06000 11.65000 29.52900
C  -1.81400 14.09300 30.26800
C  -0.62600 13.92100 31.09400
O  0.43000 14.36200 30.82700
O  -0.89300 13.19100 32.21100
C  0.31800 13.01800 33.11700
H  -2.09100 21.03300 29.56600
H  -1.03700 20.19000 23.17500
H  -1.30100 13.95600 23.87500
H  -2.83100 16.82800 31.70300
H  -1.18400 19.41400 31.37500
H  -2.98100 20.31500 32.55300
H  -3.66600 18.77000 32.62700
H  -4.06800 19.93700 31.29400
H  0.17600 16.77500 31.77100
H  -0.92600 15.88100 32.76600
H  -1.19600 18.41400 33.83600
H  0.44500 18.25800 33.47600
H  -2.47500 22.96900 28.74100
H  -2.77700 23.79900 27.26900
H  -1.04500 23.48100 27.75900
H  -2.58400 24.15500 25.31300
H  -2.09000 24.54400 23.61500
H  -0.97800 24.74000 24.89200
H  -0.02000 18.11300 21.89300
H  -1.67400 15.69900 21.83100
H  -2.80100 18.87500 21.62600
H  -2.75300 17.43100 20.96100
H  -1.62400 18.73600 20.34200
H  0.63600 15.79800 21.16500
H  0.39000 14.46500 22.26200
H  1.60100 16.89000 23.66300
H  2.38300 16.35700 22.23900
H  2.11100 15.15100 23.34700
H  -1.04800 11.42400 26.14700
H  -1.81600 12.08500 24.83300
H  -2.89600 11.45100 26.14700
H  -2.66500 14.18900 30.94200
H  0.02800 13.29200 34.13100
H  1.24300 13.58000 32.98200
H  0.65300 11.98100 33.08900
Mg 24.23900 -7.31200 48.28300
C  26.61700 -4.97500 47.04500
C  21.98500 -6.18000 45.73900
C  22.10600 -9.47300 49.33600
C  26.83500 -8.61900 50.18000
N  24.31600 -5.78900 46.70500
C  25.37600 -5.00400 46.35100
C  24.99600 -3.93900 45.34800
C  23.41500 -4.09700 45.24700
C  23.19500 -5.44800 45.97200
C  22.62000 -2.87600 45.81200
C  25.77300 -4.03900 43.97000
C  26.45400 -2.76300 43.52300
H  25.87300 -2.10800 42.30500
N  22.31500 -7.83800 47.55500
C  21.48900 -7.24600 46.55200
C  20.23300 -7.89700 46.51100
C  20.14700 -8.73600 47.59600
C  21.56200 -8.76900 48.22500
C  19.14900 -7.50300 45.46600
C  18.90700 -9.57600 48.00600
O  17.85500 -9.46400 47.37600
C  18.91400 -10.59700 49.09900
N  24.42300 -8.95300 49.44100
C  23.35300 -9.60200 49.90200
C  23.72500 -10.75400 50.91400
C  25.31400 -10.53300 51.03400
C  25.55200 -9.27500 50.17200
C  22.93100 -10.70300 52.32000
C  26.28000 -11.71200 50.69100
C  26.82100 -11.80300 49.22200
N  26.33200 -6.86100 48.70000
C  27.28200 -7.49000 49.43200
C  28.59700 -6.82700 49.35300
C  28.38200 -5.71200 48.45400
C  27.01800 -5.83700 48.04700
C  29.84900 -7.25700 50.07800
C  28.96200 -4.58000 47.73400
O  30.13700 -4.19600 47.67300
C  27.85200 -4.11100 46.75500
C  27.73600 -2.66500 47.09100
O  27.11000 -2.19400 48.06100
O  28.18400 -1.90600 46.07100
C  27.72700 -0.51900 46.19200
H  21.29200 -5.81500 44.97800
H  21.36500 -10.17100 49.73300
H  27.63400 -9.13400 50.71800
H  25.20700 -2.94000 45.72800
H  23.03500 -4.23000 44.23400
H  23.26600 -2.02300 46.02100
H  22.04400 -3.35000 46.60700
H  21.90700 -2.50500 45.07700
H  24.96000 -4.10900 43.24800
H  26.44800 -4.89400 43.92500
H  27.46900 -3.08500 43.29000
H  26.52000 -1.96200 44.26000
H  18.50400 -6.68100 45.77600
H  18.55000 -8.38400 45.23500
H  19.48000 -7.26900 44.45500
H  17.95400 -11.07100 49.30000
H  19.14100 -10.05400 50.01600
H  19.71200 -11.32900 48.97800
H  23.57600 -11.69500 50.38600
H  25.44000 -10.09100 52.02300
H  22.43200 -9.74600 52.46900
H  23.61700 -10.83600 53.15700
H  22.23600 -11.54200 52.33000
H  25.91900 -12.68100 51.03600
H  27.05200 -11.71100 51.46000
H  26.88800 -12.88100 49.07900
H  27.76800 -11.27000 49.13800
H  25.98300 -11.47200 48.60800
H  30.26000 -8.20800 49.73700
H  29.51100 -7.51300 51.08200
H  30.61300 -6.48100 50.04000
H  28.21600 -4.14000 45.72800
H  28.15400 0.02300 45.34800
H  28.17200 0.03500 47.01900
H  26.64200 -0.56400 46.10400

