158

Mg 35.28200 2.85200 29.45600
C  32.89500 3.77200 31.96300
C  37.72300 2.74700 32.02500
C  37.35400 1.93100 27.20100
C  32.69700 3.37000 27.16000
N  35.27300 3.27500 31.68700
C  34.16100 3.54300 32.50300
C  34.55400 3.61500 33.95300
C  36.12600 3.69700 33.85200
C  36.40900 3.18700 32.41700
C  36.57100 5.12600 34.14900
C  34.04700 2.29800 34.68900
C  33.96000 2.20200 36.20000
H  34.38100 3.39200 37.08800
N  37.30300 2.46100 29.55700
C  38.12100 2.35800 30.68800
C  39.46000 1.99000 30.26800
C  39.40600 1.71800 28.88100
C  37.97800 2.02800 28.48400
C  40.68500 1.97600 31.19500
C  40.47300 1.34400 27.83000
O  40.25200 1.23700 26.60900
C  41.88700 1.06100 28.13400
N  35.07600 2.84200 27.30400
C  36.06900 2.27500 26.65300
C  35.66700 2.15400 25.22200
C  34.08300 2.42400 25.24000
C  33.89900 2.90600 26.61800
C  36.29400 3.20800 24.29500
C  33.26000 1.17200 24.91700
C  33.55600 -0.13700 25.72500
N  33.29200 3.67800 29.46200
C  32.41700 3.75400 28.47500
C  31.11200 4.09100 28.98900
C  31.23100 4.14500 30.35700
C  32.53500 3.80400 30.61600
C  29.79900 4.29200 28.21500
C  30.50600 4.46300 31.56700
O  29.42300 4.95900 31.75400
C  31.59900 4.11800 32.74400
C  31.79100 5.30300 33.57900
O  32.26300 6.33900 33.25900
O  31.17900 5.01200 34.75300
C  31.30200 6.01300 35.88100
H  38.42800 2.67600 32.85600
H  37.81500 1.30700 26.43200
H  31.87100 3.46100 26.45200
H  34.13500 4.42700 34.54700
H  36.62400 3.13600 34.64300
H  37.17500 5.54200 33.34200
H  37.29800 5.05400 34.95900
H  35.78200 5.76200 34.55000
H  34.61600 1.41100 34.41100
H  33.01500 2.15600 34.36600
H  34.56900 1.33300 36.45000
H  32.93700 1.96600 36.49700
H  41.31700 1.11100 30.99400
H  40.41200 1.91000 32.24800
H  41.31100 2.85400 31.03300
H  42.47400 0.79200 27.25600
H  42.00100 0.36000 28.96000
H  42.38300 1.92300 28.58000
H  35.87300 1.16300 24.81900
H  33.85100 3.20100 24.51100
H  37.34300 3.39500 24.52600
H  35.78200 4.16700 24.37600
H  36.35000 2.86600 23.26200
H  33.46300 0.89100 23.88300
H  32.21900 1.47300 25.03100
H  33.71500 -0.84900 24.91500
H  32.63800 -0.38000 26.25900
H  34.46700 -0.10800 26.32200
H  29.90000 3.86600 27.21700
H  29.47000 5.32900 28.14000
H  28.98800 3.81300 28.76300
H  31.29500 3.26500 33.35200
H  30.29900 6.42700 35.98100
H  32.00900 6.81700 35.67500
H  31.62400 5.50900 36.79200
Mg 40.88400 9.13300 29.41800
C  42.49600 10.42700 32.17100
C  38.52200 7.80900 31.50800
C  39.30000 7.86700 26.63600
C  43.48000 10.24000 27.49900
N  40.60300 9.04200 31.56100
C  41.27600 9.80500 32.54500
C  40.50400 9.90700 33.92100
C  39.33300 8.87300 33.69200
C  39.43000 8.51500 32.23800
C  39.21200 7.50900 34.53800
C  40.13700 11.35100 34.30600
C  39.29800 11.39700 35.61700
H  39.82100 12.06500 36.80900
N  39.15700 7.92100 29.12900
C  38.34500 7.50000 30.11400
C  37.21500 6.85600 29.50000
C  37.23200 7.11300 28.10600
C  38.61200 7.66900 27.89900
C  36.12300 6.27300 30.30600
C  36.23800 7.01100 27.03700
O  36.44600 7.32000 25.89500
C  34.82500 6.44900 27.39600
N  41.28700 9.08400 27.48100
C  40.54400 8.48100 26.52600
C  41.10800 8.59400 25.08800
C  42.29100 9.59900 25.31700
C  42.37400 9.63400 26.84300
C  41.41900 7.33300 24.41300
C  42.25000 11.01700 24.77800
C  40.94900 11.85100 24.93700
N  42.68900 10.08700 29.66600
C  43.66100 10.49800 28.84300
C  44.67400 11.28600 29.49600
C  44.26100 11.26000 30.81000
C  43.08800 10.49900 30.88000
C  45.88900 11.80000 28.88000
C  44.62500 11.65000 32.14600
O  45.53000 12.37800 32.55800
C  43.52000 11.12300 33.10900
C  44.08900 10.25700 34.15000
O  44.87500 9.35900 33.92200
O  43.90700 10.86500 35.38400
C  44.30600 10.11700 36.55200
H  37.69400 7.48200 32.14000
H  38.87100 7.36300 25.76800
H  44.27300 10.62400 26.85400
H  41.11800 9.39800 34.66300
H  38.33600 9.28000 33.86000
H  39.31900 6.52000 34.09200
H  38.17900 7.50300 34.88800
H  39.90000 7.57500 35.38100
H  39.69200 11.91200 33.48400
H  41.08000 11.85400 34.52100
H  39.22300 10.36100 35.94600
H  38.25500 11.58500 35.36000
H  36.00600 5.21900 30.05600
H  35.14500 6.74200 30.20300
H  36.37900 6.22800 31.36500
H  34.78400 5.47600 27.88400
H  34.31300 6.32800 26.44100
H  34.39200 7.21700 28.03700
H  40.31800 9.02500 24.47300
H  43.17900 9.17400 24.85000
H  41.18400 6.48700 25.05900
H  42.44600 7.04200 24.19200
H  40.78300 7.14900 23.54700
H  42.43600 10.94600 23.70600
H  43.08500 11.59300 25.17800
H  40.27000 11.67600 24.10200
H  41.21800 12.90100 25.04900
H  40.40300 11.67700 25.86400
H  45.98000 11.70800 27.79800
H  46.71600 11.25200 29.33200
H  46.04700 12.86000 29.07900
H  43.09000 12.00200 33.59000
H  45.23100 10.43300 37.03500
H  44.27700 9.05800 36.29500
H  43.50000 10.43500 37.21400

