158

Mg 24.96300 -4.20900 45.45200
C  26.55200 -1.59000 43.78900
C  22.32100 -3.75000 43.27700
C  23.97800 -7.27900 46.28200
C  28.07200 -4.89100 47.22200
N  24.51100 -2.76800 43.78600
C  25.27400 -1.82000 43.28700
C  24.61600 -1.10700 42.11700
C  23.12100 -1.61600 42.15100
C  23.29400 -2.82400 43.12300
C  21.97200 -0.71400 42.73100
C  25.38300 -1.45300 40.76000
C  25.73100 -0.26200 39.78100
H  25.88500 -0.47400 38.29100
N  23.28700 -5.25500 45.05500
C  22.29700 -4.87400 44.15500
C  21.20200 -5.83400 44.24700
C  21.61200 -6.85600 45.06200
C  22.99600 -6.53300 45.53600
C  19.82000 -5.64700 43.54200
C  20.72500 -8.01400 45.46900
O  19.55200 -8.17700 44.94500
C  21.15200 -8.98800 46.47400
N  25.91800 -5.90200 46.65500
C  25.23600 -7.02500 46.79100
C  26.03100 -8.18200 47.43200
C  27.36100 -7.36800 47.75700
C  27.12200 -5.93300 47.21100
C  25.39000 -8.83500 48.65700
C  28.63100 -7.99600 47.08700
C  29.77400 -8.43200 47.95400
N  26.90500 -3.29400 45.64600
C  27.99800 -3.70100 46.38700
C  29.10200 -2.84200 46.03100
C  28.50200 -1.95100 45.11000
C  27.25500 -2.34800 44.79700
C  30.43900 -2.57300 46.72300
C  28.75600 -0.83200 44.25300
O  29.75000 -0.11900 44.22400
C  27.51900 -0.55300 43.37000
C  27.03700 0.82100 43.76700
O  26.22900 1.10600 44.64700
O  27.68200 1.76100 42.94000
C  27.07700 3.10200 42.91500
H  21.52100 -3.65300 42.54100
H  23.67900 -8.31000 46.48200
H  29.00100 -5.32200 47.60100
H  24.68800 -0.04000 42.32900
H  22.62900 -1.97400 41.24600
H  22.29900 0.24100 42.32000
H  21.95800 -0.71300 43.82000
H  21.02400 -0.95100 42.24700
H  24.76600 -2.13100 40.17000
H  26.27200 -2.02700 41.02000
H  26.67200 0.15600 40.13800
H  24.91000 0.44600 39.88900
H  19.59100 -6.53500 42.95200
H  19.98000 -4.87700 42.78800
H  18.97000 -5.35600 44.15900
H  22.03100 -9.58500 46.23000
H  20.27700 -9.63700 46.51000
H  21.32000 -8.57400 47.46800
H  26.26200 -8.91900 46.66200
H  27.50800 -7.13100 48.81100
H  24.33700 -8.55800 48.61100
H  25.97800 -8.51400 49.51700
H  25.47700 -9.91900 48.58000
H  29.01300 -7.27300 46.36700
H  28.21100 -8.82300 46.51400
H  29.47000 -8.56900 48.99200
H  30.53900 -7.65600 47.96800
H  30.13900 -9.41300 47.65000
H  31.11100 -3.43000 46.69800
H  30.27700 -2.14200 47.71000
H  30.87700 -1.71700 46.20900
H  27.90800 -0.52100 42.35300
H  26.02400 3.02900 42.64300
H  27.49500 3.75600 42.15000
H  27.17000 3.63600 43.86000
Mg 9.48500 47.59800 26.40100
C  7.70400 47.74100 29.37400
C  12.19600 48.79300 27.91000
C  11.17600 47.86300 23.35800
C  6.45500 47.12300 24.66200
N  9.81800 48.37100 28.40900
C  9.03700 48.14900 29.51200
C  9.90800 48.33100 30.76900
C  11.17800 49.14500 30.21200
C  11.08300 48.79100 28.70400
C  11.33300 50.64400 30.58400
C  10.35100 46.98300 31.41500
C  10.99500 47.11000 32.86400
H  10.29900 46.36300 34.01100
N  11.51200 48.05100 25.76300
C  12.45400 48.48400 26.57900
C  13.69100 48.63500 25.82400
C  13.41400 48.29100 24.49500
C  11.97200 47.99300 24.52100
C  15.03100 48.92600 26.50500
C  14.36500 48.29400 23.24200
O  13.97700 48.11500 22.04800
C  15.78400 48.31800 23.46800
N  8.87400 47.66500 24.37100
C  9.74800 47.65600 23.35100
C  9.04000 47.30900 22.01400
C  7.63100 46.91600 22.34800
C  7.66200 47.25800 23.90800
C  9.04700 48.60600 21.14500
C  7.38800 45.38100 22.09200
C  7.88800 44.34900 23.12700
N  7.45600 47.41900 26.89200
C  6.37200 47.17900 26.08700
C  5.17800 47.18800 26.86700
C  5.61200 47.35400 28.19200
C  7.01700 47.49100 28.16100
C  3.75400 47.04400 26.41000
C  5.22100 47.49100 29.58200
O  4.13800 47.56400 30.21900
C  6.58900 47.60200 30.35800
C  6.63400 46.43600 31.21400
O  7.02600 45.31800 30.98700
O  6.13200 46.79000 32.45100
C  6.17600 45.75300 33.47100
H  13.03700 49.21800 28.46300
H  11.60700 47.70100 22.36800
H  5.56400 46.61400 24.28900
H  9.47600 48.93500 31.56700
H  12.06500 48.65200 30.60900
H  12.19200 50.77500 31.24100
H  10.41000 50.92000 31.09500
H  11.39100 51.16000 29.62600
H  11.05200 46.41200 30.80600
H  9.44400 46.38200 31.49100
H  11.09600 48.17200 33.09000
H  12.01800 46.73500 32.89900
H  15.39100 49.95000 26.40300
H  15.82900 48.34800 26.03900
H  14.92700 48.71300 27.56900
H  16.27300 48.14100 22.51000
H  15.94400 47.35100 23.94400
H  16.09700 49.19100 24.04100
H  9.56900 46.54100 21.44900
H  6.90800 47.51100 21.78900
H  9.42400 49.41600 21.77000
H  8.10600 48.84500 20.64800
H  9.67600 48.52700 20.25800
H  7.81900 45.06900 21.14000
H  6.30300 45.36200 21.98900
H  8.48800 44.71700 23.96000
H  8.39900 43.60900 22.51200
H  7.04800 43.79600 23.54700
H  3.16500 47.01900 27.32700
H  3.72400 46.14300 25.79700
H  3.45300 47.91000 25.82100
H  6.49600 48.56000 30.87000
H  5.51500 45.93000 34.32000
H  7.22000 45.65700 33.77100
H  5.87600 44.75600 33.14900

