158

Mg 25.97700 0.16900 29.79300
C  27.82300 -0.09200 32.73600
C  23.13100 0.65600 31.54300
C  24.29100 -0.06300 26.92100
C  28.97300 -0.73100 27.93300
N  25.55900 0.08300 31.92600
C  26.47200 0.14900 33.01600
C  25.78300 0.38600 34.35000
C  24.23700 0.50600 33.98800
C  24.30000 0.45000 32.36100
C  23.44300 -0.67300 34.57600
C  26.42200 1.62300 35.13500
C  26.85200 1.29100 36.55500
H  26.76400 2.34700 37.56900
N  23.99700 0.20600 29.31300
C  22.95600 0.44500 30.14700
C  21.69500 0.39700 29.42600
C  22.06300 0.26400 28.02600
C  23.52200 0.11200 28.06100
C  20.34900 0.79300 30.00600
C  21.13300 0.26200 26.81500
O  21.52900 0.30200 25.62800
C  19.61800 0.36100 27.00100
N  26.48000 -0.41700 27.72900
C  25.66000 -0.20400 26.74600
C  26.20500 -0.32300 25.35100
C  27.73100 -0.42400 25.66900
C  27.75000 -0.53000 27.16800
C  25.67800 -1.60700 24.61200
C  28.49400 0.80900 25.10900
C  29.84200 0.59700 24.43900
N  28.05000 -0.20100 30.15600
C  29.08400 -0.55700 29.33100
C  30.22900 -0.74700 30.19800
C  29.82300 -0.49500 31.47700
C  28.47400 -0.22500 31.45300
C  31.64100 -1.25900 29.89200
C  30.34100 -0.38200 32.87100
O  31.45800 -0.57100 33.33700
C  29.01100 -0.13900 33.75200
C  28.78300 -1.27000 34.71700
O  27.87900 -2.12200 34.62000
O  29.60100 -1.12600 35.82600
C  29.19100 -2.02200 37.02400
H  22.21300 0.84900 32.10200
H  23.72600 -0.04200 25.98700
H  29.95000 -0.90100 27.47700
H  25.77700 -0.53900 34.92700
H  23.84300 1.46400 34.33000
H  23.45700 -1.47700 33.84000
H  22.41300 -0.33300 34.68500
H  23.83900 -1.11800 35.48800
H  25.67100 2.41200 35.15000
H  27.24400 2.00100 34.52700
H  27.91300 1.04300 36.51700
H  26.45900 0.35700 36.95700
H  20.08700 1.69200 29.45000
H  20.27700 0.98700 31.07600
H  19.64800 -0.00700 29.76500
H  19.05700 0.29900 26.06900
H  19.35900 1.25600 27.56700
H  19.26800 -0.47500 27.60800
H  25.91100 0.62700 24.90600
H  28.11700 -1.37000 25.28900
H  25.03000 -2.18100 25.27500
H  26.46300 -2.29500 24.29900
H  25.22000 -1.40000 23.64500
H  28.53400 1.59400 25.86300
H  27.83000 1.23100 24.35400
H  30.54000 1.38000 24.73300
H  29.63800 0.58300 23.36900
H  30.21100 -0.39500 24.69900
H  32.35500 -0.50800 29.55400
H  31.51700 -1.97300 29.07800
H  31.99300 -1.78300 30.78100
H  29.17600 0.70400 34.42300
H  28.61700 -2.92500 36.81300
H  28.65500 -1.46100 37.79000
H  30.11200 -2.25700 37.55800
Mg 47.43700 34.88000 27.18700
C  45.80100 33.28700 29.83600
C  47.50800 37.66200 29.23700
C  48.59800 36.50900 24.67400
C  46.53700 32.12000 25.08400
N  46.71100 35.36900 29.32200
C  46.32900 34.50500 30.25000
C  46.58000 35.01500 31.71800
C  46.60200 36.52200 31.40000
C  46.97000 36.56000 29.94100
C  45.35400 37.32600 31.75200
C  47.93300 34.39400 32.20400
C  48.12900 34.27400 33.72100
H  47.40100 35.23300 34.69300
N  47.95500 36.81200 26.97100
C  47.99000 37.80700 27.93400
C  48.75400 38.93800 27.43000
C  49.01900 38.65200 26.05300
C  48.47600 37.29300 25.81300
C  48.97200 40.21100 28.24600
C  49.81300 39.48100 25.07600
O  49.99200 39.07800 23.95600
C  50.42900 40.84600 25.42200
N  47.36300 34.47400 25.23700
C  48.07700 35.26400 24.38100
C  48.41600 34.53400 23.06900
C  47.55800 33.21900 23.15400
C  47.10500 33.23500 24.57700
C  48.10000 35.38700 21.77800
C  48.38400 31.90700 22.84900
C  49.33700 31.35600 23.93600
N  46.42400 33.01100 27.40400
C  46.14600 32.01200 26.43200
C  45.45600 30.96900 27.13200
C  45.27400 31.47200 28.38800
C  45.89300 32.67900 28.56400
C  45.09500 29.68700 26.64000
C  44.64800 31.10800 29.59200
O  44.03500 30.17900 29.92300
C  44.84800 32.35000 30.58800
C  45.28100 31.92000 31.94000
O  46.36100 31.51300 32.28300
O  44.24700 31.98900 32.82000
C  44.59200 31.81800 34.24900
H  47.57800 38.52700 29.89900
H  49.17700 36.97000 23.87100
H  46.23600 31.22000 24.54300
H  45.75800 34.63500 32.32400
H  47.38900 37.07500 31.91400
H  45.23500 38.23900 31.16900
H  45.61100 37.61600 32.77100
H  44.35600 36.89300 31.68400
H  48.79100 35.00800 31.93300
H  47.97600 33.37300 31.82400
H  49.19800 34.45500 33.83400
H  48.11300 33.23700 34.05500
H  49.06100 39.98000 29.30700
H  48.14200 40.90700 28.11800
H  49.85400 40.72700 27.86700
H  49.77700 41.53900 25.95400
H  50.54300 41.31100 24.44300
H  51.40600 40.74600 25.89500
H  49.47100 34.26300 23.04100
H  46.69900 33.27500 22.48600
H  49.01700 35.86500 21.43100
H  47.36900 36.16700 21.99100
H  47.64500 34.84500 20.94900
H  48.88500 32.03800 21.89000
H  47.67000 31.13600 22.56000
H  49.13300 30.29800 24.09900
H  49.33700 31.95100 24.84900
H  50.32400 31.30200 23.47700
H  44.07300 29.60700 26.26900
H  45.23900 29.04500 27.50900
H  45.75400 29.48800 25.79500
H  43.89900 32.84700 30.79100
H  45.28900 32.53700 34.68000
H  44.98800 30.81800 34.42500
H  43.65700 31.93800 34.79700

