158

Mg 30.20400 60.20900 41.03100
C  27.18300 58.66900 39.92300
C  31.82700 57.38800 40.30600
C  33.07300 62.02700 41.22700
C  28.38600 63.27200 41.24700
N  29.60700 58.35300 39.91700
C  28.31000 57.88200 39.66500
C  28.32200 56.46700 39.23600
C  29.80000 55.97600 39.56100
C  30.48200 57.29000 39.99700
C  30.01200 54.79600 40.55900
C  27.90200 56.44700 37.75500
C  26.94600 55.32500 37.31200
H  27.02500 54.70200 35.90800
N  32.20200 59.70300 40.76000
C  32.71000 58.51300 40.51100
C  34.14300 58.51900 40.63900
C  34.52100 59.91500 40.92400
C  33.24400 60.62500 40.98300
C  34.98500 57.37600 40.59300
C  36.01300 60.37900 41.03900
O  36.96200 59.63000 40.86900
C  36.32600 61.79000 41.47900
N  30.68100 62.33000 41.14300
C  31.91800 62.77900 41.37600
C  31.93600 64.30600 41.67800
C  30.45300 64.70300 41.69700
C  29.77700 63.35200 41.26700
C  32.71700 64.57700 43.05400
C  30.06300 65.95300 40.84600
C  29.58600 67.18200 41.61700
N  28.22900 60.81100 40.87800
C  27.66500 62.05600 41.00100
C  26.21700 62.00400 40.77600
C  26.00500 60.61500 40.48800
C  27.24200 59.98500 40.45000
C  25.13600 63.11100 40.78100
C  24.96700 59.64500 40.12900
O  23.68300 59.66800 40.05300
C  25.72300 58.32300 39.69600
C  25.21100 57.26100 40.65300
O  25.37100 57.25900 41.87500
O  24.33700 56.44800 39.94900
C  23.41200 55.68600 40.79300
H  32.33100 56.42000 40.25700
H  33.97600 62.63100 41.34100
H  27.86000 64.19300 41.50300
H  27.60000 55.86000 39.78400
H  30.27800 55.65500 38.63500
H  29.26100 54.01900 40.69800
H  30.23800 55.27000 41.51500
H  30.85300 54.15100 40.30400
H  28.76000 56.36600 37.08700
H  27.33600 57.33700 37.47900
H  25.89700 55.57500 37.46800
H  27.17200 54.53500 38.02800
H  35.45500 57.44300 39.61200
H  34.42600 56.44000 40.60600
H  35.64400 57.46700 41.45600
H  36.20600 62.38900 40.57700
H  37.32400 61.84000 41.91300
H  35.69600 62.09600 42.31500
H  32.47400 64.71700 40.82400
H  30.09300 64.86800 42.71200
H  33.42700 65.37000 42.81900
H  33.21600 63.72300 43.51100
H  32.10900 65.03200 43.83600
H  29.32000 65.79900 40.06400
H  30.92700 66.27400 40.26500
H  28.56900 67.43300 41.31600
H  30.11000 68.13800 41.58000
H  29.84800 66.96000 42.65200
H  24.98300 63.50100 41.78700
H  24.27300 62.58300 40.37300
H  25.43500 63.91000 40.10300
H  25.55400 57.96700 38.67900
H  22.61200 56.32200 41.17200
H  23.90000 55.16000 41.61300
H  22.89200 54.89200 40.25700
Mg 35.14600 49.90500 25.46600
C  35.04900 48.16300 28.53300
C  33.80800 52.59200 27.19500
C  35.04700 51.51300 22.63000
C  36.61900 47.10200 23.92500
N  34.65200 50.38100 27.67000
C  34.70500 49.49000 28.68300
C  34.48900 50.33500 30.04600
C  33.91800 51.70000 29.58500
C  34.05100 51.56000 28.06500
C  32.48800 52.00700 30.07200
C  35.71500 50.36700 31.02300
C  35.41900 49.87000 32.45000
H  34.01500 49.92700 33.07200
N  34.40800 51.74500 25.00000
C  33.96600 52.72400 25.79600
C  33.59000 53.92500 25.07200
C  33.86600 53.53100 23.71600
C  34.51100 52.24200 23.72900
C  32.87600 55.21000 25.69800
C  33.50600 54.25300 22.37300
O  33.68800 53.80600 21.25100
C  32.91200 55.55700 22.41400
N  35.61300 49.37900 23.50400
C  35.55000 50.19700 22.54100
C  35.91900 49.56600 21.19600
C  36.73800 48.29300 21.71200
C  36.30900 48.25700 23.12300
C  34.61900 49.11900 20.50400
C  38.23800 48.37600 21.57200
C  38.92300 49.79300 21.76600
N  35.62600 48.00900 26.03100
C  36.26600 47.01500 25.35500
C  36.55600 45.91000 26.24200
C  35.98100 46.26400 27.50400
C  35.50600 47.60100 27.34500
C  37.16200 44.63100 25.84600
C  35.85700 45.83600 28.85700
O  36.18800 44.76100 29.45300
C  35.13400 47.12000 29.57300
C  33.81900 46.72400 30.13000
O  32.77500 46.71800 29.52500
O  33.92800 46.30600 31.44300
C  32.82800 45.80100 32.31300
H  33.34100 53.43500 27.70800
H  35.11500 52.14100 21.74000
H  37.09400 46.23400 23.46300
H  33.68700 49.75500 30.50200
H  34.63400 52.50200 29.76700
H  32.36600 52.75700 30.85400
H  32.02700 51.07700 30.40400
H  31.88000 52.38100 29.24800
H  36.07800 51.39200 31.09900
H  36.51300 49.70100 30.69300
H  36.08900 50.36100 33.15500
H  35.56300 48.79100 32.39700
H  33.43100 55.71500 26.48800
H  31.89600 54.88500 26.04700
H  32.89300 55.97900 24.92500
H  32.09500 55.57900 23.13500
H  32.44100 55.75400 21.45100
H  33.67200 56.32700 22.54700
H  36.45300 50.23400 20.52000
H  36.44300 47.31500 21.33200
H  33.74500 48.84900 21.09700
H  34.75300 48.22400 19.89700
H  34.47200 49.87400 19.73200
H  38.65500 47.93000 20.66900
H  38.68900 47.81100 22.38800
H  39.80200 49.69700 22.40400
H  38.26200 50.58700 22.11400
H  39.35500 50.06300 20.80300
H  37.48900 44.00600 26.67700
H  37.94900 44.80400 25.11200
H  36.34500 44.09500 25.36200
H  35.88100 47.38200 30.32300
H  31.87600 46.20800 31.97300
H  33.01900 46.10500 33.34200
H  32.71500 44.71800 32.34600

