158

Mg 47.72200 16.63700 29.31900
C  45.87200 16.36300 32.28200
C  49.96300 18.51900 31.02600
C  49.34000 17.28500 26.43000
C  45.04100 15.32900 27.49400
N  47.81700 17.50000 31.37900
C  47.00300 17.13100 32.38100
C  47.58700 17.66400 33.73700
C  48.77700 18.59300 33.29600
C  48.86100 18.26600 31.81300
C  48.60700 20.09100 33.49300
C  48.05700 16.42100 34.65800
C  47.87800 16.73200 36.14300
H  47.53800 18.17300 36.57300
N  49.49500 17.58700 28.85400
C  50.28600 18.27400 29.70800
C  51.57100 18.64700 29.05900
C  51.44900 18.21300 27.67100
C  50.04500 17.67300 27.56700
C  52.79600 19.26900 29.77500
C  52.42200 18.28200 26.51600
O  52.04100 18.08400 25.36500
C  53.87400 18.59700 26.76600
N  47.23400 16.28000 27.23500
C  48.07900 16.67100 26.19900
C  47.37100 16.51500 24.84800
C  46.05800 15.69700 25.25100
C  46.09000 15.82200 26.73900
C  46.94700 17.84100 24.10000
C  45.98700 14.25600 24.64800
C  45.27400 14.00100 23.29300
N  45.81000 16.02700 29.69000
C  44.81500 15.47800 28.88000
C  43.74500 14.94300 29.67900
C  44.13500 15.21000 31.10500
C  45.39200 15.95300 30.98300
C  42.56800 14.14900 29.14900
C  43.73500 15.12000 32.48200
O  42.73100 14.73000 33.01600
C  44.80300 15.86100 33.30100
C  44.12900 16.91000 34.10000
O  43.72400 18.03300 33.70200
O  44.05900 16.50400 35.39900
C  43.01500 17.27000 36.10800
H  50.74300 19.09500 31.52700
H  49.81500 17.48900 25.46800
H  44.24100 15.05000 26.80500
H  46.69600 18.15700 34.12800
H  49.68200 18.28000 33.81700
H  47.90600 20.14700 34.32600
H  48.18100 20.58600 32.62000
H  49.53500 20.62200 33.70200
H  49.11000 16.23900 34.44300
H  47.43900 15.57200 34.36500
H  48.85600 16.48700 36.55700
H  47.18900 15.96200 36.49300
H  52.51000 19.59700 30.77400
H  53.25200 20.02300 29.13300
H  53.48800 18.44200 29.93300
H  54.09500 18.09400 27.70700
H  54.06400 19.65800 26.92800
H  54.41900 18.20200 25.90800
H  47.98300 16.01400 24.09800
H  45.17900 16.24000 24.90400
H  47.13500 18.66600 24.78700
H  45.94500 17.84100 23.67000
H  47.58700 17.95900 23.22600
H  45.34400 13.76400 25.37900
H  47.01100 13.88700 24.60800
H  45.94800 13.40700 22.67600
H  45.09500 14.93300 22.75600
H  44.25600 13.63600 23.43000
H  42.77100 13.62600 28.21500
H  41.86900 14.97800 29.04200
H  42.14100 13.42500 29.84400
H  45.21400 15.15800 34.02600
H  43.33000 18.23000 36.51500
H  42.80700 16.70900 37.01900
H  42.09600 17.18100 35.52900
Mg 5.07900 52.42400 42.14900
C  5.04900 48.89300 41.85400
C  7.52700 52.39200 39.74500
C  4.62500 55.80500 41.85000
C  2.30000 52.18800 44.15200
N  5.97400 50.86300 40.80000
C  5.83500 49.47300 40.84800
C  6.69400 48.82600 39.75000
C  7.74800 49.90300 39.51700
C  7.04000 51.12600 40.03900
C  9.15900 49.71200 40.13600
C  5.82000 48.30500 38.53700
C  5.91500 46.79500 38.01200
H  6.38400 46.50800 36.53900
N  6.02000 53.95700 41.00600
C  7.03600 53.70600 40.10800
C  7.56100 55.03900 39.73100
C  6.86800 56.01700 40.46000
C  5.82400 55.29000 41.15700
C  8.63500 55.16300 38.69100
C  7.20500 57.44000 40.50000
O  8.21500 57.83400 39.88400
C  6.42800 58.43900 41.36500
N  3.75200 53.74700 42.89400
C  3.71300 55.06800 42.63100
C  2.39000 55.72800 43.11800
C  1.45100 54.49700 43.41900
C  2.54400 53.40700 43.52600
C  2.50900 56.60600 44.43600
C  0.43400 54.25800 42.24700
C  -0.51100 55.45700 41.94700
N  4.00000 50.94500 43.02400
C  2.99200 50.99200 43.96300
C  2.69600 49.65000 44.40200
C  3.49400 48.78000 43.59700
C  4.23700 49.59900 42.77000
C  1.71800 49.27600 45.46400
C  3.85200 47.39400 43.36300
O  3.52800 46.33800 43.82800
C  4.88900 47.47100 42.19500
C  4.61600 46.53600 41.15800
O  3.66200 46.64200 40.37100
O  5.44100 45.45600 41.29100
C  5.03300 44.30700 40.48100
H  8.41400 52.49000 39.11600
H  4.42700 56.87800 41.81900
H  1.33100 52.17400 44.65400
H  7.03000 47.95200 40.30700
H  7.89400 50.02600 38.44400
H  9.90000 49.83900 39.34700
H  9.27300 48.72500 40.58400
H  9.40400 50.55100 40.78900
H  6.08600 48.95600 37.70400
H  4.80700 48.64400 38.75600
H  4.91700 46.40200 38.20500
H  6.64200 46.35600 38.69500
H  8.58100 54.37100 37.94500
H  9.62600 55.06000 39.13200
H  8.65200 56.18100 38.29900
H  6.91400 59.41500 41.36800
H  6.48000 57.88700 42.30300
H  5.49800 58.64400 40.83400
H  2.08400 56.44200 42.35300
H  0.84800 54.70400 44.30400
H  3.39900 57.23300 44.40200
H  2.58000 55.99200 45.33400
H  1.73500 57.36900 44.51700
H  -0.19400 53.39500 42.46600
H  0.91100 53.92400 41.32600
H  0.01200 56.34800 41.59900
H  -1.14100 55.72700 42.79500
H  -1.20300 55.21400 41.14100
H  0.72900 49.37100 45.01600
H  1.80500 50.00200 46.27200
H  1.84000 48.28000 45.88900
H  5.86800 47.22000 42.60500
H  5.79700 43.53700 40.58600
H  5.12800 44.59200 39.43400
H  3.99800 44.05300 40.71000

