158

Mg 35.86400 0.77700 29.93100
C  33.33800 1.69400 32.19800
C  38.20400 1.26000 32.42000
C  38.25500 0.70200 27.51200
C  33.37900 1.16400 27.28300
N  35.82600 1.24500 32.06000
C  34.62700 1.57100 32.75500
C  34.92800 1.72400 34.24900
C  36.49300 1.94700 34.25200
C  36.92100 1.50800 32.84600
C  36.79200 3.48900 34.46800
C  34.32500 0.47200 35.00200
C  33.94100 0.41100 36.47400
H  34.83200 1.42200 37.29500
N  37.92000 0.68000 29.97500
C  38.65800 0.86300 31.12500
C  39.98700 0.36200 30.74700
C  40.09800 0.33300 29.36200
C  38.69500 0.57700 28.87900
C  41.15400 0.33300 31.75100
C  41.25500 0.12400 28.42100
O  41.21900 0.23100 27.16900
C  42.60800 -0.13000 28.92600
N  35.79500 0.89200 27.76400
C  36.95800 0.91100 26.99800
C  36.68700 0.77400 25.51700
C  35.11000 0.86200 25.40600
C  34.71300 0.87600 26.91400
C  37.47200 1.67700 24.49300
C  34.28900 -0.07900 24.49500
C  33.15900 0.63800 23.75100
N  33.76600 1.27800 29.68600
C  32.89300 1.37000 28.60200
C  31.56200 1.60200 29.02000
C  31.72700 1.75300 30.39200
C  33.08800 1.55300 30.76700
C  30.37400 1.79000 28.21000
C  30.98100 2.04100 31.65500
O  29.79900 2.18400 31.81400
C  32.02700 2.11000 32.86700
C  32.05400 3.46100 33.46200
O  32.35000 4.47000 32.83000
O  31.55500 3.50500 34.72100
C  31.49700 4.76700 35.35700
H  38.97100 1.34000 33.19300
H  39.02600 0.52200 26.76000
H  32.59300 1.10500 26.52700
H  34.36700 2.58400 34.61600
H  36.92300 1.32600 35.03800
H  37.41500 3.53400 35.36200
H  35.90800 4.07000 34.73200
H  37.38200 3.91700 33.65800
H  35.12700 -0.26500 35.05100
H  33.47500 -0.01200 34.52200
H  34.00600 -0.61900 36.82300
H  32.91000 0.76000 36.52000
H  42.03600 0.82400 31.34100
H  41.52200 -0.66000 32.01000
H  40.94100 0.89900 32.65800
H  43.35000 -0.47700 28.20700
H  42.52700 -0.85700 29.73500
H  43.00200 0.82400 29.27400
H  36.98600 -0.25900 25.33600
H  34.86000 1.89300 25.15700
H  38.12400 2.30400 25.10100
H  36.79200 2.26700 23.87900
H  37.94200 0.91100 23.87600
H  33.86500 -0.91300 25.05300
H  34.95900 -0.41900 23.70500
H  33.56600 1.30300 22.98900
H  32.47100 1.24300 24.34200
H  32.62300 -0.16300 23.24100
H  30.61900 2.20600 27.23300
H  29.73700 2.57300 28.62100
H  29.80300 0.89100 27.97600
H  31.78000 1.38000 33.63700
H  32.28400 4.68700 36.10600
H  30.55100 4.82500 35.89600
H  31.56700 5.54900 34.60100
Mg -10.30600 39.39200 41.76400
C  -8.86500 36.32700 41.06600
C  -7.43200 40.92400 40.48200
C  -11.88900 42.41800 42.01600
C  -13.27100 37.83900 42.47800
N  -8.29500 38.68900 40.91700
C  -7.96600 37.39700 40.72800
C  -6.50300 37.25600 40.19800
C  -6.05100 38.72100 40.19300
C  -7.33100 39.57600 40.59500
C  -4.61500 38.89700 40.86200
C  -6.50100 36.54100 38.75800
C  -5.13100 35.83000 38.45900
H  -4.31900 36.18800 37.23100
N  -9.74600 41.38600 41.35900
C  -8.55500 41.77800 40.79200
C  -8.54400 43.22000 40.62200
C  -9.82200 43.68000 41.10100
C  -10.54000 42.50900 41.59600
C  -7.35400 43.95900 39.93700
C  -10.42100 45.08600 41.01400
O  -9.73000 46.01000 40.64500
C  -11.82600 45.50700 41.45100
N  -12.33100 40.01600 42.18800
C  -12.67100 41.28400 42.31600
C  -14.12600 41.45700 42.86700
C  -14.56300 39.95700 42.92200
C  -13.32800 39.20900 42.41800
C  -14.06100 42.24300 44.23800
C  -15.81500 39.61800 42.09000
C  -17.22900 39.46000 42.80400
N  -11.01900 37.52100 41.69700
C  -12.22000 36.99700 42.05200
C  -12.36000 35.56800 41.92700
C  -11.03500 35.20800 41.62200
C  -10.26200 36.42500 41.46000
C  -13.50000 34.71600 42.42500
C  -10.07500 34.09800 41.42200
O  -10.17900 32.87900 41.59800
C  -8.72800 34.82300 41.04100
C  -7.71200 34.31400 41.98600
O  -7.62300 34.61000 43.17200
O  -6.80500 33.60400 41.27100
C  -5.60100 33.18500 42.00000
H  -6.50000 41.37200 40.13200
H  -12.39800 43.33800 42.31100
H  -14.23200 37.37200 42.70100
H  -5.91100 36.62600 40.86200
H  -5.95000 38.96500 39.13500
H  -4.79800 39.70900 41.56600
H  -3.87200 39.00800 40.07200
H  -4.30300 38.01200 41.41700
H  -6.80600 37.19600 37.94200
H  -7.27000 35.77100 38.82400
H  -5.19700 34.74200 38.46000
H  -4.48700 36.15300 39.27700
H  -6.88100 43.29400 39.21500
H  -6.68300 44.39500 40.67700
H  -7.74500 44.83100 39.41300
H  -11.87700 45.41500 42.53600
H  -12.58600 44.90600 40.95200
H  -12.17300 46.48300 41.11100
H  -14.71000 42.06300 42.17400
H  -14.73800 39.70000 43.96700
H  -13.01300 42.50000 44.39200
H  -14.35400 41.54300 45.02000
H  -14.70000 43.12200 44.32600
H  -15.62200 38.61900 41.70000
H  -15.82100 40.37700 41.30700
H  -17.88700 40.27600 42.50500
H  -17.19600 39.36200 43.88900
H  -17.71200 38.59700 42.34400
H  -14.18700 34.42800 41.62900
H  -14.14400 35.14000 43.19600
H  -13.02700 33.80700 42.79700
H  -8.50800 34.42500 40.05100
H  -5.81500 33.10100 43.06600
H  -4.76700 33.85000 41.77600
H  -5.26800 32.21200 41.64000

