158

Mg 2.08600 -0.66000 44.23200
C  5.41500 0.44700 44.04300
C  1.15200 2.10400 42.32500
C  -0.80100 -2.15300 43.63000
C  3.34700 -3.74200 45.35700
N  3.19400 1.07100 43.24100
C  4.50900 1.30400 43.30100
C  4.84400 2.64700 42.63600
C  3.41700 3.21000 42.34800
C  2.53900 2.10300 42.61200
C  3.10500 4.50800 43.11700
C  5.67100 2.39500 41.31300
C  6.98100 3.21400 41.27300
H  7.90700 2.89500 40.03100
N  0.40000 -0.02400 43.30100
C  0.16200 1.14400 42.61100
C  -1.18700 1.22300 42.26600
C  -1.84900 0.03200 42.75200
C  -0.71900 -0.80200 43.24600
C  -1.75100 2.46000 41.56200
C  -3.37700 -0.21200 42.73200
O  -4.09100 0.65300 42.17400
C  -3.98700 -1.45600 43.32700
N  1.32500 -2.69800 44.42000
C  0.09100 -3.04800 44.15200
C  -0.18400 -4.53500 44.39500
C  1.19800 -4.98700 44.99400
C  2.06000 -3.75800 44.89400
C  -1.35100 -4.86700 45.33000
C  1.94800 -6.26900 44.43100
C  2.53600 -7.25300 45.46900
N  4.00400 -1.47600 44.65300
C  4.31500 -2.66600 45.27300
C  5.66400 -2.66500 45.60600
C  6.20100 -1.45900 45.11300
C  5.17200 -0.81800 44.53300
C  6.47900 -3.76100 46.23600
C  7.36100 -0.60900 45.05400
O  8.49000 -0.76500 45.55200
C  6.88400 0.70100 44.32500
C  7.18500 1.86400 45.17400
O  6.43900 2.34600 46.01700
O  8.37200 2.39700 44.61400
C  8.71600 3.75700 45.11200
H  0.93700 2.99300 41.72800
H  -1.78200 -2.50900 43.30900
H  3.72900 -4.67700 45.77200
H  5.41500 3.31200 43.28400
H  3.29600 3.44400 41.29100
H  3.92800 4.90000 43.71400
H  2.24800 4.50900 43.79000
H  2.85500 5.34700 42.46800
H  5.05500 2.69600 40.46600
H  5.82400 1.32800 41.15200
H  7.48100 2.98100 42.21300
H  6.86900 4.29800 41.25300
H  -2.76500 2.69800 41.88100
H  -1.88300 2.16900 40.52000
H  -1.18000 3.35100 41.82400
H  -5.03200 -1.21800 43.12900
H  -3.75200 -1.50100 44.39000
H  -3.75300 -2.26600 42.63700
H  -0.34600 -5.10000 43.47700
H  1.09900 -5.08700 46.07500
H  -1.08700 -5.07000 46.36800
H  -1.97400 -5.66600 44.92700
H  -1.96400 -3.97600 45.46800
H  2.68000 -6.01900 43.66200
H  1.09300 -6.78800 43.99800
H  2.28200 -8.28600 45.23200
H  2.21800 -7.05600 46.49300
H  3.61500 -7.13600 45.36400
H  6.71300 -4.41800 45.39800
H  5.95700 -4.35100 46.98900
H  7.37900 -3.37400 46.71500
H  7.44200 0.95100 43.42300
H  9.73000 4.04300 44.83500
H  8.58400 3.91400 46.18300
H  8.07100 4.39400 44.50700
Mg -11.44600 39.79300 39.32400
C  -10.38400 36.56800 38.15300
C  -8.44400 41.02700 38.29800
C  -12.74300 42.84300 39.54300
C  -14.62800 38.46000 39.61400
N  -9.65500 38.89600 38.26800
C  -9.40400 37.57300 38.02400
C  -7.99500 37.40500 37.43600
C  -7.36900 38.81400 37.80000
C  -8.56800 39.65200 38.11800
C  -6.26900 38.74500 38.93400
C  -8.03300 37.10600 35.92000
C  -7.17400 35.93100 35.40100
H  -7.97600 35.09000 34.33300
N  -10.69300 41.72300 39.01900
C  -9.45900 42.02700 38.61200
C  -9.26600 43.47800 38.51800
C  -10.55100 44.04000 38.85800
C  -11.39000 42.88900 39.23100
C  -8.02400 44.24700 38.24200
C  -11.00100 45.51300 38.69300
O  -10.16500 46.34500 38.44300
C  -12.42700 46.02400 38.91600
N  -13.43400 40.50600 39.73500
C  -13.69300 41.85400 39.72000
C  -15.18300 42.13700 39.89600
C  -15.79600 40.68600 39.91500
C  -14.57000 39.84500 39.76000
C  -15.47200 43.07200 41.02300
C  -16.88200 40.39200 38.75600
C  -18.24600 39.98100 39.30600
N  -12.33000 37.85200 39.12400
C  -13.61600 37.52400 39.32300
C  -13.75600 36.11900 39.04500
C  -12.50100 35.65200 38.63800
C  -11.65800 36.80300 38.71900
C  -14.94600 35.24200 39.04200
C  -11.74400 34.47600 38.17900
O  -12.07900 33.31300 38.09400
C  -10.28000 35.00600 37.91900
C  -9.34500 34.49900 38.87500
O  -9.56100 34.51200 40.06700
O  -8.21500 34.06800 38.20700
C  -7.13400 33.56900 38.94300
H  -7.45200 41.42600 38.07200
H  -13.12600 43.85300 39.70300
H  -15.60600 37.97400 39.61200
H  -7.45000 36.67400 38.03300
H  -6.81600 39.17900 36.93400
H  -5.36800 39.17600 38.49700
H  -6.09300 37.70000 39.19200
H  -6.59700 39.26200 39.83500
H  -7.56600 37.86900 35.29700
H  -9.05800 37.07400 35.55200
H  -6.92400 35.27000 36.23100
H  -6.28600 36.34800 34.92500
H  -7.90600 44.99900 39.02200
H  -8.18400 44.76000 37.29300
H  -7.03200 43.81200 38.11600
H  -12.99700 45.66800 38.05800
H  -12.39100 47.10500 38.77800
H  -12.82500 45.88100 39.92000
H  -15.52000 42.68000 39.01300
H  -16.06400 40.63700 40.97000
H  -15.66900 44.06100 40.60700
H  -14.67500 43.23000 41.74900
H  -16.37800 42.81000 41.56900
H  -16.42300 39.56600 38.21200
H  -17.06900 41.24200 38.10000
H  -18.22800 38.91200 39.52000
H  -19.02800 40.25800 38.59800
H  -18.31000 40.39500 40.31200
H  -15.68900 35.07800 39.82200
H  -14.57200 34.24800 38.79800
H  -15.54100 35.46500 38.15700
H  -10.01900 34.75200 36.89100
H  -6.48000 33.22900 38.14000
H  -7.42000 32.81500 39.67600
H  -6.62200 34.36300 39.48600

