158

Mg 2.74800 -2.44700 43.68600
C  6.04300 -1.48800 43.11000
C  1.58600 0.03800 41.51900
C  -0.24400 -3.95500 43.58900
C  4.04300 -5.35400 45.17700
N  3.73300 -0.94200 42.48000
C  5.15000 -0.68000 42.37700
C  5.44000 0.49100 41.40800
C  3.95100 0.97000 41.08300
C  2.99600 -0.06000 41.69400
C  3.60400 2.34500 41.62100
C  6.40700 -0.03400 40.23200
C  7.71600 0.78800 40.06600
H  8.30400 0.97200 38.66100
N  0.84600 -1.79000 42.96500
C  0.59200 -0.76600 42.08700
C  -0.80600 -0.67700 41.83200
C  -1.35700 -1.88000 42.34300
C  -0.30400 -2.60400 43.01800
C  -1.39000 0.59500 41.07700
C  -2.82700 -2.27500 42.16300
O  -3.57800 -1.47900 41.52000
C  -3.49700 -3.54600 42.54700
N  2.06500 -4.44600 44.17000
C  0.72500 -4.74800 44.16100
C  0.43200 -6.23600 44.58800
C  1.74600 -6.51800 45.34700
C  2.72000 -5.43100 44.81600
C  -0.88300 -6.37500 45.44200
C  2.34200 -7.95900 45.12600
C  2.94200 -8.79300 46.27700
N  4.59800 -3.22500 44.25400
C  4.97800 -4.40400 44.82100
C  6.41500 -4.40300 45.11700
C  6.80500 -3.18800 44.49900
C  5.69000 -2.62600 43.88900
C  7.18800 -5.45100 45.88000
C  7.96000 -2.40600 44.21100
O  9.10900 -2.62600 44.51900
C  7.48500 -1.23900 43.35500
C  7.72200 0.02700 44.13800
O  7.26000 0.25300 45.24500
O  8.46800 0.86800 43.32400
C  8.63400 2.17200 43.84400
H  1.18500 0.84100 40.89600
H  -1.21900 -4.44300 43.52900
H  4.37300 -6.19500 45.79000
H  6.00300 1.24600 41.95700
H  3.81400 1.08800 40.00800
H  4.53000 2.90300 41.76200
H  3.03200 2.24000 42.54300
H  3.01900 2.88500 40.87700
H  5.90900 0.18300 39.28700
H  6.63500 -1.09600 40.31800
H  8.41700 0.24300 40.69800
H  7.53300 1.79100 40.44900
H  -2.40900 0.76900 41.42300
H  -1.34200 0.45700 39.99600
H  -0.81400 1.51500 41.17300
H  -3.43100 -3.92500 43.56600
H  -3.02400 -4.28300 41.89900
H  -4.57700 -3.43000 42.45800
H  0.31300 -6.77200 43.64700
H  1.64400 -6.29800 46.41000
H  -1.21900 -5.34100 45.51200
H  -0.71900 -6.95900 46.34800
H  -1.72900 -6.82500 44.92300
H  3.04200 -7.91000 44.29200
H  1.48900 -8.56600 44.82500
H  3.04200 -8.17100 47.16600
H  3.98300 -8.96900 46.00600
H  2.31300 -9.64800 46.52200
H  8.20200 -5.05800 45.79600
H  7.02100 -6.39900 45.36900
H  6.87900 -5.47900 46.92500
H  7.99400 -1.28700 42.39200
H  8.66300 2.79300 42.94900
H  9.43900 2.21600 44.57800
H  7.87900 2.60700 44.49900
Mg 27.69400 49.87900 26.46600
C  25.38100 51.08200 29.03000
C  29.75400 49.04100 28.83700
C  29.58800 48.87100 23.99400
C  25.25300 51.02800 24.17600
N  27.48300 50.08100 28.69800
C  26.53600 50.52300 29.54300
C  26.90200 50.27300 31.00000
C  28.45800 49.97000 30.87100
C  28.56800 49.62700 29.37000
C  29.41000 51.15700 31.34400
C  26.06600 49.20900 31.68900
C  25.08500 49.75200 32.76800
H  25.35000 49.21500 34.21000
N  29.47800 49.14900 26.46800
C  30.19000 48.84500 27.53000
C  31.38700 48.03800 27.11200
C  31.41000 48.06500 25.69600
C  30.13600 48.69600 25.32100
C  32.35800 47.43100 28.09300
C  32.36800 47.48900 24.70100
O  32.37300 47.87400 23.55400
C  33.46200 46.53600 25.17200
N  27.53400 50.15800 24.31900
C  28.41500 49.51400 23.53300
C  27.98500 49.56400 22.07900
C  26.48300 50.00000 22.21600
C  26.42100 50.46000 23.67900
C  28.77400 50.62900 21.21800
C  25.46400 48.92500 21.85500
C  24.22800 49.48700 21.13600
N  25.74400 51.02500 26.51300
C  24.83300 51.35000 25.52600
C  23.55300 51.94300 26.06800
C  23.78800 51.89600 27.42800
C  25.10200 51.33000 27.67500
C  22.43000 52.53700 25.33800
C  23.23400 52.27000 28.73500
O  22.14200 52.82300 29.03600
C  24.22500 51.70000 29.81100
C  24.67000 52.88400 30.58000
O  25.63000 53.60300 30.37600
O  23.83500 53.10400 31.66100
C  24.05500 54.28700 32.43600
H  30.34100 48.56600 29.62700
H  30.07900 48.26700 23.22800
H  24.50800 51.18400 23.39300
H  26.85700 51.24300 31.49500
H  28.81800 49.11300 31.44000
H  28.87100 52.04000 31.68900
H  29.98700 51.52400 30.49500
H  30.11000 50.89900 32.13800
H  26.71400 48.53200 32.24500
H  25.42000 48.67700 30.99100
H  24.08400 49.42800 32.48500
H  25.04000 50.84100 32.78800
H  32.05500 47.60600 29.12600
H  33.34200 47.87100 27.93100
H  32.31000 46.36000 27.90000
H  34.35600 46.93500 25.65100
H  33.81000 46.14100 24.21700
H  33.01100 45.66700 25.65200
H  28.04300 48.60500 21.56400
H  26.22800 50.87500 21.61700
H  29.64000 50.97300 21.78200
H  28.12700 51.40100 20.80300
H  29.29300 50.23000 20.34600
H  25.18200 48.53300 22.83200
H  26.00800 48.17800 21.27600
H  23.37500 49.52300 21.81300
H  24.03400 48.83900 20.28100
H  24.42800 50.48300 20.74000
H  22.62600 53.60400 25.43900
H  21.45600 52.19900 25.69000
H  22.54300 52.22400 24.30000
H  23.70100 51.04200 30.50400
H  23.24300 54.44700 33.14600
H  24.14700 55.20000 31.84800
H  25.00300 54.11500 32.94500

