158

Mg 50.30900 45.32200 42.16800
C  47.31700 46.36500 40.68800
C  50.10800 42.28400 40.39900
C  53.61100 44.83600 42.78200
C  50.72800 48.73000 43.14500
N  48.97700 44.54100 40.65800
C  47.77700 45.10000 40.19900
C  46.98100 44.10500 39.36500
C  47.67900 42.74600 39.58600
C  49.05700 43.16800 40.18200
C  46.82400 41.74500 40.42300
C  46.86700 44.58900 37.81400
C  45.49500 44.72300 37.20100
H  45.42500 44.54600 35.70100
N  51.65600 43.70300 41.74400
C  51.26500 42.50500 41.15100
C  52.34300 41.59500 41.28000
C  53.49600 42.26300 41.97900
C  52.93600 43.65900 42.27400
C  52.35100 40.19900 40.69100
C  54.83200 41.69600 42.43900
O  55.16000 40.59900 42.19200
C  55.74400 42.49600 43.31700
N  52.02900 46.65200 42.76300
C  53.24600 46.18900 43.03900
C  54.22100 47.36700 43.45000
C  53.14300 48.48700 43.87000
C  51.89300 47.97200 43.19800
C  55.25800 47.02500 44.57900
C  53.65100 49.89400 43.60500
C  53.38400 50.98600 44.63400
N  49.21100 47.11100 42.18600
C  49.47200 48.37700 42.60400
C  48.37500 49.25300 42.34900
C  47.46800 48.49700 41.68100
C  48.06800 47.17200 41.56800
C  48.35900 50.73300 42.60100
C  46.17000 48.48900 40.92900
O  45.37800 49.39200 40.65600
C  45.92000 47.04700 40.39900
C  44.75800 46.54700 41.09600
O  43.63200 46.43800 40.69100
O  45.22000 46.12800 42.29300
C  44.24500 45.42600 43.24000
H  50.00000 41.26200 40.03100
H  54.67700 44.73600 42.99900
H  50.69800 49.73600 43.56900
H  45.95400 44.03800 39.72200
H  47.80200 42.31000 38.59400
H  46.63400 40.81800 39.88300
H  45.80900 42.13600 40.49400
H  47.25900 41.43600 41.37400
H  47.60300 43.97800 37.29100
H  47.34200 45.55900 37.66300
H  45.01500 45.65500 37.49900
H  44.93400 43.93100 37.69700
H  51.83500 40.10600 39.73600
H  51.77100 39.60600 41.39900
H  53.34300 39.86500 40.38900
H  55.07000 42.90600 44.06900
H  56.33000 43.20000 42.72700
H  56.39300 41.87700 43.93700
H  54.77400 47.63600 42.55000
H  52.91000 48.41600 44.93300
H  55.25900 47.80600 45.33900
H  56.23400 47.06700 44.09500
H  55.10600 46.02600 44.98600
H  53.15700 50.26900 42.70900
H  54.72800 49.90200 43.43700
H  52.30700 50.96300 44.80500
H  53.57100 51.91100 44.08900
H  53.89100 50.82100 45.58400
H  47.89300 51.08900 43.51900
H  47.60400 51.07200 41.89200
H  49.29200 51.25800 42.39400
H  45.71500 47.12400 39.33200
H  43.53300 46.17300 43.59000
H  44.90400 44.96500 43.97600
H  43.72800 44.71600 42.59500
Mg 16.41700 51.97800 26.14800
C  18.36000 51.06600 28.99000
C  13.90200 52.74000 28.34600
C  14.67700 52.90000 23.52600
C  19.01800 50.79700 24.15700
N  16.18300 51.75200 28.44500
C  17.14800 51.65400 29.37800
C  16.76100 51.99200 30.76100
C  15.22300 52.26600 30.47600
C  15.07500 52.28300 28.99400
C  14.28400 51.32200 31.23400
C  17.57700 53.10900 31.41800
C  18.14500 52.84400 32.83600
H  17.39500 52.09900 33.81900
N  14.61300 52.66900 25.94900
C  13.71700 52.98500 26.96800
C  12.52000 53.63200 26.37100
C  12.77400 53.81800 25.01800
C  14.06800 53.05700 24.76600
C  11.36100 54.15600 27.20900
C  11.99500 54.53300 23.95700
O  12.37100 54.61200 22.80400
C  10.72900 55.19000 24.31700
N  16.75900 51.91500 24.08600
C  15.90000 52.34200 23.18500
C  16.40900 52.20500 21.73800
C  17.89500 51.86800 22.06000
C  17.94800 51.47000 23.53500
C  15.68900 51.14600 20.80500
C  18.91700 53.02500 21.77600
C  19.93900 52.76700 20.62700
N  18.24700 51.01400 26.39600
C  19.17200 50.58300 25.45400
C  20.24500 49.88900 26.18100
C  19.96000 50.11600 27.54000
C  18.73900 50.77200 27.64300
C  21.48300 49.24100 25.55100
C  20.44100 49.91600 28.85100
O  21.43900 49.29300 29.23800
C  19.45200 50.50900 29.85300
C  19.01800 49.39300 30.70300
O  18.36000 48.46000 30.36100
O  19.53400 49.54900 31.95200
C  19.11000 48.46200 32.86100
H  13.16600 52.99700 29.11000
H  14.25000 53.37000 22.63800
H  19.85200 50.48600 23.52400
H  16.85000 51.15500 31.45300
H  14.92800 53.23900 30.86800
H  13.89200 50.53000 30.59700
H  13.45500 51.91600 31.61900
H  14.76000 50.77800 32.05000
H  16.98600 54.02200 31.49600
H  18.47300 53.33000 30.83900
H  18.44600 53.81700 33.22500
H  19.10400 52.33500 32.73500
H  11.52900 54.00300 28.27500
H  10.54700 53.47100 26.97300
H  11.02200 55.18600 27.09900
H  10.31700 55.45700 23.34400
H  10.89300 56.06800 24.94200
H  9.99400 54.49300 24.71900
H  16.26600 53.18300 21.27900
H  18.23100 50.99300 21.50300
H  16.41000 50.41300 20.44400
H  15.00700 51.54700 20.05600
H  15.13900 50.51300 21.50200
H  19.54800 53.27800 22.62700
H  18.43200 53.99500 21.67100
H  19.49800 52.47900 19.67300
H  20.54100 51.92000 20.95500
H  20.52800 53.66000 20.41600
H  21.73900 48.36900 26.15300
H  22.25400 50.01000 25.50800
H  21.29800 48.93700 24.52100
H  19.96500 51.26900 30.44300
H  19.45500 47.46400 32.58900
H  18.02500 48.38100 32.79600
H  19.44900 48.75900 33.85300

