158

Mg 40.66400 9.01600 29.18000
C  42.46100 10.28500 31.86300
C  38.53300 7.64700 31.52000
C  39.05100 7.71500 26.67000
C  43.34800 9.95200 27.13200
N  40.47900 9.13000 31.40500
C  41.34000 9.70600 32.28300
C  40.80200 9.60200 33.70900
C  39.77400 8.45700 33.59500
C  39.56000 8.41500 32.04400
C  40.04700 7.04100 34.14200
C  40.13400 10.91800 34.33600
C  40.34200 11.01100 35.86400
H  40.77800 12.27200 36.49300
N  39.04400 7.78000 29.12200
C  38.27000 7.36800 30.17900
C  37.15300 6.57000 29.68200
C  37.21400 6.65100 28.24700
C  38.44800 7.40800 27.94900
C  36.15600 5.92800 30.64900
C  36.22400 6.08000 27.11000
O  36.42800 6.11000 25.92900
C  34.95300 5.42300 27.53200
N  41.32400 8.63800 27.19600
C  40.33600 8.25100 26.30800
C  40.74900 8.50000 24.84800
C  42.11900 9.16700 25.02100
C  42.31200 9.23700 26.51700
C  40.62700 7.18100 24.02300
C  42.26600 10.47200 24.24200
C  41.70300 11.71400 24.87500
N  42.46100 10.11900 29.36800
C  43.52200 10.30600 28.41400
C  44.52900 11.10300 29.12500
C  44.15500 11.08800 30.47600
C  42.89300 10.51300 30.51800
C  45.76300 11.67900 28.50200
C  44.60700 11.57800 31.69800
O  45.54100 12.23700 32.07200
C  43.48900 11.02500 32.65000
C  44.10200 10.03600 33.59600
O  44.66300 8.95900 33.33500
O  43.96900 10.57300 34.90700
C  44.57200 9.80500 35.92200
H  37.75400 7.29400 32.19800
H  38.39100 7.61200 25.80600
H  44.02100 10.28300 26.33800
H  41.58200 9.21600 34.36600
H  38.85600 8.71400 34.12400
H  40.80900 7.18700 34.90700
H  40.27900 6.28400 33.39300
H  39.22200 6.77900 34.80500
H  39.06300 10.96500 34.14400
H  40.56500 11.78700 33.83800
H  41.09200 10.30700 36.22600
H  39.41700 10.63900 36.30400
H  36.49500 5.70600 31.66100
H  36.04200 4.91100 30.27500
H  35.18700 6.42600 30.69100
H  35.09200 4.67100 28.30800
H  34.39900 5.04200 26.67300
H  34.40400 6.26000 27.96300
H  40.07100 9.17500 24.32600
H  42.80500 8.42600 24.61100
H  41.60100 6.76600 23.76500
H  40.12600 7.37700 23.07500
H  40.08500 6.44900 24.62000
H  41.73800 10.44900 23.28900
H  43.33500 10.60300 24.07800
H  41.37200 11.55900 25.90200
H  40.95000 12.10600 24.19100
H  42.49000 12.46000 24.98900
H  45.41200 12.29100 27.67100
H  46.43400 10.89100 28.15900
H  46.30300 12.21400 29.28300
H  43.06700 11.87300 33.18900
H  45.56600 9.40300 35.72400
H  43.92500 8.99500 36.25900
H  44.67600 10.52500 36.73400
Mg 1.51500 42.51600 26.79700
C  3.73600 42.67400 29.61000
C  -0.97400 41.59600 29.01500
C  -0.37400 41.73300 24.14200
C  4.21500 42.99600 24.65700
N  1.44100 42.15800 29.11000
C  2.44000 42.35500 30.01300
C  1.87900 42.31000 31.38300
C  0.45500 41.72300 31.21500
C  0.31900 41.92200 29.69300
C  0.37700 40.16800 31.56200
C  1.84000 43.81500 31.77500
C  1.89300 44.24900 33.28300
H  1.80000 43.05500 34.27400
N  -0.40300 41.75800 26.55700
C  -1.28200 41.46600 27.57600
C  -2.42200 40.93200 26.98700
C  -2.32900 40.89200 25.59100
C  -0.99000 41.42800 25.32300
C  -3.62200 40.50600 27.81400
C  -3.30900 40.46200 24.49000
O  -2.90900 40.38400 23.34300
C  -4.72900 40.08200 24.76900
N  1.80400 42.65300 24.77200
C  0.86900 42.28000 23.84900
C  1.31400 42.54200 22.37700
C  2.76900 43.10000 22.58700
C  2.98200 42.90500 24.06300
C  1.36700 41.21700 21.49800
C  2.76100 44.60500 22.13900
C  3.10800 44.77200 20.62300
N  3.51400 42.78100 27.07600
C  4.47500 42.99500 26.05500
C  5.77900 43.25100 26.68600
C  5.51200 43.08200 28.06600
C  4.10200 42.84500 28.27300
C  7.05700 43.62100 25.98600
C  6.15900 43.02200 29.32300
O  7.37200 42.97900 29.57400
C  5.04900 42.84300 30.39100
C  5.26300 41.66400 31.29300
O  5.39100 40.49800 30.85100
O  5.32600 42.02900 32.62700
C  5.50100 40.97500 33.68000
H  -1.80400 41.35100 29.68100
H  -1.07300 41.57000 23.31900
H  5.08700 43.09000 24.00800
H  2.48100 41.67800 32.03700
H  -0.30400 42.26900 31.77600
H  -0.50800 39.69700 31.13600
H  0.41000 40.00100 32.63900
H  1.27500 39.79100 31.07200
H  0.86100 44.18500 31.47100
H  2.48200 44.46700 31.18300
H  1.04500 44.91100 33.45700
H  2.85800 44.70400 33.50700
H  -3.88200 39.47200 27.59000
H  -4.51400 41.11500 27.67000
H  -3.45100 40.43100 28.88800
H  -4.85700 39.01300 24.94100
H  -5.25400 40.28900 23.83700
H  -5.16800 40.65900 25.58200
H  0.64200 43.27100 21.92500
H  3.51400 42.58500 21.98000
H  1.12800 40.31600 22.06200
H  2.35500 40.95100 21.12300
H  0.75800 41.21200 20.59400
H  3.54100 45.18200 22.63400
H  1.77800 45.06700 22.23600
H  3.71100 45.66400 20.45200
H  2.19800 44.76400 20.02300
H  3.64300 43.92400 20.19400
H  7.21400 44.69000 26.12800
H  7.09000 43.35300 24.93000
H  7.75300 42.98500 26.53400
H  5.01600 43.76100 30.97700
H  4.68800 40.25800 33.56200
H  5.31800 41.50900 34.61300
H  6.49100 40.51800 33.70600

