158

Mg 2.10500 -1.28000 44.05100
C  5.37200 -0.08600 43.63400
C  0.96300 1.49900 42.25300
C  -0.91800 -2.72200 43.52900
C  3.27200 -4.23700 45.14100
N  3.07200 0.40400 42.90200
C  4.40300 0.81900 43.03700
C  4.66100 2.14400 42.29600
C  3.24800 2.64500 42.01600
C  2.33400 1.43400 42.33100
C  2.90900 3.95900 42.84800
C  5.55100 2.00700 41.09000
C  5.31100 0.81000 40.10100
H  5.77900 0.88500 38.68200
N  0.20100 -0.63600 43.23800
C  -0.04400 0.54200 42.56500
C  -1.47300 0.69100 42.36700
C  -2.05300 -0.56000 42.66300
C  -0.90700 -1.37700 43.14900
C  -2.06000 2.00100 41.82700
C  -3.47000 -0.91200 42.40200
O  -4.21500 -0.00400 42.02500
C  -4.03500 -2.26600 42.56700
N  1.31000 -3.24000 44.25200
C  0.01900 -3.57100 44.09500
C  -0.38800 -4.92900 44.66100
C  0.92900 -5.34100 45.32100
C  1.94600 -4.22800 44.88800
C  -1.64800 -4.84900 45.61200
C  1.33500 -6.73000 44.93100
C  1.67000 -7.67100 46.11400
N  3.87400 -2.01500 44.51800
C  4.29100 -3.23100 45.02500
C  5.66800 -3.28700 45.29100
C  6.13400 -2.12000 44.69600
C  5.05500 -1.32000 44.30300
C  6.47500 -4.38300 45.98200
C  7.36100 -1.35500 44.35300
O  8.49600 -1.65000 44.49800
C  6.82900 0.03100 43.72200
C  7.23400 0.99300 44.67800
O  7.23800 0.88300 45.90600
O  7.36300 2.15900 43.95800
C  7.39800 3.46800 44.70700
H  0.62900 2.47800 41.90200
H  -1.86900 -3.21600 43.31800
H  3.61500 -5.17000 45.59300
H  5.10100 2.77100 43.07100
H  3.11800 2.95200 40.97800
H  3.79200 4.51600 43.16300
H  2.39000 3.74500 43.78200
H  2.21700 4.56200 42.26000
H  6.58500 2.01000 41.43500
H  5.27600 2.91500 40.55400
H  4.24500 0.61600 40.22000
H  5.92100 -0.03500 40.41700
H  -2.19400 1.98500 40.74500
H  -1.37000 2.84400 41.81000
H  -3.06200 2.23100 42.19100
H  -5.12000 -2.18800 42.50400
H  -3.77600 -2.51300 43.59600
H  -3.58400 -2.92800 41.82800
H  -0.48300 -5.62500 43.82800
H  0.97000 -5.35400 46.41000
H  -2.36600 -4.12200 45.23300
H  -1.33300 -4.49600 46.59400
H  -2.19800 -5.78600 45.71000
H  2.26200 -6.61500 44.36800
H  0.57500 -7.19300 44.30200
H  2.74900 -7.79100 46.22100
H  1.14000 -8.59300 45.87800
H  1.29100 -7.31100 47.07000
H  7.28800 -3.90400 46.52700
H  6.93000 -5.08000 45.27800
H  5.82000 -4.94600 46.64800
H  7.38700 0.16400 42.79500
H  7.97600 3.39200 45.62700
H  6.41600 3.91400 44.86900
H  7.90500 4.08200 43.96200
Mg 23.96400 -5.31200 46.10200
C  25.90000 -2.94200 44.27200
C  21.43500 -4.53600 43.78600
C  22.46000 -8.05400 47.10400
C  26.98200 -6.20400 47.83600
N  23.64100 -3.86600 44.29300
C  24.60200 -3.04800 43.76300
C  24.05300 -2.26100 42.60200
C  22.51300 -2.53000 42.64400
C  22.49300 -3.71400 43.66600
C  21.61100 -1.41900 43.12000
C  24.68300 -2.42800 41.20600
C  24.96000 -1.09900 40.42000
H  24.84300 -1.14800 38.84500
N  22.13100 -6.13800 45.65200
C  21.20300 -5.60600 44.76400
C  20.04000 -6.36600 44.83100
C  20.24100 -7.46400 45.77100
C  21.62300 -7.21900 46.24700
C  18.81100 -5.91500 43.96500
C  19.24400 -8.59900 46.07500
O  18.09500 -8.63900 45.56600
C  19.52500 -9.74800 47.02800
N  24.66800 -7.01500 47.26900
C  23.77800 -7.99300 47.63900
C  24.51300 -9.02300 48.54200
C  25.79400 -8.32300 48.97300
C  25.88900 -7.11600 47.93900
C  23.68600 -9.57300 49.72900
C  26.95900 -9.28000 48.93800
C  27.53500 -9.57400 50.33400
N  25.93400 -4.64600 46.23600
C  27.01600 -5.10800 47.00200
C  28.07100 -4.20700 46.79600
C  27.75700 -3.40600 45.76800
C  26.41200 -3.72700 45.41200
C  29.32700 -4.12700 47.54500
C  28.23000 -2.28500 45.03800
O  29.32900 -1.71100 45.13000
C  27.13700 -2.02500 43.91400
C  26.84000 -0.51700 44.03200
O  25.97100 -0.05200 44.75100
O  27.73000 0.15600 43.19600
C  27.74700 1.60400 43.26800
H  20.56700 -4.31800 43.16100
H  21.91100 -8.94400 47.41800
H  27.85200 -6.35700 48.47700
H  24.25600 -1.24200 42.93000
H  22.19800 -2.94900 41.68800
H  21.30400 -1.63800 44.14300
H  20.72500 -1.40600 42.48500
H  21.98100 -0.39400 43.07600
H  24.20600 -3.19200 40.59300
H  25.68300 -2.78800 41.44800
H  25.97800 -0.76200 40.61400
H  24.28300 -0.31900 40.77000
H  18.90000 -6.32600 42.95900
H  18.71600 -4.83100 43.90400
H  17.94500 -6.35100 44.46100
H  18.71800 -10.47700 46.96900
H  19.57400 -9.42400 48.06700
H  20.43100 -10.33200 46.86900
H  24.64000 -9.92500 47.94300
H  25.75200 -7.81300 49.93600
H  24.15400 -9.22600 50.65000
H  23.75700 -10.66100 49.69900
H  22.68900 -9.15800 49.57700
H  27.71700 -8.91700 48.24400
H  26.75400 -10.25600 48.49800
H  28.44700 -8.98900 50.45100
H  27.72000 -10.64800 50.35000
H  26.90100 -9.40800 51.20500
H  29.96300 -4.89500 47.10500
H  29.10800 -4.28200 48.60100
H  29.87400 -3.18900 47.44100
H  27.47000 -2.27500 42.90700
H  27.60300 2.02800 44.26200
H  26.97500 2.06500 42.65200
H  28.70900 1.95700 42.89600

