158

Mg 36.10100 2.79500 30.22200
C  33.65500 3.89400 32.45300
C  38.44900 3.16300 32.86800
C  38.52600 2.02800 28.06800
C  33.78300 2.99600 27.63100
N  36.06200 3.47700 32.40100
C  34.92200 3.75100 33.06800
C  35.15100 3.62200 34.59700
C  36.68000 3.87000 34.66100
C  37.13000 3.47800 33.23500
C  37.12800 5.36300 35.00800
C  34.59600 2.32900 35.24100
C  33.97000 2.41200 36.60600
H  34.62500 3.37200 37.60400
N  38.15600 2.57600 30.42300
C  38.91900 2.76700 31.58900
C  40.31900 2.37200 31.29000
C  40.33100 1.91300 29.91100
C  38.98100 2.19100 29.38400
C  41.43900 2.35100 32.28100
C  41.45400 1.33200 29.09800
O  41.40600 1.15800 27.85500
C  42.78000 1.12500 29.73400
N  36.25900 2.91200 28.14000
C  37.33100 2.37200 27.47700
C  37.07400 2.12200 25.95200
C  35.51300 2.43400 25.85800
C  35.16900 2.84100 27.28100
C  37.91700 3.02200 24.98400
C  34.65000 1.24700 25.39100
C  33.85100 1.37000 24.01000
N  34.17200 3.26000 30.00700
C  33.33700 3.32500 28.89500
C  32.04400 3.70300 29.28300
C  32.10200 3.90600 30.64900
C  33.41600 3.60500 31.03900
C  30.80900 3.85900 28.46600
C  31.28200 4.38300 31.76700
O  30.15000 4.88500 31.82300
C  32.26500 4.13500 33.05700
C  32.20900 5.35400 34.01000
O  32.54400 6.48900 33.74900
O  31.72800 4.93800 35.22500
C  31.47800 5.94900 36.21900
H  39.06900 2.91900 33.73300
H  39.36700 1.62600 27.49800
H  32.99900 3.06200 26.87500
H  34.58000 4.46900 34.97600
H  37.09300 3.18400 35.40000
H  37.85800 5.77400 34.31000
H  37.69100 5.36000 35.94100
H  36.22100 5.96000 34.91500
H  35.42300 1.62800 35.36000
H  33.87300 2.00100 34.49400
H  34.02000 1.43600 37.08800
H  32.91200 2.67400 36.56100
H  42.41700 2.59900 31.86800
H  41.47100 1.39700 32.80600
H  41.21700 3.20100 32.92700
H  43.26100 2.07600 29.96300
H  43.38900 0.58800 29.00700
H  42.63100 0.58100 30.66600
H  37.33600 1.07400 25.81200
H  35.32800 3.27600 25.19200
H  38.12900 3.92100 25.56300
H  37.22100 3.22400 24.17000
H  38.76900 2.43700 24.64000
H  33.93500 0.94700 26.15600
H  35.33000 0.41200 25.22100
H  32.83700 1.70800 24.22400
H  33.91600 0.45300 23.42500
H  34.31100 2.13300 23.38200
H  29.95800 3.76600 29.14000
H  30.70900 3.11700 27.67400
H  30.73800 4.81600 27.94800
H  31.99200 3.20000 33.54500
H  32.26900 5.91000 36.96800
H  30.52500 5.75300 36.71100
H  31.44000 6.95800 35.80900
Mg -11.49100 17.32700 41.06500
C  -7.93800 16.88600 41.01700
C  -10.95100 20.77100 40.51100
C  -14.66300 17.72900 40.06600
C  -11.76600 13.82400 40.70900
N  -9.66000 18.64200 40.94200
C  -8.32000 18.24300 40.79500
C  -7.31600 19.45000 40.54900
C  -8.33100 20.65200 40.80000
C  -9.78300 19.99500 40.83500
C  -8.12500 21.46100 42.11300
C  -6.73700 19.36300 39.06800
C  -5.16600 19.03600 38.91200
H  -4.85500 18.00900 37.78200
N  -12.68200 19.00900 40.38600
C  -12.29500 20.32000 40.32900
C  -13.41600 21.17000 39.90900
C  -14.63000 20.29300 39.93400
C  -14.01700 18.98200 40.17100
C  -13.39200 22.56700 39.47100
C  -16.02000 20.72100 39.71400
O  -16.26800 21.91900 39.64000
C  -17.26800 19.84400 39.70200
N  -12.97800 15.92100 40.54100
C  -14.20400 16.37000 40.17300
C  -15.24700 15.26000 39.91700
C  -14.25400 14.08700 39.83600
C  -12.91800 14.63000 40.41600
C  -16.36800 14.96400 40.95200
C  -14.04700 13.51600 38.43100
C  -14.98800 12.35200 37.92000
N  -10.20100 15.66200 41.16100
C  -10.47400 14.33300 41.01900
C  -9.21200 13.55800 41.18800
C  -8.19400 14.56900 41.16600
C  -8.84400 15.84300 41.09200
C  -9.16400 12.07900 41.08400
C  -6.72000 14.76100 41.03500
O  -5.91300 13.89400 40.99800
C  -6.54000 16.29800 40.95500
C  -5.68100 16.69100 42.15800
O  -4.61100 16.09800 42.54300
O  -6.24600 17.65900 42.96400
C  -5.67600 18.04000 44.20000
H  -10.72800 21.82400 40.32600
H  -15.71000 17.75300 39.75700
H  -11.83000 12.75200 40.51400
H  -6.45100 19.41900 41.21100
H  -8.34900 21.38600 39.99500
H  -9.02900 21.23800 42.68000
H  -7.97700 22.52500 41.92800
H  -7.30500 21.00700 42.67000
H  -6.90400 20.40400 38.78800
H  -7.21400 18.56300 38.50300
H  -4.78100 18.70900 39.87800
H  -4.65000 19.97200 38.70200
H  -14.14200 22.71000 38.69300
H  -12.39300 22.80500 39.10500
H  -13.50100 23.22100 40.33600
H  -17.06500 19.01600 39.02400
H  -18.12600 20.36500 39.27800
H  -17.35000 19.55600 40.75000
H  -15.61600 15.49700 38.91900
H  -14.58100 13.27900 40.49000
H  -15.99800 15.48700 41.83400
H  -16.38600 13.89600 41.16800
H  -17.34600 15.27800 40.58600
H  -13.05500 13.06600 38.37700
H  -14.10200 14.34700 37.72700
H  -14.43500 11.56600 37.40600
H  -15.66300 12.79100 37.18400
H  -15.63300 11.99000 38.72100
H  -8.28100 11.79200 41.65500
H  -9.07500 11.77600 40.04100
H  -9.98300 11.49200 41.50000
H  -6.06700 16.66700 40.04500
H  -4.58800 18.04600 44.13300
H  -5.86000 17.34800 45.02100
H  -6.12300 18.98900 44.49900

