158

Mg 17.39200 -1.74600 27.93300
C  16.12300 0.39800 30.64200
C  19.14400 -3.38500 30.14600
C  18.70300 -3.29200 25.30300
C  15.59700 0.43700 25.68000
N  17.74300 -1.37200 30.11100
C  16.95100 -0.68200 31.01900
C  17.43600 -0.96500 32.42000
C  18.61800 -1.97100 32.23800
C  18.41200 -2.36000 30.73300
C  20.05800 -1.36100 32.38800
C  16.30500 -1.47800 33.32400
C  16.30400 -1.37800 34.87300
H  17.47000 -0.67200 35.52700
N  18.61000 -3.29400 27.72900
C  19.28300 -3.85100 28.78900
C  20.06600 -4.92500 28.26800
C  19.94700 -4.97600 26.85300
C  19.06800 -3.87300 26.55800
C  20.81000 -5.76500 29.33800
C  20.61800 -5.88800 25.87700
O  20.36000 -5.83500 24.65000
C  21.52300 -7.07600 26.31600
N  17.23700 -1.35600 25.87800
C  17.97200 -2.20700 24.98200
C  17.71800 -1.82400 23.55800
C  16.51500 -0.82500 23.68700
C  16.43400 -0.56900 25.20300
C  19.03000 -1.24100 22.91700
C  15.23300 -1.31800 23.02600
C  15.18700 -0.86100 21.48700
N  16.11700 -0.03000 28.06200
C  15.47200 0.64000 27.01400
C  14.94500 1.79500 27.65700
C  15.08400 1.72200 29.00100
C  15.82700 0.62900 29.26600
C  14.18100 2.88300 26.97000
C  14.76100 2.40600 30.22500
O  14.14800 3.48400 30.39200
C  15.43200 1.52200 31.36300
C  16.34400 2.38300 32.16500
O  17.52600 2.57900 31.89700
O  15.55100 2.95000 33.16300
C  16.19600 4.05900 33.85800
H  19.73200 -3.99800 30.83200
H  19.15200 -3.84000 24.47100
H  15.07100 0.98900 24.89800
H  17.86300 -0.02800 32.77600
H  18.44900 -2.77200 32.95700
H  20.82700 -1.96400 31.90600
H  20.42500 -1.36200 33.41500
H  20.06200 -0.37200 31.93000
H  15.88300 -2.45800 33.09900
H  15.46600 -0.80600 33.14700
H  16.34700 -2.38500 35.28900
H  15.41100 -1.04600 35.40200
H  20.74800 -6.79600 28.99000
H  20.49000 -5.83700 30.37800
H  21.86700 -5.49700 29.36600
H  22.15200 -6.80100 27.16200
H  22.26800 -7.24900 25.53900
H  20.98100 -8.00000 26.51800
H  17.57400 -2.69600 22.92100
H  16.78700 0.08500 23.15200
H  19.75500 -0.77200 23.58200
H  18.72900 -0.44000 22.24200
H  19.70500 -1.94800 22.43600
H  14.31600 -1.07100 23.56200
H  15.37000 -2.39500 22.92700
H  15.30900 -1.67400 20.77100
H  16.04000 -0.21900 21.26800
H  14.21600 -0.43200 21.23900
H  14.50400 3.04300 25.94200
H  14.25900 3.78900 27.57100
H  13.10500 2.71400 27.01300
H  14.66900 1.21700 32.07900
H  16.25100 4.97900 33.27600
H  17.06000 3.73100 34.43500
H  15.50300 4.33100 34.65400
Mg 47.95000 16.41100 28.97500
C  45.82900 15.98200 31.68500
C  50.04400 18.17700 30.76800
C  49.71800 16.92400 26.12700
C  45.33100 15.00300 26.90400
N  47.84700 17.18000 30.98100
C  47.00100 16.76500 31.96200
C  47.61000 17.03300 33.41700
C  48.69200 18.05800 33.01600
C  48.85100 17.85300 31.47900
C  48.40300 19.54000 33.26800
C  48.07300 15.69200 34.11900
C  47.58700 15.49700 35.59500
H  47.26700 16.71000 36.44400
N  49.72700 17.28800 28.55100
C  50.49500 17.92700 29.45400
C  51.75200 18.28900 28.83500
C  51.67500 17.91100 27.45900
C  50.37700 17.31500 27.29300
C  52.90700 18.90600 29.69600
C  52.77600 18.16700 26.37700
O  52.69300 17.75400 25.26300
C  53.94700 18.88100 26.78500
N  47.53600 15.98000 26.86400
C  48.45600 16.41400 25.87800
C  47.89100 16.17900 24.44300
C  46.55500 15.45500 24.70300
C  46.44300 15.49100 26.26500
C  47.89900 17.41100 23.59700
C  46.46300 14.04500 24.09600
C  45.59800 13.78000 22.85400
N  46.03500 15.61300 29.18500
C  45.12500 15.08100 28.30900
C  43.99700 14.58800 29.02000
C  44.17800 14.92100 30.40000
C  45.44200 15.57000 30.42700
C  42.80100 13.94500 28.43600
C  43.64100 14.86600 31.72200
O  42.61200 14.31100 32.11900
C  44.71400 15.54000 32.66200
C  44.09300 16.66800 33.49800
O  43.71300 17.75200 33.04600
O  43.91900 16.32800 34.81500
C  43.32500 17.47600 35.58900
H  50.71800 18.74400 31.41400
H  50.32500 17.20700 25.26400
H  44.47300 14.61500 26.35200
H  46.83700 17.51500 34.01600
H  49.61200 17.82300 33.55100
H  49.17600 19.97900 33.89800
H  47.44100 19.72500 33.74600
H  48.47100 20.06100 32.31300
H  49.14900 15.56200 33.99600
H  47.54900 14.88200 33.61200
H  48.34500 15.00100 36.20000
H  46.76200 14.78500 35.63800
H  53.78600 18.26200 29.68000
H  52.52100 18.91500 30.71500
H  53.17500 19.92600 29.41800
H  53.83000 19.80900 27.34600
H  54.60100 19.02000 25.92500
H  54.54300 18.25200 27.44600
H  48.55600 15.53900 23.86200
H  45.69200 16.01600 24.34700
H  48.52100 18.25300 23.90000
H  46.89000 17.61700 23.23900
H  48.43400 17.16500 22.68000
H  46.17600 13.37200 24.90300
H  47.40600 13.58400 23.80200
H  44.91600 14.61100 22.67200
H  45.05100 12.84400 22.96800
H  46.24800 13.67200 21.98600
H  42.61400 14.33700 27.43600
H  41.95400 14.03200 29.11600
H  43.02400 12.88200 28.34400
H  44.92300 14.76200 33.39800
H  43.74400 18.41900 35.23700
H  43.59000 17.35400 36.63900
H  42.24000 17.54700 35.51100

