158

Mg 2.05200 -2.12500 44.81300
C  5.37900 -1.26000 43.93700
C  0.93600 0.60600 42.89600
C  -1.02900 -3.28000 45.22600
C  3.38000 -5.05100 46.11300
N  3.16200 -0.56100 43.47300
C  4.49700 -0.38400 43.32500
C  4.79200 0.86100 42.46200
C  3.32600 1.44900 42.11600
C  2.37500 0.42100 42.85900
C  2.99900 2.92300 42.65900
C  5.63300 0.64400 41.20900
C  6.82900 1.62700 40.99100
H  6.78600 2.42100 39.64300
N  0.24600 -1.47400 44.16300
C  -0.02600 -0.36400 43.39700
C  -1.45700 -0.33300 43.07700
C  -2.05700 -1.46400 43.72500
C  -0.91300 -2.18000 44.36500
C  -2.04500 0.85800 42.31900
C  -3.49500 -1.75200 43.73000
O  -4.40400 -1.02000 43.33300
C  -3.99700 -3.02700 44.11500
N  1.28000 -3.99000 45.35500
C  0.00800 -4.07400 45.73700
C  -0.35100 -5.24600 46.69600
C  1.09400 -5.85300 46.82300
C  1.97900 -4.90900 46.02400
C  -1.01500 -5.04200 48.03900
C  1.40300 -7.30800 46.23400
C  1.68500 -8.47800 47.28700
N  3.99600 -3.09100 45.02000
C  4.38500 -4.28600 45.58100
C  5.81800 -4.36300 45.71900
C  6.24500 -3.15200 45.14300
C  5.12900 -2.47400 44.66800
C  6.55900 -5.37500 46.50800
C  7.35800 -2.34500 44.94400
O  8.49200 -2.54900 45.26300
C  6.88100 -1.19700 43.98100
C  7.27000 0.04600 44.64500
O  7.06400 0.41000 45.78300
O  8.20200 0.65900 43.79800
C  8.69600 1.99100 44.21400
H  0.77800 1.48800 42.27200
H  -2.04900 -3.54300 45.51400
H  3.55900 -5.95000 46.70700
H  5.24000 1.57300 43.15500
H  3.09100 1.33500 41.05800
H  3.93300 3.42300 42.91600
H  2.37400 3.06700 43.54000
H  2.37400 3.35400 41.87700
H  5.09600 0.50700 40.27000
H  6.03000 -0.36700 41.30400
H  7.75400 1.05100 40.95400
H  7.01500 2.33200 41.80000
H  -2.88600 0.48200 41.73500
H  -1.47700 1.37500 41.54600
H  -2.37800 1.71200 42.90800
H  -4.17500 -3.16600 45.18100
H  -3.24000 -3.75200 43.81600
H  -4.97300 -3.21800 43.66800
H  -0.92600 -5.95400 46.10000
H  1.48200 -5.74000 47.83500
H  -1.98700 -4.57800 47.86900
H  -0.34800 -4.49900 48.70700
H  -1.14600 -6.01300 48.51800
H  2.22100 -7.24700 45.51600
H  0.61100 -7.70900 45.60000
H  2.63200 -8.97300 47.07200
H  0.78400 -9.08900 47.22100
H  1.71500 -8.03300 48.28100
H  7.54900 -5.04100 46.81800
H  6.69500 -6.23100 45.84700
H  6.13900 -5.82800 47.40600
H  7.36700 -1.37900 43.02300
H  7.79600 2.54100 44.48600
H  9.23800 2.45200 43.38800
H  9.34000 1.91400 45.09000
Mg -5.74500 25.35000 25.67600
C  -4.29700 26.70500 28.47800
C  -7.51500 23.21900 27.91700
C  -7.17000 24.02300 23.05000
C  -3.81900 27.45700 23.67600
N  -5.89700 25.03700 27.92200
C  -5.25300 25.78200 28.83000
C  -5.72200 25.50500 30.27200
C  -6.55500 24.22900 30.03000
C  -6.77500 24.15300 28.56400
C  -5.86600 22.97500 30.64300
C  -6.52800 26.65800 30.97600
C  -6.10900 26.90800 32.43300
H  -6.01000 25.70300 33.38700
N  -7.07800 23.75300 25.53300
C  -7.65800 23.00100 26.50800
C  -8.54200 22.04000 25.84700
C  -8.53900 22.32400 24.42600
C  -7.60400 23.41000 24.28800
C  -9.42900 21.07900 26.64500
C  -9.18500 21.51200 23.25400
O  -9.11400 21.83700 22.07600
C  -10.00900 20.27000 23.47000
N  -5.37800 25.56300 23.68800
C  -6.22400 24.99500 22.73600
C  -6.02600 25.53600 21.39900
C  -5.09300 26.76800 21.63300
C  -4.79300 26.65300 23.12600
C  -5.45900 24.45100 20.38100
C  -5.70300 28.13700 21.17200
C  -4.86400 28.88700 20.13600
N  -4.30900 26.77600 25.98000
C  -3.57100 27.57800 25.06800
C  -2.56500 28.39300 25.78500
C  -2.88300 28.08600 27.12700
C  -3.94000 27.10700 27.15000
C  -1.61400 29.41700 25.28500
C  -2.59500 28.49300 28.48500
O  -1.69100 29.20300 28.91400
C  -3.46700 27.58900 29.39100
C  -2.58400 26.87400 30.26600
O  -1.83600 25.94500 30.00800
O  -2.62700 27.45200 31.51300
C  -1.73900 26.79500 32.54500
H  -8.14000 22.56600 28.52900
H  -7.75900 23.71300 22.18400
H  -3.41900 28.22600 23.01200
H  -4.82400 25.23800 30.82900
H  -7.56500 24.27500 30.43600
H  -4.99600 23.28600 31.22200
H  -5.65500 22.31900 29.79800
H  -6.59100 22.52200 31.32000
H  -7.60900 26.52400 30.94100
H  -6.38000 27.61500 30.47600
H  -6.87900 27.63200 32.70000
H  -5.15700 27.43500 32.36300
H  -10.47800 21.34800 26.52300
H  -9.28300 21.20800 27.71800
H  -9.16500 20.06200 26.35800
H  -9.43800 19.39600 23.78400
H  -10.23500 20.03300 22.43100
H  -10.82000 20.36100 24.19200
H  -7.02600 25.81700 21.06800
H  -4.08100 26.67100 21.24100
H  -5.98100 24.47200 19.42400
H  -5.31300 23.43000 20.73200
H  -4.45600 24.78400 20.11400
H  -5.79900 28.72700 22.08300
H  -6.70400 28.04100 20.75300
H  -4.91000 29.97000 20.25400
H  -5.34300 28.68300 19.17800
H  -3.82700 28.56200 20.05700
H  -2.04000 30.41900 25.25100
H  -1.38900 29.04300 24.28500
H  -0.76500 29.38900 25.96800
H  -4.12400 28.22200 29.98700
H  -1.90600 27.32100 33.48500
H  -0.66500 26.89600 32.38300
H  -2.09500 25.76500 32.56200

