158

Mg 47.50900 24.85500 28.02100
C  48.22300 27.24600 30.53000
C  46.84700 22.54300 30.50100
C  47.07400 22.50400 25.68000
C  48.46700 27.20900 25.52900
N  47.62900 24.97500 30.22800
C  47.81300 26.04800 31.04200
C  47.44700 25.76300 32.56400
C  47.23900 24.15500 32.46400
C  47.23700 23.86200 30.96200
C  48.19800 23.28800 33.27500
C  46.25000 26.62200 33.06700
C  45.63000 26.15700 34.45500
H  45.87400 26.98900 35.74900
N  46.99000 22.82200 28.09300
C  46.81300 22.05500 29.19200
C  46.55700 20.69300 28.82000
C  46.56200 20.61300 27.38300
C  46.85500 22.03100 26.99000
C  46.25400 19.64700 29.76900
C  46.28000 19.42300 26.41400
O  46.11500 19.47100 25.20200
C  46.05300 17.93900 26.89300
N  47.95000 24.86300 25.97000
C  47.62500 23.70300 25.24000
C  47.72100 24.00600 23.73100
C  47.89900 25.56000 23.62200
C  48.09900 25.94700 25.12900
C  48.86900 23.25900 22.97500
C  46.69900 26.38000 22.98600
C  45.35800 26.57900 23.73400
N  48.38000 26.81400 27.97400
C  48.71300 27.62100 26.91500
C  48.98800 28.92700 27.42400
C  48.85200 28.81600 28.81400
C  48.42700 27.53300 29.13600
C  49.54500 30.12000 26.61600
C  49.02900 29.58000 30.05000
O  49.46700 30.64600 30.24900
C  48.44200 28.58300 31.18900
C  49.42300 28.57300 32.33300
O  50.47800 27.96300 32.37500
O  48.97100 29.42600 33.31200
C  49.78600 29.36200 34.48200
H  46.81000 21.81500 31.31400
H  46.80200 21.84100 24.85600
H  48.63500 27.99800 24.79300
H  48.18900 25.84500 33.35800
H  46.23000 23.91700 32.80000
H  48.98300 23.95300 33.63400
H  48.52900 22.51100 32.58600
H  47.67100 22.84000 34.11900
H  45.50200 26.71500 32.28000
H  46.71700 27.58200 33.28600
H  45.92600 25.14100 34.71600
H  44.54500 26.15000 34.35100
H  46.99600 18.85200 29.83800
H  45.29400 19.18500 29.53600
H  46.21700 20.01500 30.79400
H  45.02600 17.88500 27.25600
H  46.76300 17.69400 27.68300
H  46.14800 17.16100 26.13500
H  46.75800 23.72700 23.30100
H  48.82000 25.80100 23.09200
H  49.14700 22.44100 23.64000
H  49.75400 23.85000 22.73700
H  48.48400 22.76300 22.08400
H  46.43000 26.06900 21.97700
H  47.21900 27.33400 22.89700
H  45.55800 27.35800 24.46900
H  45.00200 25.67000 24.22100
H  44.62600 27.02500 23.06000
H  50.63200 30.13300 26.54500
H  49.24100 31.02100 27.15000
H  49.19500 30.11700 25.58300
H  47.46300 28.96900 31.47400
H  49.62400 30.25100 35.09100
H  50.83100 29.09700 34.32200
H  49.39600 28.53100 35.06900
Mg 26.24800 50.37700 26.30700
C  24.00800 51.38600 28.87000
C  28.49200 49.36100 28.79700
C  28.29800 49.60500 23.80900
C  23.95100 51.60000 23.99600
N  26.26600 50.60400 28.57400
C  25.16900 50.83200 29.38000
C  25.43500 50.48600 30.84900
C  26.89400 49.89900 30.82600
C  27.29300 49.93900 29.28100
C  27.97100 50.73200 31.63400
C  24.28500 49.54000 31.37500
C  23.41900 49.78700 32.60600
H  23.75300 48.96500 33.98100
N  28.07100 49.61800 26.36500
C  28.88000 49.26900 27.45200
C  30.21700 48.66400 26.93800
C  30.13700 48.88200 25.52700
C  28.81800 49.44400 25.18200
C  31.25200 47.92600 27.83000
C  31.23100 48.45300 24.49400
O  31.11300 48.61900 23.27000
C  32.57600 47.88000 24.91900
N  26.15800 50.62800 24.18600
C  27.17500 50.23900 23.35400
C  26.80200 50.41400 21.86100
C  25.30900 50.85100 21.94700
C  25.09500 51.06300 23.47700
C  27.65700 51.48700 21.11500
C  24.36900 49.89100 21.14600
C  23.87100 48.55000 21.71000
N  24.33800 51.34400 26.31800
C  23.56700 51.73900 25.32900
C  22.33000 52.32500 25.83600
C  22.48000 52.20000 27.21000
C  23.67600 51.56600 27.46600
C  21.24600 52.83300 25.02600
C  21.86900 52.56100 28.45600
O  20.85100 53.18400 28.64200
C  22.80800 52.04700 29.62500
C  23.25200 53.23600 30.43300
O  24.02800 54.17600 30.13400
O  22.52500 53.18100 31.61400
C  22.86400 54.19500 32.67200
H  29.13500 48.97900 29.59200
H  29.00400 49.39600 23.00300
H  23.23000 51.94600 23.25200
H  25.32900 51.42300 31.39600
H  26.90300 48.94300 31.34900
H  27.79100 51.78200 31.86500
H  28.81000 50.71100 30.93900
H  28.31400 50.08100 32.43800
H  24.73700 48.56100 31.53500
H  23.58100 49.39900 30.55500
H  22.37300 49.66000 32.32800
H  23.47700 50.84300 32.87000
H  32.12100 48.58300 27.85000
H  31.43800 46.98300 27.31700
H  31.00000 47.70400 28.86700
H  33.22700 47.71000 24.06200
H  32.37400 46.86500 25.26300
H  32.94600 48.53000 25.71200
H  26.98300 49.43700 21.41200
H  25.26300 51.86100 21.53900
H  27.07900 52.39300 20.93400
H  27.92000 51.12200 20.12200
H  28.53400 51.81200 21.67500
H  24.81600 49.79000 20.15700
H  23.43100 50.39400 20.91500
H  24.04300 47.75500 20.98400
H  22.79000 48.63600 21.81800
H  24.32400 48.31500 22.67300
H  21.65900 53.25800 24.11100
H  20.77800 53.60300 25.63900
H  20.38600 52.18800 24.84900
H  22.18900 51.34500 30.18300
H  22.93800 55.19300 32.24100
H  23.84200 54.06600 33.13500
H  22.05000 54.31400 33.38700

