158

Mg 16.82600 -2.34300 27.81800
C  15.75500 -0.27800 30.61300
C  18.45700 -4.31200 30.14000
C  18.04100 -4.00500 25.31600
C  15.07900 -0.18800 25.84600
N  16.99100 -2.32600 30.07500
C  16.53800 -1.39800 30.97400
C  16.99300 -1.75700 32.34800
C  18.01500 -2.91500 32.19600
C  17.90900 -3.18900 30.68400
C  19.47300 -2.56500 32.64000
C  15.84100 -2.01000 33.38600
C  16.01000 -1.32900 34.70800
H  17.40100 -1.05900 35.30600
N  18.18100 -3.86600 27.71900
C  18.63900 -4.62300 28.79000
C  19.41200 -5.69100 28.25300
C  19.33700 -5.76000 26.86600
C  18.51400 -4.53000 26.52800
C  20.25100 -6.61200 29.18300
C  19.99000 -6.71900 25.88800
O  19.77000 -6.59800 24.70400
C  20.80100 -7.83800 26.35900
N  16.61900 -2.12600 25.83000
C  17.21600 -2.94500 24.95400
C  16.96600 -2.48600 23.55500
C  15.82700 -1.47500 23.65200
C  15.86900 -1.19700 25.19300
C  18.22000 -2.03700 22.83400
C  14.43500 -1.97900 23.23500
C  14.20600 -1.96800 21.71100
N  15.63700 -0.62900 28.10800
C  14.98400 0.13700 27.20800
C  14.34400 1.31100 27.84200
C  14.58200 1.13000 29.20800
C  15.34600 -0.06300 29.30100
C  13.68000 2.43900 27.19500
C  14.37000 1.70600 30.53700
O  13.80600 2.73900 30.94000
C  15.18700 0.79300 31.47300
C  16.19400 1.63400 32.14000
O  17.16100 2.07900 31.64500
O  15.77500 1.86300 33.40400
C  16.49200 2.93200 34.08400
H  18.82300 -4.95600 30.94200
H  18.33300 -4.57000 24.42900
H  14.40200 0.33600 25.16800
H  17.50500 -0.85500 32.68300
H  17.70800 -3.79200 32.76700
H  19.63900 -2.93900 33.65000
H  19.52100 -1.47600 32.62600
H  20.20600 -2.86800 31.89100
H  15.70100 -3.08000 33.53800
H  14.90500 -1.61200 32.99400
H  15.37200 -1.90200 35.38100
H  15.49200 -0.37000 34.67000
H  19.58000 -7.44700 29.38800
H  20.60500 -6.23300 30.14200
H  21.20700 -7.01600 28.85200
H  20.27300 -8.25200 27.21900
H  21.76500 -7.45900 26.69900
H  20.92800 -8.49400 25.49800
H  16.61300 -3.36200 23.01000
H  16.13200 -0.53200 23.20000
H  18.31900 -1.06800 22.34600
H  18.59300 -2.67800 22.03500
H  19.01100 -2.08500 23.58300
H  13.68300 -1.41000 23.78200
H  14.39800 -3.04300 23.46800
H  13.81600 -0.99300 21.42000
H  13.47000 -2.72900 21.45300
H  15.17800 -2.11600 21.24100
H  12.65100 2.13900 26.99700
H  14.07400 2.76900 26.23400
H  13.69300 3.33500 27.81700
H  14.57700 0.24600 32.19100
H  16.94500 3.67900 33.43200
H  17.36200 2.49100 34.57100
H  15.82900 3.45800 34.77100
Mg 47.42500 15.89300 27.98500
C  45.81200 15.60800 31.13000
C  49.46600 18.19100 29.26800
C  48.64500 16.31100 24.86500
C  44.89900 13.91100 26.68000
N  47.63300 16.67500 30.02700
C  46.97300 16.38400 31.15200
C  47.56200 17.25900 32.27400
C  48.51500 18.19600 31.64700
C  48.60700 17.61100 30.22100
C  48.11300 19.65400 31.64000
C  48.03100 16.43000 33.44600
C  47.96500 17.05500 34.85100
H  49.05300 16.59800 35.81300
N  48.92900 16.94300 27.18300
C  49.60100 17.91000 27.87900
C  50.53300 18.62700 26.99800
C  50.42600 17.98500 25.72200
C  49.27700 17.03900 25.87000
C  51.39600 19.76900 27.42900
C  51.24700 18.21500 24.50000
O  51.01100 17.64000 23.43900
C  52.38000 19.11700 24.54400
N  46.89600 15.22000 26.00100
C  47.59800 15.38200 24.90800
C  47.01000 14.61400 23.68500
C  45.98900 13.70200 24.42700
C  45.91400 14.27500 25.78600
C  46.48000 15.49600 22.50300
C  46.41100 12.22000 24.26900
C  47.64400 11.79800 25.08500
N  45.69700 15.01900 28.71000
C  44.73700 14.34900 28.00200
C  43.60900 14.03800 28.82100
C  44.02600 14.45700 30.07900
C  45.31200 15.08200 29.94000
C  42.45100 13.15000 28.44300
C  43.64500 14.54300 31.47900
O  42.62300 14.17500 32.04800
C  44.74900 15.31100 32.21400
C  44.27300 16.58900 32.82600
O  43.84800 17.55300 32.13800
O  44.43200 16.59900 34.13700
C  43.95300 17.80700 34.79400
H  50.19200 18.90800 29.65800
H  48.96700 16.42800 23.82800
H  44.18400 13.21400 26.23700
H  46.79800 17.95400 32.62300
H  49.46400 18.04200 32.16200
H  47.29800 19.93500 32.30700
H  47.80100 19.99200 30.65200
H  49.02600 20.16800 31.94300
H  49.07900 16.19300 33.26500
H  47.56100 15.45800 33.59600
H  46.99700 16.75600 35.25300
H  47.96800 18.14400 34.80500
H  52.48000 19.65200 27.40700
H  51.00300 20.19200 28.35300
H  51.20800 20.61700 26.77000
H  53.13800 18.65900 25.18000
H  51.94700 20.09500 24.75600
H  52.77200 19.25600 23.53700
H  47.87600 14.07800 23.29700
H  44.98500 13.73300 24.00200
H  46.45300 16.56100 22.73300
H  45.44500 15.30700 22.21600
H  47.23000 15.29000 21.74000
H  46.46700 11.98700 23.20500
H  45.57800 11.58100 24.56200
H  47.84100 12.34300 26.00800
H  48.51000 12.09800 24.49400
H  47.56400 10.73900 25.32900
H  41.73800 13.69000 27.82000
H  42.01100 12.73600 29.35000
H  43.01500 12.46100 27.81500
H  45.09600 14.69800 33.04600
H  44.27100 18.69800 34.25300
H  44.49100 17.91700 35.73500
H  42.91800 17.79800 35.13400

