158

Mg 24.13300 -5.01400 45.33800
C  26.17300 -2.64600 43.71300
C  21.70700 -4.22600 43.19000
C  22.38800 -7.73500 46.53300
C  26.96000 -6.19000 47.12100
N  24.07100 -3.58900 43.62000
C  24.97400 -2.73500 43.16300
C  24.49900 -1.99800 41.90300
C  23.00100 -2.26200 42.04800
C  22.85100 -3.42000 42.96000
C  22.18100 -1.06200 42.62600
C  25.14200 -2.65600 40.59500
C  25.88600 -1.70800 39.68500
H  25.81400 -1.93000 38.19800
N  22.15900 -5.87700 45.02900
C  21.35000 -5.35100 44.04600
C  20.17800 -6.15000 44.10700
C  20.32700 -7.22900 45.00800
C  21.65900 -7.02300 45.59700
C  19.05700 -5.82900 43.16600
C  19.29700 -8.25600 45.42900
O  18.15600 -8.18100 44.91600
C  19.60700 -9.34200 46.46600
N  24.67400 -6.75600 46.54800
C  23.71500 -7.63800 46.99300
C  24.23400 -8.74100 47.92800
C  25.57900 -8.12400 48.26500
C  25.77600 -6.92900 47.28300
C  23.36600 -9.05200 49.17800
C  26.78100 -9.01900 48.42200
C  27.54300 -8.88800 49.82300
N  26.15400 -4.56200 45.49200
C  27.16300 -5.07500 46.25300
C  28.34100 -4.18900 46.19900
C  27.97000 -3.27200 45.13900
C  26.66000 -3.46700 44.76400
C  29.56200 -4.30700 47.06100
C  28.44900 -2.09600 44.41300
O  29.47400 -1.47700 44.64000
C  27.37100 -1.84300 43.32900
C  27.13500 -0.40400 43.44300
O  26.35300 0.09100 44.18700
O  27.92900 0.36200 42.66600
C  27.84700 1.90400 42.74400
H  20.90700 -3.96000 42.49600
H  21.84800 -8.53500 47.04400
H  27.81600 -6.51100 47.71900
H  24.81300 -0.95900 42.00100
H  22.62000 -2.64700 41.10200
H  22.81700 -0.18500 42.50300
H  21.91600 -1.07600 43.68300
H  21.21700 -0.83600 42.16900
H  24.35200 -3.09000 39.98200
H  25.93200 -3.40300 40.66700
H  26.91300 -1.69500 40.05000
H  25.63700 -0.65400 39.80700
H  18.68700 -6.76600 42.74800
H  19.19900 -5.09700 42.37100
H  18.21700 -5.41100 43.72000
H  18.85900 -10.13000 46.37800
H  19.51100 -9.05900 47.51400
H  20.57500 -9.82000 46.31700
H  24.27600 -9.71200 47.43500
H  25.37500 -7.63900 49.21900
H  23.85600 -9.56100 50.00800
H  22.56700 -9.69700 48.81200
H  22.92400 -8.08900 49.43400
H  27.45500 -8.85800 47.58100
H  26.45200 -10.05800 48.38500
H  28.56900 -8.77900 49.47100
H  27.46500 -9.73900 50.49900
H  27.36800 -7.89000 50.22400
H  29.91800 -5.33600 47.02200
H  29.42000 -3.87000 48.04900
H  30.35000 -3.69400 46.62200
H  27.78900 -2.15300 42.37200
H  28.77600 2.34000 43.11000
H  27.10700 2.28300 43.44800
H  27.66100 2.33200 41.75900
Mg 1.16800 42.72600 25.68900
C  2.35700 42.75700 28.97500
C  -1.82400 41.43000 26.90300
C  0.10100 42.65200 22.49900
C  4.38900 43.42200 24.54700
N  0.36800 42.14400 27.70700
C  1.04800 42.33500 28.90300
C  0.17000 42.07200 30.14200
C  -1.15300 41.55700 29.43500
C  -0.89400 41.72100 27.95100
C  -1.55400 40.12900 29.80000
C  -0.03300 43.38900 31.03400
C  0.58000 43.45800 32.44600
H  -0.36200 43.06600 33.60800
N  -0.53500 42.06000 24.85600
C  -1.68400 41.59500 25.47500
C  -2.72600 41.32400 24.53200
C  -2.17000 41.66800 23.22000
C  -0.78000 42.13600 23.48200
C  -4.08400 40.83700 25.02600
C  -3.00400 41.63900 21.89500
O  -2.52100 42.24600 20.89600
C  -4.28400 40.95600 21.71700
N  2.09900 43.08100 23.84500
C  1.36200 43.09100 22.65600
C  2.26900 43.40000 21.50600
C  3.60600 43.92500 22.13700
C  3.36200 43.47700 23.56500
C  2.40100 42.20100 20.53200
C  4.05400 45.35200 21.99700
C  3.96400 45.88300 20.52800
N  2.89400 43.10500 26.50100
C  4.18200 43.25100 25.89600
C  5.19100 43.39400 26.85700
C  4.52500 43.12800 28.03400
C  3.13700 43.08900 27.82300
C  6.61800 43.79500 26.57200
C  4.79000 43.00100 29.39300
O  5.82700 42.88200 29.96300
C  3.37900 42.90200 30.11100
C  3.43000 41.75700 31.05400
O  2.86900 40.65500 30.93800
O  4.18200 42.10000 32.16300
C  4.26800 41.09500 33.26000
H  -2.72800 40.93900 27.26800
H  -0.39400 42.55700 21.53000
H  5.37300 43.68200 24.15300
H  0.59600 41.34600 30.83400
H  -2.00100 42.20000 29.67400
H  -1.70800 39.47700 28.94000
H  -2.56800 40.21800 30.18800
H  -0.92900 39.63600 30.54500
H  -1.10300 43.57000 31.13400
H  0.24700 44.27300 30.46200
H  0.95900 44.46500 32.62500
H  1.43300 42.78700 32.34200
H  -4.25300 41.18100 26.04600
H  -4.20800 39.75600 25.09300
H  -4.89600 41.16100 24.37500
H  -4.17100 40.31800 20.84100
H  -5.09800 41.65800 21.53500
H  -4.47200 40.24500 22.52200
H  1.72900 44.22300 21.03700
H  4.42400 43.28100 21.81300
H  1.41900 41.82000 20.25200
H  2.91300 41.37700 21.02900
H  2.83600 42.51500 19.58300
H  5.12800 45.37900 22.18300
H  3.32500 45.98400 22.50400
H  3.27400 46.69800 20.30900
H  3.74600 45.08400 19.81900
H  4.97400 46.10800 20.18400
H  6.98300 43.27200 25.68800
H  7.31600 43.59200 27.38500
H  6.62500 44.87500 26.42700
H  3.28800 43.80100 30.72000
H  5.33500 41.06100 33.47700
H  3.85700 40.11500 33.01600
H  3.82500 41.44800 34.19200

