158

Mg 47.74600 35.67900 26.93800
C  45.84400 34.33600 29.55200
C  48.27400 38.53300 28.71900
C  49.36800 36.99900 24.21100
C  47.11300 32.74100 25.11800
N  47.19400 36.29200 28.89400
C  46.50000 35.53000 29.91900
C  46.43200 36.25800 31.21700
C  46.92100 37.73800 30.72800
C  47.46200 37.49900 29.34000
C  45.84700 38.88700 30.86900
C  47.44900 35.53500 32.11500
C  47.28300 35.42700 33.63700
H  46.39800 36.46700 34.23300
N  48.81900 37.50100 26.55000
C  48.94300 38.57000 27.42400
C  49.83500 39.60100 26.78600
C  50.24000 39.08300 25.48100
C  49.46500 37.77200 25.38300
C  50.29400 40.86400 27.48100
C  51.12700 39.65700 24.45800
O  51.46400 39.07000 23.46500
C  51.89100 40.90200 24.71900
N  47.92700 35.12400 24.81100
C  48.75800 35.74900 23.95300
C  48.83100 34.97500 22.60900
C  48.55400 33.49100 23.12300
C  47.80300 33.76900 24.45100
C  47.81000 35.55000 21.61600
C  49.90800 32.64900 23.25100
C  50.16900 31.60100 22.12500
N  46.55900 34.02800 27.10900
C  46.44600 32.84700 26.34400
C  45.40700 32.00800 26.88800
C  45.15400 32.50000 28.17700
C  45.90600 33.77500 28.26300
C  45.00100 30.68400 26.27800
C  44.56100 32.19000 29.39700
O  43.78300 31.30400 29.76100
C  44.92100 33.42500 30.38500
C  45.41200 32.83600 31.66600
O  46.48300 32.25300 31.77000
O  44.48000 32.88400 32.70500
C  44.73400 31.98000 33.89300
H  48.49300 39.46800 29.23800
H  49.81100 37.44500 23.31800
H  46.93600 31.81600 24.56700
H  45.40600 36.21300 31.58400
H  47.71400 37.97600 31.43700
H  46.44600 39.69600 31.28800
H  45.02500 38.49600 31.46900
H  45.48300 39.18700 29.88600
H  48.41000 35.99200 31.87700
H  47.38200 34.48000 31.84900
H  48.28800 35.58500 34.02900
H  46.90800 34.51600 34.10300
H  50.05800 40.89900 28.54400
H  49.98800 41.81600 27.04600
H  51.37400 40.72800 27.52500
H  51.32300 41.82400 24.59100
H  52.75000 40.87900 24.04900
H  52.32500 41.07600 25.70400
H  49.84100 35.01600 22.20200
H  47.95200 33.07500 22.31600
H  47.55800 34.71800 20.95900
H  48.09800 36.45900 21.08700
H  46.82100 35.81800 21.98800
H  49.83700 32.16900 24.22700
H  50.81800 33.24600 23.31000
H  49.54200 31.71900 21.24200
H  50.13800 30.59600 22.54600
H  51.22900 31.75800 21.92400
H  43.93300 30.68800 26.05900
H  45.08400 29.95200 27.08100
H  45.54100 30.34100 25.39500
H  43.96800 33.90800 30.60300
H  44.27300 31.07900 33.48800
H  44.25300 32.44400 34.75400
H  45.79500 31.75600 34.00200
Mg 6.38700 54.77500 40.79200
C  5.90300 51.30500 40.62900
C  9.56200 54.38400 39.55500
C  6.70800 58.13400 40.33800
C  3.04700 55.12100 41.92500
N  7.49000 53.04200 39.99400
C  7.15400 51.66700 40.13200
C  8.28600 50.80000 39.49300
C  9.46900 51.79900 39.29300
C  8.82700 53.16100 39.69000
C  10.77100 51.53500 40.09500
C  7.92200 50.00700 38.17900
C  6.84600 50.56000 37.17800
H  7.45000 50.79200 35.80500
N  7.96300 56.09800 40.06500
C  9.17400 55.70300 39.64700
C  10.05000 56.92400 39.52800
C  9.21500 58.05000 39.80200
C  7.85600 57.49300 40.06900
C  11.46600 56.85100 39.09200
C  9.65800 59.49200 39.80400
O  10.81200 59.68700 39.63400
C  8.68600 60.62200 39.93100
N  4.98600 56.39400 40.99200
C  5.40800 57.68200 40.74700
C  4.21200 58.65500 40.84200
C  3.13800 57.75100 41.45900
C  3.69100 56.31400 41.46400
C  4.62300 59.83000 41.78300
C  1.70000 58.06100 40.89700
C  1.15800 57.24000 39.56500
N  4.81000 53.56400 41.25100
C  3.55700 53.82500 41.77700
C  2.89900 52.55500 42.09900
C  3.74400 51.54100 41.75500
C  4.89700 52.21500 41.16100
C  1.46000 52.38700 42.53100
C  3.87900 50.10300 41.66000
O  3.11100 49.21500 42.02000
C  5.27000 49.94100 40.91200
C  4.98600 49.09500 39.73200
O  4.59500 49.60600 38.64000
O  5.44500 47.84500 39.88400
C  5.50700 46.96000 38.70300
H  10.53700 54.20500 39.09600
H  6.67400 59.19900 40.09900
H  2.08300 55.31100 42.40100
H  8.47600 50.05700 40.26700
H  9.77500 51.93200 38.25500
H  11.23900 50.63800 39.69000
H  10.44200 51.16000 41.06500
H  11.44600 52.38600 40.17900
H  7.64500 49.00100 38.49600
H  8.87000 49.79500 37.68600
H  6.38300 51.45100 37.60200
H  6.13000 49.78400 36.90800
H  11.66500 57.21400 38.08400
H  11.87400 55.84600 39.19700
H  12.09900 57.43600 39.75900
H  8.03900 60.41200 39.08000
H  9.28600 61.52900 39.84300
H  8.08100 60.52200 40.83200
H  3.81600 59.02600 39.89700
H  3.19200 58.00200 42.51800
H  3.74600 60.22400 42.29700
H  4.84700 60.66700 41.12200
H  5.45200 59.67200 42.47300
H  1.75500 59.12800 40.68300
H  0.99800 57.78100 41.68200
H  0.09200 57.04400 39.68300
H  1.81300 56.37200 39.48600
H  1.30500 57.84700 38.67100
H  1.22200 51.35400 42.78600
H  0.79900 52.70800 41.72600
H  1.24000 52.95200 43.43700
H  5.83000 49.34200 41.63000
H  6.24700 46.16100 38.74100
H  5.79500 47.48700 37.79300
H  4.52300 46.54300 38.49100

