158

Mg 1.85600 -1.12800 44.22500
C  5.28100 -0.46100 43.40000
C  1.08700 1.75200 42.41300
C  -1.24100 -2.07600 44.25100
C  2.92700 -4.28900 45.44900
N  3.05100 0.32400 42.84600
C  4.42700 0.45200 42.77400
C  4.88100 1.76700 42.07700
C  3.49800 2.55100 41.93900
C  2.42800 1.47000 42.37400
C  3.39700 3.82200 42.81400
C  5.57600 1.55200 40.70400
C  6.51900 2.70600 40.36900
H  7.01600 2.75800 38.86200
N  0.19700 -0.29500 43.45200
C  0.04500 0.90700 42.86600
C  -1.38700 1.21300 42.56200
C  -2.16000 0.14800 43.12100
C  -1.08200 -0.82300 43.64100
C  -1.97800 2.51700 41.89600
C  -3.67100 0.03800 43.19600
O  -4.36300 0.83700 42.58700
C  -4.32300 -1.02200 43.92100
N  1.01900 -2.92700 44.72100
C  -0.38800 -3.05700 44.71900
C  -0.86900 -4.36800 45.33200
C  0.45700 -5.01700 45.78000
C  1.58300 -4.05300 45.25000
C  -1.97700 -4.35100 46.49600
C  0.53900 -6.54800 45.38100
C  1.23000 -7.57800 46.24600
N  3.70900 -2.18900 44.56900
C  4.01000 -3.40800 45.17500
C  5.45400 -3.61500 45.32600
C  5.94000 -2.53100 44.65400
C  4.87600 -1.64500 44.17000
C  6.14300 -4.80500 45.93600
C  7.23800 -1.79200 44.34100
O  8.41700 -2.21900 44.53500
C  6.84100 -0.47100 43.55000
C  7.47700 0.61800 44.32800
O  7.60000 0.79800 45.52700
O  8.02100 1.53900 43.42600
C  8.89800 2.51300 44.02300
H  0.67800 2.66400 41.97300
H  -2.24500 -2.44800 44.46600
H  3.25900 -5.21700 45.91800
H  5.56400 2.27600 42.75700
H  3.36400 2.81800 40.89000
H  2.55200 4.35600 42.37900
H  4.33900 4.34800 42.96700
H  3.13000 3.41500 43.78900
H  4.84400 1.48600 39.89900
H  5.87400 0.50400 40.67000
H  7.35900 2.50900 41.03600
H  5.98200 3.63300 40.56800
H  -2.78700 2.10600 41.29200
H  -1.21200 2.97800 41.27200
H  -2.49000 3.13200 42.63600
H  -3.80400 -1.01900 44.88000
H  -4.10800 -1.95400 43.39900
H  -5.37900 -0.81000 44.08900
H  -1.24100 -4.94600 44.48600
H  0.49000 -4.93600 46.86700
H  -1.64100 -4.95200 47.34100
H  -2.92200 -4.63900 46.03500
H  -2.10400 -3.31400 46.80600
H  1.08800 -6.60100 44.44000
H  -0.43300 -7.03600 45.30700
H  0.71600 -7.70200 47.20000
H  2.20000 -7.12800 46.45400
H  1.37100 -8.45300 45.61100
H  6.00600 -5.55300 45.15600
H  5.59200 -5.13600 46.81600
H  7.17800 -4.59300 46.20500
H  7.42500 -0.43100 42.63100
H  9.18700 3.25400 43.27800
H  9.84900 2.01000 44.19900
H  8.49200 3.10800 44.84100
Mg 48.82100 45.52400 43.67800
C  45.54200 45.62800 42.38300
C  48.95800 42.29000 42.84200
C  52.02400 45.80000 43.91200
C  48.47700 49.05600 44.19200
N  47.34400 44.21800 42.74500
C  46.15800 44.45500 42.23800
C  45.61400 43.22700 41.45400
C  46.63100 42.09900 41.83500
C  47.72300 42.88300 42.59100
C  46.11500 40.91200 42.82300
C  45.62700 43.50000 39.87400
C  44.37100 43.11900 39.11300
H  44.36000 41.89400 38.14700
N  50.30700 44.18400 43.51200
C  50.22000 42.84400 43.19300
C  51.51000 42.22800 43.19800
C  52.43400 43.23700 43.55000
C  51.62500 44.51900 43.63500
C  51.64300 40.70300 42.86700
C  53.88300 42.98900 43.82900
O  54.26500 41.84000 43.78700
C  54.90400 44.08700 44.16800
N  50.04100 47.23300 44.11800
C  51.36300 47.06100 44.13500
C  52.11200 48.40000 44.35900
C  50.98200 49.47800 44.54700
C  49.75100 48.53200 44.26400
C  53.14400 48.35600 45.50500
C  51.09700 50.61300 43.49900
C  50.80600 52.10500 43.92000
N  47.33500 47.09600 43.38800
C  47.27900 48.38700 43.69600
C  45.99700 48.95300 43.53900
C  45.25300 47.90000 42.96100
C  46.16600 46.80400 42.93400
C  45.53300 50.43700 43.90400
C  43.99400 47.52000 42.36400
O  43.01600 48.21500 42.18100
C  44.10100 45.97700 42.01400
C  43.01500 45.28100 42.72200
O  42.49700 44.30100 42.22400
O  42.55900 45.86600 43.82900
C  41.53900 45.07600 44.56200
H  48.93200 41.25100 42.50600
H  53.11400 45.86400 43.88700
H  48.27100 50.05100 44.59100
H  44.67000 42.79300 41.78200
H  47.01000 41.52800 40.98700
H  46.30900 39.99900 42.26200
H  45.05400 41.10800 42.97500
H  46.48900 40.86400 43.84600
H  46.32900 42.82200 39.38800
H  45.81700 44.54400 39.62500
H  44.11700 43.97400 38.48500
H  43.56800 42.98200 39.83600
H  52.16100 40.65100 41.90900
H  50.75900 40.08700 42.70400
H  52.33000 40.19300 43.54200
H  55.85900 43.67900 44.49800
H  54.42100 44.59100 45.00600
H  55.00600 44.69200 43.26700
H  52.69200 48.75400 43.50700
H  50.99400 49.79100 45.59100
H  54.11600 48.54200 45.04700
H  53.15700 47.35100 45.92600
H  52.92700 49.04900 46.31800
H  50.64300 50.47800 42.51700
H  52.16200 50.65900 43.27400
H  50.27700 52.05000 44.87100
H  50.13000 52.67700 43.28500
H  51.72400 52.69200 43.90000
H  44.61100 50.70000 43.38600
H  46.27500 51.11100 43.47500
H  45.33500 50.61900 44.96100
H  43.95100 45.83000 40.94500
H  40.58600 44.86800 44.07500
H  41.19000 45.80300 45.29500
H  41.89500 44.25500 45.18500

