158

Mg 5.75200 54.00500 40.44000
C  4.92300 50.44300 40.21900
C  8.71000 53.14600 38.92200
C  6.07700 57.18400 40.07500
C  2.46800 54.33800 41.68300
N  6.70500 51.94400 39.67700
C  6.18000 50.70800 39.65100
C  7.21000 49.69500 39.11300
C  8.53600 50.63100 38.95200
C  7.96900 52.04700 39.14100
C  9.60100 50.30900 40.01300
C  6.89000 49.19700 37.71400
C  6.14200 50.22600 36.76900
H  6.23900 50.13700 35.30700
N  7.22900 54.98200 39.62600
C  8.46900 54.47900 39.07900
C  9.27500 55.62700 38.85700
C  8.48100 56.76300 39.02600
C  7.21900 56.36200 39.58900
C  10.70500 55.46800 38.36900
C  8.99800 58.15800 38.77300
O  10.18500 58.38100 38.53800
C  8.22300 59.38900 38.96200
N  4.41500 55.56000 40.73100
C  4.85200 56.85800 40.63100
C  3.75500 57.88100 41.17000
C  2.60900 56.87200 41.55700
C  3.16300 55.50500 41.25400
C  4.35500 58.71800 42.32600
C  1.26200 57.18100 40.89000
C  -0.10900 56.88900 41.64900
N  4.00000 52.63300 40.91300
C  2.79000 52.99100 41.49700
C  1.98300 51.82600 41.73900
C  2.85600 50.78900 41.40000
C  4.01200 51.34000 40.76700
C  0.57400 51.78200 42.26400
C  3.01900 49.38300 41.28700
O  2.32600 48.48600 41.74000
C  4.32300 49.06200 40.50100
C  3.93700 48.15800 39.39100
O  3.28100 48.46300 38.37700
O  4.49800 46.94000 39.65100
C  4.36200 45.90300 38.57800
H  9.71100 53.02800 38.50100
H  6.30300 58.24800 39.98100
H  1.52800 54.54500 42.20000
H  7.45200 48.86100 39.77100
H  8.95600 50.70800 37.94900
H  9.53800 49.28000 40.36800
H  9.65600 51.10500 40.75500
H  10.51300 50.28400 39.41700
H  6.20600 48.37700 37.92900
H  7.79000 48.81500 37.23200
H  6.50300 51.24600 36.90600
H  5.08100 50.09300 36.97800
H  10.83700 56.01000 37.43200
H  11.07300 54.44500 38.28300
H  11.34800 55.88500 39.14500
H  8.79100 60.26700 38.65500
H  8.01500 59.46500 40.02900
H  7.36900 59.29800 38.29000
H  3.50900 58.47200 40.28800
H  2.39800 56.99300 42.62000
H  5.42300 58.85500 42.15800
H  4.10000 58.27500 43.28900
H  3.81000 59.66200 42.32600
H  1.26400 56.71200 39.90600
H  1.38600 58.19300 40.50200
H  -0.49900 57.86100 41.95300
H  -0.07800 56.23300 42.51900
H  -0.75500 56.37700 40.93600
H  -0.01500 52.26300 41.48300
H  0.36600 52.36500 43.16200
H  0.20500 50.78600 42.51100
H  5.00500 48.57800 41.19900
H  4.57300 46.22900 37.56000
H  3.36100 45.47000 38.57600
H  5.12100 45.18300 38.88400
Mg 1.56900 42.28500 25.23500
C  2.96600 42.19200 28.52400
C  -1.43000 41.07300 26.61200
C  0.37700 41.79600 22.06400
C  4.62000 43.14900 23.96200
N  0.86200 41.69500 27.30000
C  1.53300 41.88100 28.46700
C  0.60900 41.62300 29.71900
C  -0.66500 40.97600 29.02500
C  -0.37500 41.13500 27.53400
C  -1.04300 39.54800 29.52100
C  0.35900 43.02400 30.48800
C  0.27800 42.99200 32.05500
H  0.09200 41.67500 32.80800
N  -0.29900 41.65700 24.44600
C  -1.39500 41.30900 25.18300
C  -2.44900 40.93300 24.28900
C  -2.04700 41.05600 22.97400
C  -0.61000 41.56500 23.06900
C  -3.78400 40.41100 24.80000
C  -2.74000 40.74000 21.68900
O  -2.18300 40.84100 20.55100
C  -4.23400 40.27800 21.77300
N  2.42300 42.53300 23.21200
C  1.74400 42.21500 22.08200
C  2.61100 42.60500 20.86200
C  3.92900 43.22700 21.46000
C  3.68400 42.96800 22.99000
C  2.93200 41.31400 20.08200
C  4.23400 44.66200 20.99300
C  4.42000 44.85300 19.48400
N  3.40600 42.62400 25.99900
C  4.58700 42.87900 25.31300
C  5.68200 42.96000 26.25100
C  5.07100 42.81400 27.52200
C  3.71600 42.49000 27.33100
C  7.16000 43.28100 25.90900
C  5.30300 42.71200 28.95000
O  6.37400 42.68000 29.56500
C  3.97000 42.34800 29.68600
C  4.29800 41.01300 30.35300
O  4.42100 39.92800 29.78500
O  4.28900 41.18800 31.71400
C  4.14600 40.06900 32.63400
H  -2.37300 40.92500 27.14200
H  0.05600 41.55300 21.04900
H  5.61800 43.44300 23.62800
H  0.92200 40.86500 30.43700
H  -1.47900 41.68500 29.17700
H  -0.92000 38.96600 28.60800
H  -2.09900 39.66800 29.76600
H  -0.46900 39.08000 30.32100
H  -0.51300 43.60100 30.17800
H  1.22500 43.63200 30.22600
H  -0.47200 43.70500 32.39900
H  1.19900 43.37600 32.49200
H  -4.69300 40.86900 24.41200
H  -3.85400 40.50300 25.88400
H  -3.82500 39.32700 24.69200
H  -4.26000 39.36500 22.36700
H  -4.43800 40.01900 20.73400
H  -4.91700 41.07500 22.06700
H  1.98700 43.20800 20.20200
H  4.86400 42.76400 21.14400
H  2.79100 40.42100 20.69200
H  3.94900 41.29500 19.69000
H  2.30900 41.08600 19.21800
H  5.16700 45.01100 21.43400
H  3.51800 45.34500 21.45100
H  4.64200 44.00400 18.83800
H  5.36300 45.38700 19.36400
H  3.52300 45.31400 19.07000
H  7.18000 44.32100 25.58400
H  7.24400 42.61000 25.05300
H  7.80900 43.00500 26.74000
H  3.57100 42.93300 30.51400
H  5.13900 39.85200 33.02800
H  3.82100 39.23000 32.01900
H  3.52500 40.33800 33.48800

