158

Mg 47.19000 24.61200 27.84000
C  48.37000 26.65700 30.53800
C  46.58500 22.04300 30.14000
C  46.85500 22.56800 25.26200
C  48.81500 26.85100 25.73600
N  47.54100 24.35400 30.17000
C  47.72300 25.44900 31.00400
C  47.32900 25.10600 32.46600
C  46.86600 23.55600 32.30800
C  47.06200 23.27400 30.82000
C  47.43900 22.49500 33.26600
C  46.29100 25.98500 33.16600
C  46.66500 26.58000 34.49700
H  45.61400 26.93500 35.54800
N  46.62900 22.56900 27.73100
C  46.44700 21.71900 28.77200
C  46.09900 20.47900 28.21700
C  46.15100 20.54200 26.79800
C  46.52800 21.96800 26.54600
C  45.78500 19.26200 29.09300
C  45.85200 19.52500 25.64800
O  45.87700 19.79300 24.46800
C  45.52200 18.15900 26.02800
N  47.91100 24.61200 25.80000
C  47.48000 23.72800 24.91800
C  47.79100 24.10200 23.46400
C  48.16600 25.60400 23.60300
C  48.33500 25.73400 25.10300
C  48.85000 23.15100 22.73200
C  47.08300 26.62900 23.00800
C  47.70000 27.70400 22.05800
N  48.21200 26.48500 27.99300
C  48.80900 27.21500 27.10500
C  49.43500 28.36200 27.71300
C  49.10500 28.25600 29.04600
C  48.46100 27.05800 29.16100
C  50.09800 29.46100 27.00900
C  49.37300 28.82600 30.30000
O  49.98100 29.82100 30.54400
C  48.67600 27.89200 31.34500
C  49.62100 27.59700 32.47400
O  50.42200 26.72300 32.51600
O  49.48400 28.51500 33.45700
C  50.29400 28.29200 34.70500
H  46.16600 21.30500 30.82700
H  46.57200 21.97600 24.38900
H  49.32800 27.55100 25.07200
H  48.25300 25.13800 33.04200
H  45.80300 23.59400 32.54100
H  48.04600 22.90300 34.07500
H  48.14100 21.87500 32.70900
H  46.73200 21.80900 33.73300
H  45.36300 25.46300 33.40000
H  45.87300 26.80300 32.58000
H  47.12300 27.53700 34.24500
H  47.33900 25.99500 35.12200
H  46.26300 19.35000 30.06800
H  46.16400 18.31700 28.70500
H  44.71300 19.13200 29.23900
H  46.24900 17.74400 26.72600
H  45.47700 17.52400 25.14400
H  44.59100 18.09800 26.59200
H  46.83400 24.02700 22.94800
H  49.16600 25.85200 23.24600
H  48.47700 22.84200 21.75600
H  48.91100 22.22600 23.30500
H  49.83900 23.58900 22.59700
H  46.55400 27.11100 23.83100
H  46.34400 26.10500 22.40200
H  47.40100 27.57100 21.01800
H  48.78500 27.59800 22.04600
H  47.38400 28.71300 22.32200
H  49.49200 30.14300 26.41200
H  50.91000 29.09000 26.38400
H  50.60300 29.99300 27.81500
H  47.81700 28.53100 31.55200
H  51.18500 28.87600 34.47400
H  50.59800 27.28200 34.98000
H  49.93500 28.68600 35.65600
Mg 29.16100 57.90800 41.33200
C  26.40900 55.90900 40.21900
C  31.24200 55.74600 39.63300
C  31.64100 60.18000 41.35200
C  26.86700 60.28700 42.54300
N  28.82400 56.07100 40.04600
C  27.63500 55.39600 39.65000
C  27.89000 54.15300 38.88400
C  29.41800 53.96300 39.23000
C  29.85000 55.39300 39.62300
C  29.76300 52.97400 40.32800
C  27.45000 54.22400 37.39900
C  28.34700 54.60000 36.16800
H  27.61100 55.27100 34.97000
N  31.23900 57.89300 40.75200
C  31.90700 56.88200 40.14200
C  33.28400 57.23700 40.00200
C  33.44300 58.55100 40.39000
C  32.08100 58.95700 40.86900
C  34.25300 56.21200 39.38600
C  34.70300 59.33500 40.29800
O  35.67200 58.84500 39.70500
C  34.79200 60.71900 40.72100
N  29.19800 59.93500 41.89600
C  30.40200 60.56600 41.91100
C  30.16200 62.04000 42.45300
C  28.62500 62.07800 42.88400
C  28.17300 60.70500 42.35500
C  31.14500 62.64200 43.54500
C  27.89800 63.27100 42.23600
C  26.98500 64.05600 43.10700
N  27.06800 57.99300 41.63400
C  26.29600 59.06600 42.12700
C  24.88600 58.66400 42.11200
C  24.90000 57.44200 41.37000
C  26.26300 57.13800 41.00700
C  23.75400 59.53400 42.55000
C  24.03600 56.49100 40.64200
O  22.83500 56.36800 40.51400
C  25.00200 55.43200 39.94900
C  24.68700 54.08600 40.39200
O  24.55500 53.73900 41.59800
O  24.45600 53.24900 39.21500
C  23.69000 52.05700 39.42700
H  31.91000 54.93600 39.33400
H  32.41600 60.94900 41.34600
H  26.11700 60.96000 42.96400
H  27.36700 53.37600 39.44200
H  29.86300 53.63500 38.29100
H  30.64400 52.37600 40.09300
H  28.91100 52.33000 40.54800
H  29.92300 53.61900 41.19200
H  26.65000 54.96400 37.35900
H  27.01100 53.27200 37.10100
H  28.75300 53.63800 35.85600
H  29.16100 55.21700 36.54800
H  35.28500 56.40800 39.67500
H  33.96900 56.16000 38.33500
H  34.06500 55.23200 39.82500
H  34.15400 61.34400 40.09500
H  35.80300 61.08100 40.53300
H  34.48200 60.72100 41.76600
H  30.23700 62.68200 41.57600
H  28.48800 62.03000 43.96400
H  30.57400 63.19700 44.28900
H  31.70500 63.34100 42.92300
H  31.82000 61.98700 44.09500
H  27.43500 62.91000 41.31800
H  28.66700 63.97600 41.92000
H  27.03700 65.13300 42.94500
H  27.48400 63.95500 44.07100
H  25.96900 63.66100 43.11300
H  23.94600 60.57800 42.30300
H  23.43800 59.23700 43.55000
H  22.93600 59.27900 41.87500
H  24.75600 55.52000 38.89100
H  23.62300 51.82300 40.49000
H  24.34900 51.31900 38.96900
H  22.64400 52.10600 39.12400

