158

Mg 55.96200 23.16600 43.32700
C  53.90700 26.11000 42.68100
C  53.15600 21.22100 42.73200
C  57.99500 20.65500 42.83400
C  58.69000 25.42300 43.33800
N  53.78600 23.63600 42.63100
C  53.16200 24.91600 42.50300
C  51.64300 24.63500 42.18300
C  51.37800 23.18400 42.68800
C  52.84600 22.59700 42.73100
C  50.74900 23.11600 44.09800
C  51.19100 24.92400 40.67100
C  52.26500 25.20200 39.56200
H  51.92500 24.83500 38.13200
N  55.65100 21.18600 42.85300
C  54.44000 20.57300 42.76200
C  54.69700 19.17600 42.62700
C  56.06200 18.90500 42.68200
C  56.68300 20.23800 42.87000
C  53.54400 18.13000 42.38800
C  56.78000 17.59400 42.55200
O  56.17300 16.54800 42.34900
C  58.21500 17.43100 42.79700
N  58.02300 23.11400 43.06700
C  58.60700 21.90800 42.85000
C  60.14800 22.08600 42.77200
C  60.39600 23.66000 42.89900
C  58.96100 24.08600 43.13400
C  60.89900 21.09400 43.68400
C  61.19700 24.39700 41.69600
C  60.37600 24.80100 40.53800
N  56.23400 25.23200 43.31700
C  57.38200 26.00400 43.33000
C  57.06700 27.41800 43.46900
C  55.67000 27.51000 43.40400
C  55.24900 26.12600 43.14800
C  58.07200 28.50100 43.75600
C  54.51800 28.33800 43.40900
O  54.40900 29.52600 43.65600
C  53.33500 27.48500 43.02800
C  52.47800 28.21200 42.07300
O  52.79100 28.52600 40.93000
O  51.30900 28.49600 42.67000
C  50.19700 29.04200 41.86900
H  52.30900 20.54900 42.88600
H  58.64200 19.79000 42.67300
H  59.57900 26.01100 43.57700
H  50.97300 25.30200 42.72500
H  50.77700 22.53000 42.05600
H  51.42700 22.61700 44.79000
H  49.72400 22.74900 44.16800
H  50.76000 24.10700 44.55100
H  50.58200 25.82700 40.68400
H  50.72000 24.04400 40.23200
H  53.24200 24.80500 39.83800
H  52.48000 26.27000 39.55100
H  52.56700 18.58200 42.55400
H  53.65400 17.22900 42.99200
H  53.48700 17.71800 41.38100
H  58.51700 16.38800 42.70900
H  58.46800 17.89300 43.75100
H  58.84300 17.82400 41.99800
H  60.48000 21.85900 41.75900
H  60.90000 23.89500 43.83700
H  60.28600 20.70700 44.49800
H  61.75800 21.64600 44.06500
H  61.29100 20.25600 43.10800
H  62.06100 23.81900 41.36900
H  61.47000 25.35300 42.14200
H  60.24800 25.88300 40.51200
H  59.35700 24.47700 40.74700
H  60.77900 24.39800 39.60800
H  58.39000 28.81400 42.76200
H  58.87700 28.03900 44.32800
H  57.54700 29.22300 44.38200
H  52.73300 27.46600 43.93600
H  49.25700 28.76400 42.34600
H  50.34000 28.65100 40.86200
H  50.31900 30.12200 41.79300
Mg 49.98500 46.02400 43.35300
C  46.56200 46.34500 42.49300
C  49.75500 42.72700 42.11200
C  53.37900 45.70700 43.53700
C  50.21700 49.36300 44.19900
N  48.40300 44.72300 42.31400
C  47.06300 45.08000 42.13400
C  46.24800 43.95100 41.39400
C  47.20600 42.72700 41.59700
C  48.55100 43.35200 42.10200
C  46.74400 41.71900 42.68200
C  46.05300 44.40000 39.88700
C  44.92300 43.65700 39.10400
H  45.38500 43.07100 37.75900
N  51.39800 44.43300 42.82000
C  51.07200 43.14100 42.46900
C  52.27800 42.35900 42.35000
C  53.38100 43.17500 42.80500
C  52.76600 44.51100 43.00200
C  52.23800 40.89600 41.96300
C  54.88700 42.79800 42.85200
O  55.25200 41.67000 42.57400
C  55.97400 43.78000 43.27400
N  51.54800 47.34200 43.75500
C  52.86600 47.02800 43.81500
C  53.78100 48.12600 44.24700
C  52.74300 49.30000 44.56500
C  51.40700 48.62700 44.14100
C  54.92800 47.77000 45.33400
C  53.16000 50.57600 43.79000
C  52.73400 51.94500 44.38500
N  48.66300 47.52600 43.43200
C  48.88500 48.86800 43.80100
C  47.64600 49.59900 43.73800
C  46.71900 48.65700 43.18700
C  47.36900 47.40300 43.08200
C  47.47300 51.05800 44.10800
C  45.33600 48.49300 42.65900
O  44.40100 49.30400 42.36400
C  45.18100 46.96600 42.31100
C  44.13200 46.42000 43.23700
O  43.96600 46.72700 44.41100
O  43.53500 45.35700 42.58900
C  42.70600 44.42900 43.30600
H  49.63100 41.71100 41.73100
H  54.46100 45.64100 43.67100
H  50.31800 50.41700 44.46500
H  45.29100 43.85100 41.90600
H  47.34000 42.24700 40.62700
H  46.40800 40.79100 42.22100
H  45.98000 42.21300 43.28300
H  47.51800 41.54600 43.43000
H  47.00900 44.18300 39.41200
H  45.95600 45.48200 39.80000
H  44.09600 44.34600 38.93700
H  44.50000 42.94600 39.81400
H  52.59200 40.56800 40.98600
H  51.36200 40.25100 42.02900
H  52.92900 40.49300 42.70300
H  55.60400 43.98000 44.28000
H  55.95300 44.61600 42.57500
H  56.93600 43.27200 43.21100
H  54.38700 48.39500 43.38200
H  52.74600 49.56100 45.62300
H  55.92400 48.15000 45.10700
H  55.16400 46.70800 45.39000
H  54.67300 48.24000 46.28400
H  52.51100 50.50400 42.91800
H  54.18700 50.67100 43.43700
H  53.50800 52.69300 44.21200
H  52.57400 51.88400 45.46200
H  51.88800 52.34000 43.82300
H  47.48500 51.27000 45.17700
H  46.49200 51.37200 43.75200
H  48.29500 51.54200 43.57900
H  44.68300 46.92000 41.34200
H  42.00100 43.90700 42.66000
H  42.23600 44.82300 44.20700
H  43.37900 43.61100 43.56600

