158

Mg 1.39900 -2.31700 44.67900
C  4.69800 -1.18400 44.18800
C  0.36500 0.62100 42.88400
C  -1.79400 -3.43600 44.64800
C  2.65500 -5.37200 45.40800
N  2.38500 -0.48500 43.74800
C  3.75500 -0.21700 43.76100
C  4.04900 1.07000 43.05900
C  2.60200 1.82200 43.01700
C  1.72500 0.54800 43.18300
C  2.37900 2.86300 44.10800
C  4.64200 0.83600 41.56100
C  5.97400 1.48700 41.11800
H  6.75000 0.75000 40.01500
N  -0.48600 -1.47300 43.84800
C  -0.62500 -0.27000 43.25200
C  -2.06100 -0.13900 43.04900
C  -2.78400 -1.30300 43.52400
C  -1.67200 -2.14600 44.01800
C  -2.64500 1.11700 42.44100
C  -4.27800 -1.59200 43.50500
O  -5.07400 -0.66100 43.34300
C  -4.82600 -2.98600 43.70500
N  0.56700 -4.12800 44.92300
C  -0.79100 -4.34900 45.06800
C  -1.15000 -5.70500 45.66500
C  0.33400 -6.38200 45.77200
C  1.27400 -5.19200 45.43900
C  -1.97700 -5.72400 46.96700
C  0.52500 -7.68000 44.77500
C  1.29800 -8.84300 45.45200
N  3.32400 -3.19900 44.94200
C  3.71300 -4.48000 45.26000
C  5.10600 -4.59800 45.35100
C  5.54300 -3.26400 45.01300
C  4.42300 -2.49900 44.67500
C  5.89500 -5.87800 45.73900
C  6.78200 -2.53100 44.83400
O  7.95500 -2.79800 44.86600
C  6.20900 -1.08000 44.28600
C  6.64000 -0.07100 45.25200
O  6.57100 -0.21100 46.45400
O  7.06000 1.06800 44.68300
C  7.42600 2.16200 45.49400
H  -0.03900 1.59200 42.59000
H  -2.80800 -3.76200 44.88600
H  2.98000 -6.36800 45.71300
H  4.72600 1.60100 43.72700
H  2.37100 2.40400 42.12500
H  2.48600 3.85800 43.67700
H  3.11900 2.71400 44.89500
H  1.44600 2.67500 44.64100
H  3.90500 0.92800 40.76300
H  4.90500 -0.22000 41.61000
H  6.62300 1.70800 41.96500
H  5.53300 2.40400 40.72900
H  -3.64600 0.96400 42.03900
H  -2.07600 1.41100 41.55900
H  -2.59200 1.96900 43.11900
H  -4.24200 -3.70400 43.12900
H  -5.81100 -2.86500 43.25500
H  -4.96400 -3.24200 44.75600
H  -1.76600 -6.17000 44.89700
H  0.60000 -6.68200 46.78500
H  -1.44200 -6.33100 47.69700
H  -2.95000 -6.18000 46.78300
H  -2.16500 -4.74800 47.41500
H  0.96000 -7.38600 43.82000
H  -0.46600 -8.12400 44.67800
H  1.88100 -8.61700 46.34500
H  2.03200 -9.22600 44.74400
H  0.60700 -9.67200 45.60300
H  6.05400 -6.40300 44.79700
H  5.20300 -6.45700 46.34900
H  6.83700 -5.57200 46.19400
H  6.63800 -0.81800 43.31800
H  7.79900 2.94300 44.83200
H  8.02600 1.97100 46.38400
H  6.46400 2.39500 45.95200
Mg 2.00700 41.89500 24.97900
C  3.84300 41.86200 27.89700
C  -0.89900 41.32900 26.85800
C  0.31800 41.36900 22.07300
C  4.87800 42.35300 23.20600
N  1.54800 41.77300 27.16400
C  2.46100 41.86800 28.15300
C  1.75400 41.75000 29.52000
C  0.26000 41.52800 29.16800
C  0.28300 41.53800 27.65100
C  -0.24200 40.21000 29.76300
C  2.14300 43.06800 30.31700
C  2.57000 42.93800 31.77100
H  1.58900 43.04600 32.93900
N  -0.04300 41.40100 24.56300
C  -1.01800 41.20500 25.43900
C  -2.22800 40.88700 24.68300
C  -1.92500 40.93100 23.30100
C  -0.48200 41.20000 23.24900
C  -3.48600 40.31900 25.40200
C  -2.88300 40.73400 22.09600
O  -2.51600 40.80000 20.93400
C  -4.33900 40.69700 22.32700
N  2.51500 41.77400 22.96000
C  1.70300 41.58400 21.90900
C  2.45100 41.66300 20.57800
C  3.65100 42.47500 20.99800
C  3.72300 42.22300 22.51800
C  2.90000 40.20500 20.08400
C  3.55300 44.05300 20.90700
C  4.13200 44.64800 19.63300
N  3.95300 41.99700 25.36400
C  5.01800 42.29700 24.56600
C  6.26100 42.27600 25.38900
C  5.77700 42.01600 26.67200
C  4.40900 42.05000 26.64200
C  7.68500 42.35100 24.91700
C  6.25100 41.90300 27.94300
O  7.38400 41.77200 28.38200
C  5.07300 41.87700 28.83700
C  5.14300 40.72600 29.69200
O  4.66600 39.60600 29.56900
O  5.80200 41.08500 30.87200
C  5.71100 40.14100 31.96300
H  -1.83500 41.31600 27.42000
H  -0.20600 41.22700 21.12600
H  5.67600 42.60500 22.50400
H  2.11100 40.87500 30.06400
H  -0.33800 42.36200 29.53400
H  -0.43500 39.51000 28.95000
H  -1.12900 40.47500 30.33900
H  0.45800 39.78100 30.47900
H  1.19100 43.57100 30.48700
H  2.73800 43.74500 29.70400
H  3.24100 43.78400 31.91900
H  3.06600 41.97100 31.84000
H  -3.89200 39.41300 24.95300
H  -4.27600 41.06300 25.30000
H  -3.17300 40.11700 26.42700
H  -4.86000 40.67700 21.37000
H  -4.55600 41.57200 22.94000
H  -4.45600 39.78700 22.91500
H  1.92100 42.21500 19.80200
H  4.55500 42.16400 20.47500
H  2.50000 40.01000 19.08900
H  2.58100 39.49700 20.84800
H  3.98200 40.15800 20.20200
H  4.12700 44.45800 21.74000
H  2.50300 44.28300 21.09300
H  3.57300 45.55700 19.41400
H  4.00300 43.90500 18.84500
H  5.19800 44.81600 19.78700
H  8.17700 43.20900 25.37500
H  7.74300 42.40700 23.83000
H  8.14100 41.41600 25.24200
H  4.99600 42.78400 29.43500
H  5.47300 39.11800 31.67100
H  4.85200 40.34100 32.60400
H  6.55300 40.12800 32.65400

