158

Mg 52.88300 24.18100 45.45700
C  50.08800 26.33500 44.76600
C  51.14000 21.78200 43.88700
C  55.65600 22.53600 45.53400
C  54.52000 27.11200 46.58200
N  50.89300 24.22100 44.19700
C  49.97800 25.12900 44.04300
C  48.74400 24.51200 43.26800
C  48.89900 23.01100 43.52300
C  50.40700 22.98500 43.94800
C  48.12000 22.35000 44.60500
C  48.75400 24.93700 41.76200
C  47.30100 25.04200 41.16500
H  46.89700 23.87300 40.23400
N  53.34800 22.41000 44.76500
C  52.51500 21.50500 44.21200
C  53.22700 20.25900 44.09400
C  54.55900 20.51300 44.55400
C  54.58200 21.93700 44.98900
C  52.65900 19.04700 43.37100
C  55.72600 19.48200 44.52500
O  55.51600 18.33300 44.06500
C  57.15500 19.80900 44.87400
N  54.85200 24.79800 45.86400
C  55.78500 23.87600 45.98000
C  56.95300 24.39200 46.85400
C  56.73000 25.94900 46.73600
C  55.27400 25.94300 46.38500
C  57.04300 23.81700 48.31400
C  57.54300 26.63800 45.62300
C  58.49800 27.79300 45.98200
N  52.39200 26.28200 45.87400
C  53.16100 27.32700 46.37100
C  52.29400 28.50300 46.56500
C  51.09200 28.13300 45.94900
C  51.21700 26.76600 45.51600
C  52.74400 29.89900 47.13300
C  49.73500 28.57300 45.68200
O  49.20600 29.57900 46.08100
C  49.13700 27.58300 44.72300
C  49.04800 28.25800 43.44400
O  49.93600 28.49100 42.67800
O  47.66300 28.35100 43.25400
C  47.27100 28.84400 41.91900
H  50.55100 20.99100 43.41700
H  56.50300 21.90800 45.81800
H  55.14400 27.96000 46.87400
H  47.73400 24.77900 43.57800
H  48.70600 22.48100 42.59000
H  47.42500 23.05900 45.05600
H  48.81100 21.92100 45.33000
H  47.59700 21.47900 44.21000
H  49.28800 24.24800 41.10700
H  49.24600 25.90800 41.81100
H  47.38200 25.89200 40.48800
H  46.52000 25.17200 41.91400
H  52.96000 18.90200 42.33300
H  51.58900 19.25700 43.34500
H  52.77600 18.07000 43.84000
H  57.84200 19.07100 44.46100
H  57.06500 19.82500 45.96000
H  57.43000 20.75600 44.40900
H  57.88000 24.12000 46.34900
H  56.95400 26.31000 47.73900
H  56.43000 22.92100 48.42000
H  56.76800 24.61500 49.00400
H  58.10200 23.60900 48.46400
H  56.90300 27.06900 44.85300
H  58.00900 25.82600 45.06400
H  58.41900 27.92800 47.06000
H  58.31000 28.77100 45.53900
H  59.53700 27.50200 45.82800
H  52.06700 30.26000 47.90800
H  52.75400 30.59100 46.29000
H  53.75000 29.83100 47.54700
H  48.10600 27.28200 44.91100
H  47.07400 29.91400 41.99000
H  46.33600 28.35200 41.65000
H  48.00800 28.50200 41.19200
Mg -9.69100 17.56600 42.58300
C  -6.39700 16.71800 42.02300
C  -8.89900 20.71600 41.46400
C  -13.06400 18.14600 42.30700
C  -10.49900 14.21000 43.07500
N  -7.84900 18.61200 41.90500
C  -6.58400 18.09100 41.81500
C  -5.48100 19.04200 41.39200
C  -6.31400 20.31900 41.16100
C  -7.79100 19.86600 41.51600
C  -5.82100 21.64000 42.01300
C  -4.63400 18.72800 40.14400
C  -5.41300 17.90500 38.99900
H  -5.40200 18.60300 37.62400
N  -10.80800 19.21000 42.21500
C  -10.30000 20.41600 41.73400
C  -11.41900 21.38000 41.61100
C  -12.61900 20.62600 41.89500
C  -12.19500 19.26900 42.14600
C  -11.24700 22.80800 41.16500
C  -13.95300 21.29400 41.96300
O  -14.18800 22.34700 41.36700
C  -15.13400 20.59900 42.63400
N  -11.54300 16.33500 42.61700
C  -12.75500 16.87100 42.66000
C  -13.81500 15.90000 43.15400
C  -12.99600 14.60900 43.48300
C  -11.54700 15.11000 43.01400
C  -14.63200 16.44400 44.41000
C  -13.43400 13.39000 42.61900
C  -13.84000 12.20100 43.48200
N  -8.69600 15.80400 42.68800
C  -9.10600 14.50500 42.88300
C  -7.96900 13.61100 42.94300
C  -6.89200 14.47700 42.61200
C  -7.37400 15.73700 42.38400
C  -7.88900 12.13700 43.40100
C  -5.46400 14.52100 42.42100
O  -4.75400 13.60200 42.51200
C  -5.03300 16.01300 41.99500
C  -4.19800 16.42600 43.16100
O  -3.01200 16.84300 43.11600
O  -4.91800 16.31600 44.30900
C  -4.33100 16.51100 45.59700
H  -8.69100 21.70000 41.03900
H  -14.14100 18.32100 42.34800
H  -10.72400 13.15800 43.26300
H  -4.83100 19.11400 42.26400
H  -6.44200 20.60100 40.11600
H  -5.54200 22.40100 41.28500
H  -4.94900 21.39500 42.61800
H  -6.55300 22.09400 42.68200
H  -3.78700 18.21100 40.59300
H  -4.30000 19.69100 39.75700
H  -6.43800 17.71200 39.31600
H  -4.99600 16.91500 38.81600
H  -10.33400 23.34600 41.42300
H  -11.97400 23.50400 41.58400
H  -11.33900 22.83400 40.07900
H  -14.83000 20.03600 43.51600
H  -15.62700 19.87300 41.98800
H  -15.92000 21.33400 42.80800
H  -14.45000 15.81700 42.27200
H  -13.02600 14.42500 44.55700
H  -15.71600 16.36900 44.32200
H  -14.43500 17.48400 44.66800
H  -14.35600 15.77600 45.22600
H  -12.57100 13.14600 42.00000
H  -14.29800 13.61900 41.99600
H  -14.92800 12.22500 43.54500
H  -13.40000 12.32100 44.47200
H  -13.59200 11.23000 43.05300
H  -7.16600 11.66400 42.73700
H  -8.87100 11.66400 43.36400
H  -7.60300 12.11700 44.45300
H  -4.47200 15.94200 41.06300
H  -4.93700 15.95500 46.31200
H  -4.31000 17.57600 45.82600
H  -3.28900 16.19000 45.62100

