158

Mg 25.90100 0.86900 29.56400
C  27.80100 0.48200 32.60500
C  23.23500 1.48300 31.68000
C  24.05800 0.81000 26.91900
C  28.72400 -0.27900 27.86300
N  25.51600 0.76300 31.88100
C  26.48300 0.75100 32.86800
C  25.86100 1.14900 34.27300
C  24.43700 1.47000 33.95200
C  24.36600 1.25300 32.39500
C  23.25500 0.69600 34.58800
C  26.58800 2.26000 35.10400
C  25.71600 3.12600 36.05800
H  26.35000 3.50900 37.39000
N  23.94900 1.21600 29.33400
C  23.00000 1.38100 30.27500
C  21.70500 1.55800 29.57100
C  21.91500 1.40700 28.19600
C  23.33500 1.02500 28.07600
C  20.44300 1.72400 30.29600
C  20.95600 1.46900 27.02600
O  21.26800 1.03100 25.88900
C  19.54100 1.91500 27.26000
N  26.35400 0.40900 27.69500
C  25.42100 0.55600 26.73800
C  26.01900 0.34000 25.33800
C  27.58500 -0.11800 25.64200
C  27.58400 0.07600 27.15500
C  25.26000 -0.53600 24.33200
C  28.66800 0.73300 24.91600
C  29.60600 -0.00800 23.92800
N  27.91100 0.25400 30.04100
C  28.95900 -0.13200 29.21600
C  30.14700 -0.30100 30.00100
C  29.76500 -0.09300 31.32500
C  28.39000 0.19300 31.30400
C  31.49600 -0.74100 29.48800
C  30.14800 -0.12300 32.73800
O  31.23300 -0.33900 33.24500
C  28.92100 0.40900 33.57700
C  28.82000 -0.58500 34.70200
O  28.25800 -1.68000 34.64000
O  29.30900 -0.08500 35.92100
C  29.32100 -1.13600 36.99600
H  22.39700 1.88600 32.25200
H  23.53200 0.62900 25.98000
H  29.59400 -0.59400 27.28200
H  25.83400 0.19000 34.79100
H  24.20800 2.53300 34.02700
H  23.58200 0.03600 35.39200
H  22.77200 0.00700 33.89600
H  22.54000 1.41900 34.98100
H  27.25500 2.81200 34.44300
H  27.31600 1.77700 35.75600
H  24.72200 2.70600 36.21600
H  25.51800 4.01600 35.46200
H  20.18700 2.78300 30.31000
H  20.67700 1.58700 31.35100
H  19.61000 1.07700 30.02000
H  19.53300 2.61700 28.09400
H  18.87600 1.11000 27.57000
H  19.27600 2.39200 26.31700
H  26.14600 1.34100 24.92600
H  27.80900 -1.15300 25.38200
H  24.91800 0.06000 23.48600
H  24.40800 -0.83200 24.94400
H  25.80500 -1.38600 23.92000
H  29.25700 1.32200 25.62000
H  28.08500 1.47100 24.36400
H  30.63700 0.32600 24.04700
H  29.39600 0.42400 22.95000
H  29.69700 -1.08900 24.03400
H  31.48000 -1.37100 28.59900
H  32.03600 -1.16200 30.33600
H  32.03000 0.19400 29.31700
H  29.13500 1.39700 33.98600
H  30.08500 -0.90500 37.73900
H  29.48200 -2.16200 36.66400
H  28.39700 -1.00700 37.55900
Mg 5.62300 54.59100 41.69300
C  5.41700 50.93700 41.70200
C  8.60000 54.35400 40.35300
C  5.35500 57.88500 41.28400
C  2.31600 54.60500 43.07300
N  6.80800 52.79200 40.92900
C  6.56200 51.43300 40.98700
C  7.78500 50.60700 40.48200
C  8.93600 51.75600 40.34000
C  8.09500 53.06400 40.50900
C  10.08200 51.58300 41.43300
C  7.55200 49.87000 39.11100
C  6.55100 50.58700 38.12400
H  6.98000 51.26400 36.75200
N  6.89000 55.98400 40.99400
C  8.09600 55.69300 40.49700
C  8.72400 56.85700 40.02200
C  7.82200 57.98300 40.18300
C  6.59100 57.32500 40.81700
C  9.96800 56.83100 39.16400
C  8.06500 59.44300 39.70000
O  9.14300 59.80300 39.27100
C  6.92900 60.44400 39.85700
N  4.05100 56.03700 42.09400
C  4.26700 57.38500 41.94300
C  3.10800 58.10800 42.53400
C  1.90800 57.03700 42.59800
C  2.82800 55.77600 42.63100
C  3.43200 58.78100 43.86800
C  0.88600 56.96500 41.42400
C  -0.53800 57.30900 41.75400
N  4.14900 53.12400 42.26300
C  2.93800 53.31200 42.94000
C  2.40300 52.04000 43.33500
C  3.34700 51.12300 42.83300
C  4.37900 51.79200 42.20500
C  1.16800 51.75200 44.19600
C  3.61100 49.73500 42.78700
O  2.90200 48.82600 43.16100
C  4.97800 49.54800 41.92400
C  4.62900 48.74800 40.76400
O  3.92200 49.10600 39.81600
O  5.25600 47.56000 40.88100
C  5.10400 46.69200 39.67700
H  9.67100 54.19600 40.20400
H  5.36800 58.97300 41.37500
H  1.29000 54.70800 43.43400
H  7.96000 49.83000 41.22600
H  9.31100 51.83500 39.31900
H  10.99900 51.95000 40.97300
H  10.09500 50.49800 41.54100
H  9.78200 52.06400 42.36400
H  7.14500 48.87800 39.30800
H  8.50800 49.81700 38.59000
H  5.95800 51.33700 38.64700
H  5.70700 49.94100 37.88100
H  10.08000 57.68700 38.49800
H  9.85800 55.96400 38.51200
H  10.76200 56.60200 39.87400
H  6.00300 60.06100 39.42900
H  7.22400 61.41700 39.46500
H  6.72500 60.57100 40.92000
H  2.81100 58.97700 41.94800
H  1.46300 57.17300 43.58400
H  2.53000 59.28500 44.21500
H  4.33400 59.39000 43.81200
H  3.61800 58.05100 44.65600
H  1.00600 56.00300 40.92600
H  1.23700 57.73600 40.73800
H  -1.02000 58.01300 41.07400
H  -0.63100 57.62500 42.79300
H  -1.22300 56.46800 41.64800
H  1.38200 50.94500 44.89600
H  0.36600 51.46400 43.51700
H  0.79100 52.59000 44.78200
H  5.79100 49.04900 42.45300
H  5.67600 47.08200 38.83500
H  4.04100 46.64000 39.44300
H  5.49300 45.69900 39.90400

