158

Mg 0.20700 7.79300 26.34700
C  1.24500 9.51600 29.16700
C  0.13100 4.87900 28.03100
C  -0.16000 6.16800 23.40800
C  0.31000 10.85500 24.55300
N  0.73100 7.27800 28.32700
C  1.05200 8.13400 29.39800
C  0.99400 7.37600 30.66500
C  0.79200 5.83200 30.26800
C  0.47300 5.98800 28.77700
C  2.07600 4.96700 30.51500
C  -0.15900 7.99800 31.52900
C  0.19100 8.38600 32.98400
H  1.27200 7.58400 33.80500
N  0.08300 5.75700 25.79800
C  0.01100 4.74700 26.61700
C  -0.24200 3.51000 25.94100
C  -0.18300 3.84600 24.60000
C  -0.18100 5.31200 24.52500
C  -0.45100 2.19900 26.65800
C  -0.34900 2.94300 23.32600
O  -0.38700 3.36800 22.15400
C  -0.38600 1.50900 23.45600
N  0.02900 8.43300 24.37000
C  -0.08600 7.52000 23.35800
C  -0.12000 8.14800 22.03600
C  -0.36900 9.68400 22.38300
C  0.04100 9.67600 23.84800
C  1.09100 7.92300 21.08700
C  -1.82400 10.22400 22.18700
C  -2.03000 11.48100 21.28000
N  0.60300 9.83100 26.81600
C  0.70500 10.90000 25.88200
C  1.19100 12.06400 26.64100
C  1.50100 11.62100 27.94300
C  1.03500 10.22600 27.95300
C  1.57600 13.43300 26.03700
C  2.00400 11.94200 29.27000
O  2.47800 13.03400 29.69600
C  1.67000 10.61600 30.09100
C  2.78000 10.21800 30.97100
O  3.84700 9.69900 30.62900
O  2.54100 10.74000 32.25100
C  3.68500 10.78000 33.13600
H  -0.09100 4.01700 28.66300
H  -0.33100 5.55600 22.52000
H  0.25000 11.74900 23.92900
H  1.95100 7.42000 31.18400
H  -0.05500 5.35500 30.76100
H  2.75300 5.43700 31.22800
H  2.58900 4.73800 29.58100
H  1.63300 4.08800 30.98300
H  -0.99000 7.29800 31.44700
H  -0.42100 8.88300 30.95000
H  -0.74900 8.28800 33.52700
H  0.49100 9.43000 32.89500
H  -0.93500 1.52200 25.95500
H  -1.07000 2.38000 27.53600
H  0.48500 1.81300 27.06200
H  -1.35400 1.27300 23.89900
H  0.45100 1.14200 24.05000
H  -0.47200 1.20500 22.41300
H  -0.97800 7.68300 21.55000
H  0.26600 10.36000 21.81100
H  1.23000 6.87900 20.80800
H  2.00200 8.29300 21.55700
H  0.76500 8.43200 20.18000
H  -2.29800 10.25200 23.16800
H  -2.36100 9.40100 21.71600
H  -2.68100 11.20100 20.45200
H  -1.10500 11.82300 20.81700
H  -2.47900 12.35000 21.76000
H  2.47600 13.88400 26.45600
H  0.77500 14.09500 26.36400
H  1.51900 13.31900 24.95400
H  0.85100 10.87000 30.76400
H  4.67800 10.51500 32.77200
H  3.41000 10.08700 33.93000
H  3.80700 11.78900 33.53000
Mg -2.02000 34.77000 25.96400
C  -3.63900 33.06700 28.62600
C  -0.69100 36.89300 28.20000
C  -1.06100 36.50800 23.43100
C  -3.89700 32.58900 23.79400
N  -2.40500 35.00500 28.18500
C  -2.92500 34.17700 29.10500
C  -2.57600 34.61900 30.57400
C  -1.75400 35.96500 30.33500
C  -1.61600 36.00400 28.79100
C  -2.46700 37.18300 30.84900
C  -1.76200 33.51000 31.24400
C  -2.50200 32.45400 32.18400
H  -2.01700 32.31900 33.59000
N  -0.82300 36.37500 25.86100
C  -0.30500 37.13500 26.88300
C  0.69200 38.10900 26.32800
C  0.55600 38.00200 24.88500
C  -0.51100 36.95200 24.65200
C  1.57800 39.07500 27.21700
C  1.32900 38.76200 23.69600
O  1.04400 38.67300 22.51000
C  2.44000 39.74700 24.16700
N  -2.46700 34.61300 23.95500
C  -1.88700 35.51900 23.04700
C  -2.37600 35.21400 21.61100
C  -2.81000 33.70300 21.78300
C  -3.11500 33.62400 23.27200
C  -3.45300 36.17600 21.12100
C  -1.78900 32.66800 21.34200
C  -0.42100 32.45300 22.03700
N  -3.51400 33.09500 26.14700
C  -4.12600 32.33100 25.18000
C  -4.88100 31.29100 25.77500
C  -4.75400 31.47400 27.08000
C  -3.86200 32.65300 27.30400
C  -5.75800 30.28700 25.00000
C  -5.02400 31.04600 28.39600
O  -5.74100 30.07800 28.76400
C  -4.41500 31.99200 29.37700
C  -5.53400 32.64900 30.27400
O  -6.03300 33.73000 30.02300
O  -5.82700 31.92600 31.37800
C  -6.88300 32.47200 32.26100
H  -0.02600 37.41100 28.89400
H  -0.76300 37.20600 22.64500
H  -4.31800 31.85200 23.10700
H  -3.45800 34.80700 31.18700
H  -0.78900 35.85900 30.83200
H  -2.03900 37.27600 31.84700
H  -3.55100 37.06800 30.85600
H  -2.27400 38.06700 30.24200
H  -0.98700 33.99900 31.83400
H  -1.15900 32.96200 30.52000
H  -2.23900 31.49800 31.73000
H  -3.57500 32.63700 32.23700
H  2.64200 38.90700 27.04900
H  1.40700 38.91500 28.28200
H  1.39900 40.13000 27.01100
H  3.06600 39.97600 23.30500
H  3.08800 39.09300 24.75000
H  2.12500 40.58100 24.79400
H  -1.42000 35.34000 21.10200
H  -3.81100 33.56100 21.37500
H  -3.03900 36.53800 20.17900
H  -3.55200 37.05500 21.75800
H  -4.40900 35.68400 20.94300
H  -1.45400 32.97100 20.34900
H  -2.26100 31.69200 21.23300
H  0.45500 32.44800 21.38800
H  -0.59200 31.52500 22.58300
H  -0.17200 33.31500 22.65500
H  -6.46500 30.78500 24.33600
H  -6.33700 29.61600 25.63500
H  -5.00200 29.76200 24.41700
H  -3.84700 31.39400 30.09000
H  -6.28400 32.71100 33.14000
H  -7.55700 31.69600 32.62600
H  -7.51000 33.27700 31.87800

