158

Mg 17.09700 51.37300 26.21100
C  18.92000 49.96200 28.74400
C  14.50600 52.04300 28.50300
C  15.13900 52.48100 23.74700
C  19.50400 50.30900 23.94100
N  16.85100 51.04100 28.36100
C  17.66900 50.45400 29.20800
C  17.28700 50.75200 30.63700
C  15.80400 51.31500 30.53900
C  15.69500 51.50900 29.01200
C  14.72200 50.36300 31.18000
C  18.21200 51.79200 31.32800
C  18.67200 51.42400 32.66900
H  18.03300 52.05200 33.85100
N  15.05400 52.16300 26.12100
C  14.23300 52.40300 27.18700
C  13.10200 53.17700 26.74400
C  13.24300 53.30400 25.31500
C  14.52300 52.59400 24.97300
C  11.98800 53.64100 27.67800
C  12.32100 53.99800 24.38000
O  12.41200 53.97100 23.15900
C  11.08100 54.71600 24.90000
N  17.18600 51.17800 24.10900
C  16.29900 51.86400 23.34200
C  16.69600 51.78300 21.82200
C  18.10300 51.17900 21.85800
C  18.33200 50.87400 23.40800
C  15.70100 51.03000 20.82600
C  19.21200 52.14200 21.32800
C  20.44400 51.48500 20.66300
N  18.93300 50.42900 26.32200
C  19.77900 50.06700 25.31100
C  20.95900 49.40200 25.89800
C  20.66900 49.31100 27.26300
C  19.34900 49.90300 27.40800
C  22.09300 48.87000 25.13100
C  21.12800 48.85100 28.56700
O  22.10200 48.24700 28.80700
C  19.99300 49.29400 29.57500
C  19.52900 48.17300 30.40900
O  18.62500 47.40300 30.16500
O  20.20900 48.26700 31.64800
C  19.91800 47.28500 32.68500
H  13.75900 52.26000 29.26900
H  14.61300 52.99900 22.94200
H  20.25500 49.98700 23.21700
H  17.26800 49.74400 31.05300
H  15.63600 52.27800 31.02100
H  14.22700 49.98000 30.28700
H  13.96800 50.89000 31.76400
H  15.12200 49.47800 31.67400
H  17.70800 52.75800 31.34800
H  19.05800 51.99000 30.67000
H  19.71400 51.71600 32.79800
H  18.46900 50.35800 32.76800
H  11.19100 52.90800 27.54900
H  11.67100 54.66200 27.46700
H  12.30200 53.73900 28.71700
H  11.23600 55.41000 25.72600
H  10.37700 53.92800 25.16900
H  10.67000 55.32800 24.09800
H  16.81500 52.76700 21.36800
H  18.07900 50.19700 21.38500
H  15.20000 51.72100 20.14900
H  14.95800 50.50000 21.42300
H  16.31100 50.25800 20.35700
H  19.63000 52.62100 22.21300
H  18.80300 52.89500 20.65400
H  20.45700 50.40500 20.80500
H  21.42000 51.94000 20.83500
H  20.18600 51.51000 19.60400
H  21.82200 47.88200 24.75900
H  22.95700 48.91400 25.79400
H  22.48300 49.41700 24.27300
H  20.45700 50.05100 30.20700
H  19.02300 47.63400 33.20000
H  20.76100 47.11800 33.35600
H  19.60500 46.32000 32.28600
Mg 1.50600 41.75000 25.49300
C  3.68500 42.07000 28.18600
C  -0.84500 40.58500 27.60400
C  -0.19400 40.55900 22.83500
C  4.28900 42.34100 23.28000
N  1.41500 41.57100 27.67400
C  2.37900 41.86200 28.59900
C  1.75300 41.83300 29.96300
C  0.41000 41.09300 29.81100
C  0.28200 41.09000 28.26800
C  0.35300 39.72300 30.46900
C  1.63400 43.32300 30.62000
C  1.33700 43.54200 32.11700
H  1.22200 42.28500 33.01800
N  -0.26300 40.74800 25.29000
C  -1.12800 40.37500 26.22500
C  -2.18300 39.58400 25.70300
C  -1.93500 39.37700 24.31000
C  -0.80800 40.25800 24.06500
C  -3.25500 39.06600 26.63800
C  -2.74200 38.53000 23.30700
O  -2.42600 38.47100 22.13400
C  -3.92600 37.87000 23.79000
N  1.93400 41.64900 23.31800
C  0.97500 41.20100 22.49200
C  1.47800 41.38800 20.98000
C  2.93700 42.01500 21.11700
C  3.10200 41.96800 22.69000
C  1.38800 40.12800 20.10000
C  3.25900 43.36700 20.40400
C  2.45500 44.53700 20.98700
N  3.57800 42.22700 25.59000
C  4.53800 42.38200 24.68700
C  5.83500 42.55300 25.26800
C  5.55000 42.42800 26.70300
C  4.13600 42.19900 26.83000
C  7.12500 42.79100 24.63700
C  6.10100 42.37900 28.02300
O  7.28700 42.33600 28.41300
C  4.91200 42.39500 29.07500
C  5.19200 41.28700 29.94100
O  5.63200 40.19800 29.63600
O  4.92800 41.68300 31.23900
C  5.06100 40.67800 32.25100
H  -1.51200 40.16100 28.35800
H  -0.81000 40.17100 22.02100
H  5.15800 42.65500 22.69900
H  2.54600 41.31800 30.50500
H  -0.44200 41.62600 30.23300
H  -0.23700 39.91600 31.36500
H  1.35700 39.44300 30.79000
H  -0.20800 38.90100 30.02700
H  0.93500 43.87700 29.99200
H  2.62100 43.77100 30.50300
H  0.45100 44.15800 32.27500
H  2.06400 44.28400 32.44800
H  -3.10900 37.99700 26.79300
H  -4.23700 39.28000 26.21400
H  -3.28600 39.54700 27.61600
H  -4.42100 37.35500 22.96600
H  -4.52700 38.68200 24.19900
H  -3.68800 37.16700 24.58800
H  0.85300 42.18100 20.57000
H  3.63800 41.31100 20.66900
H  1.00700 39.37200 20.78700
H  2.36900 39.91900 19.67300
H  0.74000 40.43500 19.28000
H  3.25400 43.19600 19.32700
H  4.32900 43.43000 20.60400
H  1.66000 44.86000 20.31500
H  3.07700 45.40100 21.22000
H  2.04500 44.24000 21.95200
H  7.31900 41.88800 24.05800
H  7.90400 42.97800 25.37700
H  7.13100 43.67100 23.99400
H  4.79900 43.35300 29.58200
H  4.66800 39.70100 31.97000
H  4.71300 40.96300 33.24300
H  6.11700 40.42900 32.35900

