158

Mg 35.84200 1.50000 29.46600
C  33.64500 2.50200 32.07200
C  38.39600 1.67800 31.73200
C  37.88500 0.86300 26.91800
C  33.06900 1.63500 27.26200
N  36.00300 2.08700 31.60700
C  34.95500 2.40900 32.52600
C  35.43400 2.43600 33.89200
C  36.99900 2.29100 33.75000
C  37.21500 2.06700 32.28500
C  37.75500 3.55900 34.32500
C  34.89400 1.17500 34.65400
C  34.54100 1.47900 36.13700
H  35.25500 2.60100 36.82300
N  37.82100 1.25000 29.36300
C  38.73200 1.26400 30.44000
C  40.08000 0.98700 29.90000
C  40.00200 0.94100 28.50300
C  38.54100 1.03200 28.17200
C  41.35600 0.65300 30.81400
C  41.02400 0.63700 27.46700
O  40.81800 0.52600 26.28500
C  42.50300 0.64100 27.95600
N  35.49000 1.08000 27.35700
C  36.54100 0.89400 26.50800
C  36.05700 0.86100 25.04000
C  34.54700 0.97300 25.17500
C  34.28600 1.24500 26.66900
C  36.65600 1.99100 24.11700
C  33.73200 -0.21400 24.61000
C  32.66100 0.04800 23.56100
N  33.79500 1.89900 29.60600
C  32.80500 1.95700 28.61900
C  31.51300 2.36100 29.17900
C  31.83000 2.49700 30.51800
C  33.17200 2.26900 30.73000
C  30.15400 2.62700 28.53900
C  31.14700 2.80200 31.81000
O  29.96600 2.92900 32.06000
C  32.32900 2.84300 32.81200
C  32.30400 4.13200 33.51200
O  32.88800 5.12800 33.19700
O  31.60100 4.00100 34.75300
C  31.33200 5.14700 35.63300
H  39.18100 1.93100 32.44800
H  38.52100 0.82900 26.03000
H  32.24400 1.63100 26.54600
H  35.14000 3.40000 34.30700
H  37.34600 1.37800 34.23300
H  38.35600 3.18600 35.15500
H  37.09900 4.41100 34.50500
H  38.49000 4.02600 33.67100
H  35.45800 0.25400 34.50400
H  33.89600 0.99600 34.25500
H  34.62300 0.54300 36.69000
H  33.51600 1.83100 36.25900
H  42.11600 1.40100 30.58800
H  41.78200 -0.33100 30.61800
H  41.12900 0.63100 31.88000
H  42.61200 1.53100 28.57600
H  43.17600 0.59800 27.09900
H  42.59900 -0.28000 28.53000
H  36.54300 0.02500 24.53600
H  34.18900 1.89700 24.72000
H  37.13800 2.67300 24.81900
H  35.84100 2.47300 23.57600
H  37.36700 1.55700 23.41400
H  33.46800 -0.91000 25.40600
H  34.47900 -0.82700 24.10500
H  33.15300 -0.34200 22.67000
H  32.44300 1.08300 23.29700
H  31.78000 -0.56200 23.76200
H  29.68500 1.67600 28.28800
H  30.24600 3.24400 27.64500
H  29.48100 3.15800 29.21200
H  32.04700 2.08200 33.53900
H  31.69000 4.91600 36.63600
H  30.32800 5.57200 35.62100
H  31.89300 5.97800 35.20600
Mg 46.62100 25.41100 28.57100
C  47.83700 27.72600 31.03800
C  45.51200 23.31700 31.00500
C  46.33000 23.16400 26.09900
C  48.37700 27.53000 26.18600
N  46.57800 25.62200 30.74800
C  47.11500 26.63000 31.56100
C  46.80200 26.35200 33.03400
C  46.25300 24.87800 32.98800
C  46.04900 24.54300 31.50500
C  47.25800 23.80100 33.64700
C  45.74100 27.37200 33.57400
C  45.39900 27.50100 35.10700
H  46.12300 26.67900 36.21900
N  45.89700 23.51600 28.54600
C  45.42500 22.84600 29.64000
C  44.91900 21.51600 29.12400
C  45.15700 21.45700 27.70700
C  45.79600 22.75500 27.35200
C  44.23600 20.40600 30.02100
C  44.76300 20.46800 26.61500
O  45.06400 20.60200 25.42000
C  43.72100 19.35800 27.05500
N  47.30600 25.36800 26.44700
C  46.88700 24.34800 25.65300
C  47.20000 24.62200 24.18000
C  47.74700 26.09200 24.16800
C  47.82900 26.39000 25.71300
C  48.13000 23.59600 23.43500
C  46.83400 27.10100 23.45400
C  47.55300 28.36700 22.97800
N  47.77400 27.24900 28.53600
C  48.38400 27.96500 27.51800
C  49.09800 29.11100 28.04900
C  48.87800 29.07800 29.46300
C  48.10700 27.91600 29.67200
C  49.92500 30.09900 27.13400
C  49.15500 29.73100 30.70300
O  49.78700 30.75900 30.95900
C  48.49900 28.82200 31.76800
C  49.58500 28.34900 32.73600
O  50.51500 27.65700 32.45500
O  49.25700 28.91700 33.96100
C  50.21300 28.82200 35.11000
H  45.18900 22.55500 31.71800
H  46.07000 22.53200 25.24700
H  48.71700 28.31500 25.50800
H  47.69100 26.43100 33.66100
H  45.30700 24.73200 33.51000
H  46.86200 23.06900 34.35100
H  48.03800 24.28000 34.23700
H  47.74800 23.27600 32.82700
H  44.86300 27.09900 32.98800
H  46.11800 28.32000 33.19000
H  44.34900 27.20800 35.14400
H  45.42700 28.54300 35.42700
H  43.26000 20.25900 29.55900
H  44.18300 20.59300 31.09300
H  44.79200 19.46900 30.05700
H  42.90300 19.86400 27.56900
H  44.24200 18.69400 27.74400
H  43.24900 18.73700 26.29300
H  46.25000 24.70000 23.65200
H  48.74700 26.05000 23.73700
H  47.36700 22.95900 22.98700
H  48.66700 23.14400 24.26900
H  48.70200 24.14000 22.68300
H  46.13500 27.49000 24.19400
H  46.31300 26.69300 22.58800
H  47.19400 29.22400 23.54900
H  47.46100 28.60900 21.92000
H  48.63100 28.41000 23.13400
H  49.40300 30.83600 26.52500
H  50.65900 29.62200 26.48500
H  50.64800 30.66700 27.71900
H  47.80400 29.54000 32.20300
H  49.68100 28.32000 35.91800
H  50.58300 29.83200 35.29200
H  51.18900 28.38100 34.90800

