158

Mg 48.04300 35.72100 27.70200
C  46.31800 33.89800 30.22500
C  48.12400 38.41300 29.66500
C  49.25100 37.51900 25.03800
C  47.81900 33.02300 25.65700
N  47.31000 36.02800 29.69300
C  46.78800 35.13700 30.56300
C  46.65300 35.76700 31.94400
C  46.93000 37.31600 31.71300
C  47.41900 37.29100 30.21100
C  45.81000 38.34000 31.78700
C  47.69200 35.11900 32.94800
C  48.74500 35.96200 33.73600
H  48.30700 36.96100 34.86300
N  48.86000 37.69700 27.44300
C  48.75300 38.61700 28.38300
C  49.36400 39.86600 27.89900
C  49.67400 39.65700 26.50900
C  49.29400 38.22000 26.30600
C  49.48100 41.12700 28.73100
C  50.19800 40.65200 25.44400
O  50.44900 40.22900 24.29800
C  50.54900 42.13300 25.82500
N  48.45600 35.35300 25.60700
C  48.89600 36.24200 24.72800
C  48.91800 35.57800 23.28600
C  48.71900 34.07400 23.52900
C  48.33100 34.13400 25.01500
C  47.95600 36.35600 22.36100
C  50.00400 33.14900 23.29900
C  51.17700 33.22800 24.35100
N  47.20500 33.88800 27.83700
C  47.22500 32.87500 26.93500
C  46.48900 31.77400 27.43500
C  46.23700 32.12700 28.77800
C  46.55800 33.41700 28.89500
C  46.22400 30.46400 26.81100
C  45.65900 31.67000 29.99500
O  45.31600 30.51700 30.25600
C  45.46300 32.92000 30.90200
C  45.76900 32.53800 32.28800
O  46.82000 32.01600 32.63900
O  44.63000 32.76300 33.03800
C  44.57700 32.19200 34.34500
H  48.19500 39.17700 30.44200
H  49.51500 38.12100 24.16600
H  47.57100 32.15900 25.03600
H  45.59400 35.73200 32.19800
H  47.75400 37.68200 32.32600
H  46.11800 39.10700 32.49800
H  44.92900 37.83500 32.18500
H  45.49600 38.74600 30.82500
H  48.35500 34.42800 32.42600
H  47.05500 34.55700 33.63000
H  49.38400 36.55700 33.08300
H  49.46300 35.26700 34.17200
H  48.53000 41.61800 28.52400
H  50.23700 41.87900 28.50700
H  49.72100 40.94800 29.77900
H  49.92100 42.47700 26.64700
H  50.47700 42.63800 24.86100
H  51.59700 42.10700 26.12400
H  49.91500 35.81600 22.91500
H  47.85900 33.58600 23.07000
H  47.34400 37.14200 22.80300
H  47.35000 35.58400 21.88700
H  48.54200 36.72400 21.51900
H  50.55300 33.47200 22.41400
H  49.79300 32.13000 22.97500
H  51.09500 34.22000 24.79500
H  52.13900 33.04000 23.87500
H  50.98400 32.45800 25.09900
H  46.35200 29.65300 27.52800
H  46.88200 30.28900 25.96000
H  45.23700 30.63400 26.38100
H  44.42700 33.25300 30.84700
H  44.10800 32.94800 34.97500
H  45.55400 31.92500 34.74700
H  43.91400 31.32700 34.33300
Mg -11.56200 16.23500 41.24100
C  -8.48100 14.65800 40.76100
C  -10.12800 19.13500 39.74500
C  -14.62500 17.58000 41.04100
C  -13.00900 13.05600 41.59300
N  -9.47500 16.79100 40.15600
C  -8.33000 16.00200 40.32000
C  -7.12400 16.69500 39.73800
C  -7.65200 18.15600 39.52300
C  -9.20700 18.05200 39.89100
C  -6.82100 19.21100 40.38700
C  -6.63700 16.00100 38.43600
C  -5.10400 16.31200 37.99800
H  -5.11900 17.03400 36.57000
N  -12.22700 18.10200 40.72300
C  -11.50000 19.16300 40.17900
C  -12.34900 20.35800 40.19900
C  -13.69200 19.96100 40.58000
C  -13.56500 18.48900 40.88300
C  -11.89400 21.79100 39.76000
C  -14.89500 20.84300 40.49500
O  -14.79300 22.03000 40.25500
C  -16.16600 20.38100 41.11600
N  -13.55400 15.38600 41.36800
C  -14.57800 16.17300 41.18200
C  -15.88200 15.33900 41.34500
C  -15.35700 13.92300 41.28400
C  -13.87000 14.09300 41.42900
C  -16.65200 15.79100 42.61600
C  -15.60900 13.17700 39.92900
C  -16.53300 11.88000 39.91900
N  -10.90000 14.30000 41.38900
C  -11.59500 13.11400 41.52700
C  -10.60400 12.03700 41.78900
C  -9.35700 12.60300 41.48100
C  -9.65100 13.98400 41.18700
C  -10.90000 10.54300 41.99400
C  -8.02200 12.32200 41.30800
O  -7.46300 11.25000 41.45100
C  -7.36800 13.63300 40.96700
C  -6.46800 14.06400 42.07300
O  -6.76900 14.44900 43.17800
O  -5.14100 13.75100 41.66600
C  -4.13900 13.75800 42.73600
H  -9.66100 20.10900 39.58500
H  -15.63100 18.00400 41.07600
H  -13.46500 12.07800 41.75700
H  -6.36600 16.65200 40.52000
H  -7.63600 18.42600 38.46700
H  -6.46600 19.95300 39.67200
H  -6.15100 18.68700 41.06800
H  -7.53100 19.67600 41.07200
H  -7.27800 16.38800 37.64400
H  -6.90400 14.94500 38.40200
H  -4.53700 15.39300 37.84800
H  -4.73000 16.99800 38.75800
H  -12.56900 21.91500 38.91400
H  -10.82600 21.79800 39.54100
H  -12.14300 22.57500 40.47600
H  -16.75200 21.26300 41.37300
H  -16.02100 19.89600 42.08200
H  -16.79800 19.80400 40.44200
H  -16.43700 15.61900 40.44900
H  -15.72700 13.43300 42.18400
H  -16.71200 16.87700 42.67700
H  -16.06600 15.42500 43.46000
H  -17.64100 15.33400 42.64700
H  -14.69300 12.80000 39.47500
H  -16.19900 13.81900 39.27400
H  -15.96100 10.97300 39.72800
H  -17.36100 11.89300 39.21000
H  -16.95200 11.73100 40.91400
H  -11.40300 10.11500 41.12700
H  -11.57800 10.39500 42.83400
H  -9.93100 10.06800 42.14600
H  -6.71900 13.50400 40.10000
H  -4.39000 12.95700 43.43100
H  -4.08800 14.67200 43.32900
H  -3.11300 13.62100 42.39300

