158

Mg 3.03300 -0.92600 42.92500
C  6.49400 -0.34100 42.49300
C  2.32200 1.87500 41.11100
C  -0.28400 -1.98600 42.59800
C  3.87400 -4.15900 44.29500
N  4.30100 0.51000 41.85400
C  5.67500 0.60000 41.82200
C  6.14800 1.94600 41.15700
C  4.79300 2.61600 40.79500
C  3.71900 1.63600 41.25300
C  4.67700 4.10700 41.19300
C  7.03400 1.66500 39.96900
C  6.49800 0.74400 38.85700
H  6.23900 1.25400 37.40100
N  1.35600 -0.07300 42.20200
C  1.23000 1.13000 41.62100
C  -0.19800 1.54000 41.60000
C  -0.96900 0.46300 41.96100
C  0.04100 -0.62100 42.25700
C  -0.63700 2.89000 41.05200
C  -2.52600 0.43400 42.04400
O  -3.27700 1.35800 41.64400
C  -3.23800 -0.78100 42.66900
N  2.00800 -2.82500 43.33100
C  0.57100 -2.93000 43.11700
C  0.09000 -4.36500 43.50900
C  1.34400 -4.98600 44.15100
C  2.50600 -3.96400 43.92200
C  -1.21500 -4.44000 44.42000
C  1.57300 -6.47400 43.66200
C  1.45900 -7.58400 44.72600
N  4.72900 -2.00600 43.40500
C  4.89100 -3.25900 43.98600
C  6.27500 -3.41200 44.30400
C  6.92500 -2.33800 43.75300
C  5.94700 -1.52000 43.17300
C  6.93800 -4.54600 45.07000
C  8.25900 -1.66200 43.65800
O  9.41900 -1.90100 44.02100
C  7.97400 -0.38300 42.72100
C  8.42100 0.90000 43.27000
O  9.14100 1.67800 42.71100
O  7.95100 1.08800 44.58700
C  8.32000 2.42900 45.14700
H  2.11900 2.87200 40.71600
H  -1.25600 -2.39600 42.31200
H  4.12900 -5.14500 44.68800
H  6.70800 2.53500 41.88400
H  4.63900 2.56000 39.71800
H  3.94400 4.25100 41.98700
H  4.30700 4.63600 40.31500
H  5.62800 4.53900 41.50500
H  7.95100 1.18800 40.31600
H  7.36200 2.63900 39.60800
H  5.54100 0.32800 39.17000
H  7.16200 -0.12100 38.84400
H  -1.17600 2.88100 40.10500
H  0.23600 3.54000 40.99200
H  -1.24200 3.33700 41.84100
H  -2.68300 -1.23600 43.48900
H  -3.27400 -1.49400 41.84400
H  -4.22300 -0.57500 43.08700
H  -0.18100 -4.84900 42.57100
H  1.14300 -5.00200 45.22200
H  -1.59600 -3.42800 44.56000
H  -0.96800 -4.86600 45.39200
H  -1.95900 -5.07600 43.94000
H  2.56100 -6.47400 43.20100
H  0.86100 -6.64800 42.85400
H  2.37800 -8.15200 44.86600
H  0.73700 -8.31900 44.37100
H  1.16700 -7.19800 45.70400
H  6.45100 -4.56000 46.04500
H  8.02300 -4.55300 45.16600
H  6.59300 -5.49900 44.66900
H  8.54000 -0.71300 41.85000
H  7.35300 2.91400 45.27800
H  8.78300 3.16400 44.48900
H  8.89000 2.35800 46.07300
Mg 25.03700 -8.35900 46.61500
C  27.22100 -5.77300 45.53000
C  22.74600 -7.11800 44.47000
C  23.25500 -11.12700 47.09000
C  27.86300 -9.78300 48.38200
N  25.08000 -6.66000 45.13900
C  26.04300 -5.67600 44.83900
C  25.50800 -4.63200 43.82100
C  24.12000 -5.18700 43.44300
C  23.96100 -6.39700 44.42300
C  23.01500 -4.10500 43.58900
C  26.51800 -4.54600 42.61000
C  26.77300 -3.17100 42.01500
H  27.11200 -3.15000 40.53900
N  23.21100 -8.97200 46.04900
C  22.37900 -8.32300 45.16400
C  21.08300 -9.01100 45.04500
C  21.26100 -10.17000 45.83000
C  22.62300 -10.10700 46.37600
C  19.84900 -8.47900 44.23800
C  20.26200 -11.28300 45.89100
O  19.24200 -11.25500 45.20100
C  20.39400 -12.45700 46.84300
N  25.58200 -10.26500 47.39900
C  24.57700 -11.19800 47.61300
C  25.10000 -12.42200 48.40900
C  26.51900 -11.92000 48.89100
C  26.69300 -10.55800 48.21600
C  24.06600 -12.93100 49.54600
C  27.66600 -12.98300 48.82500
C  28.59600 -12.97500 50.05700
N  27.10700 -7.92500 46.91800
C  28.08300 -8.56700 47.64800
C  29.32100 -7.78100 47.60600
C  28.95400 -6.59800 46.93700
C  27.67600 -6.85300 46.37600
C  30.48200 -8.05600 48.44200
C  29.37600 -5.24300 46.52100
O  30.44900 -4.67600 46.69800
C  28.31200 -4.67700 45.55500
C  27.70700 -3.48000 46.09400
O  27.47500 -3.42200 47.28300
O  27.49600 -2.53200 45.15200
C  27.01800 -1.23900 45.62100
H  21.97600 -6.82400 43.75400
H  22.73900 -12.03400 47.41200
H  28.74700 -10.24900 48.82200
H  25.38500 -3.72600 44.41400
H  24.20700 -5.60900 42.44200
H  23.43600 -3.17100 43.21800
H  22.80000 -4.10200 44.65700
H  22.07600 -4.20100 43.04300
H  26.27200 -5.10500 41.70700
H  27.40200 -4.99900 43.05600
H  27.66500 -2.78200 42.50600
H  25.88500 -2.58200 42.24500
H  19.89700 -7.39200 44.16600
H  18.98700 -8.78000 44.83300
H  19.87100 -8.91600 43.24000
H  20.80400 -12.04000 47.76300
H  21.09700 -13.19000 46.45000
H  19.46100 -12.98800 47.03200
H  25.35100 -13.23800 47.73200
H  26.41700 -11.63300 49.93800
H  23.19600 -12.28100 49.64300
H  24.62600 -13.11700 50.46200
H  23.71400 -13.87700 49.13400
H  28.29300 -12.83800 47.94500
H  27.19500 -13.96600 48.81300
H  28.50900 -13.99500 50.43100
H  28.14900 -12.34100 50.82200
H  29.65000 -12.76500 49.87200
H  30.78800 -9.09500 48.32400
H  30.11200 -7.90400 49.45600
H  31.20700 -7.35100 48.03600
H  28.74500 -4.53100 44.56600
H  27.71100 -0.58800 45.08900
H  27.06200 -1.04900 46.69300
H  25.98300 -0.96100 45.42200

