158

Mg 49.05400 45.75600 43.01900
C  45.58800 45.63300 42.09900
C  49.20500 42.54200 42.38900
C  52.35600 46.21600 43.10900
C  48.73700 49.28800 43.24900
N  47.59700 44.27800 42.13500
C  46.25400 44.38700 42.02500
C  45.64700 42.98200 41.81800
C  46.74200 41.87300 42.17100
C  47.91900 42.92900 42.25300
C  46.52600 41.06400 43.45500
C  45.03300 42.59000 40.37400
C  45.65700 43.22700 39.22600
H  45.38700 42.68400 37.77900
N  50.57900 44.47900 42.74500
C  50.42500 43.16700 42.52600
C  51.75100 42.50500 42.47500
C  52.71000 43.57700 42.73500
C  51.90600 44.79500 42.86800
C  52.06200 40.97800 42.26500
C  54.21000 43.34800 42.79900
O  54.77700 42.28100 42.65100
C  55.10800 44.49800 43.18400
N  50.36000 47.52200 43.20200
C  51.69700 47.42300 43.32700
C  52.43100 48.77400 43.68900
C  51.27000 49.77600 43.71000
C  50.04500 48.84900 43.43500
C  53.31800 48.68600 44.97400
C  51.21000 51.03300 42.81700
C  50.84600 52.23400 43.64900
N  47.51500 47.22800 42.74900
C  47.54300 48.56900 42.93000
C  46.11200 49.10100 42.81400
C  45.36800 47.95800 42.49000
C  46.29700 46.81800 42.45600
C  45.58800 50.55000 42.99200
C  44.01100 47.57500 42.17600
O  43.07300 48.30600 42.02600
C  44.11900 46.06500 41.88700
C  43.03800 45.30000 42.58100
O  42.18600 44.59400 42.00500
O  43.04100 45.47200 43.93300
C  42.03500 44.69600 44.81500
H  49.30900 41.45800 42.31400
H  53.44200 46.33400 43.08500
H  48.43400 50.33700 43.23700
H  44.83400 42.95600 42.54500
H  46.89000 41.08400 41.43500
H  46.60900 40.00400 43.21600
H  45.55800 41.15000 43.94800
H  47.35100 41.11800 44.16500
H  43.99100 42.91000 40.33900
H  45.08800 41.50400 40.44200
H  46.74000 43.32000 39.30600
H  45.27500 44.24800 39.23400
H  53.02800 40.69200 42.68200
H  52.08100 40.60600 41.24100
H  51.32300 40.32900 42.73300
H  55.30100 45.19800 42.37100
H  56.05800 44.09700 43.53700
H  54.60000 44.88500 44.06600
H  53.22700 48.99200 42.97800
H  51.10100 50.12800 44.72800
H  53.65400 47.65400 45.07200
H  52.86100 49.16800 45.83800
H  54.22400 49.27100 44.81500
H  50.38100 50.79800 42.14900
H  52.07200 51.17700 42.16500
H  49.84000 52.26100 44.06700
H  50.97100 53.05700 42.94600
H  51.52200 52.20700 44.50400
H  44.51600 50.45500 43.16100
H  45.86700 51.24700 42.20200
H  46.18000 50.96700 43.80700
H  43.92000 45.91600 40.82600
H  42.67900 44.33800 45.61900
H  41.48300 43.87400 44.35900
H  41.31600 45.43200 45.17600
Mg -11.31300 38.60500 42.24600
C  -9.61400 35.70800 41.56200
C  -8.93000 40.49200 40.96100
C  -13.36000 41.30900 42.89000
C  -14.30000 36.51500 43.03300
N  -9.61500 38.09700 41.29400
C  -9.00600 36.85200 41.18500
C  -7.65700 36.94200 40.44000
C  -7.37700 38.46800 40.46500
C  -8.74300 39.07000 40.94800
C  -6.27800 38.96700 41.47400
C  -7.65000 36.34000 39.00700
C  -6.35800 35.59100 38.52500
H  -5.58100 36.16800 37.28800
N  -11.16500 40.64500 41.95200
C  -10.04600 41.18900 41.41200
C  -10.24800 42.64400 41.47100
C  -11.48600 42.92400 42.09500
C  -12.10700 41.60400 42.39300
C  -9.25600 43.55100 40.77900
C  -12.11000 44.34700 42.37500
O  -11.64700 45.33200 41.77000
C  -13.31100 44.55300 43.40800
N  -13.55700 38.82600 42.60300
C  -14.03000 40.08100 42.96700
C  -15.49400 39.99300 43.46500
C  -15.83100 38.50300 43.46200
C  -14.50000 37.85700 42.98900
C  -15.79900 40.72300 44.76800
C  -17.10400 38.14100 42.71800
C  -17.84300 36.88900 43.35500
N  -11.82200 36.50100 42.36200
C  -13.04500 35.88600 42.58800
C  -12.78000 34.40800 42.51400
C  -11.42400 34.28100 42.15600
C  -10.92100 35.61600 42.06500
C  -13.85300 33.39300 42.81500
C  -10.32300 33.37400 41.82200
O  -10.21500 32.16400 41.70200
C  -9.08000 34.34700 41.70000
C  -8.26100 34.12400 42.89700
O  -8.08200 34.93800 43.81000
O  -7.61300 32.89500 42.73900
C  -6.62000 32.53800 43.77100
H  -8.14000 41.08900 40.50000
H  -14.04800 42.14600 43.02900
H  -15.10800 35.81300 43.25300
H  -6.93700 36.39100 41.04500
H  -7.26000 38.94600 39.49200
H  -5.56000 39.62700 40.98800
H  -5.71400 38.12200 41.87000
H  -6.72700 39.57500 42.25900
H  -7.89000 37.09600 38.25900
H  -8.58200 35.80300 38.83100
H  -6.60200 34.54600 38.33300
H  -5.65100 35.74600 39.34000
H  -9.50900 43.55200 39.71900
H  -8.23400 43.19500 40.90900
H  -9.32400 44.57700 41.14000
H  -13.21100 45.47200 43.98500
H  -13.30800 43.74800 44.14200
H  -14.28600 44.68300 42.93900
H  -16.14700 40.37100 42.67800
H  -15.74600 38.24000 44.51600
H  -16.83100 40.65000 45.11100
H  -15.56100 41.78100 44.66400
H  -15.01000 40.46600 45.47400
H  -16.85700 37.86700 41.69200
H  -17.92200 38.85800 42.78200
H  -18.21400 36.15100 42.64500
H  -18.70000 37.18400 43.96000
H  -17.18200 36.42600 44.08800
H  -14.89000 33.72200 42.75900
H  -13.69600 33.01300 43.82500
H  -13.64100 32.52200 42.19400
H  -8.52900 34.07100 40.80100
H  -5.87200 31.93600 43.25600
H  -7.12400 32.03600 44.59800
H  -6.02600 33.34900 44.19300

