158

Mg 8.79300 48.43200 25.85000
C  7.00700 48.17700 28.87600
C  11.54300 49.31400 27.69100
C  10.44200 49.01400 22.90700
C  5.90200 47.93200 24.10400
N  9.21900 48.78400 28.01600
C  8.37700 48.45200 29.10500
C  9.07000 48.73900 30.44800
C  10.44200 49.30900 29.99900
C  10.44400 49.12900 28.46600
C  10.97800 50.67300 30.48500
C  9.11600 47.54100 31.42200
C  9.85800 47.88500 32.69800
H  8.96500 47.65100 33.97600
N  10.75000 48.99100 25.38900
C  11.75800 49.27300 26.28500
C  12.97800 49.47700 25.59200
C  12.73400 49.39700 24.17800
C  11.26600 49.10400 24.10700
C  14.28900 49.82600 26.31200
C  13.63100 49.39500 22.97600
O  13.27900 49.06700 21.87100
C  15.16300 49.46900 23.28100
N  8.24300 48.64700 23.87700
C  9.14500 48.80800 22.84800
C  8.38400 48.77000 21.46200
C  7.03900 48.12300 21.84700
C  7.00800 48.26700 23.39000
C  8.27200 50.18300 20.72400
C  6.86200 46.68400 21.43400
C  7.70900 45.64500 22.20500
N  6.82800 48.19300 26.32900
C  5.75300 47.84000 25.52000
C  4.52000 47.58300 26.23200
C  4.98800 47.65000 27.58100
C  6.38300 48.07200 27.59000
C  3.16800 47.41300 25.78300
C  4.61200 47.53200 28.91500
O  3.54900 47.13600 29.38800
C  5.86800 47.77000 29.78800
C  6.08400 46.41100 30.41500
O  6.69300 45.41400 29.97400
O  5.34200 46.40400 31.50600
C  5.51100 45.22100 32.36200
H  12.43100 49.45400 28.31100
H  10.93600 49.07300 21.93500
H  5.00700 47.62000 23.56100
H  8.32300 49.37600 30.92100
H  11.18600 48.62700 30.41100
H  11.77000 50.54500 31.22200
H  10.30800 51.26700 31.10700
H  11.28800 51.30900 29.65500
H  9.57000 46.74900 30.82500
H  8.07000 47.36900 31.67600
H  10.34100 48.85900 32.77900
H  10.57200 47.06400 32.76800
H  14.07600 50.12500 27.33900
H  14.96500 50.50400 25.79100
H  14.83300 48.88200 26.28800
H  15.49400 50.42100 23.69700
H  15.75500 49.20700 22.40400
H  15.56800 48.70600 23.94600
H  8.87700 48.05100 20.80900
H  6.18900 48.58900 21.34800
H  7.20800 50.37900 20.59000
H  8.78200 50.01300 19.77600
H  8.84700 50.82600 21.39000
H  7.10800 46.67100 20.37200
H  5.79000 46.50200 21.50600
H  8.51500 46.16000 22.72600
H  8.04700 44.98600 21.40500
H  6.92300 45.19000 22.80800
H  2.97400 46.41600 26.18000
H  3.01700 47.45800 24.70500
H  2.48700 48.15400 26.20200
H  5.57400 48.58700 30.44700
H  5.38300 44.31500 31.77100
H  4.77500 45.29100 33.16200
H  6.47200 45.19100 32.87600
Mg -10.87100 16.83500 41.33800
C  -7.58300 15.52000 41.02900
C  -9.67400 19.96300 40.75200
C  -14.04200 17.74400 40.99800
C  -11.90000 13.39600 41.64700
N  -8.83900 17.60900 40.83600
C  -7.63100 16.92600 40.87100
C  -6.49900 17.92700 40.58400
C  -7.14800 19.31200 40.81800
C  -8.60900 18.97500 40.81100
C  -6.68100 20.06600 42.04500
C  -5.81700 17.79100 39.06500
C  -4.29000 17.52000 39.00800
H  -3.78200 16.31600 38.17400
N  -11.77800 18.62800 40.94400
C  -11.15100 19.82300 40.70900
C  -12.13200 20.85300 40.49700
C  -13.40700 20.24200 40.62300
C  -13.14100 18.80100 40.81400
C  -11.79500 22.26400 40.14100
C  -14.80300 20.96800 40.45500
O  -14.79100 22.16500 40.21200
C  -16.17500 20.30000 40.55000
N  -12.67500 15.70300 41.30700
C  -13.86400 16.34000 41.13800
C  -15.07400 15.36100 41.31900
C  -14.30600 13.98300 41.50900
C  -12.83900 14.36400 41.53500
C  -16.11800 15.69500 42.45300
C  -14.74300 12.83500 40.55500
C  -14.98800 11.55100 41.35200
N  -10.01400 14.82300 41.41500
C  -10.54300 13.53700 41.58700
C  -9.53900 12.59800 41.63600
C  -8.29900 13.30500 41.48800
C  -8.67000 14.66300 41.24300
C  -9.80500 11.12300 41.89200
C  -6.89000 13.15800 41.53200
O  -6.24200 12.15500 41.78900
C  -6.39900 14.53000 41.09000
C  -5.37000 14.89700 42.00000
O  -5.45100 15.49400 43.05900
O  -4.16900 14.42600 41.45500
C  -2.98500 14.55700 42.32500
H  -9.33100 20.99800 40.69000
H  -15.03700 18.19200 40.95600
H  -12.17400 12.42600 42.06600
H  -5.65200 17.73800 41.24300
H  -6.98500 20.00000 39.98800
H  -5.68400 19.77700 42.37800
H  -7.36100 19.73100 42.82800
H  -6.71100 21.13700 41.84400
H  -6.09500 18.71900 38.56400
H  -6.26200 16.92800 38.57000
H  -3.87600 17.36800 40.00500
H  -3.78700 18.42000 38.65400
H  -12.17500 22.46800 39.14000
H  -10.73400 22.48600 40.02200
H  -12.14800 22.94400 40.91600
H  -16.14400 19.43700 39.88600
H  -17.02300 20.94900 40.32900
H  -16.26800 19.99600 41.59200
H  -15.67800 15.47400 40.41900
H  -14.48200 13.61100 42.51800
H  -16.12900 15.03200 43.31800
H  -17.09500 15.77000 41.97600
H  -15.84000 16.73200 42.64400
H  -13.94500 12.70000 39.82500
H  -15.65700 13.21500 40.09800
H  -15.84100 11.79000 41.98800
H  -14.15300 11.50100 42.05100
H  -15.09900 10.55300 40.93000
H  -10.58400 10.78600 41.20900
H  -10.04600 10.76400 42.89200
H  -8.93000 10.56700 41.55700
H  -5.89700 14.56400 40.12300
H  -2.57800 15.56700 42.38100
H  -2.18100 13.92100 41.95600
H  -3.17400 14.18400 43.33200

