158

Mg 39.99600 9.82400 29.88300
C  41.87600 11.04700 32.73400
C  37.55200 8.71900 32.06600
C  38.41800 8.49100 27.26200
C  42.72400 10.68600 27.89300
N  39.88800 9.63400 32.20300
C  40.65500 10.40900 33.14400
C  40.02200 10.32100 34.55900
C  38.70800 9.50500 34.26100
C  38.65100 9.31400 32.74100
C  38.58400 8.16800 35.01400
C  39.77000 11.79200 35.15400
C  40.67500 12.19500 36.35800
H  40.12100 12.60300 37.69800
N  38.14800 8.77300 29.66500
C  37.33900 8.43800 30.69300
C  36.21700 7.76900 30.14200
C  36.47100 7.64600 28.78300
C  37.67000 8.36000 28.45600
C  35.11200 7.24000 30.99000
C  35.60800 6.97100 27.69000
O  35.92500 6.78300 26.53100
C  34.32300 6.42200 28.05500
N  40.45800 9.71100 27.81400
C  39.68200 9.03000 26.93300
C  40.23000 9.02800 25.47800
C  41.64600 9.65700 25.74100
C  41.67600 9.99600 27.26800
C  40.40000 7.52500 24.99600
C  41.97500 10.90800 24.87100
C  41.18000 12.18400 25.25400
N  41.95700 10.69400 30.14400
C  42.90200 11.06100 29.20800
C  43.98600 11.74000 29.91400
C  43.60100 11.79800 31.29800
C  42.34100 11.06600 31.38400
C  45.18000 12.38400 29.30700
C  44.01800 12.31000 32.60100
O  45.12100 12.79300 32.91500
C  42.90800 11.78100 33.59500
C  43.63000 10.84100 34.59300
O  43.80700 9.63600 34.50300
O  44.14400 11.61600 35.59600
C  44.56600 10.98200 36.84500
H  36.72400 8.59100 32.76700
H  37.93900 8.06800 26.37700
H  43.71400 10.88900 27.48100
H  40.81500 9.87200 35.15800
H  37.79700 10.09100 34.38000
H  38.51500 7.37400 34.27000
H  37.62300 8.25500 35.52100
H  39.38000 7.98500 35.73500
H  38.73700 11.89000 35.48900
H  39.82500 12.55200 34.37500
H  41.36800 12.97300 36.03800
H  41.24000 11.28400 36.55400
H  34.21200 7.78100 30.69700
H  35.31400 7.23800 32.06100
H  35.07400 6.17600 30.75900
H  34.45900 5.72900 28.88600
H  33.83300 5.97000 27.19200
H  33.65200 7.20100 28.41800
H  39.57100 9.50300 24.75100
H  42.37100 8.86900 25.53700
H  39.98100 6.74800 25.63700
H  41.44900 7.25300 24.88000
H  39.88400 7.27400 24.06900
H  41.88700 10.49800 23.86400
H  43.04900 11.09200 24.85300
H  41.86000 12.97000 25.58400
H  40.50000 11.98500 26.08200
H  40.56200 12.47900 24.40700
H  44.99500 12.74900 28.29800
H  45.94400 11.60800 29.25700
H  45.43600 13.17400 30.01300
H  42.48200 12.65700 34.08400
H  44.21000 11.55600 37.70100
H  45.64300 11.15000 36.86800
H  44.32400 9.92000 36.88200
Mg 27.04100 51.22100 26.14000
C  25.12700 52.14200 29.03100
C  29.39700 50.04900 28.38500
C  28.98900 50.72800 23.54200
C  24.65200 52.81200 24.11600
N  27.24200 51.16800 28.44300
C  26.31100 51.40100 29.39900
C  26.73900 50.97600 30.72400
C  28.24500 50.47400 30.57300
C  28.32500 50.58500 29.04000
C  29.28600 51.45200 31.17500
C  25.67500 49.91500 31.30200
C  24.91800 50.32200 32.60600
H  24.63300 49.22300 33.71700
N  28.86300 50.48200 25.97300
C  29.69400 49.99700 26.97300
C  30.90800 49.54600 26.39600
C  30.87900 49.75700 24.98100
C  29.55100 50.35300 24.80700
C  31.97700 48.72100 27.15200
C  31.93900 49.50400 24.01100
O  31.84800 49.86700 22.84800
C  33.25400 48.87700 24.45000
N  26.79400 51.56800 24.09600
C  27.76500 51.28800 23.18600
C  27.26800 51.58100 21.67500
C  25.79200 52.15100 21.93400
C  25.75500 52.25200 23.43100
C  28.22400 52.47800 20.78800
C  24.65600 51.21100 21.34300
C  23.55300 52.04700 20.71800
N  25.28700 52.24800 26.41200
C  24.44800 52.81900 25.50900
C  23.38200 53.43500 26.17700
C  23.57500 53.20400 27.51100
C  24.78800 52.49500 27.65500
C  22.23900 54.08700 25.60600
C  22.97300 53.34400 28.84900
O  21.93100 53.81200 29.25700
C  23.98300 52.71200 29.80500
C  24.47200 53.87100 30.70200
O  25.04100 54.87200 30.34100
O  24.23200 53.47300 32.02400
C  24.82100 54.48600 32.96500
H  30.04400 49.71600 29.20000
H  29.60900 50.52100 22.66800
H  24.04900 53.47000 23.48700
H  26.82400 51.81700 31.41200
H  28.33300 49.44700 30.92800
H  28.76900 52.29700 31.63000
H  29.99000 51.84600 30.44200
H  29.88300 50.87800 31.88300
H  26.20600 49.03300 31.66000
H  24.95400 49.50500 30.59500
H  23.92900 50.71800 32.37500
H  25.38800 51.20500 33.03800
H  32.87700 49.33500 27.12800
H  32.20600 47.75900 26.69500
H  31.74400 48.67700 28.21600
H  33.93200 48.71800 23.61000
H  33.00900 47.87800 24.81000
H  33.72800 49.54500 25.16800
H  27.24200 50.60100 21.19900
H  25.72700 53.18900 21.60800
H  28.86100 51.92400 20.09900
H  28.92200 53.08600 21.36300
H  27.57500 53.18100 20.26700
H  24.26100 50.45800 22.02500
H  25.02900 50.65200 20.48400
H  22.62400 51.71700 21.18300
H  23.43600 52.01100 19.63500
H  23.70700 53.09100 20.99400
H  21.50400 54.11600 26.41100
H  21.90300 53.42000 24.81300
H  22.43300 55.08800 25.22000
H  23.50100 51.85000 30.26700
H  23.98700 55.16900 33.12500
H  25.77900 54.92900 32.69200
H  24.98800 54.03900 33.94500

