158

Mg 9.49700 47.58000 25.60900
C  7.57800 47.32600 28.63100
C  11.96700 49.06700 27.48000
C  11.14000 48.04400 22.77700
C  6.61000 46.63100 23.84000
N  9.75300 48.13800 27.86400
C  8.90600 47.83400 28.92400
C  9.47900 48.22300 30.20200
C  10.62500 49.25700 29.70300
C  10.83800 48.80100 28.31800
C  10.16000 50.75500 29.98300
C  9.94100 47.03700 31.10600
C  9.36900 47.08000 32.50900
H  9.41500 45.85400 33.45800
N  11.33300 48.32000 25.25700
C  12.19700 48.84600 26.10200
C  13.37100 49.33600 25.35700
C  13.14300 48.98500 24.02900
C  11.84100 48.40800 23.94900
C  14.57700 49.88100 26.00200
C  14.11600 49.01300 22.83200
O  13.84600 48.57500 21.72000
C  15.44800 49.58700 23.01900
N  8.91100 47.32500 23.63100
C  9.80400 47.52900 22.57500
C  9.16700 47.38100 21.17600
C  7.88700 46.49600 21.52700
C  7.82400 46.81500 23.10300
C  8.77800 48.74100 20.44300
C  8.05400 44.99500 21.32000
C  7.62400 44.42400 19.97300
N  7.50200 47.04600 26.07400
C  6.44700 46.75000 25.25600
C  5.26800 46.57000 25.99800
C  5.64300 46.75400 27.33200
C  7.07200 47.05600 27.34100
C  3.82400 46.20100 25.46200
C  5.21100 46.67700 28.68900
O  4.09500 46.34700 29.12800
C  6.44000 47.13800 29.60900
C  6.77800 46.02900 30.53900
O  7.53000 45.07400 30.35500
O  5.92300 46.12800 31.68100
C  5.75400 45.04200 32.60300
H  12.73000 49.59500 28.05500
H  11.52700 48.24800 21.77700
H  5.68800 46.40500 23.30100
H  8.69000 48.77000 30.71900
H  11.50300 48.98700 30.29000
H  9.41100 50.68600 30.77200
H  9.79600 51.07900 29.00800
H  11.01500 51.31500 30.36200
H  11.01300 47.16900 31.25300
H  9.86500 46.08400 30.58400
H  8.39800 47.57500 32.52200
H  10.09000 47.73600 32.99500
H  14.26200 50.31100 26.95300
H  14.94800 50.79100 25.53100
H  15.35900 49.13600 26.14500
H  16.07400 49.45000 22.13800
H  15.92500 49.13500 23.88900
H  15.22800 50.63900 23.20200
H  9.84100 46.85500 20.50100
H  7.01600 46.95900 21.06400
H  7.72000 48.88900 20.22900
H  9.52000 48.86400 19.65400
H  9.00200 49.56800 21.11700
H  7.55400 44.43500 22.11100
H  9.07600 44.66400 21.50600
H  7.25200 45.32100 19.47900
H  6.80800 43.72900 20.17200
H  8.44500 43.90000 19.48400
H  3.22300 45.42500 25.93400
H  3.81500 45.91300 24.41100
H  3.23800 47.11700 25.38500
H  6.08700 47.99400 30.18400
H  6.01500 45.38100 33.60600
H  6.32200 44.14600 32.35300
H  4.78600 44.54800 32.69100
Mg -12.12600 17.03300 42.14500
C  -8.95100 15.49300 41.78300
C  -10.80000 19.74900 40.59500
C  -15.22200 18.21700 41.89200
C  -13.36800 13.88500 43.17800
N  -10.08500 17.51800 41.25200
C  -8.88800 16.79800 41.25500
C  -7.68400 17.59500 40.53800
C  -8.38500 19.04200 40.52000
C  -9.81000 18.81100 40.82400
C  -7.86400 20.25000 41.44800
C  -7.18600 16.96800 39.20100
C  -5.75400 16.55300 39.17100
H  -5.52900 15.32700 38.20200
N  -12.90100 18.81300 41.43000
C  -12.19400 19.86500 40.85300
C  -13.01900 21.01100 40.72100
C  -14.34300 20.55500 41.14800
C  -14.22600 19.10200 41.43900
C  -12.53800 22.36000 40.27000
C  -15.57000 21.44300 41.33700
O  -15.39700 22.65200 41.08200
C  -16.90400 20.95600 41.80600
N  -14.04200 16.17600 42.48600
C  -15.16100 16.91700 42.38500
C  -16.39300 16.06000 42.66100
C  -15.75800 14.69400 43.08600
C  -14.26000 14.95700 42.92400
C  -17.54800 16.65600 43.60300
C  -16.39500 13.50900 42.40700
C  -15.85200 13.03200 41.03600
N  -11.33700 15.03500 42.62400
C  -11.98400 13.89800 43.07700
C  -10.96900 12.86500 43.23400
C  -9.82400 13.39600 42.76000
C  -10.08400 14.70700 42.32300
C  -11.24900 11.46000 43.80100
C  -8.41000 13.10500 42.49800
O  -7.75600 12.11600 42.71400
C  -7.83100 14.43000 41.80600
C  -6.51600 14.64800 42.51800
O  -6.41100 14.96600 43.71400
O  -5.56500 14.10900 41.70700
C  -4.24400 13.93600 42.37200
H  -10.23000 20.61000 40.23900
H  -16.20300 18.69600 41.91000
H  -13.87300 12.93900 43.38600
H  -6.85900 17.78100 41.22500
H  -8.27100 19.32400 39.47300
H  -8.59200 20.70000 42.12300
H  -7.43800 21.04500 40.83600
H  -6.96900 19.84700 41.92200
H  -7.34100 17.79200 38.50400
H  -7.82900 16.14300 38.89300
H  -5.46800 16.35700 40.20400
H  -5.03800 17.23500 38.71000
H  -12.85400 22.55300 39.24500
H  -11.45800 22.47200 40.36300
H  -12.84100 23.13200 40.97700
H  -17.58500 21.80800 41.80800
H  -16.76400 20.55500 42.80900
H  -17.24900 20.18500 41.11800
H  -16.78300 15.92300 41.65200
H  -15.87300 14.68300 44.17000
H  -17.21000 17.65200 43.88900
H  -17.67900 16.10900 44.53600
H  -18.51500 16.55700 43.11000
H  -17.41400 13.83500 42.19600
H  -16.46200 12.62200 43.03700
H  -16.57500 12.98600 40.22200
H  -15.41100 12.04000 41.13400
H  -15.08000 13.69200 40.64000
H  -11.27800 10.60100 43.13100
H  -12.08200 11.50900 44.50200
H  -10.49500 11.06300 44.48000
H  -7.62300 14.16400 40.76900
H  -3.53800 13.74400 41.56300
H  -4.34400 13.09800 43.06100
H  -4.02300 14.88300 42.86500

