158

Mg 24.56800 -5.77300 46.14300
C  26.67200 -3.64400 44.54400
C  22.02900 -4.64500 44.20800
C  22.79500 -8.60700 46.98600
C  27.35900 -7.14200 47.95100
N  24.43400 -4.20500 44.56600
C  25.41800 -3.47600 44.06000
C  24.91600 -2.44600 43.05700
C  23.30700 -2.67100 43.15800
C  23.24600 -3.95000 44.02200
C  22.46800 -1.50200 43.67100
C  25.56300 -2.61500 41.67000
C  25.70900 -1.28600 40.92900
H  25.10800 -1.21800 39.44800
N  22.59400 -6.47800 45.71900
C  21.69200 -5.83400 44.87600
C  20.51300 -6.63100 44.78600
C  20.73700 -7.82000 45.53300
C  22.08300 -7.73900 46.09900
C  19.30100 -6.27300 43.96800
C  19.68300 -8.90600 45.72800
O  18.64900 -8.84700 45.10000
C  19.86100 -10.05900 46.64900
N  24.96400 -7.62400 47.24700
C  24.12200 -8.61700 47.47600
C  24.69700 -9.75000 48.37300
C  26.10200 -9.20200 48.75000
C  26.17400 -7.89300 47.86100
C  23.78000 -10.02000 49.58800
C  27.39800 -10.11900 48.70200
C  28.14800 -10.20200 49.95200
N  26.61400 -5.36700 46.32800
C  27.61100 -5.95800 47.16700
C  28.83700 -5.25500 46.96900
C  28.57700 -4.30700 45.88000
C  27.15400 -4.50900 45.51800
C  30.13100 -5.54200 47.71800
C  29.16200 -3.28600 45.02000
O  30.27600 -2.76100 45.14600
C  27.96300 -2.85900 44.06200
C  27.85800 -1.35200 44.24500
O  27.23700 -0.70300 45.07600
O  28.81800 -0.82900 43.37200
C  28.68900 0.68500 43.18100
H  21.16600 -4.19700 43.71100
H  22.27800 -9.49700 47.35200
H  28.17300 -7.60400 48.51300
H  25.29800 -1.49600 43.43000
H  22.84100 -2.83100 42.18600
H  21.89000 -1.19600 42.79900
H  23.08500 -0.75700 44.17300
H  21.72500 -1.87000 44.37800
H  24.79900 -3.07900 41.04500
H  26.41400 -3.29600 41.69900
H  26.75900 -0.99400 40.91800
H  25.08200 -0.53800 41.41400
H  19.05700 -7.06100 43.25600
H  19.37900 -5.28600 43.51300
H  18.35400 -6.16600 44.49700
H  19.81900 -9.80000 47.70700
H  20.76600 -10.60100 46.37300
H  18.94500 -10.61200 46.44300
H  24.79100 -10.72700 47.89800
H  26.07300 -8.74400 49.73900
H  24.25600 -9.64200 50.49300
H  23.65900 -11.10300 49.59100
H  22.89700 -9.41700 49.37500
H  28.07100 -9.78400 47.91200
H  27.06600 -11.07800 48.30500
H  29.07300 -9.66900 49.73500
H  28.22400 -11.24900 50.24400
H  27.62300 -9.68800 50.75700
H  30.83200 -4.73400 47.50700
H  30.52800 -6.46100 47.28800
H  29.91000 -5.61300 48.78300
H  28.17000 -2.94000 42.99500
H  27.60900 0.82300 43.13100
H  28.96300 1.02600 42.18200
H  29.04100 1.26300 44.03500
Mg 45.75100 3.91200 47.08500
C  43.41800 6.63300 46.54600
C  43.17100 1.79400 46.54000
C  48.01000 1.63700 46.80200
C  48.37700 6.40700 47.13500
N  43.58300 4.23100 46.51600
C  42.81900 5.42300 46.41300
C  41.33900 5.04500 46.00200
C  41.26900 3.51500 46.19600
C  42.71400 3.11800 46.42400
C  40.23400 2.98800 47.23800
C  41.05500 5.48000 44.51400
C  40.34500 6.78000 44.21500
H  40.86900 7.61900 43.02200
N  45.59900 1.96400 46.87100
C  44.41100 1.23800 46.65500
C  44.74400 -0.12300 46.70700
C  46.18600 -0.20100 46.66200
C  46.67700 1.16000 46.82500
C  43.68400 -1.19300 46.55500
C  47.01500 -1.53900 46.60800
O  46.47800 -2.61300 46.56200
C  48.58700 -1.58100 46.70300
N  47.91200 4.03700 46.78300
C  48.61100 2.89000 46.74400
C  50.15500 3.12200 46.75300
C  50.29500 4.63200 46.92500
C  48.76100 5.08600 46.93200
C  50.94400 2.21500 47.68600
C  51.22700 5.36000 45.91400
C  52.52500 5.99400 46.35300
N  45.89800 6.05600 46.94000
C  47.06000 6.86800 47.00900
C  46.64700 8.32300 47.01000
C  45.18600 8.23600 46.91800
C  44.79100 6.88100 46.75700
C  47.46500 9.60500 46.82600
C  43.94300 9.02400 46.88800
O  43.75100 10.22600 47.00400
C  42.76200 8.00400 46.73500
C  41.92800 8.09100 47.99300
O  42.19800 7.58600 49.06300
O  40.86000 8.95400 47.78200
C  40.07300 9.34300 48.97800
H  42.33000 1.10700 46.42900
H  48.80900 0.92300 46.59300
H  49.20800 7.09700 47.29500
H  40.71200 5.67500 46.63400
H  40.87700 2.97300 45.33600
H  39.39400 2.71000 46.60200
H  39.96900 3.82800 47.88000
H  40.66100 2.13000 47.75800
H  40.59700 4.65900 43.96200
H  41.98800 5.52400 43.95200
H  40.31600 7.41400 45.10200
H  39.28600 6.64300 43.99600
H  43.78300 -1.62300 45.55800
H  42.62900 -0.92300 46.60900
H  43.82100 -1.93500 47.34100
H  48.84900 -0.95800 47.55900
H  48.97300 -1.19400 45.76000
H  48.87300 -2.61800 46.87500
H  50.50100 2.88000 45.74800
H  50.73400 4.83200 47.90200
H  50.37600 2.07600 48.60600
H  51.92000 2.67400 47.84300
H  51.13300 1.25400 47.20700
H  50.65100 6.18400 45.49300
H  51.40200 4.69700 45.06600
H  52.28400 7.04100 46.53500
H  53.32300 6.09300 45.61700
H  52.97700 5.49200 47.20800
H  48.33800 9.50300 47.47000
H  46.84100 10.37600 47.27800
H  47.72900 9.76200 45.78000
H  42.18400 8.25700 45.84600
H  40.68500 9.89000 49.69500
H  39.81800 8.44400 49.54100
H  39.19400 9.91200 48.67500

