158

Mg -3.01000 16.49000 26.37800
C  -3.39400 14.28500 29.04100
C  -4.36200 18.91300 28.31100
C  -3.25300 18.50200 23.55800
C  -2.77100 13.71900 24.20800
N  -3.66200 16.52900 28.40800
C  -3.56700 15.56800 29.37900
C  -3.89600 16.10600 30.84700
C  -4.54800 17.47500 30.41700
C  -4.09300 17.68100 28.93700
C  -6.07200 17.42000 30.64800
C  -2.63600 16.28700 31.76100
C  -2.56400 15.38600 32.94700
H  -3.17900 16.01800 34.16600
N  -3.43500 18.43200 26.00900
C  -3.98500 19.28000 26.97200
C  -3.89000 20.64800 26.43900
C  -3.35600 20.58900 25.11700
C  -3.34200 19.10800 24.83100
C  -4.37700 21.85300 27.30100
C  -2.97000 21.69000 24.13500
O  -2.58600 21.41000 22.99900
C  -3.07700 23.09600 24.54800
N  -3.18300 16.16300 24.15200
C  -3.13000 17.15300 23.24100
C  -2.98800 16.63300 21.79800
C  -2.41600 15.17900 22.13500
C  -2.80600 15.00400 23.61100
C  -4.35400 16.58500 20.95600
C  -0.87300 15.05700 21.75000
C  0.09000 15.64100 22.79100
N  -3.00200 14.41700 26.47900
C  -2.94100 13.41300 25.51500
C  -3.04600 12.15100 26.09700
C  -3.15000 12.42200 27.44300
C  -3.20100 13.81600 27.63300
C  -3.13200 10.79500 25.43400
C  -3.24900 11.79200 28.70400
O  -3.07100 10.60500 29.06800
C  -3.53700 12.94000 29.78200
C  -2.51900 12.66200 30.82600
O  -1.37800 13.06600 30.87100
O  -3.04300 11.87800 31.83300
C  -2.11200 11.55100 32.87300
H  -4.72200 19.66000 29.02100
H  -3.11600 19.07100 22.63500
H  -2.59000 12.92200 23.48300
H  -4.64100 15.40500 31.22300
H  -4.21400 18.33500 30.99600
H  -6.34600 17.05300 31.63700
H  -6.68400 17.02600 29.83600
H  -6.35800 18.47100 30.60800
H  -2.63500 17.34500 32.02200
H  -1.74800 16.25900 31.13000
H  -1.50000 15.15800 33.01900
H  -3.10300 14.46500 32.72700
H  -5.14700 21.54700 28.00800
H  -4.88300 22.55800 26.64200
H  -3.58200 22.49400 27.68100
H  -2.51500 23.16800 25.47900
H  -4.10000 23.44300 24.69000
H  -2.69300 23.76400 23.77700
H  -2.34900 17.31200 21.23300
H  -3.09900 14.55700 21.55700
H  -5.09900 16.80600 21.72000
H  -4.77500 15.73600 20.41700
H  -4.37000 17.35900 20.18900
H  -0.73500 15.66500 20.85600
H  -0.62600 14.00400 21.60800
H  -0.45300 16.30100 23.46700
H  0.81600 16.29000 22.30200
H  0.49900 14.77100 23.30400
H  -2.97200 10.96300 24.36900
H  -4.15200 10.48500 25.66200
H  -2.37600 10.14000 25.86800
H  -4.52600 12.78900 30.21500
H  -2.64100 11.62600 33.82300
H  -1.23300 12.15800 33.08900
H  -1.73500 10.54200 32.70700
Mg 15.82900 51.06300 25.74300
C  17.80100 50.03600 28.41900
C  13.36900 51.80800 28.00600
C  13.78900 51.84600 23.16400
C  18.21100 49.85900 23.55700
N  15.54800 50.82400 28.00500
C  16.55300 50.54400 28.89800
C  16.18300 50.82000 30.35500
C  14.58000 51.06400 30.18800
C  14.46300 51.21200 28.63400
C  13.66700 49.90200 30.80400
C  16.94100 52.08300 30.94300
C  16.85500 52.39400 32.42500
H  16.07300 51.39200 33.26400
N  13.81800 51.73100 25.61900
C  13.02400 52.03400 26.66000
C  11.83600 52.62800 26.19300
C  11.95700 52.72500 24.75000
C  13.19300 52.07400 24.41100
C  10.77000 53.15300 27.16500
C  11.07900 53.39100 23.78600
O  11.31900 53.44300 22.56500
C  9.85000 54.08100 24.21400
N  15.93100 50.67100 23.68500
C  14.96700 51.19900 22.82700
C  15.48400 50.93200 21.30700
C  16.90300 50.37900 21.41000
C  17.03400 50.31100 22.97700
C  14.47300 50.08800 20.53400
C  17.99100 51.25600 20.81900
C  18.97600 50.48900 19.95900
N  17.67700 50.17200 25.89600
C  18.47800 49.70300 24.91400
C  19.64000 49.16400 25.58200
C  19.47400 49.30500 26.94900
C  18.19100 49.82400 27.09600
C  20.85400 48.49600 24.84700
C  20.06800 48.96300 28.21900
O  21.09900 48.46300 28.49100
C  19.02000 49.59000 29.23800
C  18.62600 48.51100 30.12400
O  17.84100 47.59500 29.92400
O  19.35100 48.65200 31.33800
C  18.98900 47.61800 32.37400
H  12.72600 52.18900 28.80200
H  13.23400 52.13600 22.26900
H  18.98800 49.50200 22.87800
H  16.35700 49.88600 30.88900
H  14.37400 52.02300 30.66300
H  13.07300 50.52800 31.47000
H  14.30800 49.28700 31.43500
H  13.09300 49.26400 30.13200
H  16.69400 52.94300 30.32000
H  17.96800 51.83200 30.67700
H  16.44600 53.39100 32.58800
H  17.87400 52.33400 32.80800
H  10.25500 52.27800 27.56200
H  10.05900 53.87400 26.76200
H  11.24800 53.59200 28.04100
H  9.40200 54.67600 23.41900
H  10.05600 54.79900 25.00800
H  9.12100 53.30700 24.45600
H  15.42100 51.96000 20.95000
H  16.97800 49.34600 21.07000
H  15.07100 49.35600 19.99100
H  13.98600 50.81900 19.88800
H  13.79500 49.53500 21.18400
H  18.55800 51.71100 21.63100
H  17.46600 52.09600 20.36500
H  19.35400 51.19500 19.22000
H  18.70500 49.46800 19.68900
H  19.83900 50.38000 20.61600
H  21.72600 48.76900 25.44100
H  20.91600 48.86600 23.82400
H  20.57100 47.44400 24.83100
H  19.54100 50.35100 29.82100
H  19.35300 47.83400 33.37800
H  19.30900 46.64800 31.99300
H  17.90200 47.69500 32.40400

