158

Mg 24.49700 -5.53000 45.92300
C  26.83800 -3.32200 44.47100
C  22.04400 -4.13200 43.84700
C  22.53700 -8.10400 46.57900
C  27.14300 -6.89300 47.72300
N  24.45400 -3.93400 44.28700
C  25.53500 -3.15800 43.92500
C  25.11400 -2.21200 42.78900
C  23.58100 -2.25200 42.78900
C  23.34500 -3.48700 43.68000
C  22.86200 -0.93800 43.22400
C  25.72700 -2.62600 41.47600
C  26.44300 -1.62400 40.57100
H  26.22000 -1.86400 39.08000
N  22.45200 -5.99100 45.38900
C  21.68500 -5.29600 44.50800
C  20.39800 -5.90800 44.50000
C  20.50500 -7.19200 45.19400
C  21.86200 -7.10500 45.80400
C  19.32200 -5.31000 43.63800
C  19.44400 -8.29100 45.24500
O  18.42300 -8.23300 44.63000
C  19.69200 -9.60500 45.88300
N  24.89600 -7.33400 46.76700
C  23.82800 -8.14900 47.06400
C  24.27000 -9.22000 48.10100
C  25.65300 -8.74800 48.58000
C  25.91400 -7.56100 47.66000
C  23.16300 -9.66500 49.20800
C  26.89200 -9.79200 48.60700
C  27.76100 -9.76600 49.89300
N  26.54900 -5.19400 46.11900
C  27.49600 -5.84100 46.88300
C  28.77400 -5.19400 46.66600
C  28.60600 -4.23100 45.79200
C  27.22100 -4.26100 45.44900
C  30.01600 -5.68600 47.27000
C  29.26900 -3.19700 45.02800
O  30.37000 -2.67600 45.09600
C  28.12300 -2.60300 44.10100
C  28.02100 -1.13700 44.35600
O  28.00500 -0.57600 45.44500
O  27.92200 -0.49000 43.10500
C  27.46700 0.88000 43.17000
H  21.31700 -3.58700 43.24200
H  21.88700 -8.87800 46.99300
H  28.02300 -7.26200 48.25300
H  25.42000 -1.21200 43.09600
H  23.21000 -2.54200 41.80500
H  23.31400 -0.07100 42.74300
H  23.03100 -0.81100 44.29300
H  21.80500 -0.96600 42.96000
H  25.03800 -3.23600 40.89200
H  26.42000 -3.43900 41.69500
H  27.51400 -1.77200 40.71000
H  26.15200 -0.61500 40.86200
H  19.53700 -5.58400 42.60500
H  19.31300 -4.22600 43.75100
H  18.30400 -5.59700 43.90100
H  19.05700 -10.41000 45.51400
H  19.69700 -9.58200 46.97300
H  20.70300 -9.94800 45.66300
H  24.36200 -10.10800 47.47500
H  25.47000 -8.29100 49.55300
H  22.36200 -8.92600 49.23900
H  23.67700 -9.82500 50.15500
H  22.69900 -10.62100 48.96300
H  27.44800 -9.41800 47.74800
H  26.64300 -10.84000 48.44100
H  27.89700 -10.78300 50.26000
H  27.48700 -9.17400 50.76600
H  28.72400 -9.44600 49.49400
H  30.16100 -6.76500 47.22300
H  30.05000 -5.32100 48.29700
H  30.83300 -5.24700 46.69800
H  28.40400 -2.79300 43.06500
H  26.53300 0.84300 43.73000
H  27.29100 1.20400 42.14500
H  28.09100 1.67700 43.57400
Mg 49.59500 46.71300 42.87600
C  46.16600 47.17100 42.00900
C  49.48000 43.62100 41.30600
C  52.98900 46.50800 43.07700
C  49.80300 50.16200 43.51900
N  47.95100 45.54200 41.81600
C  46.66200 45.87500 41.67400
C  45.91200 44.74500 40.92900
C  47.00200 43.58700 40.75300
C  48.23200 44.24000 41.45200
C  46.58300 42.28900 41.39700
C  45.48700 45.21900 39.41600
C  44.03800 44.76300 38.99900
H  43.35100 45.40200 37.78800
N  51.03700 45.16900 42.41800
C  50.80600 44.04400 41.71700
C  52.03100 43.37900 41.35200
C  53.06100 44.06600 42.10300
C  52.36300 45.35000 42.53500
C  52.11000 42.19400 40.40800
C  54.48300 43.58500 42.18400
O  54.87700 42.51500 41.68400
C  55.54300 44.36200 43.06900
N  51.08000 48.08100 43.46900
C  52.44700 47.72500 43.54600
C  53.36900 48.85500 43.58900
C  52.39500 50.09000 43.76700
C  51.00000 49.48400 43.61300
C  54.57200 48.90300 44.61200
C  52.69800 51.22400 42.66900
C  52.75700 52.66300 43.26500
N  48.26600 48.31400 42.90800
C  48.52600 49.64500 43.21500
C  47.29400 50.42400 43.20900
C  46.32100 49.46000 42.72700
C  46.97100 48.22900 42.58000
C  47.01300 51.81000 43.53000
C  44.95000 49.26800 42.36900
O  43.99400 50.05600 42.52900
C  44.77400 47.74500 41.88200
C  43.78300 47.11500 42.77600
O  43.92500 46.85700 43.95800
O  42.71700 46.67700 42.00800
C  41.80700 45.85900 42.77700
H  49.53600 42.65500 40.79900
H  54.07000 46.45200 43.22200
H  49.82300 51.25200 43.58100
H  45.03100 44.38600 41.46200
H  47.21100 43.36900 39.70600
H  45.78500 42.47200 42.11600
H  47.36800 41.73700 41.91500
H  46.18900 41.55200 40.69600
H  46.15200 44.88500 38.62000
H  45.49300 46.30800 39.39200
H  43.37600 44.84000 39.86200
H  44.04100 43.68200 38.85700
H  51.31400 41.54800 40.77900
H  52.88700 41.43300 40.47500
H  51.97400 42.64300 39.42400
H  55.22000 44.53000 44.09700
H  55.64200 45.38400 42.70200
H  56.48000 43.80900 43.01000
H  53.91900 48.91400 42.65000
H  52.56000 50.38800 44.80300
H  54.49500 48.03100 45.26100
H  54.39800 49.71700 45.31600
H  55.54400 48.97500 44.12400
H  51.87400 51.21000 41.95500
H  53.59300 51.01800 42.08200
H  52.83900 52.57800 44.34800
H  51.77800 53.11800 43.11300
H  53.55700 53.19600 42.75000
H  47.73400 52.56300 43.21000
H  46.66000 51.90400 44.55700
H  46.08400 52.03700 43.00700
H  44.41400 47.87400 40.86100
H  41.80000 46.25500 43.79300
H  41.95100 44.77900 42.73700
H  40.81300 46.00500 42.35500

