158

Mg 8.04900 2.92700 27.68900
C  9.48200 1.30400 30.54600
C  6.42100 4.92800 29.85200
C  6.73300 4.28100 25.04800
C  9.86000 0.59300 25.73000
N  7.88700 3.04800 30.00200
C  8.67600 2.36200 30.94600
C  8.46300 2.93200 32.34800
C  7.37400 4.03100 32.11000
C  7.14000 3.94500 30.55900
C  6.07400 3.78600 32.85600
C  9.81900 3.35300 33.09300
C  9.59900 4.35400 34.28900
H  10.49100 4.38600 35.51800
N  6.66700 4.34700 27.48300
C  6.11300 5.06800 28.45300
C  5.35400 6.20600 27.88400
C  5.46100 6.00500 26.48000
C  6.25800 4.78200 26.24400
C  4.62500 7.26800 28.68200
C  4.92100 6.98900 25.44100
O  5.13000 6.83000 24.23500
C  3.97000 8.23800 25.76800
N  8.10200 2.29300 25.69800
C  7.60200 3.14300 24.79000
C  7.98000 2.85000 23.38000
C  8.99200 1.72400 23.55800
C  9.01200 1.53200 25.06500
C  6.71900 2.44500 22.61900
C  10.36900 1.93900 22.94000
C  10.99700 0.68300 22.24200
N  9.27900 1.19500 28.04400
C  10.01100 0.37200 27.14900
C  10.90700 -0.50400 27.81600
C  10.63100 -0.15300 29.15200
C  9.69500 0.88900 29.24400
C  11.97800 -1.34100 27.21600
C  11.04900 -0.55100 30.45900
O  11.84300 -1.39400 30.91100
C  10.29100 0.46200 31.37000
C  9.58300 -0.32400 32.43100
O  8.49500 -0.85800 32.24300
O  10.41000 -0.45300 33.55000
C  9.72700 -1.07800 34.68400
H  6.00600 5.76600 30.41600
H  6.46100 4.87100 24.17100
H  10.50200 0.11600 24.98600
H  7.97700 2.18700 32.97900
H  7.80000 5.03200 32.17900
H  5.45500 3.03000 32.37400
H  5.49700 4.71000 32.81900
H  6.22300 3.36800 33.85200
H  10.42000 3.83400 32.32100
H  10.43400 2.59200 33.57400
H  8.54600 4.31600 34.56600
H  9.71100 5.32400 33.80500
H  5.08300 8.24700 28.54500
H  4.46900 7.15700 29.75500
H  3.62500 7.23400 28.24800
H  4.46500 8.92200 26.45700
H  3.03500 7.86600 26.18600
H  3.80100 8.82900 24.86800
H  8.44100 3.72200 22.91600
H  8.53700 0.76700 23.30400
H  5.79000 2.71400 23.12200
H  6.70100 1.42800 22.22500
H  6.63600 3.06100 21.72400
H  11.05300 2.27400 23.72100
H  10.41700 2.75200 22.21500
H  11.15800 0.82000 21.17300
H  10.34900 -0.16400 22.46900
H  12.00400 0.49700 22.61500
H  12.81400 -1.23200 27.90700
H  12.23200 -1.01800 26.20700
H  11.59200 -2.36000 27.19600
H  11.00900 1.08800 31.89900
H  9.08100 -1.91400 34.41300
H  9.14700 -0.31800 35.20700
H  10.53800 -1.54000 35.24700
Mg 37.09700 49.80900 25.05900
C  37.27900 47.95700 28.11400
C  35.49300 52.33700 26.94200
C  36.42800 51.50600 22.32300
C  38.36100 47.21200 23.43500
N  36.51100 50.14700 27.29500
C  36.85100 49.29800 28.29500
C  36.48600 49.91900 29.67300
C  35.67200 51.20300 29.32500
C  35.81200 51.24000 27.74100
C  34.17400 51.28400 29.76900
C  37.68500 50.13900 30.61700
C  37.54400 50.19000 32.13700
H  36.07600 50.03500 32.80400
N  36.23600 51.78800 24.67000
C  35.68100 52.69700 25.57600
C  35.24100 53.87500 24.93500
C  35.29800 53.56900 23.48300
C  36.00100 52.23800 23.40400
C  34.60900 55.06800 25.72400
C  34.91500 54.43500 22.25200
O  35.15300 54.14800 21.07500
C  34.35800 55.78300 22.52200
N  37.34500 49.41100 23.11100
C  37.08400 50.26800 22.13200
C  37.41500 49.62100 20.71800
C  38.11400 48.26200 21.11400
C  37.99200 48.30600 22.63700
C  36.17800 49.54700 19.83700
C  39.53300 48.30800 20.54200
C  40.53700 48.97800 21.55600
N  37.61600 47.95800 25.62600
C  38.22800 46.98700 24.79300
C  38.54700 45.77000 25.58100
C  38.14900 46.13300 26.90300
C  37.65100 47.43700 26.86400
C  39.08500 44.51800 25.01600
C  38.02700 45.66600 28.26100
O  38.27400 44.54900 28.68800
C  37.55500 46.84900 29.09700
C  36.24500 46.41200 29.81900
O  35.18300 46.24400 29.27300
O  36.49200 46.02200 31.09400
C  35.18200 45.62800 31.83600
H  35.10700 53.10600 27.61500
H  36.26300 51.93100 21.33100
H  38.79400 46.41200 22.83100
H  35.92600 49.07900 30.08200
H  36.17300 52.07800 29.74000
H  34.06900 52.07000 30.51700
H  33.98500 50.32900 30.25900
H  33.48400 51.42100 28.93600
H  38.10800 51.06800 30.23400
H  38.50100 49.45500 30.38700
H  37.97600 51.12300 32.50000
H  38.10100 49.33800 32.52700
H  34.44000 54.90400 26.78800
H  33.62500 55.23900 25.28700
H  35.12000 55.99700 25.47100
H  35.14000 56.45900 22.87000
H  33.63500 55.56000 23.30600
H  33.83200 56.34700 21.75100
H  38.21400 50.21100 20.26800
H  37.56600 47.41700 20.69900
H  35.31900 50.17800 20.06400
H  35.90000 48.50200 19.70200
H  36.46200 49.89800 18.84500
H  39.64000 48.77300 19.56200
H  39.81300 47.26700 20.37900
H  40.16200 49.94100 21.90200
H  41.50800 49.08500 21.07200
H  40.67700 48.14000 22.23800
H  38.29600 43.84600 24.67800
H  39.74100 44.05700 25.75500
H  39.64400 44.77600 24.11600
H  38.18500 47.20300 29.91300
H  34.47100 46.44100 31.69100
H  35.47300 45.38800 32.85900
H  34.89700 44.67400 31.39200

