158

Mg 7.01300 53.42800 41.25200
C  6.50400 49.75500 41.11400
C  10.11900 52.81900 40.34700
C  7.01400 56.53500 40.44900
C  3.67100 53.52500 42.40400
N  8.20300 51.35500 40.75700
C  7.82900 50.07000 40.74600
C  9.06600 49.14400 40.59200
C  10.24400 50.18300 40.52100
C  9.53800 51.60600 40.59500
C  11.37900 49.90700 41.57000
C  9.05900 48.08800 39.44500
C  8.78900 48.66600 38.05800
H  7.69700 48.17900 37.11800
N  8.32600 54.50700 40.40000
C  9.59300 54.09400 40.19100
C  10.40800 55.21100 39.85700
C  9.52400 56.30600 39.72600
C  8.22600 55.80700 40.14900
C  11.90800 55.20200 39.71600
C  9.93000 57.73600 39.27100
O  11.09800 57.97000 38.99700
C  8.87000 58.89200 39.18400
N  5.50600 54.82300 41.46400
C  5.78900 56.08000 41.09800
C  4.64200 57.03900 41.58500
C  3.65700 56.13400 42.40700
C  4.27500 54.78100 42.04500
C  5.25900 58.31700 42.28900
C  2.10200 56.18500 42.20300
C  1.36800 57.49000 42.52700
N  5.41400 52.04600 41.67700
C  4.13600 52.24400 42.18400
C  3.44900 50.95500 42.35300
C  4.34100 49.98600 41.93500
C  5.53500 50.71400 41.54700
C  2.14300 50.76100 43.01600
C  4.46500 48.50000 41.79600
O  3.66100 47.58200 42.04600
C  5.88100 48.30600 41.18700
C  5.61900 47.55400 39.95400
O  5.34700 48.08400 38.91000
O  5.52600 46.14600 40.20100
C  4.83200 45.42600 39.13000
H  11.19900 52.66000 40.32900
H  7.06800 57.60000 40.21800
H  2.69100 53.66700 42.86500
H  9.24100 48.58300 41.51000
H  10.72100 50.02100 39.55400
H  12.28200 49.41800 41.20500
H  10.95800 49.27100 42.34800
H  11.55900 50.84200 42.10100
H  8.28800 47.33800 39.62300
H  9.95300 47.46500 39.44400
H  9.76200 48.60600 37.57200
H  8.59500 49.73500 38.14700
H  12.26600 56.22700 39.80800
H  12.08800 54.79600 38.72100
H  12.47900 54.55400 40.38100
H  7.95000 58.56500 38.69800
H  9.07800 59.82400 38.66000
H  8.69200 59.10700 40.23700
H  4.14700 57.33300 40.66000
H  3.78600 56.24300 43.48400
H  5.23500 59.17400 41.61600
H  6.31200 58.20300 42.54700
H  4.63700 58.53900 43.15600
H  1.67100 55.49100 42.92400
H  1.87100 55.86700 41.18600
H  0.89200 57.32900 43.49400
H  0.71800 57.81000 41.71200
H  2.01700 58.33500 42.75900
H  1.39400 50.80400 42.22500
H  1.92900 51.56700 43.71800
H  2.22900 49.80700 43.53500
H  6.56100 47.75000 41.83300
H  4.98000 45.82400 38.12600
H  3.75900 45.39800 39.31900
H  5.32700 44.45900 39.03700
Mg -5.54400 25.47000 26.28400
C  -4.00500 26.73200 29.14000
C  -7.44000 23.42900 28.45700
C  -6.66100 23.90000 23.65100
C  -3.55600 27.50400 24.32300
N  -5.62700 25.12200 28.49900
C  -4.97800 25.84500 29.43000
C  -5.61900 25.71400 30.79100
C  -6.45900 24.33900 30.66800
C  -6.58100 24.27200 29.09800
C  -5.77200 23.09400 31.35600
C  -6.45700 27.05900 31.28500
C  -6.15400 27.43700 32.72400
H  -5.88100 26.23600 33.61300
N  -7.06600 23.98100 26.06300
C  -7.64600 23.27700 27.09000
C  -8.52300 22.25500 26.47200
C  -8.24600 22.35600 25.02000
C  -7.24900 23.42500 24.87900
C  -9.41400 21.30400 27.26300
C  -8.70200 21.42600 23.88700
O  -8.32700 21.55200 22.69600
C  -9.69100 20.32200 24.23100
N  -5.35000 25.84300 24.25800
C  -5.86000 24.98800 23.27500
C  -5.55600 25.48500 21.84700
C  -4.48700 26.65500 22.12100
C  -4.46000 26.70500 23.71600
C  -4.99700 24.52200 20.83800
C  -4.92500 28.09200 21.55500
C  -5.68100 28.16500 20.23100
N  -3.90100 26.62700 26.60800
C  -3.30500 27.49000 25.68200
C  -2.36300 28.34300 26.45400
C  -2.60000 28.04700 27.72900
C  -3.51100 26.98300 27.85500
C  -1.52700 29.50600 25.88000
C  -2.30000 28.56600 29.05900
O  -1.52000 29.40500 29.42600
C  -3.15400 27.74300 30.05400
C  -2.24900 26.94100 30.93000
O  -1.81200 25.82100 30.75000
O  -1.96300 27.63700 32.06800
C  -1.42900 26.86300 33.20100
H  -7.96600 22.80500 29.18300
H  -6.99900 23.35800 22.76600
H  -3.08700 28.22900 23.65400
H  -4.79100 25.51600 31.47200
H  -7.47800 24.36200 31.05400
H  -5.14000 23.34600 32.20700
H  -5.24600 22.51300 30.59900
H  -6.55100 22.44200 31.75000
H  -7.53800 26.95300 31.19000
H  -6.24000 27.86800 30.58700
H  -7.02700 27.93700 33.14300
H  -5.35800 28.18200 32.71800
H  -9.36100 21.59700 28.31200
H  -9.04700 20.31500 26.98800
H  -10.43400 21.30700 26.87900
H  -9.80700 19.74000 23.31600
H  -10.59400 20.65600 24.74200
H  -9.12100 19.65500 24.87800
H  -6.49800 25.90200 21.49000
H  -3.42900 26.45800 21.94700
H  -3.97300 24.66100 20.49100
H  -5.76400 24.44700 20.06800
H  -5.06800 23.56100 21.34700
H  -3.91800 28.48800 21.42100
H  -5.44600 28.69600 22.29800
H  -6.41800 28.94000 20.01900
H  -6.05900 27.23100 19.81600
H  -4.83500 28.33200 19.56400
H  -2.04900 29.81800 24.97500
H  -0.54400 29.15800 25.56500
H  -1.51700 30.29200 26.63500
H  -3.78200 28.42100 30.63200
H  -0.35800 27.00900 33.34700
H  -1.50300 25.77600 33.17300
H  -1.99100 27.19500 34.07400

