158

Mg 10.14600 47.73500 24.53400
C  7.62800 48.40500 26.77900
C  12.42900 48.90400 26.86900
C  12.43900 47.06000 22.27000
C  7.57000 46.97300 22.06500
N  9.99500 48.45600 26.61400
C  8.87600 48.59900 27.35100
C  9.23700 48.84300 28.82400
C  10.68500 49.43400 28.70300
C  11.08800 48.83200 27.31400
C  10.67200 50.92300 28.66600
C  9.26400 47.54700 29.70200
C  8.95200 47.81200 31.18300
H  8.45800 46.67100 32.01400
N  12.13500 47.87200 24.58000
C  12.88800 48.43700 25.56400
C  14.30600 48.33900 25.18100
C  14.37400 47.70600 23.88600
C  12.94800 47.55000 23.51800
C  15.47200 48.78400 26.14000
C  15.58600 47.28900 23.06400
O  15.49500 46.98000 21.93500
C  16.93200 47.36600 23.71200
N  9.98300 47.01800 22.52400
C  11.17100 46.70800 21.79900
C  10.87500 46.05000 20.39300
C  9.33200 46.03200 20.44300
C  8.91100 46.76400 21.72500
C  11.36600 46.92000 19.20100
C  8.70100 44.57300 20.32000
C  8.64000 43.75300 21.67100
N  8.03000 47.60400 24.40500
C  7.09000 47.37800 23.34700
C  5.75700 47.62900 23.83000
C  5.92100 48.06500 25.16800
C  7.29100 48.06700 25.48300
C  4.49700 47.48800 23.03400
C  5.27200 48.56800 26.36000
O  4.07000 48.83800 26.55100
C  6.34600 48.79100 27.42300
C  5.90500 47.95700 28.53400
O  5.96200 46.71600 28.60400
O  5.32000 48.75700 29.54400
C  4.74900 47.95100 30.64300
H  13.07100 49.32000 27.64700
H  13.20200 46.82900 21.52400
H  6.89300 46.80800 21.22400
H  8.45100 49.51200 29.17400
H  11.42200 49.02700 29.39600
H  11.67400 51.22700 28.96800
H  9.90500 51.34000 29.31900
H  10.50100 51.31300 27.66300
H  10.26100 47.11100 29.76800
H  8.63200 46.73200 29.35100
H  8.28300 48.64400 31.40500
H  9.95600 47.91200 31.59300
H  16.15900 47.94800 26.27000
H  15.12900 48.94000 27.16300
H  16.08300 49.59400 25.74200
H  17.32900 48.28000 24.15400
H  17.66000 47.03300 22.97300
H  17.02800 46.52600 24.40100
H  11.20000 45.01900 20.25500
H  8.93600 46.47100 19.52700
H  11.59900 47.93900 19.51000
H  10.63900 47.02900 18.39700
H  12.31500 46.51800 18.84600
H  9.27400 44.07200 19.54000
H  7.72200 44.84900 19.92700
H  9.22700 44.17500 22.48600
H  9.09900 42.80200 21.40200
H  7.62400 43.52800 21.99700
H  4.09000 46.48000 23.12100
H  4.67100 47.65100 21.97000
H  3.71500 48.13800 23.42600
H  6.27900 49.86800 27.57800
H  5.48800 47.46700 31.28200
H  4.05800 47.17000 30.32700
H  4.25000 48.59600 31.36700
Mg -10.83200 38.32600 42.55900
C  -8.79600 35.63700 41.53500
C  -8.89200 40.40900 40.70600
C  -13.30000 40.65200 42.76000
C  -13.15800 35.88400 43.63100
N  -9.11200 38.01900 41.04300
C  -8.37600 36.84900 40.91000
C  -7.08400 37.22300 40.01500
C  -7.05400 38.71200 40.20200
C  -8.47400 39.09300 40.63300
C  -5.91500 39.39600 41.14600
C  -7.29000 36.70100 38.52800
C  -6.09900 35.93600 37.92700
H  -5.54600 36.60700 36.67200
N  -11.00800 40.32500 42.05300
C  -10.02200 40.98400 41.36000
C  -10.42300 42.39800 41.34900
C  -11.74100 42.51100 41.91700
C  -12.04400 41.12500 42.34300
C  -9.62200 43.49300 40.65700
C  -12.63400 43.74100 41.91400
O  -12.24700 44.80200 41.41800
C  -13.98800 43.84600 42.55800
N  -12.97400 38.28000 43.02500
C  -13.74600 39.37500 43.11300
C  -15.13400 39.07200 43.72700
C  -15.06700 37.54600 44.01500
C  -13.67200 37.14800 43.45400
C  -15.36300 39.85500 45.07800
C  -16.14100 36.69100 43.25700
C  -17.54000 37.08000 43.52300
N  -10.95300 36.19400 42.81300
C  -11.89300 35.34000 43.28900
C  -11.35900 33.98200 43.42800
C  -10.14600 34.08800 42.67600
C  -9.96100 35.44400 42.29100
C  -12.08100 32.92200 44.13900
C  -9.00900 33.30400 42.30900
O  -8.63100 32.21200 42.57400
C  -8.14400 34.26400 41.44700
C  -6.78200 34.19500 42.07700
O  -6.06800 33.18500 42.13100
O  -6.52900 35.36600 42.78100
C  -5.31100 35.38700 43.52800
H  -8.22500 41.12500 40.22000
H  -13.98300 41.47000 42.99900
H  -13.88700 35.16600 44.01300
H  -6.22100 36.84300 40.56200
H  -6.98500 39.13300 39.19900
H  -5.93400 39.20500 42.21900
H  -6.17100 40.43700 40.94800
H  -4.93200 39.07200 40.80500
H  -7.61900 37.50300 37.86900
H  -8.10100 35.98500 38.65900
H  -6.13600 34.85300 37.80600
H  -5.28300 35.98500 38.64800
H  -9.61700 44.36500 41.31100
H  -10.25900 43.65600 39.78700
H  -8.60100 43.17600 40.44200
H  -14.00100 43.75600 43.64400
H  -14.58700 43.12500 42.00000
H  -14.49800 44.77300 42.29900
H  -15.91300 39.43000 43.05400
H  -15.05100 37.39500 45.09400
H  -16.26800 39.65100 45.65100
H  -15.33800 40.94200 45.00300
H  -14.48100 39.57700 45.65700
H  -16.07800 35.68200 43.66600
H  -15.91200 36.62500 42.19300
H  -17.91000 37.60800 42.64400
H  -17.53700 37.84500 44.30000
H  -18.24100 36.26700 43.70900
H  -13.16200 32.88100 44.00600
H  -12.03000 33.05400 45.22000
H  -11.85800 31.90900 43.80300
H  -8.04100 33.72900 40.50400
H  -4.53200 35.79500 42.88500
H  -5.10100 34.39600 43.93100
H  -5.41800 36.03200 44.40100

