158

Mg -0.68400 7.64900 25.39400
C  0.49700 9.21300 28.30600
C  -0.98400 4.67400 27.05600
C  -1.21400 6.08600 22.40900
C  -0.02500 10.54400 23.66800
N  -0.17100 6.97100 27.40300
C  0.04200 7.88100 28.41300
C  -0.11500 7.17800 29.74300
C  -0.47700 5.61100 29.40500
C  -0.61800 5.76000 27.87600
C  0.65300 4.57100 29.74500
C  -1.06000 7.72900 30.83900
C  -0.32600 7.71000 32.27400
H  0.75900 6.59800 32.50400
N  -1.03300 5.64300 24.77700
C  -1.16000 4.52000 25.62700
C  -1.50800 3.30300 24.93900
C  -1.46300 3.67700 23.58000
C  -1.24600 5.17600 23.53100
C  -1.72500 1.98700 25.68800
C  -1.69000 2.86500 22.34200
O  -1.58300 3.35200 21.24900
C  -2.01500 1.43400 22.36400
N  -0.58500 8.24500 23.30100
C  -1.02000 7.47800 22.32000
C  -1.20100 8.27400 21.04100
C  -1.01200 9.75000 21.46000
C  -0.50400 9.53000 22.90600
C  -0.12600 7.85800 19.86100
C  -2.29800 10.69700 21.51600
C  -2.49000 11.59600 20.33000
N  0.12000 9.53500 25.87400
C  0.35800 10.60700 25.06800
C  0.90100 11.70600 25.85300
C  0.86500 11.15200 27.19900
C  0.41600 9.87700 27.13400
C  1.19900 13.11900 25.41900
C  1.23200 11.49200 28.53900
O  1.70500 12.51200 29.01400
C  0.93800 10.15800 29.33800
C  2.18000 9.62600 30.01600
O  3.08100 9.17300 29.36300
O  2.16400 9.89200 31.37200
C  3.43100 9.72100 32.10300
H  -0.95300 3.71100 27.57000
H  -1.51100 5.67300 21.44200
H  -0.02200 11.50400 23.14700
H  0.90600 7.09700 30.11600
H  -1.41400 5.30700 29.87300
H  1.48800 4.90400 30.36200
H  1.11400 4.30500 28.79300
H  0.12000 3.72000 30.16800
H  -1.98100 7.14500 30.83200
H  -1.16100 8.78300 30.58100
H  -1.01500 7.61100 33.11300
H  0.05900 8.71600 32.44800
H  -1.92400 2.28400 26.71800
H  -0.79800 1.43600 25.53100
H  -2.54200 1.41000 25.25600
H  -1.41900 0.91700 23.11700
H  -1.76000 0.95900 21.41700
H  -3.08400 1.36200 22.56300
H  -2.18900 8.10700 20.61200
H  -0.24600 10.27700 20.89100
H  0.75900 7.35600 20.25100
H  0.15300 8.72700 19.26600
H  -0.58700 7.15700 19.16500
H  -2.28400 11.30200 22.42200
H  -3.18300 10.06500 21.58900
H  -3.26400 11.14100 19.71100
H  -1.61100 11.62700 19.68700
H  -2.80400 12.57200 20.70100
H  0.24700 13.60500 25.20500
H  1.99400 13.13100 24.67400
H  1.59400 13.74600 26.21800
H  0.14700 10.32800 30.06800
H  3.63600 10.72000 32.48700
H  4.26000 9.41800 31.46300
H  3.46600 9.02800 32.94400
Mg 8.07400 53.12100 40.76100
C  7.14500 49.71000 40.65700
C  11.34800 52.23800 39.92800
C  8.84000 56.45600 40.00000
C  4.70500 53.96000 40.63500
N  9.04800 51.18000 40.14600
C  8.54800 49.94500 40.34300
C  9.60600 48.84300 40.07800
C  10.85400 49.70500 40.33500
C  10.45900 51.19500 40.10800
C  11.64500 49.48900 41.65100
C  9.51300 48.31400 38.64500
C  9.27700 49.17000 37.36600
H  7.87800 49.38600 36.78700
N  9.86800 54.15100 40.29100
C  11.13000 53.58700 40.12000
C  12.04800 54.61700 39.95500
C  11.38500 55.85600 39.97400
C  9.89800 55.53000 40.11500
C  13.57000 54.34900 39.78500
C  12.00200 57.27100 39.83800
O  13.21400 57.34200 39.88300
C  11.22200 58.56400 39.66100
N  6.99000 54.94200 40.22000
C  7.46900 56.20600 40.17000
C  6.35800 57.25700 40.25200
C  5.05100 56.39400 40.43500
C  5.61100 54.96300 40.39200
C  6.47300 58.40700 41.29900
C  3.93500 56.60100 39.43500
C  3.58000 58.01800 39.11600
N  6.24700 52.13200 40.76500
C  4.92700 52.59500 40.80400
C  4.04900 51.52800 41.14600
C  4.87600 50.35100 41.16800
C  6.21500 50.77100 40.82900
C  2.56600 51.55700 41.38500
C  4.90800 48.93200 41.28600
O  3.96300 48.18700 41.60800
C  6.29900 48.42300 40.89200
C  6.20200 47.58600 39.71300
O  6.05900 47.89500 38.50900
O  6.17500 46.26300 40.10600
C  5.99800 45.19000 39.09300
H  12.40000 51.95500 39.85000
H  9.03300 57.53100 39.97000
H  3.66300 54.28200 40.66700
H  9.56300 47.97400 40.73400
H  11.58600 49.54500 39.54200
H  12.70900 49.69500 41.53700
H  11.58800 48.43800 41.93400
H  11.26900 50.09800 42.47300
H  8.59600 47.73800 38.77600
H  10.37100 47.69400 38.38800
H  9.82300 48.65100 36.57900
H  9.87400 50.07800 37.44800
H  13.96500 54.80800 38.87800
H  13.91200 53.32100 39.67000
H  14.19400 54.83900 40.53200
H  10.60800 58.34900 38.78600
H  11.95500 59.36900 39.62800
H  10.62000 58.79000 40.54100
H  6.41300 57.83000 39.32700
H  4.47300 56.42500 41.35900
H  6.18500 59.31500 40.76800
H  7.47400 58.38000 41.73000
H  5.69200 58.26300 42.04500
H  2.97100 56.21900 39.76900
H  4.17100 56.05200 38.52300
H  3.74200 58.74900 39.90900
H  2.53600 58.08800 38.81100
H  4.30100 58.27100 38.33800
H  2.19300 52.54400 41.11300
H  2.46200 51.44600 42.46500
H  2.09500 50.71700 40.87500
H  6.79800 47.87700 41.69300
H  6.96100 44.68300 39.04500
H  5.72500 45.48600 38.08000
H  5.23600 44.44200 39.31400

