158

Mg 16.34900 -1.19400 27.99500
C  15.69300 0.92700 30.62600
C  18.77300 -2.80900 30.06700
C  17.67800 -2.86600 25.33600
C  14.87300 1.09500 25.90100
N  16.95600 -1.11300 30.17300
C  16.48100 -0.19100 31.07900
C  17.16000 -0.33900 32.49500
C  18.28100 -1.44100 32.20700
C  18.02100 -1.77900 30.72900
C  19.77100 -1.00500 32.63300
C  16.09500 -0.67600 33.52700
C  16.23100 -0.03300 34.90100
H  17.59700 0.50400 35.32000
N  17.91400 -2.72500 27.74400
C  18.72500 -3.24100 28.77200
C  19.30000 -4.49100 28.25800
C  18.97400 -4.65000 26.84900
C  18.18600 -3.39800 26.58600
C  20.02900 -5.47600 29.15800
C  19.33100 -5.76100 25.88900
O  19.16300 -5.65200 24.66800
C  19.89000 -7.02600 26.35200
N  16.14500 -1.01600 25.91000
C  16.80200 -1.74500 24.96100
C  16.45900 -1.18800 23.49000
C  15.24700 -0.20700 23.78600
C  15.41900 -0.06000 25.28300
C  17.68300 -0.52900 22.78800
C  13.86000 -0.85200 23.62200
C  12.83600 0.10400 23.00100
N  15.23700 0.53700 28.15600
C  14.72700 1.36700 27.24300
C  14.16100 2.49100 27.88700
C  14.55100 2.46200 29.20800
C  15.22600 1.20800 29.30400
C  13.51900 3.70400 27.25100
C  14.50300 3.17500 30.45000
O  13.83700 4.14600 30.76200
C  15.26300 2.21900 31.43700
C  16.42900 2.94000 31.99500
O  17.57800 2.98800 31.59900
O  15.98600 3.62300 33.07900
C  16.86400 4.56700 33.77700
H  19.55600 -3.21300 30.71200
H  18.07100 -3.34300 24.43600
H  14.30900 1.75900 25.24300
H  17.59700 0.61200 32.79900
H  18.24500 -2.34400 32.81600
H  19.75300 -0.13000 33.28200
H  20.35100 -0.75700 31.74400
H  20.27400 -1.83200 33.13500
H  16.01700 -1.74600 33.72300
H  15.18900 -0.32900 33.03000
H  15.98600 -0.75300 35.68100
H  15.54700 0.81500 34.91100
H  20.84600 -5.96800 28.63000
H  19.34700 -6.22500 29.55900
H  20.63100 -5.01300 29.94000
H  19.36100 -7.32300 27.25800
H  20.96900 -6.87700 26.35100
H  19.80300 -7.85900 25.65400
H  16.20200 -2.14900 23.04500
H  15.37500 0.75200 23.28500
H  17.73800 0.52600 23.05800
H  17.39900 -0.40900 21.74200
H  18.64500 -1.02300 22.92100
H  13.42200 -1.23200 24.54600
H  13.90500 -1.74100 22.99200
H  12.42800 -0.25800 22.05800
H  13.31200 1.07400 22.85700
H  11.98400 0.24400 23.66600
H  14.04500 4.57400 27.64300
H  12.49300 3.56800 27.59400
H  13.65600 3.50500 26.18800
H  14.53200 1.99800 32.21500
H  16.74800 5.54300 33.30700
H  17.90900 4.27400 33.67300
H  16.61600 4.55200 34.83800
Mg 9.46400 47.97900 26.14200
C  7.51400 47.92500 29.08000
C  12.07400 49.30100 28.02800
C  11.18100 48.36500 23.33400
C  6.60900 47.42300 24.26800
N  9.67900 48.86700 28.27400
C  8.77800 48.52800 29.27700
C  9.45100 48.88700 30.68200
C  10.82600 49.56900 30.28700
C  10.88700 49.26500 28.79000
C  11.07300 51.04600 30.68700
C  9.58900 47.67900 31.57700
C  10.13900 47.87600 32.98100
H  9.78900 46.94100 34.11100
N  11.38300 48.56400 25.71900
C  12.35900 49.01200 26.64900
C  13.62100 49.16700 25.98900
C  13.32300 48.82500 24.61400
C  11.92800 48.65900 24.48200
C  14.91000 49.69800 26.63400
C  14.33400 48.87400 23.46600
O  14.05800 48.49200 22.33000
C  15.71300 49.14900 23.81200
N  8.94800 48.07500 24.16300
C  9.84000 48.14500 23.17900
C  9.20300 48.00500 21.78500
C  7.95100 47.25300 22.14300
C  7.78600 47.62100 23.61200
C  8.81600 49.38800 21.03400
C  8.01100 45.71700 21.80400
C  7.69300 44.61400 22.83100
N  7.48900 47.68200 26.49300
C  6.43200 47.40800 25.67700
C  5.18300 47.19800 26.44100
C  5.58700 47.34900 27.77800
C  6.98500 47.57300 27.77500
C  3.82800 46.89600 25.96800
C  5.12200 47.43400 29.14800
O  3.99800 47.39400 29.66400
C  6.43100 47.60100 30.01900
C  6.69500 46.26200 30.65700
O  6.99800 45.24200 30.11000
O  6.44100 46.42900 31.99300
C  6.74700 45.19200 32.75000
H  12.87500 49.66500 28.67500
H  11.78100 48.29800 22.42400
H  5.76600 47.07700 23.66600
H  8.92500 49.69700 31.18800
H  11.58400 48.94300 30.75700
H  11.78600 51.01100 31.51100
H  10.17800 51.54300 31.06100
H  11.56100 51.60300 29.88700
H  10.25700 46.96700 31.09200
H  8.57400 47.33400 31.77600
H  10.02900 48.92700 33.24700
H  11.20200 47.63700 32.95600
H  15.22700 50.62000 26.14700
H  15.77600 49.04500 26.53000
H  14.73800 49.81800 27.70400
H  16.29100 49.17500 22.88800
H  16.15100 48.48500 24.55800
H  15.69900 50.19000 24.13700
H  9.79700 47.47600 21.04100
H  7.13000 47.65800 21.55100
H  8.61600 50.12600 21.81000
H  7.89300 49.33700 20.45800
H  9.65200 49.74900 20.43400
H  9.05800 45.42400 21.72800
H  7.42600 45.56500 20.89700
H  7.06900 43.85900 22.35200
H  7.20000 45.08700 23.68100
H  8.65800 44.18600 23.10300
H  3.05100 47.23700 26.65200
H  3.80100 45.82700 25.75900
H  3.69500 47.43600 25.03000
H  6.18900 48.35300 30.77100
H  6.95100 45.65900 33.71300
H  7.72600 44.73100 32.61800
H  5.90300 44.50400 32.78300

