158

Mg 45.34800 4.62500 47.57000
C  43.70100 7.69600 47.00100
C  42.54600 2.90600 46.65600
C  47.37400 1.93300 46.93600
C  48.29300 6.59500 48.03600
N  43.46700 5.19100 46.80800
C  43.00400 6.54800 46.72600
C  41.47600 6.46600 46.29000
C  41.10700 5.00900 46.62400
C  42.46400 4.33900 46.67000
C  40.28000 4.61200 47.84300
C  41.48100 6.84200 44.83500
C  40.63200 8.03600 44.41100
H  39.76800 7.89300 43.12600
N  44.98400 2.72900 47.07200
C  43.76400 2.18300 46.83500
C  43.91100 0.75500 46.60500
C  45.31100 0.54000 46.57300
C  45.98100 1.73600 46.97700
C  42.77100 -0.14500 46.21700
C  45.93100 -0.81600 46.25500
O  45.20000 -1.77500 46.14400
C  47.44700 -1.17000 46.17200
N  47.52000 4.24000 47.34900
C  48.11000 3.01800 47.19300
C  49.62100 3.06300 47.66900
C  49.86400 4.60000 47.76800
C  48.44700 5.21000 47.71800
C  50.03100 2.28300 48.93000
C  50.87900 5.18300 46.75600
C  52.34900 4.82800 47.18600
N  45.96400 6.70500 47.51100
C  47.13400 7.32900 47.85900
C  46.97100 8.80500 47.91600
C  45.56700 8.95800 47.68100
C  45.04600 7.72500 47.41200
C  48.16200 9.70200 48.26500
C  44.50000 9.94600 47.60300
O  44.56500 11.17000 47.77100
C  43.21300 9.18400 47.15600
C  42.22200 9.48800 48.28900
O  42.04300 8.81100 49.25800
O  41.38700 10.59300 47.93700
C  40.41400 10.92000 48.88500
H  41.63900 2.34600 46.41900
H  48.11200 1.13800 47.06400
H  49.24200 7.05900 48.31200
H  40.92500 7.17600 46.90700
H  40.53500 4.53900 45.82400
H  39.67800 5.45100 48.19200
H  40.94700 4.40700 48.68000
H  39.58200 3.83900 47.51800
H  41.09600 5.90000 44.44500
H  42.49100 6.95100 44.44200
H  41.28000 8.91200 44.43800
H  39.87600 8.07900 45.19500
H  41.80600 0.36200 46.19000
H  42.67900 -1.00900 46.87400
H  43.12600 -0.42000 45.22300
H  47.93900 -1.10900 47.14300
H  47.94500 -0.52700 45.44700
H  47.60000 -2.19600 45.83700
H  50.18100 2.63100 46.84000
H  50.16100 4.80400 48.79700
H  50.55500 1.40400 48.55500
H  49.18900 1.77800 49.40400
H  50.77200 2.73900 49.58600
H  50.75300 6.26400 46.82400
H  50.70300 4.78600 45.75600
H  52.45800 3.95200 47.82500
H  52.77800 5.62500 47.79300
H  52.92300 4.86300 46.26000
H  48.51100 9.59300 49.29200
H  47.75900 10.70800 48.38200
H  48.86600 9.61700 47.43700
H  42.93300 9.63000 46.20200
H  39.71200 11.64900 48.48100
H  41.02000 11.46200 49.61200
H  39.86800 10.09100 49.33500
Mg 9.30900 48.24700 25.34500
C  6.98500 48.80500 27.86600
C  11.70100 49.46500 27.44000
C  11.46100 47.64800 22.96800
C  6.67200 47.70000 22.98800
N  9.27800 49.20400 27.40000
C  8.28300 49.05500 28.35000
C  8.81800 49.13700 29.83200
C  10.21500 49.83500 29.60200
C  10.42800 49.47400 28.02300
C  10.15700 51.34300 29.82700
C  8.80600 47.75600 30.52400
C  9.37600 47.75700 31.96000
H  8.46000 47.21600 33.06100
N  11.34000 48.39000 25.25500
C  12.14800 48.90400 26.25200
C  13.50900 48.71900 25.78200
C  13.52000 48.21600 24.51400
C  12.05500 48.08700 24.18400
C  14.66000 49.15200 26.71600
C  14.58300 47.90800 23.57400
O  14.38600 47.35600 22.50000
C  15.96700 48.10200 23.99600
N  9.07200 47.81300 23.23600
C  10.18100 47.60200 22.57300
C  9.86500 46.99000 21.16000
C  8.29500 47.01700 21.13800
C  7.97200 47.61500 22.47700
C  10.67700 47.51000 19.93700
C  7.60600 45.67000 20.78800
C  6.59400 45.75600 19.54200
N  7.25800 48.33100 25.37600
C  6.28400 48.09200 24.30600
C  4.98400 48.18200 24.90900
C  5.25700 48.41800 26.34000
C  6.59000 48.52500 26.50700
C  3.62800 48.18300 24.17600
C  4.58800 48.66500 27.59900
O  3.36000 48.60700 27.88300
C  5.70100 48.85900 28.65100
C  5.39500 47.74800 29.66100
O  5.74900 46.60100 29.59600
O  4.60200 48.23000 30.65900
C  4.06900 47.26200 31.63700
H  12.46900 49.69000 28.18300
H  12.11900 47.31300 22.16400
H  5.87000 47.53400 22.26700
H  8.16000 49.77200 30.42500
H  11.05600 49.35900 30.10600
H  9.26000 51.61300 30.38300
H  10.18700 51.88500 28.88100
H  11.01300 51.60800 30.44800
H  9.23700 46.91900 29.97700
H  7.75500 47.52200 30.69300
H  9.72300 48.78000 32.10900
H  10.23500 47.08700 31.92400
H  14.42900 49.36600 27.75900
H  15.03900 50.12400 26.40000
H  15.44800 48.40000 26.67200
H  16.12500 47.31300 24.73100
H  16.01300 49.05400 24.52400
H  16.60700 48.05500 23.11500
H  10.25500 45.97200 21.13900
H  7.94100 47.86300 20.54900
H  10.08800 48.19400 19.32700
H  11.14300 46.77800 19.27700
H  11.49900 48.06200 20.39300
H  7.14800 45.14300 21.62500
H  8.37700 44.93900 20.54800
H  5.78600 45.04900 19.73300
H  7.07300 45.67600 18.56600
H  6.10900 46.72500 19.65500
H  3.84300 48.10200 23.11100
H  2.99700 49.04400 24.39900
H  3.10500 47.35500 24.65500
H  5.67300 49.83300 29.14000
H  3.44600 47.92100 32.24100
H  4.89500 46.97800 32.28900
H  3.57600 46.37700 31.23500

