158

Mg 16.70500 -2.16800 28.14400
C  15.69900 -0.21600 30.77800
C  19.00600 -3.75900 30.24800
C  18.04200 -3.73700 25.56100
C  14.69700 -0.20400 26.01100
N  17.35800 -1.87500 30.28400
C  16.68700 -1.16400 31.20500
C  17.26800 -1.41000 32.65700
C  18.40000 -2.46200 32.30900
C  18.28500 -2.74100 30.83600
C  19.87000 -2.10300 32.74100
C  16.13100 -1.89300 33.64900
C  15.94800 -1.00000 34.89800
H  17.12900 -0.34200 35.70400
N  18.31900 -3.63300 27.95400
C  19.05500 -4.19100 28.91500
C  19.94500 -5.14000 28.37600
C  19.72200 -5.18000 26.95900
C  18.61700 -4.16400 26.74300
C  20.89600 -5.96400 29.29500
C  20.45500 -5.96500 25.86700
O  20.09100 -5.80100 24.74300
C  21.69900 -6.83400 26.14100
N  16.40200 -1.98100 26.03800
C  17.05000 -2.80900 25.18100
C  16.79900 -2.41700 23.80400
C  15.53800 -1.49100 23.97100
C  15.55200 -1.17300 25.46800
C  18.01800 -1.83200 23.02000
C  14.18600 -1.94100 23.42500
C  13.63100 -1.00500 22.32200
N  15.43300 -0.60600 28.28000
C  14.64700 0.02900 27.35600
C  13.80600 1.04800 28.04100
C  14.19200 0.90200 29.34000
C  15.19900 -0.01900 29.46200
C  12.84400 2.00000 27.44100
C  13.93900 1.52200 30.64800
O  13.23300 2.44000 31.00800
C  14.84300 0.64900 31.69200
C  15.57400 1.62700 32.51800
O  16.74400 1.88300 32.43300
O  14.66000 2.16900 33.45000
C  15.21800 3.14800 34.40500
H  19.71900 -4.35600 30.82100
H  18.29700 -4.32600 24.67700
H  14.10400 0.39800 25.32000
H  17.76400 -0.54500 33.09600
H  18.05700 -3.34900 32.84200
H  19.98600 -1.13500 33.23000
H  20.51800 -2.12100 31.86500
H  20.17300 -2.84700 33.47800
H  16.27300 -2.93900 33.92100
H  15.21400 -1.85200 33.06100
H  15.44100 -1.62100 35.63600
H  15.27400 -0.19400 34.60900
H  21.20000 -6.89200 28.81300
H  20.62900 -6.10800 30.34200
H  21.82600 -5.39700 29.32900
H  21.36700 -7.76900 26.59100
H  22.31200 -6.33500 26.89300
H  22.29700 -6.99900 25.24400
H  16.54900 -3.35200 23.30200
H  15.85900 -0.58600 23.45500
H  18.87700 -2.01000 23.66800
H  17.92200 -0.75200 22.90300
H  18.03200 -2.21200 21.99900
H  13.54700 -2.14800 24.28400
H  14.36000 -2.91500 22.96800
H  14.39900 -0.42200 21.81300
H  13.09900 -0.24100 22.88900
H  12.94700 -1.56100 21.68200
H  12.16900 2.35200 28.22100
H  12.22000 1.45500 26.73200
H  13.32800 2.83400 26.93400
H  14.09200 0.12500 32.28300
H  14.97700 4.12000 33.97600
H  16.27000 3.15000 34.68900
H  14.59100 3.11600 35.29600
Mg 17.22900 52.98400 26.57800
C  19.45000 51.50200 29.14300
C  14.97600 53.55300 29.07300
C  15.06500 53.91600 24.16800
C  19.45900 51.71600 24.22600
N  17.31000 52.64300 28.84900
C  18.25500 52.06600 29.65500
C  17.82700 52.28400 31.16400
C  16.32000 52.64700 31.11800
C  16.16800 52.99100 29.59300
C  15.37000 51.54100 31.53200
C  18.61900 53.45200 31.92300
C  18.99000 53.18100 33.35900
H  17.92300 52.36000 34.14500
N  15.38600 53.69100 26.61900
C  14.60800 53.83600 27.72600
C  13.32600 54.42700 27.36300
C  13.44000 54.67100 26.02100
C  14.61600 54.03600 25.53400
C  12.19100 54.79900 28.31800
C  12.52500 55.48300 25.12000
O  12.67000 55.64100 23.89900
C  11.29200 56.03600 25.68100
N  17.20400 52.75100 24.50400
C  16.22900 53.30900 23.68900
C  16.72500 53.53600 22.27100
C  18.09700 52.77900 22.20800
C  18.32600 52.38600 23.77100
C  15.61900 53.14800 21.20700
C  19.22800 53.77600 21.67800
C  20.10600 53.18700 20.55900
N  19.01400 51.82900 26.56200
C  19.79700 51.45800 25.51900
C  21.02100 50.76400 25.96100
C  20.93500 50.77700 27.38400
C  19.68100 51.39400 27.70600
C  22.11900 50.19700 25.05600
C  21.64000 50.44400 28.60900
O  22.71300 49.85200 28.74400
C  20.70800 50.95300 29.83700
C  20.43400 49.81100 30.76000
O  20.18400 48.69300 30.35800
O  20.52100 50.24800 31.99800
C  20.50600 49.21100 33.05700
H  14.30200 53.70000 29.92000
H  14.39700 54.29800 23.39300
H  20.15700 51.44300 23.43300
H  17.92400 51.31900 31.66100
H  16.07800 53.58800 31.61000
H  14.75300 52.01700 32.29500
H  15.75100 50.58400 31.88900
H  14.62900 51.19000 30.81400
H  18.30900 54.49500 31.85900
H  19.55400 53.60100 31.38300
H  18.98900 54.09700 33.94900
H  19.97000 52.73600 33.53400
H  11.21700 54.39900 28.03800
H  12.18300 55.87700 28.47800
H  12.36400 54.54200 29.36300
H  10.49500 55.39400 26.05600
H  10.83300 56.51800 24.81800
H  11.80200 56.65400 26.41900
H  16.93600 54.58700 22.07700
H  17.97900 51.85300 21.64500
H  14.93600 52.40100 21.61200
H  16.22300 52.80900 20.36500
H  15.16000 54.07800 20.87100
H  19.96600 54.16500 22.38000
H  18.89100 54.71100 21.23100
H  20.07500 52.09700 20.53800
H  21.11100 53.55400 20.76800
H  19.86100 53.52600 19.55200
H  21.89200 50.31600 23.99600
H  22.14200 49.13000 25.27500
H  23.08800 50.59000 25.36300
H  21.17800 51.78800 30.35600
H  19.47500 49.17200 33.40900
H  21.23200 49.50600 33.81400
H  20.70500 48.19000 32.73400

