158

Mg 41.09000 9.06600 29.54800
C  42.64600 10.28100 32.45600
C  38.74300 7.57400 31.57500
C  39.44500 8.23000 26.85100
C  43.72900 10.22500 27.65800
N  40.79400 8.95300 31.81300
C  41.50600 9.53500 32.78400
C  40.87800 9.38500 34.16400
C  39.75500 8.23400 33.88700
C  39.71300 8.23400 32.36400
C  40.21400 6.85000 34.42400
C  40.23900 10.74100 34.59700
C  40.22100 11.07300 36.11600
H  41.25100 12.07600 36.67700
N  39.30600 8.20500 29.32900
C  38.51100 7.53000 30.17100
C  37.35800 6.94700 29.54600
C  37.50200 7.25700 28.18300
C  38.78300 7.97100 28.04200
C  36.17400 6.29300 30.28200
C  36.48400 6.98400 26.99600
O  36.68700 7.41100 25.83800
C  35.20200 6.16100 27.15700
N  41.51300 9.37100 27.48000
C  40.68100 8.88600 26.57400
C  41.26400 8.87000 25.13000
C  42.60500 9.64900 25.44100
C  42.61000 9.78300 26.93200
C  41.43300 7.35300 24.51500
C  42.84800 11.05100 24.74500
C  41.99800 12.41700 25.10100
N  42.88600 9.96000 29.94200
C  43.92900 10.35100 29.06400
C  45.00900 10.89800 29.91200
C  44.51000 10.96700 31.18300
C  43.23200 10.37100 31.16100
C  46.21100 11.46700 29.41900
C  44.79300 11.42800 32.47700
O  45.80800 11.99800 32.92800
C  43.64000 10.94300 33.36500
C  44.18600 10.14100 34.36200
O  44.64600 9.01400 34.12200
O  44.06400 10.74700 35.60800
C  44.98200 10.13400 36.55200
H  38.01900 6.95000 32.10200
H  38.90300 7.78800 26.01200
H  44.51400 10.62500 27.01300
H  41.54000 9.02600 34.95300
H  38.76200 8.39500 34.30600
H  39.49600 6.59700 35.20400
H  41.22300 6.79500 34.83100
H  40.19400 6.12400 33.61100
H  39.16400 10.64600 34.44000
H  40.63300 11.56100 33.99600
H  40.30600 10.11900 36.63500
H  39.27100 11.51800 36.41100
H  36.32200 6.23400 31.36000
H  36.04600 5.32000 29.80900
H  35.28500 6.91900 30.20000
H  35.55000 5.14800 27.35900
H  34.63400 6.07500 26.23100
H  34.74200 6.48300 28.09200
H  40.71600 9.55500 24.48200
H  43.48700 9.03000 25.27900
H  40.76000 6.68500 25.05200
H  42.38900 6.83200 24.56800
H  41.08200 7.44000 23.48700
H  42.74400 11.06800 23.66000
H  43.88700 11.22200 25.02700
H  41.38900 12.18300 25.97400
H  41.21500 12.61300 24.36900
H  42.59500 13.23700 25.50200
H  46.80200 10.91700 28.68700
H  46.92400 11.52700 30.24200
H  46.10100 12.48500 29.04500
H  43.05200 11.77900 33.74400
H  45.96700 9.81400 36.21300
H  44.46500 9.28800 37.00400
H  45.14300 10.82300 37.38100
Mg 27.03800 49.76600 26.63600
C  25.09100 50.66300 29.42400
C  29.66700 49.21600 28.81800
C  28.89300 49.04200 23.99300
C  24.37100 50.58400 24.57700
N  27.31400 50.00600 28.84700
C  26.33000 50.27200 29.82700
C  26.78300 49.97400 31.21600
C  28.33200 49.73000 30.95500
C  28.45500 49.57200 29.45900
C  29.35700 50.73600 31.55800
C  25.96500 48.80900 31.94300
C  25.40300 49.24400 33.31600
H  26.34700 49.98600 34.31400
N  29.02200 49.19600 26.48200
C  29.95000 49.03200 27.48600
C  31.25300 48.68100 26.93300
C  31.03000 48.58100 25.52500
C  29.58400 48.97800 25.26500
C  32.46300 48.23500 27.74800
C  32.05200 48.33100 24.37500
O  31.84200 48.58600 23.17600
C  33.35100 47.77200 24.81400
N  26.77600 49.74500 24.65000
C  27.63400 49.39800 23.69900
C  27.04100 49.27700 22.29400
C  25.56400 49.63600 22.53700
C  25.56600 50.08400 24.04600
C  27.64100 50.13500 21.18500
C  24.61600 48.43900 22.17700
C  23.28500 48.81100 21.39200
N  25.21600 50.59500 26.89200
C  24.24500 50.93100 25.90600
C  23.10500 51.50100 26.61900
C  23.41300 51.39600 27.98400
C  24.64200 50.80800 28.09100
C  21.87300 51.98200 25.93900
C  22.75000 51.51200 29.34700
O  21.64400 51.83600 29.64900
C  23.93200 51.14400 30.34300
C  24.34600 52.32900 31.07600
O  25.22000 53.20000 30.76000
O  23.71700 52.24000 32.26900
C  23.80900 53.39200 33.25600
H  30.47400 48.89500 29.47900
H  29.48400 48.82700 23.10000
H  23.56600 50.75100 23.85900
H  26.75300 50.92300 31.75100
H  28.53200 48.78700 31.46400
H  30.11100 51.11300 30.86700
H  29.97600 50.26100 32.31900
H  28.92500 51.57900 32.09900
H  26.54100 47.88900 32.04300
H  25.18300 48.54100 31.23300
H  25.03800 48.36300 33.84400
H  24.54000 49.87000 33.09300
H  32.70800 47.17400 27.80700
H  32.30000 48.45200 28.80400
H  33.31200 48.86100 27.47500
H  33.94700 48.54000 25.30700
H  33.78000 47.34900 23.90600
H  33.12100 46.90800 25.43800
H  27.11900 48.22000 22.03800
H  25.28400 50.60600 22.12700
H  28.34600 49.58000 20.56700
H  28.29900 50.77900 21.76700
H  26.97500 50.72200 20.55300
H  24.36500 47.85300 23.06200
H  25.15300 47.78900 21.48600
H  23.37300 49.84300 21.05300
H  22.37000 48.76000 21.98300
H  23.10700 48.23100 20.48700
H  21.75500 51.85400 24.86300
H  21.91600 53.05300 26.13600
H  20.93000 51.63900 26.36500
H  23.56400 50.34300 30.98300
H  24.56200 53.17700 34.01400
H  22.85500 53.43400 33.78200
H  23.99600 54.34000 32.75300

