158

Mg 1.00100 8.36100 26.40300
C  1.81500 10.22800 29.11700
C  1.19600 5.49900 28.46700
C  0.79400 6.49500 23.67400
C  1.37800 11.19600 24.35000
N  1.41900 7.93000 28.57000
C  1.51600 8.91100 29.44300
C  1.52600 8.36400 30.90400
C  1.56600 6.74800 30.68300
C  1.40500 6.71200 29.11200
C  2.82600 5.95800 31.21700
C  0.32800 8.95100 31.79500
C  -0.09700 8.28300 33.16800
H  1.07200 7.71300 33.97100
N  0.95500 6.25000 26.10700
C  1.09600 5.23600 27.06000
C  1.03400 3.99200 26.39100
C  0.79700 4.28400 24.95000
C  0.89200 5.75600 24.86600
C  0.96800 2.71900 27.13400
C  0.51600 3.33000 23.87100
O  -0.02600 3.69000 22.83200
C  0.72200 1.94300 24.04400
N  1.05200 8.85600 24.31900
C  0.77800 7.85500 23.44400
C  0.62300 8.39900 22.01100
C  0.46600 9.93200 22.31800
C  0.98900 10.06100 23.75900
C  1.76400 7.90500 21.09200
C  -0.95300 10.45900 22.15600
C  -1.33000 10.70600 20.69500
N  1.67000 10.29100 26.61100
C  1.82200 11.31300 25.69500
C  2.13300 12.51600 26.42500
C  2.21300 12.14100 27.74400
C  1.88800 10.77300 27.81400
C  2.46400 13.83400 25.81800
C  2.58800 12.54400 29.08900
O  2.89500 13.68200 29.49100
C  2.22500 11.33700 30.07000
C  3.45200 10.93600 30.79100
O  4.38400 10.23600 30.27500
O  3.51000 11.52200 32.02500
C  4.76600 11.49900 32.77000
H  1.17400 4.60300 29.09000
H  0.65400 5.85100 22.80400
H  1.37300 12.11300 23.75700
H  2.50600 8.63500 31.29700
H  0.64000 6.23800 30.94800
H  3.57500 6.53700 31.75700
H  3.28300 5.45300 30.36600
H  2.44200 5.24800 31.95000
H  -0.53000 8.93800 31.12200
H  0.59100 9.99100 31.99200
H  -0.86900 7.52600 33.03000
H  -0.56000 9.04700 33.79300
H  0.26300 2.01000 26.70000
H  0.74600 2.76800 28.20000
H  1.91500 2.18600 27.04300
H  1.66200 1.71700 24.54700
H  0.86500 1.56200 23.03300
H  -0.13100 1.40500 24.45900
H  -0.25100 8.00300 21.49500
H  1.13300 10.54300 21.71100
H  2.34300 7.09600 21.53800
H  2.51000 8.69700 21.16500
H  1.41400 7.76400 20.07000
H  -1.01700 11.30200 22.84500
H  -1.59200 9.70100 22.60800
H  -0.50300 10.44200 20.03500
H  -1.36500 11.79000 20.58400
H  -2.31300 10.38000 20.35500
H  1.48300 14.30700 25.84000
H  3.03100 13.81600 24.88700
H  3.06200 14.41400 26.52200
H  1.53800 11.76600 30.80000
H  5.05700 12.52700 32.98300
H  5.56500 10.83900 32.43200
H  4.51300 11.20900 33.79000
Mg 47.13600 16.43800 28.75000
C  45.23500 16.29000 31.71700
C  49.24900 18.46900 30.27900
C  48.54700 17.01000 25.65800
C  44.34800 15.20800 26.99500
N  47.21000 17.28800 30.79100
C  46.44500 16.95600 31.92800
C  47.05700 17.58300 33.09800
C  48.19400 18.50300 32.59500
C  48.25000 18.03400 31.12700
C  48.17100 20.07900 32.83000
C  47.44700 16.53700 34.20500
C  47.16000 16.92400 35.68500
H  47.21300 18.47000 36.20200
N  48.76700 17.38500 28.09000
C  49.55500 18.16600 28.92400
C  50.71200 18.64900 28.18900
C  50.60000 18.06900 26.87100
C  49.25900 17.41400 26.79100
C  51.79100 19.49900 28.74500
C  51.67800 18.07300 25.71100
O  51.48100 17.60500 24.62400
C  52.97500 18.84800 25.90200
N  46.58900 16.08000 26.58700
C  47.34600 16.43000 25.55300
C  46.55800 16.24900 24.25200
C  45.28500 15.43700 24.66300
C  45.43400 15.61500 26.17100
C  46.31300 17.72300 23.68100
C  45.27600 13.85900 24.22500
C  44.30500 13.53800 23.07900
N  45.26100 15.71700 29.15500
C  44.30200 15.18600 28.41500
C  43.17300 14.73000 29.28600
C  43.53700 15.24300 30.52300
C  44.76800 15.80400 30.48900
C  41.84100 14.05600 28.79800
C  43.02900 15.31200 31.83800
O  41.96900 14.96800 32.29700
C  44.16900 15.87300 32.68500
C  43.53100 16.95400 33.52600
O  42.90100 17.92600 33.13100
O  43.81100 16.69400 34.85600
C  43.26000 17.58500 35.91700
H  49.89200 19.10700 30.88900
H  49.09500 17.13500 24.72200
H  43.52000 14.85100 26.37800
H  46.35100 18.20100 33.65300
H  49.12700 18.10900 32.99800
H  47.91800 20.54500 31.87800
H  49.07700 20.48900 33.27600
H  47.40600 20.24300 33.58900
H  48.52500 16.38300 34.27100
H  47.05500 15.54700 33.97300
H  47.83400 16.35600 36.32500
H  46.16700 16.52800 35.89800
H  51.58100 19.68400 29.79900
H  51.67900 20.39200 28.13000
H  52.76100 19.02700 28.58800
H  52.80200 19.81500 26.37500
H  53.44400 18.96000 24.92500
H  53.52800 18.11600 26.49100
H  47.27800 15.73800 23.61300
H  44.33900 15.92100 24.41900
H  45.28700 17.70700 23.31600
H  47.01200 17.96900 22.88100
H  46.30600 18.42700 24.51300
H  45.16000 13.31300 25.16100
H  46.30000 13.61300 23.94700
H  43.96000 14.43500 22.56500
H  43.37000 13.11100 23.44000
H  44.73300 12.83200 22.36800
H  42.10500 13.00300 28.70000
H  41.34600 14.51700 27.94400
H  41.19600 14.16200 29.67000
H  44.55900 15.15000 33.40200
H  42.17300 17.51800 35.92100
H  43.66800 18.56600 35.67200
H  43.66100 17.37700 36.91000

