158

Mg 2.19900 -3.38200 45.33000
C  5.53700 -2.75500 44.54500
C  1.36500 -0.71700 43.25200
C  -0.97400 -4.53400 45.30700
C  3.12100 -6.20000 46.96600
N  3.32600 -2.02600 43.99100
C  4.70200 -1.95000 43.85700
C  5.08500 -0.88600 42.92200
C  3.80900 0.01300 42.87000
C  2.74600 -0.95700 43.36300
C  3.85900 1.21300 43.80100
C  5.64900 -1.40100 41.50700
C  6.99000 -1.01500 41.10300
H  7.18700 -0.47400 39.66800
N  0.45400 -2.68400 44.40900
C  0.31000 -1.53500 43.59000
C  -1.00900 -1.45100 43.11700
C  -1.72900 -2.48200 43.74000
C  -0.72600 -3.33500 44.54700
C  -1.39200 -0.42900 42.09400
C  -3.19700 -2.73200 43.50100
O  -3.89200 -1.98800 42.81200
C  -3.88600 -3.83300 44.04100
N  1.21000 -5.09800 46.04300
C  -0.09200 -5.35000 45.91500
C  -0.55000 -6.57500 46.64100
C  0.77500 -7.17500 47.19000
C  1.79300 -6.12800 46.71300
C  -1.65200 -6.29300 47.68400
C  1.07500 -8.63400 46.60300
C  0.06900 -9.78500 46.85500
N  3.97200 -4.28000 45.82600
C  4.21200 -5.39600 46.54600
C  5.60900 -5.68200 46.68800
C  6.22600 -4.64400 45.88500
C  5.16900 -3.81700 45.38900
C  6.09300 -6.90400 47.30300
C  7.46300 -4.15200 45.34000
O  8.59000 -4.47800 45.56700
C  7.03400 -2.94500 44.40200
C  7.93500 -1.87200 44.75300
O  8.93500 -1.58000 44.07000
O  7.45600 -1.09700 45.79500
C  8.03900 0.24700 45.96100
H  1.07100 0.13900 42.64200
H  -2.00400 -4.87100 45.44200
H  3.38300 -7.10500 47.51900
H  5.83400 -0.39100 43.54000
H  3.71800 0.43600 41.87000
H  3.93100 2.14100 43.23500
H  4.54700 1.10300 44.64000
H  2.85800 1.25300 44.23100
H  4.91400 -1.18200 40.73300
H  5.70800 -2.48100 41.64400
H  7.62400 -1.85700 41.38000
H  7.39400 -0.24800 41.76400
H  -2.05600 -0.83400 41.33000
H  -0.65900 0.14900 41.53100
H  -1.90400 0.35000 42.66000
H  -3.33600 -4.77200 43.98500
H  -4.88000 -4.02900 43.64000
H  -3.96800 -3.54600 45.08900
H  -0.95200 -7.16200 45.81600
H  0.86400 -7.07800 48.27200
H  -1.19000 -6.38000 48.66700
H  -2.49100 -6.97900 47.57000
H  -2.00900 -5.26400 47.62800
H  2.10700 -8.94600 46.76500
H  1.10600 -8.48100 45.52500
H  0.58500 -10.58100 47.38900
H  -0.17300 -10.16300 45.86100
H  -0.85700 -9.55800 47.38300
H  5.65100 -7.78000 46.82700
H  5.88700 -6.91400 48.37300
H  7.17500 -6.91700 47.17000
H  7.25900 -3.27400 43.38700
H  7.39700 0.89900 46.55200
H  8.07400 0.73800 44.98800
H  9.07600 0.27400 46.29500
Mg 17.17200 51.28900 25.77600
C  18.83600 50.27300 28.58900
C  14.46500 52.08100 27.69700
C  15.59000 52.47600 22.99800
C  19.77400 50.04300 23.80900
N  16.69100 51.13600 27.91200
C  17.52700 50.74900 28.87100
C  16.91200 51.04800 30.27100
C  15.44800 51.40600 30.02600
C  15.54700 51.60700 28.47700
C  14.41700 50.27000 30.39700
C  17.70800 52.16400 31.09500
C  17.99800 51.84900 32.52500
H  17.13400 52.51600 33.59500
N  15.28700 52.25000 25.41100
C  14.33100 52.45200 26.33700
C  13.16200 53.06600 25.73400
C  13.48500 53.28100 24.35800
C  14.86100 52.66800 24.21500
C  11.87500 53.40600 26.52700
C  12.59300 53.93800 23.26900
O  12.94600 53.98800 22.06000
C  11.33000 54.54900 23.59200
N  17.68700 51.36000 23.76800
C  16.84300 51.89300 22.79200
C  17.39200 51.63300 21.36800
C  18.84900 51.21500 21.71100
C  18.82000 50.82300 23.16800
C  16.59200 50.66400 20.52100
C  19.94700 52.21400 21.32000
C  21.02100 51.57600 20.45500
N  18.93700 50.34600 26.07900
C  19.88200 49.80200 25.16900
C  21.05400 49.27800 25.90000
C  20.70800 49.47400 27.21300
C  19.40400 50.06700 27.29600
C  22.31400 48.67400 25.24900
C  21.16900 49.31500 28.56100
O  22.23200 48.86400 29.03900
C  19.96300 49.87000 29.52600
C  19.63100 48.79400 30.51400
O  19.09600 47.69900 30.22900
O  20.09100 49.16100 31.74500
C  19.95300 48.25300 32.89100
H  13.55900 52.15700 28.30100
H  14.93700 52.66900 22.14500
H  20.58500 49.73900 23.14400
H  17.06000 50.19200 30.92800
H  15.25900 52.38800 30.45800
H  13.38400 50.61500 30.34700
H  14.56300 49.88900 31.40700
H  14.57000 49.48400 29.65700
H  16.99100 52.98300 31.15500
H  18.67600 52.37300 30.64000
H  19.04800 52.12300 32.63100
H  18.03900 50.77400 32.70000
H  11.86400 54.49400 26.45800
H  11.87500 53.12700 27.58100
H  11.03600 52.98000 25.97700
H  10.87500 55.08300 22.75700
H  11.70100 55.39900 24.16400
H  10.58500 53.96000 24.12800
H  17.31200 52.53100 20.75600
H  19.03900 50.25000 21.24000
H  16.52200 51.10300 19.52600
H  15.56700 50.65400 20.89200
H  17.05300 49.67700 20.48500
H  20.44600 52.65400 22.18400
H  19.58600 52.96500 20.61800
H  20.65300 51.53000 19.43000
H  21.29400 50.62800 20.91700
H  21.96500 52.10800 20.33800
H  22.00900 48.08700 24.38300
H  22.90200 48.04700 25.92000
H  22.96600 49.51800 25.02900
H  20.39000 50.63500 30.17500
H  19.19400 47.48600 32.73900
H  19.79700 48.91100 33.74600
H  20.96500 47.84900 32.93000

