158

Mg 46.81900 44.45400 42.18400
C  43.38800 43.51400 42.09700
C  47.62200 41.03100 42.00200
C  49.93900 45.25400 41.76100
C  45.75500 47.79600 41.76100
N  45.58800 42.51100 41.91700
C  44.20000 42.38700 41.97100
C  43.72000 40.92900 41.90000
C  45.05300 40.08200 42.01300
C  46.22800 41.23000 41.91200
C  45.23400 39.10500 43.23600
C  42.84400 40.60900 40.59000
C  43.11000 41.46300 39.29700
H  43.20300 40.60600 38.01000
N  48.56600 43.26900 41.91200
C  48.72800 41.95400 42.03200
C  50.12800 41.67400 41.93300
C  50.85300 42.87100 41.69800
C  49.77500 43.86400 41.79500
C  50.62000 40.27600 42.02000
C  52.33700 42.92600 41.42400
O  53.04700 41.91900 41.56400
C  52.97300 44.19100 40.92100
N  47.76900 46.25500 41.78300
C  49.12100 46.38100 41.82600
C  49.49100 47.81100 41.81200
C  48.12600 48.63100 41.84100
C  47.14000 47.46200 41.77700
C  50.41800 48.23500 43.04500
C  47.93500 49.65600 40.65000
C  47.49700 50.98400 41.11600
N  44.97000 45.50900 41.98700
C  44.69000 46.84100 41.83300
C  43.28500 47.09000 41.93400
C  42.70800 45.82600 42.06600
C  43.79400 44.87600 42.05000
C  42.53100 48.40300 41.93400
C  41.48500 45.11900 42.31600
O  40.33500 45.46900 42.45900
C  41.90900 43.65300 42.35000
C  41.54800 43.01200 43.53400
O  40.77800 42.06000 43.65300
O  42.03200 43.76900 44.58500
C  41.98600 43.13900 45.90300
H  47.90500 39.98200 42.11200
H  50.97800 45.59000 41.76800
H  45.38900 48.82400 41.70800
H  43.25800 40.63000 42.84100
H  45.10300 39.40500 41.16000
H  46.29100 39.17400 43.49300
H  45.05500 38.08300 42.90400
H  44.61200 39.21900 44.12300
H  41.85400 40.82400 40.99300
H  42.85400 39.54100 40.37100
H  44.02500 42.03700 39.44100
H  42.31400 42.16100 39.03900
H  51.11600 40.07900 41.07000
H  49.86700 39.49600 42.14000
H  51.39500 40.23800 42.78600
H  52.16200 44.61000 40.32600
H  53.71700 43.96600 40.15800
H  53.33000 44.83300 41.72600
H  50.03800 47.93600 40.87800
H  47.94500 49.13300 42.79200
H  51.32000 48.61600 42.56700
H  50.70300 47.43300 43.72700
H  49.98900 49.01500 43.67400
H  47.13400 49.30600 39.99900
H  48.80700 49.74000 40.00300
H  46.60400 51.30400 40.57900
H  48.32400 51.64900 40.86900
H  47.19300 51.07100 42.15900
H  41.90100 48.48600 42.82000
H  42.00600 48.47000 40.98100
H  43.26200 49.21100 41.96900
H  41.44300 43.15900 41.49700
H  40.94000 42.92300 46.12200
H  42.53600 43.80100 46.57100
H  42.55200 42.21200 45.99200
Mg 48.02100 34.62100 27.26800
C  45.87700 33.07200 29.76600
C  48.67100 37.16900 29.52700
C  49.22100 36.32800 24.84900
C  47.10400 31.99400 25.23600
N  47.25700 35.02000 29.26900
C  46.49400 34.24300 30.18700
C  46.77500 34.79600 31.59800
C  47.03900 36.33200 31.35500
C  47.75800 36.15300 29.97400
C  45.85000 37.24300 31.29900
C  47.99400 34.03400 32.39100
C  47.60400 33.54800 33.84000
H  48.07900 34.38600 35.01100
N  48.90200 36.45300 27.16000
C  49.17600 37.29600 28.24700
C  49.81000 38.54300 27.75800
C  50.02700 38.26700 26.34300
C  49.33600 36.99300 26.07800
C  50.24000 39.67400 28.62200
C  50.69300 39.22600 25.45000
O  50.80100 38.98600 24.29200
C  51.03000 40.61700 25.92800
N  48.10300 34.25700 25.29400
C  48.77000 35.12700 24.51000
C  48.78900 34.58600 23.00900
C  48.29400 33.07300 23.21300
C  47.74500 33.11000 24.67700
C  47.94300 35.44100 21.98200
C  49.40800 32.01100 23.10900
C  50.71600 32.00600 23.95900
N  46.82500 32.90400 27.43800
C  46.59400 31.87600 26.57000
C  45.76300 30.85600 27.07700
C  45.47600 31.25400 28.34500
C  46.09400 32.52200 28.49200
C  45.63000 29.55200 26.40900
C  44.82200 30.90800 29.58200
O  44.20300 29.95800 29.95700
C  44.98600 32.12400 30.53100
C  45.49000 31.60500 31.76600
O  46.60700 31.12900 31.86700
O  44.48400 31.56200 32.71200
C  44.84000 30.83700 33.97900
H  48.88700 37.89700 30.31200
H  49.73900 36.81000 24.01700
H  46.86200 31.31500 24.41600
H  45.82500 34.81500 32.13200
H  47.68600 36.80200 32.09600
H  44.98500 36.58300 31.23900
H  45.81800 37.87500 30.41100
H  45.74700 37.84600 32.20200
H  48.87200 34.67500 32.47500
H  48.37300 33.16400 31.85500
H  47.85000 32.50800 34.05400
H  46.53300 33.63400 34.02000
H  51.31800 39.81300 28.69400
H  50.01200 39.41500 29.65600
H  49.68000 40.55000 28.29600
H  50.20200 41.19200 26.34200
H  51.28400 41.28500 25.10600
H  51.86200 40.61800 26.63300
H  49.82800 34.51700 22.68800
H  47.55000 32.81200 22.46100
H  48.55600 36.23300 21.55100
H  47.06900 35.91700 22.42800
H  47.53000 34.77400 21.22500
H  49.81500 32.23200 22.12200
H  49.07100 30.97500 23.08700
H  50.75800 31.01100 24.40100
H  50.69700 32.78300 24.72300
H  51.57500 32.05300 23.28900
H  46.08300 28.83000 27.08900
H  46.28500 29.55000 25.53800
H  44.63000 29.25100 26.09800
H  44.01600 32.60500 30.65000
H  45.19400 31.63400 34.63400
H  45.54400 30.01700 33.83700
H  43.97300 30.37200 34.44700

