158

Mg 24.59800 -5.31600 45.48400
C  26.90600 -3.13200 43.84200
C  22.21700 -4.30900 43.43200
C  22.83900 -7.94100 46.50300
C  27.52300 -6.62200 47.27800
N  24.66000 -3.92400 43.79500
C  25.59000 -3.06300 43.34900
C  25.06300 -2.09600 42.25500
C  23.51200 -2.27000 42.52600
C  23.42300 -3.57800 43.32100
C  22.90400 -1.10000 43.26400
C  25.72600 -2.73000 40.91400
C  26.44200 -1.73000 40.01800
H  26.17000 -1.99400 38.50600
N  22.72900 -6.08200 44.90600
C  21.88200 -5.52200 44.08300
C  20.63000 -6.25300 44.10200
C  20.76700 -7.28600 45.12100
C  22.10200 -7.06700 45.62400
C  19.44900 -5.97400 43.10100
C  19.73700 -8.40300 45.47000
O  18.64400 -8.44300 44.89300
C  19.89200 -9.29400 46.72600
N  25.12200 -7.08500 46.69600
C  24.10400 -7.89800 47.06100
C  24.76200 -9.07300 47.87400
C  26.16300 -8.53700 48.35400
C  26.30400 -7.39500 47.41600
C  23.85800 -9.69200 48.92500
C  27.27300 -9.59500 48.20100
C  28.37600 -9.70000 49.28900
N  26.76100 -4.86100 45.74000
C  27.76900 -5.50400 46.40200
C  29.04700 -4.86100 46.18700
C  28.75500 -3.84000 45.28000
C  27.36300 -3.96900 44.92800
C  30.33800 -5.17100 46.88900
C  29.34200 -2.77600 44.48600
O  30.49700 -2.34400 44.39800
C  28.16500 -2.33000 43.43300
C  27.92900 -0.85800 43.55700
O  27.08400 -0.32500 44.25300
O  28.64000 -0.25600 42.53100
C  28.24800 1.15900 42.34100
H  21.36800 -3.84400 42.92700
H  22.40200 -8.92700 46.67600
H  28.30200 -7.11900 47.86000
H  25.37300 -1.08200 42.51000
H  22.98600 -2.45600 41.59000
H  21.90500 -0.93300 42.86300
H  23.42800 -0.15300 43.13500
H  22.87100 -1.13000 44.35300
H  24.92600 -3.14900 40.30200
H  26.40600 -3.55800 41.11100
H  27.50900 -1.91200 40.14800
H  26.18700 -0.72600 40.35700
H  18.47700 -6.25000 43.51000
H  19.69300 -6.44400 42.14800
H  19.28700 -4.92500 42.85000
H  20.46300 -8.68400 47.42500
H  20.28100 -10.27500 46.45400
H  18.89800 -9.32200 47.17400
H  24.97600 -9.75800 47.05400
H  26.09500 -8.17700 49.38100
H  22.90800 -9.17200 48.80300
H  24.23800 -9.71500 49.94600
H  23.74900 -10.69500 48.51200
H  27.77900 -9.42800 47.25000
H  26.85400 -10.60200 48.19600
H  28.46200 -10.72100 49.66000
H  28.13900 -9.04800 50.13000
H  29.32400 -9.21900 49.04700
H  30.14400 -5.13400 47.96100
H  31.07200 -4.40500 46.64100
H  30.58300 -6.19600 46.60800
H  28.60400 -2.57000 42.46500
H  27.29300 1.45400 42.77500
H  28.09500 1.41600 41.29200
H  28.98800 1.89000 42.66800
Mg 16.70300 52.17000 25.78900
C  18.30600 50.70000 28.42400
C  14.36600 53.49400 27.86700
C  14.98600 53.51500 23.07100
C  19.18900 51.04700 23.47200
N  16.48900 52.25700 27.90900
C  17.23600 51.51000 28.83900
C  16.73300 51.82400 30.29300
C  15.35800 52.46100 30.07100
C  15.37500 52.74500 28.53200
C  14.15200 51.47200 30.46200
C  17.75200 52.74600 31.01200
C  18.31700 52.15200 32.31500
H  17.83300 52.87700 33.55300
N  14.93200 53.29000 25.49300
C  14.15400 53.69600 26.47400
C  13.01300 54.44600 25.89800
C  13.06100 54.41300 24.55700
C  14.30600 53.67400 24.26800
C  11.97100 55.08600 26.83900
C  12.15900 54.97300 23.49400
O  12.37100 54.85200 22.31600
C  10.84000 55.63400 23.90800
N  16.95900 52.11300 23.54900
C  16.14400 52.83400 22.68400
C  16.70900 52.73000 21.23100
C  18.15800 52.20700 21.45800
C  18.14500 51.79400 22.92800
C  15.82100 51.92100 20.26300
C  19.40600 53.09300 21.03400
C  20.59800 52.30400 20.62900
N  18.41700 51.05400 25.89300
C  19.29100 50.66100 24.90900
C  20.28900 49.78000 25.59100
C  19.93600 49.80200 26.96600
C  18.80300 50.59800 27.07800
C  21.38100 49.14100 24.90100
C  20.41700 49.39700 28.20600
O  21.45900 48.87800 28.59300
C  19.41900 50.02000 29.28200
C  19.03100 48.96400 30.25700
O  18.05200 48.25000 30.10300
O  19.84000 49.00200 31.34400
C  19.40500 48.25000 32.49900
H  13.56700 53.79500 28.54800
H  14.49200 53.96100 22.20500
H  19.96100 50.71100 22.77600
H  16.64600 50.89900 30.86400
H  15.21100 53.35100 30.68300
H  13.53300 52.18000 31.01300
H  14.44800 50.60800 31.05800
H  13.65200 51.23300 29.52400
H  17.29000 53.72100 31.16400
H  18.63400 52.95400 30.40600
H  19.40700 52.13600 32.27600
H  18.00600 51.16200 32.65000
H  11.94800 56.14300 26.57200
H  12.18500 55.08900 27.90700
H  10.98400 54.62500 26.79400
H  10.18600 54.99600 24.50300
H  10.33300 55.95100 22.99700
H  10.97000 56.51700 24.53400
H  16.68900 53.77900 20.93600
H  18.40600 51.29100 20.92200
H  16.45600 51.05500 20.08100
H  15.62200 52.38200 19.29500
H  14.84200 51.69600 20.68600
H  19.69400 53.59800 21.95600
H  19.19800 53.87900 20.30800
H  21.25900 52.34600 21.49400
H  21.05400 52.82400 19.78600
H  20.35100 51.30500 20.26900
H  21.16600 49.16600 23.83200
H  21.38900 48.07700 25.13600
H  22.34400 49.57400 25.17100
H  20.02100 50.75000 29.82300
H  18.56500 48.79400 32.93200
H  20.17200 48.09700 33.25700
H  19.01900 47.24000 32.35700

