158

Mg -11.49200 38.00900 41.98000
C  -9.49900 35.29500 40.89600
C  -9.29300 40.10600 40.37900
C  -13.64700 40.43500 42.48600
C  -14.02800 35.60300 42.87000
N  -9.59400 37.71000 40.83900
C  -8.90300 36.52100 40.56700
C  -7.58800 36.75400 39.78600
C  -7.45300 38.31800 39.86200
C  -8.91300 38.73800 40.36200
C  -6.38800 38.85200 40.83000
C  -7.66100 36.22100 38.34100
C  -6.51500 35.32600 37.84500
H  -5.79100 35.79100 36.57900
N  -11.36600 40.04600 41.52400
C  -10.40400 40.72400 40.86500
C  -10.70900 42.16300 40.80400
C  -11.97700 42.31400 41.50900
C  -12.38400 40.92700 41.88800
C  -9.87300 43.23600 40.08300
C  -12.67200 43.59000 41.77500
O  -12.17200 44.60200 41.31800
C  -13.99100 43.69700 42.42800
N  -13.63700 37.93800 42.34000
C  -14.20900 39.14200 42.62500
C  -15.63700 38.98700 43.19600
C  -15.81000 37.43300 43.31500
C  -14.46600 36.90900 42.74100
C  -15.85100 39.75200 44.56600
C  -17.04700 36.83200 42.59400
C  -18.29100 36.82600 43.57200
N  -11.70000 35.90800 42.04400
C  -12.71200 35.06300 42.49700
C  -12.17400 33.72900 42.53900
C  -10.99600 33.80600 41.80600
C  -10.74700 35.14600 41.55100
C  -12.85800 32.55600 43.15000
C  -9.93500 32.94000 41.26400
O  -9.84800 31.70500 41.49800
C  -8.86400 33.86800 40.68100
C  -7.64700 33.58100 41.41200
O  -7.53200 33.41000 42.59800
O  -6.61900 33.56300 40.56900
C  -5.30100 33.73900 41.11900
H  -8.59200 40.68900 39.77800
H  -14.18800 41.26900 42.93800
H  -14.83200 34.95600 43.22800
H  -6.80300 36.26100 40.36000
H  -7.25000 38.81600 38.91300
H  -5.58600 38.11400 40.82300
H  -6.77700 39.10300 41.81700
H  -6.02400 39.73100 40.30000
H  -7.76500 37.12000 37.73200
H  -8.59700 35.70300 38.13400
H  -6.86500 34.31300 37.64500
H  -5.70600 35.15300 38.55400
H  -8.94300 42.81100 39.70700
H  -9.50800 44.01700 40.75000
H  -10.46100 43.67600 39.27700
H  -14.72600 43.07600 41.91600
H  -14.44600 44.68600 42.46700
H  -13.87900 43.38700 43.46700
H  -16.30600 39.43900 42.46300
H  -15.88800 37.14600 44.36400
H  -16.32200 39.24500 45.40800
H  -16.53500 40.55700 44.29600
H  -14.88600 40.14400 44.88800
H  -16.81500 35.80000 42.33000
H  -17.21200 37.50800 41.75500
H  -18.06900 35.93600 44.16000
H  -19.21900 36.56300 43.06400
H  -18.26200 37.73100 44.17800
H  -12.71900 31.68000 42.51700
H  -13.93000 32.74900 43.12600
H  -12.57100 32.36900 44.18500
H  -8.69800 33.70100 39.61600
H  -5.19300 32.89700 41.80400
H  -5.29200 34.58500 41.80600
H  -4.54900 33.78800 40.33200
Mg -2.50900 34.33900 26.64500
C  -3.96200 32.60100 29.24100
C  -0.85400 36.28000 29.02200
C  -1.06100 35.98700 24.21300
C  -4.37100 32.47700 24.36500
N  -2.55500 34.41400 28.95400
C  -3.22300 33.62700 29.78500
C  -2.86700 33.84000 31.21900
C  -2.02600 35.24800 31.15100
C  -1.74100 35.35900 29.62200
C  -2.60400 36.51700 31.76800
C  -2.06500 32.68900 31.87000
C  -2.65000 32.15900 33.18900
H  -1.76600 32.32300 34.45400
N  -1.12600 35.91300 26.65900
C  -0.54200 36.51100 27.70900
C  0.40500 37.53000 27.21100
C  0.34000 37.48900 25.81400
C  -0.69500 36.46600 25.48300
C  1.24700 38.39700 28.12700
C  1.03700 38.37300 24.79600
O  0.80700 38.36400 23.59500
C  2.18200 39.25200 25.17500
N  -2.77900 34.29600 24.54700
C  -2.00800 35.05100 23.76400
C  -2.32100 34.82900 22.33600
C  -3.44800 33.74700 22.31200
C  -3.45800 33.40700 23.82200
C  -2.58700 36.05700 21.49200
C  -3.24900 32.52000 21.37000
C  -4.33500 32.03200 20.45000
N  -3.96400 32.93500 26.69400
C  -4.65900 32.28200 25.68600
C  -5.45900 31.23400 26.29800
C  -5.15200 31.27900 27.65700
C  -4.23500 32.35000 27.86600
C  -6.36100 30.17700 25.61100
C  -5.47000 30.62300 28.86400
O  -6.23600 29.71200 29.05800
C  -4.70000 31.40700 29.98200
C  -5.75500 31.87700 30.88800
O  -6.50200 32.80700 30.64100
O  -5.77800 31.14100 32.02200
C  -6.64700 31.58800 33.15700
H  -0.35500 36.81000 29.83600
H  -0.59900 36.58900 23.42800
H  -4.87700 31.84400 23.63300
H  -3.79000 34.01900 31.77000
H  -1.06800 35.07700 31.64100
H  -3.68100 36.68600 31.77100
H  -2.14500 37.38200 31.28900
H  -2.22600 36.70900 32.77200
H  -1.04500 32.93300 32.16700
H  -2.07900 31.84600 31.17900
H  -2.68200 31.07100 33.12000
H  -3.65200 32.54800 33.37100
H  1.28900 37.90400 29.09800
H  0.77700 39.37100 28.26000
H  2.25300 38.52100 27.72800
H  2.45000 39.89200 24.33500
H  2.97700 38.56500 25.46700
H  1.92300 39.94900 25.97200
H  -1.48400 34.33600 21.84000
H  -4.41700 34.20800 22.11900
H  -2.36200 36.95500 22.06700
H  -3.56900 36.02600 21.02000
H  -1.94100 35.80400 20.65100
H  -3.04400 31.62500 21.95700
H  -2.37900 32.69000 20.73600
H  -4.10400 32.33000 19.42700
H  -5.30200 32.35000 20.84000
H  -4.33000 30.94300 20.41300
H  -5.87600 29.23900 25.34000
H  -6.78000 30.56200 24.68100
H  -7.13000 29.89600 26.32900
H  -4.13900 30.66500 30.55100
H  -7.39900 32.23400 32.70500
H  -6.11800 32.19500 33.89200
H  -7.04500 30.67300 33.59700

