158

Mg 26.61300 50.45200 25.99600
C  24.83300 51.40300 28.85300
C  29.39700 49.53800 28.14900
C  28.57400 49.74900 23.34900
C  24.27300 51.76800 24.04900
N  27.02400 50.51800 28.22300
C  26.08700 50.82200 29.20300
C  26.55500 50.47400 30.57100
C  28.03600 49.96000 30.36500
C  28.21200 50.10400 28.83000
C  29.08800 50.79400 31.12200
C  25.71300 49.33400 31.37000
C  25.02900 49.86000 32.70100
H  25.92700 50.34300 33.91300
N  28.61700 49.73700 25.83700
C  29.57400 49.48800 26.76200
C  30.86700 49.35800 26.08900
C  30.73700 49.30300 24.70600
C  29.24000 49.55200 24.55100
C  32.16100 49.28300 26.80200
C  31.68100 49.02600 23.60700
O  31.45400 48.99800 22.40700
C  33.12600 48.92400 24.03300
N  26.58200 50.85400 23.92400
C  27.31400 50.29500 23.02500
C  26.70300 50.32300 21.60500
C  25.22800 50.85300 21.89900
C  25.38000 51.21600 23.38600
C  27.58300 51.11500 20.57100
C  24.02400 49.92900 21.55100
C  22.69000 50.51000 21.17300
N  24.90400 51.44200 26.27900
C  24.01500 51.89200 25.41000
C  22.88500 52.44100 26.15800
C  23.26900 52.42400 27.49400
C  24.45400 51.68500 27.53500
C  21.63900 52.99100 25.56100
C  22.77500 52.69700 28.80300
O  21.79600 53.15900 29.23200
C  23.84900 52.10200 29.73800
C  24.37400 53.25300 30.63900
O  25.36900 53.90800 30.41200
O  23.50200 53.40000 31.69000
C  23.86900 54.33400 32.81400
H  30.21100 49.24100 28.81400
H  29.11400 49.41500 22.46000
H  23.36300 51.99000 23.48600
H  26.50000 51.44600 31.06100
H  28.15500 48.92200 30.67600
H  29.49500 50.20500 31.94400
H  28.53900 51.64700 31.52100
H  29.85000 51.25500 30.49300
H  26.30300 48.44000 31.57200
H  24.93300 49.09400 30.64700
H  24.27000 49.14300 33.01400
H  24.51600 50.76400 32.37300
H  31.97800 49.63000 27.81900
H  32.85900 50.07600 26.53600
H  32.74200 48.36000 26.78800
H  33.29100 48.06500 24.68400
H  33.40500 49.93100 24.34300
H  33.62300 48.59200 23.12100
H  26.68400 49.32100 21.17700
H  25.27300 51.70300 21.21800
H  28.31900 51.59700 21.21500
H  27.05000 52.02700 20.30400
H  28.07200 50.62300 19.73000
H  23.98200 49.35000 22.47400
H  24.16800 49.38400 20.61800
H  22.62800 51.59000 21.31100
H  21.99400 49.81800 21.64800
H  22.51400 50.38300 20.10400
H  21.12500 52.33700 24.85700
H  22.02100 53.83100 24.98100
H  20.87600 53.31800 26.26700
H  23.56800 51.31200 30.43500
H  24.80400 54.13700 33.33800
H  23.03500 54.45700 33.50500
H  23.98000 55.31400 32.34900
Mg 16.81200 52.07100 26.83800
C  19.00500 50.73200 29.18800
C  14.56900 52.67000 29.37700
C  14.65300 53.10500 24.57200
C  18.95100 50.81300 24.33700
N  16.75300 51.63600 28.98100
C  17.87400 51.30500 29.77600
C  17.58100 51.43000 31.25200
C  16.07500 51.67500 31.31700
C  15.75800 52.03300 29.80900
C  15.28100 50.45300 31.79100
C  18.41000 52.67700 31.85300
C  19.01800 52.34000 33.19200
H  18.11300 51.75400 34.19700
N  14.94300 53.00200 26.95600
C  14.16800 53.07100 28.07500
C  12.94100 53.75400 27.74900
C  12.88600 53.88600 26.34500
C  14.20100 53.35300 25.87100
C  11.85500 54.18800 28.76600
C  11.72900 54.39300 25.44600
O  11.60500 54.17600 24.23400
C  10.54200 55.21500 25.99700
N  16.90700 52.06900 24.72100
C  15.85100 52.59100 24.05300
C  16.18700 52.66500 22.51900
C  17.54800 51.87600 22.39700
C  17.86300 51.58000 23.89000
C  15.15100 52.09100 21.48700
C  18.75100 52.51700 21.66000
C  19.46200 53.69100 22.37100
N  18.58800 50.98100 26.73200
C  19.25400 50.46100 25.68200
C  20.45100 49.71800 26.13200
C  20.36700 49.77200 27.50500
C  19.19600 50.51600 27.82500
C  21.58600 49.15400 25.31100
C  21.07800 49.43800 28.75900
O  22.10300 48.81700 28.91100
C  20.23300 50.11100 29.84000
C  19.90600 49.12700 30.91400
O  19.11500 48.19700 30.76300
O  20.64700 49.30700 32.01500
C  20.33800 48.43100 33.10800
H  13.77700 52.75200 30.12500
H  13.93200 53.46600 23.83400
H  19.71300 50.52300 23.61000
H  17.84200 50.48000 31.71700
H  15.79700 52.55800 31.89200
H  15.87700 49.81400 32.44300
H  14.93000 49.76100 31.02500
H  14.42100 50.78100 32.37500
H  17.82800 53.59700 31.80400
H  19.18300 52.89900 31.11800
H  19.38000 53.28200 33.60400
H  19.84500 51.63400 33.11500
H  11.59800 55.21100 28.49200
H  12.19700 54.19300 29.80100
H  11.14100 53.40900 28.49900
H  9.90200 54.68500 26.70200
H  9.88400 55.45500 25.16200
H  11.06700 56.08200 26.39900
H  16.26800 53.73400 22.32300
H  17.34900 50.86700 22.03500
H  14.45900 52.87200 21.17400
H  14.47400 51.36000 21.92900
H  15.60300 51.66000 20.59300
H  18.48400 52.84600 20.65500
H  19.41600 51.65700 21.58200
H  20.44500 53.42300 22.75900
H  18.82000 54.08200 23.16000
H  19.47500 54.49600 21.63600
H  21.27100 48.42000 24.57000
H  22.38200 48.70500 25.90500
H  21.89200 50.06800 24.80300
H  20.81100 50.92500 30.27800
H  20.88500 47.50900 32.91400
H  19.30500 48.11800 33.26100
H  20.58200 48.92000 34.05200

