158

Mg 53.40300 24.77700 44.97400
C  50.66200 26.75000 44.13800
C  51.71800 22.14800 43.49300
C  56.31400 22.96400 44.72600
C  55.21500 27.48500 45.88400
N  51.43500 24.49100 43.76600
C  50.43100 25.41600 43.59200
C  49.30300 24.83200 42.64300
C  49.48600 23.35500 43.03400
C  50.99200 23.27400 43.46200
C  48.51100 22.92700 44.16700
C  49.69600 25.10500 41.14400
C  48.56500 25.23600 40.07900
H  47.95600 23.94800 39.54400
N  53.90400 22.75500 44.36700
C  53.03900 21.92600 43.73000
C  53.74600 20.65800 43.51700
C  55.10000 20.85400 43.94000
C  55.17000 22.22400 44.33100
C  53.21600 19.41300 42.85600
C  56.18800 19.74500 43.90100
O  55.94400 18.68400 43.39200
C  57.47800 19.89500 44.45100
N  55.45800 25.20400 45.19400
C  56.42800 24.29500 45.20800
C  57.79200 24.80300 45.69900
C  57.43000 26.29400 45.93800
C  55.93800 26.38600 45.61600
C  58.24700 23.95000 46.95500
C  58.14900 27.33900 45.09600
C  58.40700 28.70400 45.72300
N  52.99100 26.75100 45.14600
C  53.86700 27.78400 45.50200
C  53.10200 28.98800 45.58700
C  51.83700 28.61100 45.01600
C  51.84200 27.23600 44.81100
C  53.51700 30.35100 46.00700
C  50.59600 29.10700 44.59800
O  50.09700 30.24600 44.61900
C  49.75200 27.95000 44.10200
C  48.97100 28.23900 42.80800
O  49.40400 28.41200 41.69900
O  47.63600 28.30700 43.02200
C  46.77000 28.38600 41.81500
H  51.13100 21.31100 43.10700
H  57.28200 22.46900 44.62500
H  55.63800 28.43600 46.21600
H  48.27200 25.13800 42.82100
H  49.23200 22.68700 42.21000
H  48.91800 22.47700 45.07200
H  47.91500 22.11100 43.75700
H  47.70400 23.62700 44.38300
H  50.22300 24.25200 40.71600
H  50.26400 26.03500 41.13200
H  48.96900 25.92800 39.34000
H  47.67500 25.70300 40.50100
H  53.81800 19.17900 41.97900
H  52.21000 19.55600 42.46100
H  53.23900 18.62800 43.61200
H  58.04700 18.97200 44.55900
H  57.39300 20.40800 45.40900
H  58.04500 20.48100 43.72700
H  58.51300 24.61100 44.90400
H  57.43500 26.45900 47.01500
H  59.25700 23.63700 46.68600
H  57.73300 22.99900 47.09400
H  58.34400 24.63700 47.79500
H  57.61300 27.59200 44.18100
H  59.13300 26.93300 44.86200
H  59.45400 28.99300 45.81000
H  57.88500 28.74000 46.67900
H  57.91800 29.47400 45.12700
H  53.03900 31.11300 45.39100
H  54.59900 30.42300 45.89400
H  53.19900 30.52700 47.03500
H  49.04200 27.77700 44.91000
H  46.87000 27.42200 41.31600
H  47.01000 29.12600 41.05200
H  45.75900 28.45400 42.21700
Mg -5.00600 24.49900 26.25500
C  -3.13600 26.04800 28.72200
C  -6.34400 22.43100 28.63800
C  -6.97700 23.22000 23.81100
C  -3.31700 26.37500 23.82100
N  -4.76000 24.35400 28.41800
C  -4.12300 25.20400 29.25400
C  -4.47200 24.91500 30.74600
C  -5.08900 23.42800 30.59900
C  -5.41800 23.37600 29.12300
C  -4.16700 22.28300 31.01500
C  -5.27600 26.15700 31.21200
C  -5.39000 26.52300 32.68600
H  -5.02900 25.37500 33.59400
N  -6.38000 23.05800 26.19400
C  -6.80400 22.30600 27.28700
C  -7.79600 21.40600 26.88700
C  -8.08300 21.65300 25.51500
C  -7.09000 22.70300 25.13100
C  -8.38600 20.31400 27.80700
C  -9.13000 20.98900 24.57700
O  -9.25000 21.26100 23.40500
C  -10.02200 19.98500 25.11700
N  -5.16200 24.78500 24.00700
C  -5.96200 24.07800 23.26300
C  -5.90200 24.39700 21.81100
C  -4.72700 25.35600 21.78100
C  -4.36700 25.59800 23.32100
C  -5.79500 23.22700 20.77900
C  -5.13700 26.64700 21.08700
C  -4.05800 27.15200 20.12700
N  -3.42300 25.73000 26.17500
C  -2.95400 26.58200 25.16800
C  -1.88400 27.46500 25.69900
C  -1.88900 27.22300 27.08300
C  -2.82800 26.18600 27.32300
C  -1.19200 28.59300 24.94900
C  -1.32900 27.67800 28.39100
O  -0.46000 28.55400 28.53800
C  -2.27400 27.03000 29.49600
C  -1.40100 26.42400 30.57600
O  -0.66300 25.43900 30.49400
O  -1.58100 27.11500 31.74400
C  -0.86600 26.63700 32.94200
H  -6.92900 21.86500 29.36600
H  -7.70200 22.91900 23.05300
H  -2.81900 27.13600 23.21700
H  -3.54800 24.88100 31.32200
H  -6.05700 23.39200 31.09900
H  -4.30900 22.08400 32.07700
H  -3.11100 22.55300 30.99000
H  -4.31900 21.40500 30.38800
H  -6.33000 26.17500 30.93500
H  -4.82700 26.96700 30.63800
H  -6.41400 26.84100 32.88000
H  -4.71600 27.37200 32.80500
H  -9.37200 20.64300 28.13300
H  -7.73300 20.08400 28.64900
H  -8.40700 19.45100 27.14100
H  -9.35400 19.12700 25.03700
H  -10.77900 19.86000 24.34200
H  -10.55300 20.27300 26.02400
H  -6.80700 24.91000 21.48300
H  -3.84600 24.89500 21.33500
H  -5.91200 22.27500 21.29700
H  -4.81000 23.17800 20.31600
H  -6.64500 23.33700 20.10500
H  -5.26700 27.44100 21.82200
H  -6.07700 26.59100 20.53800
H  -4.51600 27.07700 19.14000
H  -3.11000 26.61500 20.14300
H  -3.75800 28.12900 20.50300
H  -1.67900 29.55600 25.10100
H  -1.21100 28.25300 23.91300
H  -0.15400 28.65800 25.27500
H  -2.86500 27.84100 29.92300
H  0.17200 26.42200 32.68800
H  -1.42800 25.80200 33.35900
H  -0.79100 27.50600 33.59600

