158

Mg 53.67400 23.30400 45.77000
C  51.41500 25.87800 44.93200
C  51.52000 21.02200 44.41700
C  56.15600 21.06300 45.86600
C  55.79800 25.82800 47.01800
N  51.79200 23.50600 44.60900
C  50.94600 24.61100 44.51600
C  49.69200 24.27700 43.65900
C  49.64900 22.75100 43.93300
C  51.03900 22.34800 44.40800
C  48.37500 22.28500 44.74500
C  49.98400 24.61400 42.12800
C  48.74800 24.99300 41.24200
H  48.35400 23.90200 40.18400
N  53.83000 21.23400 45.30800
C  52.76900 20.51800 44.68700
C  53.19800 19.22200 44.45800
C  54.60000 19.09700 44.88500
C  54.92800 20.48000 45.37400
C  52.26700 18.11400 43.79600
C  55.39900 17.80700 44.83600
O  54.95900 16.74800 44.49600
C  56.76900 17.79300 45.46500
N  55.69600 23.43600 46.11600
C  56.49200 22.39200 46.22300
C  57.81400 22.74800 46.93600
C  57.82400 24.28400 47.19300
C  56.34300 24.52200 46.78400
C  58.05600 22.02400 48.24700
C  58.96000 25.00100 46.44600
C  59.48500 26.27600 47.18000
N  53.58300 25.43100 46.12100
C  54.56300 26.31000 46.62100
C  54.04200 27.60200 46.66400
C  52.72800 27.52300 46.08300
C  52.51200 26.17800 45.69100
C  54.75600 28.85800 47.04500
C  51.58000 28.27500 45.61200
O  51.32400 29.49500 45.60700
C  50.68800 27.22200 44.90100
C  50.55700 27.72500 43.49900
O  51.50000 27.93300 42.73500
O  49.27600 28.15300 43.30400
C  48.89400 28.65200 42.00800
H  50.67300 20.44800 44.03400
H  57.02700 20.40800 45.93000
H  56.41500 26.56200 47.54000
H  48.91000 24.90500 44.08500
H  49.62100 22.18800 43.00000
H  48.69400 21.83600 45.68600
H  47.89600 21.45500 44.22600
H  47.68800 23.10000 44.97400
H  50.33600 23.65900 41.73700
H  50.78100 25.35400 42.04600
H  49.01500 25.87000 40.65200
H  47.84100 25.08600 41.83900
H  51.43400 18.59500 43.28400
H  51.81000 17.43700 44.51700
H  52.91600 17.63200 43.06400
H  57.40200 18.59100 45.07600
H  57.19600 16.81600 45.23900
H  56.78700 18.01900 46.53100
H  58.58300 22.50100 46.20400
H  57.95000 24.48300 48.25800
H  58.27000 22.64600 49.11600
H  58.97900 21.44500 48.20900
H  57.19800 21.41800 48.54000
H  58.55300 25.27200 45.47200
H  59.84900 24.38300 46.32100
H  58.95000 27.11500 46.73500
H  60.50200 26.38000 46.80000
H  59.40000 26.26500 48.26700
H  54.24000 29.72100 46.62300
H  55.77500 28.83500 46.65700
H  54.81500 29.01600 48.12200
H  49.76800 27.17600 45.48400
H  48.50200 29.66300 42.12100
H  48.03600 28.07000 41.67300
H  49.70000 28.75100 41.28100
Mg 47.31800 24.59000 28.66800
C  47.98100 26.76700 31.15900
C  46.46300 22.21800 30.86000
C  46.55700 22.74200 26.00000
C  48.49600 27.04300 26.27900
N  47.37700 24.53400 30.84800
C  47.50400 25.55000 31.69600
C  47.34500 25.05200 33.19400
C  46.93300 23.59000 32.97900
C  46.89300 23.38300 31.46300
C  47.85200 22.62800 33.71700
C  46.31000 25.93500 33.93000
C  46.77500 26.47600 35.38400
H  45.70000 26.50300 36.34700
N  46.69200 22.75900 28.44500
C  46.24900 21.92500 29.47900
C  45.94000 20.67300 28.91600
C  46.00400 20.72200 27.52200
C  46.38200 22.16800 27.29000
C  45.77400 19.42100 29.85900
C  45.87000 19.63500 26.43600
O  46.22200 19.85800 25.30600
C  45.32100 18.32600 26.68100
N  47.45800 24.79900 26.44200
C  47.13200 23.90400 25.58200
C  47.35400 24.26100 24.11300
C  47.73700 25.77900 24.27500
C  47.95800 25.84000 25.78700
C  48.48900 23.35300 23.50100
C  46.66400 26.79800 23.70100
C  45.43700 27.18800 24.53600
N  48.11600 26.46700 28.69000
C  48.45600 27.35600 27.70400
C  48.87200 28.67700 28.20300
C  48.70000 28.50000 29.60300
C  48.25500 27.13900 29.83200
C  49.48500 29.88900 27.40100
C  48.79000 29.10600 30.89300
O  49.11000 30.24500 31.20200
C  48.27400 28.04700 31.87800
C  49.26800 27.89800 32.98800
O  50.20100 27.15800 32.82600
O  49.04900 28.82700 33.97000
C  49.81600 28.75300 35.22300
H  46.17100 21.49100 31.62100
H  46.17500 22.03400 25.26200
H  49.01500 27.72900 25.60700
H  48.28700 25.16300 33.73100
H  45.91900 23.41800 33.33900
H  47.23000 21.92300 34.26900
H  48.44200 23.12700 34.48700
H  48.55500 21.98000 33.19300
H  45.35500 25.47100 34.17800
H  46.09600 26.83900 33.36100
H  47.22400 27.45100 35.19700
H  47.51100 25.73900 35.70700
H  46.46600 18.62600 29.58000
H  44.76400 19.04600 29.69600
H  45.92600 19.59300 30.92500
H  44.47100 18.27700 27.36200
H  46.20900 17.80100 27.03500
H  45.15400 17.75000 25.77100
H  46.43100 24.08000 23.56300
H  48.68600 25.91700 23.75600
H  48.38300 22.35200 23.92000
H  49.44900 23.70200 23.88200
H  48.54000 23.30900 22.41300
H  46.30200 26.25500 22.82800
H  47.30900 27.59600 23.33300
H  45.50500 26.53100 25.40300
H  44.60800 26.93800 23.87300
H  45.55900 28.21000 24.89700
H  48.88800 30.12600 26.52000
H  50.46600 29.50300 27.12600
H  49.51700 30.85300 27.90900
H  47.36900 28.54300 32.22900
H  49.25500 28.26800 36.02300
H  49.95600 29.77100 35.58400
H  50.77800 28.26300 35.07500

