158

Mg 16.80900 -1.94500 27.69800
C  15.85100 0.15700 30.26600
C  18.82300 -3.57300 29.78800
C  17.98700 -3.64000 25.11000
C  14.99900 0.17300 25.41200
N  17.26400 -1.71600 29.75100
C  16.75300 -0.85600 30.63300
C  17.30400 -1.00600 32.05000
C  18.50500 -1.96800 31.85600
C  18.20900 -2.46100 30.40900
C  19.90600 -1.40900 32.02200
C  16.20400 -1.66000 32.96900
C  16.12200 -1.05900 34.36400
H  17.35500 -0.44300 34.95700
N  18.01300 -3.56000 27.49300
C  18.74500 -4.05400 28.49700
C  19.27000 -5.26500 28.04500
C  19.10600 -5.37900 26.68600
C  18.34200 -4.18800 26.35000
C  20.18900 -6.15500 28.96600
C  19.57800 -6.50300 25.66900
O  19.51600 -6.37900 24.45900
C  20.18900 -7.77100 26.24300
N  16.44400 -1.85200 25.57800
C  17.14700 -2.62400 24.70900
C  16.79800 -2.29500 23.21500
C  15.76800 -1.14800 23.32500
C  15.74200 -0.94100 24.88400
C  18.14500 -1.96600 22.54500
C  14.33600 -1.45200 22.79100
C  13.96300 -0.62200 21.50600
N  15.75900 -0.19600 27.74400
C  15.01000 0.53500 26.79800
C  14.19900 1.54400 27.41200
C  14.56100 1.49800 28.77300
C  15.47500 0.41900 28.94700
C  13.19700 2.47000 26.83900
C  14.30200 2.04700 30.06800
O  13.59800 2.94600 30.43400
C  15.15300 1.16600 31.11000
C  16.09300 2.08500 31.91700
O  17.19500 2.46500 31.63700
O  15.37500 2.39700 33.10100
C  16.15900 3.30200 33.98600
H  19.62600 -3.95700 30.42000
H  18.41200 -4.29200 24.34300
H  14.37800 0.74800 24.72200
H  17.57700 -0.04900 32.49400
H  18.41400 -2.85200 32.48800
H  20.50800 -1.98500 32.72500
H  19.86000 -0.44100 32.52100
H  20.49500 -1.29500 31.11200
H  16.44300 -2.72000 33.04800
H  15.20600 -1.55900 32.54300
H  15.65700 -1.84400 34.96100
H  15.38600 -0.25500 34.35100
H  21.19600 -6.08000 28.55600
H  19.98500 -7.22600 28.94000
H  20.12700 -5.97200 30.03800
H  19.52700 -8.07300 27.05500
H  21.15900 -7.41600 26.58900
H  20.22900 -8.52200 25.45400
H  16.31700 -3.15100 22.74000
H  16.22400 -0.21100 23.00700
H  18.95800 -1.85200 23.26100
H  18.13600 -0.94900 22.15400
H  18.34200 -2.67200 21.73800
H  13.52400 -1.30000 23.50100
H  14.31000 -2.44700 22.34600
H  14.89700 -0.37200 21.00100
H  13.50900 0.32000 21.81300
H  13.34700 -1.22600 20.84000
H  13.71700 3.42300 26.74600
H  12.30900 2.73500 27.41400
H  12.68600 2.17400 25.92300
H  14.38500 0.69500 31.72500
H  16.78400 3.99600 33.42400
H  16.68500 2.79500 34.79500
H  15.50800 3.93600 34.58700
Mg 9.34400 48.13000 26.55800
C  7.49000 48.29300 29.62100
C  12.03600 49.53700 28.33200
C  11.11100 48.24600 23.76300
C  6.37400 47.64800 24.91600
N  9.64600 48.78400 28.72700
C  8.76100 48.72300 29.78900
C  9.54600 49.27600 31.11300
C  10.78500 50.04200 30.51800
C  10.83400 49.40100 29.08400
C  10.59600 51.64600 30.56700
C  9.92900 48.08900 32.00900
C  9.71600 48.07900 33.56700
H  9.82800 46.84900 34.44500
N  11.37200 48.61000 26.15300
C  12.35800 49.11000 26.97200
C  13.60500 49.05200 26.37800
C  13.34000 48.58300 25.04000
C  11.88800 48.52100 24.90300
C  14.84300 49.31300 27.08600
C  14.37900 48.16100 23.93100
O  14.00300 47.96100 22.75400
C  15.80500 48.09300 24.31400
N  8.83000 48.10900 24.66200
C  9.73600 48.19700 23.61600
C  9.09200 48.01200 22.23000
C  7.65900 47.55900 22.59900
C  7.60900 47.80000 24.14400
C  9.12700 49.32200 21.41300
C  7.43600 46.08700 22.25100
C  7.71300 44.99300 23.30600
N  7.29800 47.99100 27.12800
C  6.23900 47.77400 26.29900
C  5.04000 47.75400 27.09100
C  5.49100 47.82500 28.42500
C  6.88100 47.98900 28.42100
C  3.67000 47.35200 26.70600
C  5.15900 47.82200 29.76300
O  4.06700 47.93900 30.29100
C  6.47700 47.99300 30.63000
C  6.58400 46.74400 31.38700
O  6.97200 45.68000 30.93500
O  6.28600 46.96300 32.69300
C  6.20800 45.72300 33.55700
H  12.89200 49.95900 28.86200
H  11.62800 48.18400 22.80300
H  5.55700 47.47300 24.21200
H  8.82600 49.92300 31.61300
H  11.70000 49.70600 31.00600
H  9.77600 52.05200 31.16000
H  10.27700 51.81100 29.53800
H  11.41600 52.17700 31.05000
H  11.00500 47.91800 32.04600
H  9.47500 47.18300 31.60600
H  8.65700 48.33700 33.56700
H  10.37400 48.83400 33.99800
H  15.54300 48.51600 26.83600
H  14.89600 49.42800 28.16800
H  15.26400 50.24300 26.70300
H  16.29200 47.56500 23.49400
H  15.84000 47.35000 25.11100
H  16.15700 49.06200 24.66700
H  9.63000 47.26100 21.65200
H  6.96300 48.20500 22.06300
H  10.13500 49.43800 21.01300
H  8.76500 50.23400 21.88800
H  8.60700 49.19700 20.46300
H  7.90300 45.79400 21.31100
H  6.39400 45.99800 21.94600
H  6.83200 44.88900 23.93900
H  8.52400 45.32400 23.95400
H  7.98700 44.03100 22.87500
H  3.46600 47.33200 25.63500
H  2.88400 47.88000 27.24700
H  3.63300 46.31700 27.04400
H  6.44600 48.84300 31.31100
H  5.81600 45.95000 34.54900
H  7.19900 45.31300 33.75400
H  5.59500 44.98300 33.04200

