158

Mg 17.33800 -0.90000 28.52800
C  16.18400 1.01300 31.13200
C  19.26800 -2.68100 30.73500
C  18.75100 -2.57700 26.00700
C  15.73700 1.29900 26.29600
N  17.75800 -0.78300 30.65500
C  16.97700 -0.02900 31.58000
C  17.35400 -0.41400 33.04900
C  18.45200 -1.53700 32.93800
C  18.56200 -1.66000 31.37600
C  19.82800 -1.22000 33.59200
C  16.09300 -0.88600 33.85800
C  16.06500 -0.62600 35.35700
H  17.20600 0.09700 36.05700
N  18.59600 -2.55900 28.36300
C  19.33700 -3.11800 29.35700
C  19.97600 -4.32500 28.90700
C  19.95500 -4.22100 27.47300
C  18.99400 -3.11800 27.21900
C  20.74600 -5.28200 29.71000
C  20.67500 -5.10600 26.35200
O  20.60300 -4.89900 25.13200
C  21.53400 -6.22600 26.81500
N  17.26100 -0.69600 26.38200
C  17.91200 -1.56600 25.57400
C  17.86000 -1.10200 24.09300
C  17.02300 0.33400 24.17200
C  16.61300 0.31200 25.69600
C  19.25100 -1.00500 23.36700
C  15.75300 0.57400 23.20100
C  15.81700 1.73500 22.26300
N  16.12300 0.70000 28.62000
C  15.57300 1.52000 27.68300
C  14.80200 2.57000 28.29300
C  15.07700 2.44900 29.62200
C  15.85900 1.33100 29.78500
C  13.91400 3.60800 27.60800
C  14.71300 2.97300 30.91700
O  13.98500 3.83800 31.30600
C  15.53100 2.10500 31.98500
C  16.56700 2.95700 32.58500
O  17.73200 3.19300 32.19000
O  16.10600 3.45000 33.75300
C  16.93300 4.32800 34.62200
H  19.76300 -3.42400 31.36500
H  19.13400 -3.10900 25.13300
H  15.25100 2.09300 25.72500
H  17.79100 0.47500 33.50400
H  18.08200 -2.45400 33.39800
H  20.04300 -1.84400 34.45900
H  19.70700 -0.20600 33.97300
H  20.76900 -1.24600 33.04300
H  15.95200 -1.96600 33.80600
H  15.18900 -0.43100 33.45200
H  15.70700 -1.43600 35.99200
H  15.38000 0.22200 35.34800
H  20.55500 -6.34900 29.59700
H  20.63800 -5.10900 30.78100
H  21.76700 -4.94300 29.53500
H  21.06300 -6.81100 27.60600
H  22.51400 -5.79800 27.02300
H  21.69200 -6.92500 25.99400
H  17.32800 -1.92600 23.61700
H  17.76400 1.12400 24.04600
H  19.86500 -0.24700 23.85300
H  18.98000 -0.71800 22.35100
H  19.75800 -1.97000 23.39100
H  14.86500 0.72900 23.81500
H  15.50400 -0.29600 22.59300
H  15.07300 2.47100 22.56900
H  15.55800 1.40900 21.25600
H  16.84600 2.09300 22.29500
H  13.74900 3.50800 26.53500
H  14.43100 4.56800 27.63000
H  12.96200 3.49600 28.12600
H  14.77300 1.66800 32.63400
H  17.11100 3.83800 35.57900
H  16.38800 5.26900 34.69600
H  17.89200 4.55800 34.15800
Mg -5.57100 25.25200 26.11700
C  -4.31800 26.88100 28.92900
C  -7.11500 23.02500 28.16200
C  -6.31300 23.41500 23.33600
C  -3.58400 27.34100 24.09600
N  -5.68000 24.99100 28.33900
C  -5.19900 25.82800 29.29600
C  -5.97100 25.59300 30.62100
C  -6.68000 24.22100 30.37800
C  -6.54600 24.06100 28.86900
C  -6.02200 23.00600 31.00800
C  -6.84100 26.76300 31.10100
C  -7.08000 26.99900 32.60300
H  -6.39900 26.08900 33.67500
N  -6.70300 23.57100 25.77400
C  -7.30700 22.85600 26.76400
C  -8.11300 21.83200 26.15100
C  -7.89400 21.92300 24.75100
C  -6.94900 23.01900 24.56100
C  -8.96000 20.81200 26.91600
C  -8.44500 21.02400 23.70400
O  -8.25400 21.21000 22.52600
C  -9.28100 19.83500 23.98800
N  -4.82500 25.16600 24.07800
C  -5.39700 24.41500 23.07700
C  -4.70900 24.76700 21.75000
C  -4.17500 26.17300 21.96700
C  -4.15700 26.25800 23.52300
C  -3.56400 23.78600 21.34700
C  -4.95000 27.33800 21.25400
C  -4.24800 28.32800 20.32900
N  -4.19700 26.84100 26.37900
C  -3.56100 27.70800 25.48000
C  -2.82800 28.70100 26.24000
C  -3.07800 28.39300 27.60200
C  -3.96000 27.27400 27.62900
C  -1.91600 29.78100 25.55500
C  -2.81500 28.84800 28.93600
O  -2.06200 29.74400 29.27800
C  -3.66700 27.99200 29.82000
C  -2.86600 27.39300 30.98000
O  -2.31200 26.31800 31.03000
O  -2.98800 28.24700 32.03900
C  -2.29200 27.81700 33.25300
H  -7.56000 22.30000 28.84600
H  -6.67900 22.84400 22.48000
H  -3.10700 28.09900 23.47000
H  -5.21200 25.42200 31.38500
H  -7.73500 24.30200 30.64100
H  -5.28900 23.23400 31.78200
H  -5.46200 22.52400 30.20600
H  -6.76400 22.26100 31.29600
H  -7.84500 26.70300 30.68100
H  -6.34100 27.61700 30.64500
H  -8.14100 26.83200 32.79000
H  -6.71000 28.00600 32.79400
H  -10.03800 20.85500 26.75700
H  -8.76700 20.86200 27.98800
H  -8.60300 19.79600 26.74900
H  -8.64400 19.17400 24.57500
H  -9.46900 19.34400 23.03300
H  -10.18600 20.13000 24.52000
H  -5.39800 24.76900 20.90500
H  -3.13800 26.30300 21.65500
H  -2.61500 24.32200 21.34600
H  -3.67100 23.59100 20.28000
H  -3.49200 22.91200 21.99600
H  -5.42500 28.00200 21.97600
H  -5.67300 26.86100 20.59300
H  -3.19800 28.20700 20.59300
H  -4.50400 29.35000 20.60800
H  -4.46700 28.15100 19.27600
H  -0.87100 29.54400 25.75500
H  -2.13300 30.83600 25.72000
H  -2.04000 29.75900 24.47200
H  -4.42100 28.66400 30.22900
H  -2.95400 27.76700 34.11800
H  -1.48500 28.52800 33.42700
H  -1.85700 26.82300 33.14700

