158

Mg 40.96500 9.27100 30.05100
C  42.62300 10.42000 32.95600
C  38.67300 7.92500 32.29200
C  39.46900 7.86800 27.48000
C  43.61800 10.40100 28.12400
N  40.73300 9.16500 32.41200
C  41.45900 9.83600 33.32100
C  40.73600 9.82700 34.66600
C  39.62600 8.83200 34.53000
C  39.60000 8.66100 33.00300
C  39.78800 7.43300 35.28300
C  40.34100 11.26000 35.33400
C  39.92300 11.13300 36.82100
H  40.54800 12.00400 37.85700
N  39.39700 7.98000 29.89700
C  38.61100 7.52500 30.92000
C  37.45500 6.75200 30.40900
C  37.52800 6.89400 29.03900
C  38.86500 7.53100 28.73100
C  36.37000 6.21300 31.16300
C  36.53800 6.60600 27.97500
O  36.75200 6.69100 26.81100
C  35.14000 6.00800 28.37100
N  41.56000 9.01900 28.13700
C  40.71900 8.45200 27.22500
C  41.14200 8.70200 25.75100
C  42.41500 9.56300 26.02000
C  42.51000 9.73400 27.54600
C  41.49600 7.39700 24.97000
C  42.29500 11.00600 25.32200
C  43.51600 11.26900 24.42400
N  42.84300 10.14700 30.43600
C  43.72200 10.59500 29.48800
C  44.91000 11.03400 30.22500
C  44.43800 11.10500 31.58600
C  43.16300 10.51300 31.66100
C  46.18000 11.57700 29.60200
C  44.72500 11.57300 32.88400
O  45.68400 12.21200 33.30100
C  43.63400 11.07100 33.87400
C  44.14100 10.04000 34.91800
O  44.69000 8.96500 34.66500
O  43.83100 10.44400 36.23500
C  44.24600 9.52900 37.28300
H  37.80700 7.68900 32.91500
H  39.01700 7.41400 26.59500
H  44.41900 10.79400 27.49500
H  41.49400 9.46200 35.36000
H  38.71100 9.17200 35.01600
H  40.74500 7.33500 35.79600
H  39.56500 6.64900 34.56000
H  39.01700 7.53400 36.04700
H  39.53900 11.82200 34.85500
H  41.27700 11.79700 35.18400
H  40.01700 10.08300 37.09800
H  38.84700 11.25800 36.94000
H  36.50400 6.24900 32.24400
H  36.24300 5.18000 30.83900
H  35.45300 6.76400 30.95500
H  34.70000 6.69900 29.09000
H  35.19400 5.04900 28.88800
H  34.45000 5.97500 27.52800
H  40.38700 9.26100 25.19900
H  43.27000 9.00100 25.64400
H  40.68400 7.11400 24.30000
H  41.48900 6.71000 25.81600
H  42.45100 7.37700 24.44600
H  42.33000 11.72800 26.13800
H  41.29800 11.00500 24.88200
H  43.86500 10.27800 24.13300
H  44.22000 11.89100 24.97700
H  43.31900 11.82900 23.50900
H  45.93000 12.39400 28.92600
H  46.74900 10.79500 29.09800
H  46.69800 12.06200 30.42900
H  43.27400 12.00900 34.29800
H  44.33300 8.46900 37.04600
H  43.59000 9.65900 38.14400
H  45.19300 9.88900 37.68500
Mg 30.48100 58.37800 40.28800
C  27.49200 56.71300 39.13300
C  32.38300 55.83100 39.09100
C  33.06800 60.32700 41.05100
C  28.42300 61.27500 40.41200
N  30.00300 56.52900 39.29600
C  28.72300 55.97400 39.05500
C  28.82000 54.57700 38.47500
C  30.40500 54.25100 38.55700
C  31.02000 55.65300 38.96100
C  30.80900 53.10800 39.59800
C  28.33100 54.52000 36.93600
C  28.84600 55.73600 35.99200
H  27.87100 56.02400 34.86500
N  32.44000 58.03900 40.17600
C  33.12600 56.92800 39.64100
C  34.51800 57.08200 39.71800
C  34.73700 58.39500 40.31400
C  33.41400 59.01400 40.56500
C  35.50100 56.06400 39.06900
C  36.09400 58.88500 40.59500
O  37.07200 58.24300 40.21900
C  36.22800 60.15000 41.44300
N  30.73800 60.57500 40.67500
C  31.90800 61.08300 41.09000
C  31.79500 62.60600 41.23500
C  30.27300 62.91700 41.02800
C  29.72100 61.47800 40.79600
C  32.47500 63.27900 42.49000
C  29.90400 63.93800 39.92000
C  29.18400 65.18500 40.28100
N  28.34600 58.92100 40.06700
C  27.69300 60.12800 40.09100
C  26.31500 60.02500 39.70600
C  26.18700 58.68600 39.39800
C  27.44400 58.07400 39.54000
C  25.32500 61.18300 39.65400
C  25.25400 57.72500 39.02000
O  24.05200 57.75200 38.84100
C  26.08300 56.41200 38.85800
C  25.46300 55.35200 39.65900
O  25.47400 55.25500 40.87100
O  25.03100 54.34100 38.85900
C  24.10000 53.31100 39.54600
H  32.90200 54.90900 38.82200
H  33.89800 61.00200 41.26700
H  27.74900 62.13300 40.45600
H  28.18300 54.00300 39.14900
H  30.79000 53.98300 37.57200
H  31.22000 52.25000 39.06600
H  29.90400 52.86300 40.15500
H  31.58000 53.38800 40.31500
H  27.26000 54.31800 36.90800
H  28.79400 53.61200 36.54800
H  29.77700 55.39700 35.53800
H  29.08700 56.61200 36.59300
H  36.24300 55.79600 39.82200
H  35.94100 56.44800 38.14900
H  34.98100 55.11900 38.91000
H  35.61500 60.01600 42.33500
H  35.86000 61.05600 40.96100
H  37.21900 60.56600 41.62600
H  32.31800 63.00300 40.36500
H  29.89000 63.23700 41.99700
H  32.90700 62.58000 43.20600
H  31.74400 63.87600 43.03600
H  33.22500 64.02600 42.22800
H  29.40400 63.41300 39.10600
H  30.82200 64.30800 39.46400
H  28.72000 65.48200 39.34100
H  29.92500 65.90200 40.63700
H  28.47800 64.98200 41.08600
H  24.41700 60.85400 39.14800
H  25.80600 61.96700 39.06800
H  25.15300 61.47300 40.69100
H  25.97800 56.08800 37.82300
H  23.64400 52.85200 38.66900
H  23.35900 53.78800 40.18600
H  24.58700 52.53200 40.13300

