158

Mg 17.50800 -2.83200 28.19900
C  16.31400 -0.73800 30.91700
C  19.33400 -4.59000 30.51400
C  18.80600 -4.33800 25.70400
C  15.66100 -0.76100 25.99600
N  17.69700 -2.73000 30.45300
C  17.08600 -1.78000 31.33500
C  17.57500 -2.11400 32.79300
C  18.65600 -3.15700 32.60600
C  18.65300 -3.49800 31.07900
C  20.02900 -2.66200 33.07000
C  16.36700 -2.43600 33.72000
C  16.28000 -1.68400 35.08800
H  17.52100 -1.18900 35.79600
N  18.79100 -4.39200 28.07600
C  19.38200 -5.01200 29.11000
C  20.13600 -6.14800 28.55200
C  20.05100 -6.07100 27.10200
C  19.18100 -4.85900 26.91300
C  21.16000 -7.01600 29.36400
C  20.71100 -6.94400 26.07500
O  20.66000 -6.72700 24.88600
C  21.42200 -8.21600 26.41200
N  17.48400 -2.39200 26.18700
C  18.03000 -3.27700 25.31100
C  17.74500 -2.89500 23.84800
C  16.53400 -2.04800 24.02400
C  16.56200 -1.68500 25.46900
C  18.96400 -2.19900 23.22300
C  15.23100 -2.78100 23.57100
C  14.08600 -1.97900 23.06100
N  16.30000 -1.01900 28.37500
C  15.53600 -0.36200 27.39800
C  14.63600 0.58100 27.99100
C  15.00100 0.56600 29.36700
C  15.97200 -0.45300 29.54600
C  13.69000 1.35700 27.22900
C  14.66600 1.14400 30.64600
O  13.77200 1.97300 30.97600
C  15.51700 0.27600 31.78200
C  16.48900 1.27100 32.44400
O  17.63900 1.55400 32.09800
O  15.81400 1.82100 33.50200
C  16.44300 2.74900 34.43400
H  19.94700 -5.27700 31.10100
H  19.12600 -4.91600 24.83500
H  15.20100 -0.15100 25.21600
H  18.00400 -1.17500 33.14200
H  18.33400 -4.12600 32.98700
H  20.76700 -3.39600 32.74800
H  20.10800 -2.53500 34.14900
H  20.17600 -1.70400 32.56900
H  16.46300 -3.48200 34.01200
H  15.41000 -2.24400 33.23500
H  15.77900 -2.40400 35.73400
H  15.49400 -0.97500 34.82500
H  22.00900 -7.25400 28.72300
H  20.81600 -7.93800 29.83200
H  21.52300 -6.45400 30.22400
H  21.00300 -8.61900 27.33400
H  22.45200 -7.93200 26.63100
H  21.48500 -8.95200 25.61100
H  17.64900 -3.89800 23.43100
H  16.67400 -1.11600 23.47700
H  19.90400 -2.05400 23.75500
H  18.65500 -1.18700 22.96200
H  19.23800 -2.78000 22.34200
H  14.93100 -3.26400 24.50100
H  15.34900 -3.39900 22.68000
H  14.14700 -1.01900 23.57400
H  13.20700 -2.55300 23.35500
H  14.17500 -1.88100 21.97900
H  13.11900 0.74800 26.52700
H  14.25100 1.99300 26.54500
H  13.07200 1.95100 27.90200
H  14.81600 -0.11800 32.51700
H  17.21900 3.33800 33.94500
H  16.74300 2.30700 35.38400
H  15.67200 3.46600 34.71800
Mg 52.88300 24.18100 45.45700
C  50.08800 26.33500 44.76600
C  51.14000 21.78200 43.88700
C  55.65600 22.53600 45.53400
C  54.52000 27.11200 46.58200
N  50.89300 24.22100 44.19700
C  49.97800 25.12900 44.04300
C  48.74400 24.51200 43.26800
C  48.89900 23.01100 43.52300
C  50.40700 22.98500 43.94800
C  48.12000 22.35000 44.60500
C  48.75400 24.93700 41.76200
C  47.30100 25.04200 41.16500
H  46.89700 23.87300 40.23400
N  53.34800 22.41000 44.76500
C  52.51500 21.50500 44.21200
C  53.22700 20.25900 44.09400
C  54.55900 20.51300 44.55400
C  54.58200 21.93700 44.98900
C  52.65900 19.04700 43.37100
C  55.72600 19.48200 44.52500
O  55.51600 18.33300 44.06500
C  57.15500 19.80900 44.87400
N  54.85200 24.79800 45.86400
C  55.78500 23.87600 45.98000
C  56.95300 24.39200 46.85400
C  56.73000 25.94900 46.73600
C  55.27400 25.94300 46.38500
C  57.04300 23.81700 48.31400
C  57.54300 26.63800 45.62300
C  58.49800 27.79300 45.98200
N  52.39200 26.28200 45.87400
C  53.16100 27.32700 46.37100
C  52.29400 28.50300 46.56500
C  51.09200 28.13300 45.94900
C  51.21700 26.76600 45.51600
C  52.74400 29.89900 47.13300
C  49.73500 28.57300 45.68200
O  49.20600 29.57900 46.08100
C  49.13700 27.58300 44.72300
C  49.04800 28.25800 43.44400
O  49.93600 28.49100 42.67800
O  47.66300 28.35100 43.25400
C  47.27100 28.84400 41.91900
H  50.55100 20.99100 43.41700
H  56.50300 21.90800 45.81800
H  55.14400 27.96000 46.87400
H  47.73400 24.77900 43.57800
H  48.70600 22.48100 42.59000
H  47.42500 23.05900 45.05600
H  48.81100 21.92100 45.33000
H  47.59700 21.47900 44.21000
H  49.28800 24.24800 41.10700
H  49.24600 25.90800 41.81100
H  47.38200 25.89200 40.48800
H  46.52000 25.17200 41.91400
H  52.96000 18.90200 42.33300
H  51.58900 19.25700 43.34500
H  52.77600 18.07000 43.84000
H  57.84200 19.07100 44.46100
H  57.06500 19.82500 45.96000
H  57.43000 20.75600 44.40900
H  57.88000 24.12000 46.34900
H  56.95400 26.31000 47.73900
H  56.43000 22.92100 48.42000
H  56.76800 24.61500 49.00400
H  58.10200 23.60900 48.46400
H  56.90300 27.06900 44.85300
H  58.00900 25.82600 45.06400
H  58.41900 27.92800 47.06000
H  58.31000 28.77100 45.53900
H  59.53700 27.50200 45.82800
H  52.06700 30.26000 47.90800
H  52.75400 30.59100 46.29000
H  53.75000 29.83100 47.54700
H  48.10600 27.28200 44.91100
H  47.07400 29.91400 41.99000
H  46.33600 28.35200 41.65000
H  48.00800 28.50200 41.19200

