158

Mg 27.02000 49.78200 26.70100
C  24.75500 51.00800 29.28200
C  29.27600 49.28700 29.16600
C  29.08000 49.16900 24.28300
C  24.65900 51.30300 24.39900
N  26.90000 50.07000 28.99100
C  25.89200 50.42200 29.88200
C  26.34000 50.29400 31.31600
C  27.93100 50.09700 31.14100
C  28.05700 49.75400 29.63900
C  28.74600 51.41000 31.60000
C  25.61000 49.06600 32.01400
C  24.88600 49.37200 33.29800
H  25.76200 49.92200 34.47400
N  28.88300 49.25600 26.75100
C  29.67600 49.00700 27.86500
C  30.99300 48.52400 27.41600
C  30.96400 48.55600 25.96200
C  29.58400 49.02000 25.60100
C  32.08300 48.17200 28.35800
C  32.05800 48.17400 24.95300
O  31.89500 48.02400 23.75300
C  33.50500 47.88200 25.39200
N  26.90200 50.19500 24.69500
C  27.88500 49.70600 23.87400
C  27.50100 49.75000 22.35100
C  25.96600 50.20000 22.53500
C  25.82700 50.63300 23.92100
C  28.36200 50.68700 21.48300
C  24.92200 49.14700 21.97000
C  24.57700 47.97800 22.83900
N  25.07900 50.89400 26.77100
C  24.26300 51.43600 25.75800
C  23.15600 52.16000 26.35100
C  23.24200 51.93300 27.73000
C  24.44000 51.21700 27.93300
C  22.15300 52.93200 25.56400
C  22.57300 52.18800 28.95400
O  21.49700 52.64500 29.17000
C  23.58700 51.68500 30.08400
C  23.93600 52.71900 31.07800
O  24.53800 53.75900 30.98100
O  23.46300 52.22600 32.27900
C  23.56000 53.16200 33.39400
H  29.96400 49.07800 29.98800
H  29.86000 49.11400 23.52100
H  24.03700 51.70400 23.59600
H  26.13800 51.17000 31.93300
H  28.32600 49.26900 31.73000
H  29.64300 51.15500 32.16600
H  28.15500 52.06300 32.24200
H  29.05900 51.98600 30.73000
H  26.33900 48.28100 32.21200
H  24.75600 48.74400 31.41900
H  24.23900 48.57000 33.65400
H  24.30200 50.27600 33.12600
H  33.06600 48.58100 28.12200
H  32.21300 47.09000 28.32600
H  31.93300 48.50800 29.38300
H  34.13900 47.46200 24.61200
H  33.55000 47.22600 26.26200
H  33.93300 48.84300 25.67900
H  27.59700 48.72400 21.99800
H  25.88400 51.07300 21.88800
H  27.65700 51.20500 20.83300
H  29.00700 50.18000 20.76500
H  28.96400 51.35700 22.09700
H  25.28000 48.67800 21.05400
H  24.03800 49.70200 21.65800
H  24.52400 48.29000 23.88200
H  25.33900 47.20600 22.73300
H  23.58100 47.60500 22.60100
H  22.45600 53.08200 24.52700
H  21.93700 53.90500 26.00500
H  21.31200 52.25400 25.70800
H  23.05600 50.87700 30.58700
H  24.32700 52.84500 34.10100
H  22.67100 53.19200 34.02400
H  23.74300 54.20500 33.13500
Mg 9.60900 47.78200 25.36800
C  7.35500 48.22500 28.10300
C  12.01900 49.24300 27.30200
C  11.70800 47.60200 22.65300
C  6.83400 46.69700 23.34100
N  9.55500 48.75800 27.42000
C  8.66000 48.63200 28.40500
C  9.14800 49.18900 29.74600
C  10.59300 49.75700 29.33700
C  10.77000 49.19900 27.90100
C  10.82800 51.35100 29.32600
C  9.24500 48.18000 30.91600
C  9.74800 48.56200 32.31200
H  8.99500 48.07300 33.51500
N  11.57900 48.33100 25.03100
C  12.39500 48.85900 25.99100
C  13.78000 48.77500 25.50000
C  13.70800 48.19300 24.18400
C  12.29400 48.05500 23.91000
C  14.95500 49.15400 26.32400
C  14.85300 47.83100 23.26500
O  14.74800 47.49500 22.10700
C  16.24900 47.91800 23.79300
N  9.31400 47.38200 23.25700
C  10.39100 47.29100 22.37300
C  9.95200 46.66100 21.04300
C  8.49400 46.21300 21.30100
C  8.18000 46.73900 22.70300
C  10.12300 47.52100 19.77100
C  8.27600 44.72100 20.85600
C  8.30200 43.76900 22.04800
N  7.53900 47.60300 25.62800
C  6.51300 47.03600 24.68200
C  5.22300 47.07200 25.39800
C  5.60100 47.39100 26.77100
C  6.97100 47.73000 26.85300
C  3.91200 46.80500 24.83300
C  5.07700 47.37600 28.09500
O  4.01900 46.95500 28.54300
C  6.17700 47.83600 29.06200
C  6.45500 46.54800 29.79100
O  7.19800 45.71600 29.32200
O  5.84200 46.53500 31.00900
C  6.16700 45.46600 31.96600
H  12.74900 49.75700 27.93200
H  12.41900 47.32900 21.87100
H  6.02700 46.31700 22.71100
H  8.45900 49.99000 30.01300
H  11.33900 49.29800 29.98600
H  10.93400 51.72200 28.30700
H  11.75300 51.54500 29.87000
H  9.99900 51.90700 29.76300
H  9.81700 47.34500 30.51200
H  8.21100 47.84700 31.00000
H  9.70600 49.64700 32.21500
H  10.76700 48.33900 32.62700
H  14.71300 49.56700 27.30400
H  15.53700 49.90800 25.79300
H  15.52900 48.25400 26.54700
H  16.96000 47.57400 23.04200
H  16.35300 47.28100 24.67200
H  16.38700 48.92800 24.17900
H  10.62400 45.83700 20.80400
H  7.74600 46.73300 20.70200
H  9.24800 48.10000 19.47600
H  10.44900 46.85200 18.97400
H  10.98400 48.17200 19.92200
H  9.00600 44.34200 20.14200
H  7.28000 44.69000 20.41300
H  7.30200 43.39500 22.27100
H  8.53000 44.26300 22.99200
H  8.80900 42.83700 21.79800
H  3.53100 47.66300 24.27900
H  3.21100 46.51800 25.61600
H  3.91900 45.86500 24.28100
H  5.81100 48.63200 29.71100
H  5.74000 45.92400 32.85800
H  7.25300 45.41100 31.89400
H  5.70300 44.49800 31.77800

