158

Mg 2.95200 -1.58900 45.41200
C  6.34800 -1.14700 44.96900
C  2.34200 0.82100 42.95300
C  -0.42600 -2.40500 45.26000
C  3.58700 -4.60700 47.20100
N  4.14000 -0.52600 44.03000
C  5.56300 -0.50800 44.02600
C  6.09400 0.38200 42.85800
C  4.81600 1.23700 42.53500
C  3.70000 0.52300 43.26100
C  4.94300 2.73900 42.92600
C  6.45000 -0.55100 41.53800
C  7.81000 -0.19400 41.00200
H  8.14200 0.04400 39.52600
N  1.18400 -0.84800 44.42600
C  1.18100 0.18700 43.53800
C  -0.17900 0.51600 43.10900
C  -1.02500 -0.43000 43.78400
C  -0.13400 -1.24500 44.58300
C  -0.52400 1.72400 42.27700
C  -2.55100 -0.58600 43.68600
O  -3.16100 0.11200 42.92100
C  -3.41500 -1.58400 44.44500
N  1.73800 -3.25500 46.20400
C  0.39900 -3.35400 46.01200
C  -0.15800 -4.54700 46.75900
C  1.16200 -5.40500 47.02000
C  2.26000 -4.34600 46.83800
C  -0.93300 -4.21900 48.06900
C  1.20600 -6.64300 45.98900
C  0.52000 -7.91400 46.44700
N  4.62600 -2.58900 46.18000
C  4.72800 -3.76700 46.85600
C  6.09800 -4.03600 47.05100
C  6.78600 -3.00100 46.40700
C  5.86400 -2.16800 45.78200
C  6.66300 -5.22400 47.77800
C  8.07200 -2.51100 46.11600
O  9.15600 -2.89800 46.55600
C  7.90000 -1.23300 45.18200
C  8.58200 -0.02800 45.87800
O  9.52400 -0.03400 46.72800
O  7.89400 1.04200 45.50800
C  8.04300 2.26000 46.35300
H  2.24500 1.53200 42.12900
H  -1.40500 -2.83200 45.03600
H  3.80200 -5.45000 47.86100
H  6.95500 0.93300 43.23400
H  4.61900 1.24300 41.46300
H  5.92900 3.00300 43.30800
H  4.20400 2.99400 43.68500
H  4.81600 3.28400 41.99000
H  5.63900 -0.48700 40.81200
H  6.59000 -1.58300 41.86200
H  8.44300 -1.03000 41.29900
H  8.17500 0.73200 41.44800
H  -0.52800 1.41200 41.23300
H  0.24300 2.47700 42.45900
H  -1.56300 1.98600 42.47700
H  -3.20200 -1.52000 45.51200
H  -3.31500 -2.62200 44.12800
H  -4.46300 -1.29200 44.38900
H  -0.77400 -5.19400 46.13400
H  1.17300 -5.80200 48.03500
H  -1.84500 -4.81500 48.01900
H  -1.15700 -3.18100 47.82000
H  -0.37400 -4.48800 48.96500
H  2.24800 -6.90300 45.80200
H  0.75200 -6.38000 45.03400
H  -0.16100 -8.26300 45.67000
H  0.04800 -7.82400 47.42500
H  1.29700 -8.66300 46.60200
H  7.65800 -5.11200 48.21000
H  6.67700 -6.02100 47.03500
H  5.98800 -5.51400 48.58300
H  8.35300 -1.55600 44.24500
H  8.40200 1.93700 47.33000
H  7.05600 2.67700 46.55700
H  8.78300 2.92900 45.91400
Mg 25.78100 1.69000 29.73700
C  27.88300 1.19400 32.59600
C  23.16700 2.29900 31.79700
C  23.68400 1.29900 27.12900
C  28.43400 0.57700 27.72900
N  25.60200 1.68000 31.93500
C  26.56600 1.50200 32.91700
C  26.07300 2.09500 34.24200
C  24.51900 2.33700 33.96400
C  24.41300 2.04000 32.47000
C  23.51500 1.47400 34.75200
C  26.86800 3.26700 34.81300
C  27.67900 3.01400 36.05300
H  27.18700 3.75300 37.38800
N  23.73500 1.88100 29.47300
C  22.86100 2.08900 30.45300
C  21.59300 2.29300 29.91400
C  21.62600 1.94900 28.53200
C  23.04800 1.67600 28.33300
C  20.38900 2.60100 30.72800
C  20.54800 1.81300 27.57200
O  20.72700 1.36000 26.50100
C  19.11500 2.14800 27.95000
N  26.05300 1.06500 27.72400
C  25.06000 1.03700 26.79700
C  25.61900 0.83600 25.34900
C  27.08800 0.52400 25.52800
C  27.18000 0.77600 27.06100
C  24.83500 -0.15900 24.47600
C  28.05000 1.42600 24.67400
C  28.85700 0.68100 23.58400
N  27.74600 1.02600 30.10000
C  28.67700 0.57700 29.13000
C  29.93500 0.24900 29.80500
C  29.66600 0.52000 31.15000
C  28.32300 0.91000 31.30900
C  31.24800 -0.15200 29.10400
C  30.24700 0.51800 32.46100
O  31.42100 0.31400 32.78500
C  29.15200 1.00600 33.47300
C  29.00900 -0.01200 34.53800
O  28.40000 -1.05000 34.39500
O  29.71700 0.29700 35.65500
C  29.44800 -0.56500 36.80800
H  22.34500 2.56500 32.46500
H  23.05000 1.17100 26.24900
H  29.26100 0.30000 27.07200
H  26.16200 1.23200 34.90200
H  24.33400 3.38900 34.17900
H  24.11600 0.68500 35.20400
H  22.77500 0.95800 34.14000
H  23.16700 2.12300 35.55500
H  26.18600 4.09400 35.00600
H  27.61500 3.52400 34.06200
H  28.71500 3.32700 35.92300
H  27.64000 1.93600 36.20800
H  19.90400 3.40300 30.17200
H  20.59200 3.05000 31.70000
H  19.74400 1.72500 30.79000
H  18.67100 1.53600 28.73500
H  18.52300 2.02000 27.04400
H  18.90600 3.16100 28.29500
H  25.53700 1.86000 24.98500
H  27.29300 -0.53200 25.35000
H  23.88800 -0.40100 24.95900
H  25.40800 -1.07100 24.31100
H  24.57800 0.28600 23.51500
H  28.81700 1.71700 25.39200
H  27.51400 2.29800 24.30000
H  28.23600 0.69900 22.68800
H  29.30600 -0.28200 23.82900
H  29.69800 1.34600 23.38800
H  31.60000 0.67700 28.49000
H  31.13000 -1.05200 28.50100
H  31.98200 -0.38200 29.87600
H  29.43600 1.90400 34.02100
H  30.38300 -0.58400 37.36900
H  29.39800 -1.61700 36.52700
H  28.61300 -0.25400 37.43600

