158

Mg 53.55900 24.55100 43.79500
C  50.72900 26.48500 43.30600
C  51.88800 21.96200 42.24100
C  56.30800 22.79700 43.88400
C  55.11000 27.28000 45.29700
N  51.59900 24.29000 42.80700
C  50.67500 25.25400 42.64100
C  49.43800 24.81900 41.76700
C  49.66300 23.24400 41.74700
C  51.12000 23.12000 42.22400
C  48.72900 22.28300 42.48800
C  49.40300 25.37800 40.31900
C  50.68400 26.04500 39.71700
H  51.57600 25.30200 38.79200
N  54.01000 22.53000 43.26800
C  53.14900 21.62200 42.73100
C  53.77000 20.32500 42.70400
C  55.16100 20.53200 43.11300
C  55.22700 21.95500 43.42500
C  52.91900 19.12100 42.35700
C  56.21200 19.40700 43.22700
O  55.89700 18.22900 42.87800
C  57.63100 19.63300 43.67200
N  55.53500 25.08900 44.37300
C  56.51000 24.12900 44.31800
C  57.87000 24.76800 44.79600
C  57.33900 26.08700 45.52800
C  55.91400 26.19000 45.05500
C  58.82500 23.80300 45.61000
C  58.12500 27.35100 45.14900
C  59.64600 27.21800 45.03100
N  53.07000 26.49200 44.22600
C  53.76800 27.44400 44.88700
C  52.91800 28.58400 45.17000
C  51.70400 28.23600 44.54500
C  51.83000 26.97300 44.05600
C  53.34900 29.94800 45.72000
C  50.35700 28.68800 44.31900
O  49.81700 29.69700 44.72400
C  49.73200 27.54900 43.45800
C  49.34800 28.24400 42.20200
O  50.08100 28.65500 41.30000
O  48.01500 28.45000 42.27200
C  47.36500 29.13400 41.16600
H  51.27000 21.13600 41.88600
H  57.20400 22.20400 44.08000
H  55.58000 28.14200 45.77600
H  48.46600 25.07600 42.18900
H  49.55900 22.90800 40.71500
H  49.21500 21.31900 42.63900
H  47.87600 22.13500 41.82500
H  48.57100 22.79500 43.43700
H  48.64300 26.14400 40.47900
H  48.92800 24.70900 39.60200
H  51.34000 26.18700 40.57600
H  50.42000 27.01300 39.29000
H  53.01100 18.73700 41.34100
H  51.87500 19.30800 42.60700
H  53.17400 18.35800 43.09300
H  58.13900 18.66800 43.69400
H  57.67500 20.18500 44.61100
H  58.09200 20.24700 42.89800
H  58.48800 24.96900 43.92100
H  57.26400 25.99900 46.61200
H  58.30500 22.88700 45.89300
H  59.06100 24.30000 46.55100
H  59.70700 23.46000 45.06900
H  57.91700 27.99500 46.00300
H  57.62100 27.85000 44.32100
H  59.97700 27.21500 43.99200
H  59.87200 26.28800 45.55300
H  60.23800 27.99700 45.51300
H  53.02900 30.07400 46.75400
H  52.98500 30.67500 44.99300
H  54.40700 30.17300 45.58000
H  48.84800 27.12700 43.93700
H  47.92100 28.95600 40.24500
H  47.48900 30.18200 41.43700
H  46.35700 28.74200 41.02900
Mg 17.20500 50.74800 26.34400
C  19.13800 49.65300 28.98600
C  14.71600 51.50700 28.65400
C  15.46000 51.86200 23.80000
C  19.82300 49.71500 24.12500
N  17.06100 50.65400 28.60000
C  17.93700 50.16000 29.47200
C  17.45300 50.33300 30.95600
C  15.89100 50.38000 30.64200
C  15.83800 50.90600 29.23300
C  15.12700 49.06400 30.89500
C  18.03800 51.55300 31.62200
C  18.46600 51.25600 33.02600
H  17.47000 51.83500 34.13200
N  15.43600 51.72100 26.24300
C  14.58200 52.02000 27.30100
C  13.47300 52.87800 26.69400
C  13.65500 52.95300 25.28600
C  14.86800 52.14200 25.07700
C  12.43000 53.53400 27.64600
C  12.91400 53.76600 24.24900
O  13.20700 53.79200 23.08100
C  11.81300 54.56900 24.74200
N  17.58400 50.60500 24.20300
C  16.65100 51.25600 23.38400
C  17.08500 51.15200 21.86800
C  18.53200 50.67500 22.03600
C  18.70500 50.28400 23.49800
C  16.08900 50.21600 21.06800
C  19.71700 51.59800 21.54500
C  20.30600 51.52600 20.12000
N  19.05100 49.69500 26.46800
C  20.02100 49.40700 25.54300
C  21.25700 48.89000 26.23200
C  20.92100 49.04400 27.51500
C  19.61100 49.55800 27.67800
C  22.57500 48.38400 25.60900
C  21.47500 48.84900 28.79200
O  22.62100 48.42900 29.07700
C  20.32800 49.15300 29.83400
C  20.05400 47.97100 30.61200
O  19.33700 47.00900 30.37800
O  20.72700 48.06400 31.75600
C  20.34600 47.10700 32.82900
H  13.80900 51.71300 29.22600
H  14.92800 52.22700 22.91900
H  20.67400 49.41000 23.51300
H  17.64800 49.44700 31.56000
H  15.44100 51.05200 31.37200
H  14.28400 49.13700 31.58100
H  15.83300 48.42100 31.42000
H  14.67500 48.64900 29.99400
H  17.33400 52.37300 31.48300
H  18.92800 51.81600 31.05000
H  19.39400 51.82700 33.05900
H  18.70800 50.20200 33.16100
H  11.45500 53.10300 27.41600
H  12.26200 54.58000 27.38700
H  12.62700 53.51600 28.71800
H  11.30300 55.02300 23.89300
H  12.15700 55.37500 25.39000
H  11.09300 53.88400 25.19000
H  16.98200 52.12900 21.39600
H  18.70400 49.75400 21.47800
H  16.52700 49.24700 20.82700
H  15.86300 50.75200 20.14600
H  15.22300 50.23000 21.73000
H  20.54000 51.30900 22.19800
H  19.45100 52.64100 21.71700
H  19.63600 50.91000 19.52000
H  21.33400 51.17400 20.03100
H  20.42500 52.58100 19.87300
H  22.29400 47.98100 24.63600
H  23.09300 47.61400 26.18100
H  23.20800 49.22900 25.33700
H  20.63200 49.92000 30.54600
H  19.36600 47.23300 33.29100
H  21.07700 47.16000 33.63500
H  20.46200 46.07200 32.50700

