158

Mg 1.06900 -0.98500 45.68100
C  4.30300 0.47900 45.31300
C  -0.24300 1.59300 44.01900
C  -1.82300 -2.79800 45.54500
C  2.78900 -3.87200 46.85800
N  1.99500 0.80100 44.73200
C  3.22600 1.28700 44.86600
C  3.36600 2.69800 44.20400
C  1.83600 3.07100 44.07300
C  1.10000 1.78300 44.33700
C  1.28500 4.26400 45.01800
C  4.15100 2.85100 42.80700
C  4.29400 4.33800 42.40100
H  3.60400 4.87300 41.14100
N  -0.80400 -0.65400 44.90500
C  -1.15000 0.46400 44.26400
C  -2.58900 0.44100 43.90100
C  -3.04000 -0.84700 44.28800
C  -1.87400 -1.51700 44.93600
C  -3.36800 1.56000 43.17200
C  -4.48200 -1.38700 44.07300
O  -5.28000 -0.72600 43.38000
C  -4.89600 -2.75600 44.62700
N  0.54500 -2.97500 46.15900
C  -0.71900 -3.41100 46.15800
C  -0.93400 -4.81700 46.75100
C  0.56300 -5.25000 46.99900
C  1.39300 -3.93600 46.70000
C  -1.79600 -4.81300 48.06300
C  0.87600 -6.50700 46.05100
C  1.35400 -7.74900 46.95800
N  3.08000 -1.56100 46.24300
C  3.67600 -2.72500 46.75500
C  5.10400 -2.60900 46.73200
C  5.40600 -1.38700 46.23400
C  4.17300 -0.79200 45.92200
C  6.06900 -3.56500 47.32900
C  6.43500 -0.52000 45.81500
O  7.62900 -0.77300 45.81300
C  5.80600 0.75700 45.21000
C  6.30200 1.90300 46.03400
O  6.06600 2.05600 47.22800
O  7.10300 2.75400 45.25300
C  7.52800 4.02500 45.84900
H  -0.73600 2.45100 43.55700
H  -2.66200 -3.48100 45.39700
H  3.18600 -4.85600 47.11800
H  3.88700 3.25700 44.98100
H  1.54400 3.37600 43.06800
H  2.11900 4.92300 45.25600
H  0.76500 3.92400 45.91300
H  0.61900 4.85700 44.39100
H  3.67100 2.31500 41.98800
H  5.17300 2.56000 43.04700
H  5.36200 4.51700 42.27200
H  4.06700 4.98100 43.25100
H  -2.95000 2.47000 43.60200
H  -4.45100 1.55400 43.29000
H  -3.20200 1.61700 42.09600
H  -4.30200 -3.47600 44.06500
H  -5.91300 -3.01200 44.32800
H  -4.88800 -2.87500 45.71100
H  -1.43000 -5.47300 46.03500
H  0.77400 -5.52700 48.03200
H  -2.43700 -3.95100 48.25100
H  -1.09500 -4.90500 48.89200
H  -2.37500 -5.73500 48.00800
H  1.61100 -6.25900 45.28600
H  0.02600 -6.89200 45.48800
H  1.05500 -8.69100 46.50000
H  1.09100 -7.80500 48.01400
H  2.43800 -7.83700 46.87900
H  6.93500 -3.64000 46.67200
H  5.74100 -4.60400 47.31800
H  6.47700 -3.27200 48.29700
H  6.08500 0.75600 44.15600
H  8.20600 3.84500 46.68400
H  6.70700 4.70900 46.06400
H  8.14100 4.60400 45.15900
Mg 15.92300 -1.26800 27.85600
C  14.69800 0.92300 30.39500
C  18.19600 -2.38200 30.17600
C  17.51600 -2.95300 25.36100
C  14.51500 0.88300 25.55100
N  16.41500 -0.68800 29.99700
C  15.73500 0.15300 30.84400
C  16.22900 0.00200 32.31800
C  17.50700 -0.90900 32.15400
C  17.39900 -1.33900 30.73800
C  18.84400 -0.24200 32.48000
C  15.16800 -0.51000 33.33600
C  15.09000 0.41500 34.57400
H  16.39400 1.05100 35.17100
N  17.29100 -2.75800 27.80400
C  18.13400 -3.09600 28.89900
C  18.91900 -4.25800 28.55900
C  18.70600 -4.48700 27.16500
C  17.75500 -3.34800 26.73300
C  19.85500 -4.97700 29.51100
C  19.31400 -5.41000 26.17300
O  18.99300 -5.43300 24.95800
C  20.40400 -6.37600 26.64900
N  16.09000 -1.04200 25.73000
C  16.70200 -1.93100 24.87600
C  16.45400 -1.64100 23.40700
C  15.40100 -0.43300 23.46500
C  15.27800 -0.19800 25.00400
C  17.78900 -1.31700 22.56000
C  14.06600 -0.79000 22.94900
C  13.27900 0.38200 22.32400
N  14.69700 0.49200 27.90800
C  14.19200 1.16800 26.90300
C  13.35200 2.28200 27.40900
C  13.43300 2.14400 28.82000
C  14.36000 1.10400 29.02600
C  12.59200 3.27700 26.52800
C  13.02900 2.84100 29.97100
O  12.36000 3.83400 30.19900
C  13.75500 1.95300 31.14000
C  14.48000 2.91500 31.92500
O  15.50400 3.47900 31.57700
O  13.81200 3.23300 33.08100
C  14.29400 4.50400 33.66400
H  18.84700 -2.76900 30.96200
H  17.86600 -3.60400 24.55700
H  14.09600 1.49300 24.74800
H  16.57300 0.99100 32.62000
H  17.41000 -1.85200 32.69100
H  18.65400 0.68500 33.02200
H  19.37500 0.00400 31.56100
H  19.36200 -0.89500 33.18200
H  15.38000 -1.55200 33.57700
H  14.23000 -0.53000 32.78000
H  14.60100 -0.08200 35.41200
H  14.43200 1.22700 34.26300
H  19.47100 -5.98000 29.69500
H  19.90600 -4.40900 30.43900
H  20.87700 -4.95500 29.13200
H  21.12300 -6.01500 27.38400
H  20.96800 -6.59700 25.74300
H  19.83200 -7.19300 27.08900
H  15.99900 -2.51200 22.93500
H  15.83500 0.51400 23.14600
H  17.89400 -0.24500 22.39500
H  17.86100 -1.74800 21.56200
H  18.65700 -1.43800 23.20800
H  13.50900 -1.35800 23.69300
H  14.29500 -1.45700 22.11700
H  12.81100 0.10100 21.38100
H  13.92700 1.24400 22.16400
H  12.45600 0.68500 22.97100
H  13.34300 3.98200 26.17300
H  11.84400 3.84200 27.08500
H  12.11100 2.85100 25.64800
H  13.05000 1.42000 31.77800
H  13.51500 4.81800 34.35800
H  14.48900 5.34300 32.99500
H  15.16600 4.16900 34.22500

