158

Mg 16.98900 -1.01400 27.34200
C  16.25400 0.92400 30.09900
C  19.16600 -2.87600 29.32200
C  18.40200 -2.45500 24.54900
C  15.33000 1.19700 25.28700
N  17.72500 -0.81900 29.41000
C  17.14600 -0.05700 30.41900
C  17.65600 -0.43100 31.78900
C  18.76000 -1.54000 31.51700
C  18.56900 -1.75400 29.92300
C  20.26900 -1.26200 31.89300
C  16.48900 -0.89200 32.71300
C  16.32600 -0.23400 34.01400
H  17.56700 0.49200 34.66900
N  18.41500 -2.57900 26.98400
C  19.12500 -3.27700 27.97400
C  19.74700 -4.42200 27.38900
C  19.53000 -4.33600 25.93900
C  18.78700 -3.06200 25.75600
C  20.57100 -5.43900 28.20900
C  19.89400 -5.25400 24.82900
O  19.74900 -4.86800 23.65100
C  20.69200 -6.63800 25.07600
N  16.85800 -0.69600 25.24500
C  17.49600 -1.40700 24.28500
C  17.06000 -1.02500 22.84700
C  15.99600 0.05300 23.09000
C  16.09900 0.28200 24.65100
C  18.13600 -0.66000 21.81800
C  14.55400 -0.21300 22.51200
C  14.14400 0.77600 21.44500
N  15.81400 0.64300 27.59700
C  15.16500 1.42700 26.67300
C  14.46300 2.43700 27.38900
C  14.74000 2.25700 28.77800
C  15.61700 1.14400 28.84400
C  13.59000 3.49700 26.70200
C  14.60800 2.80900 30.14400
O  14.00700 3.81500 30.49900
C  15.52000 1.89100 31.05200
C  16.48700 2.76900 31.84700
O  17.53400 3.15400 31.48800
O  15.90600 3.11100 33.05700
C  16.44700 4.30700 33.69400
H  19.79000 -3.49500 29.97100
H  18.75500 -2.91200 23.62200
H  14.82600 1.82100 24.54600
H  18.06000 0.46600 32.25700
H  18.49100 -2.44800 32.05700
H  20.61200 -2.21800 32.28900
H  20.28500 -0.63100 32.78100
H  20.82800 -0.91300 31.02500
H  16.72600 -1.93700 32.90800
H  15.54500 -1.00700 32.18100
H  15.97800 -0.96800 34.74100
H  15.54400 0.51300 33.87600
H  20.32800 -6.50000 28.15200
H  20.57500 -5.21000 29.27400
H  21.62100 -5.26800 27.96900
H  21.58100 -6.53400 25.69800
H  21.04800 -7.15700 24.18600
H  19.95600 -7.32700 25.48900
H  16.46600 -1.86600 22.49100
H  16.40600 1.02200 22.80600
H  17.96700 0.33800 21.41500
H  18.23000 -1.52600 21.16200
H  19.07700 -0.55600 22.35700
H  13.80600 -0.01300 23.28000
H  14.36300 -1.23000 22.17200
H  14.88600 1.51700 21.14900
H  13.22900 1.26400 21.78200
H  13.79100 0.22000 20.57600
H  13.54600 3.41600 25.61600
H  13.95900 4.48800 26.96500
H  12.59700 3.34800 27.12700
H  14.91300 1.40900 31.81800
H  17.32000 4.02400 34.28100
H  15.80400 4.69200 34.48600
H  16.71000 5.06500 32.95600
Mg 0.53200 43.32100 26.01200
C  1.87500 43.18300 29.29200
C  -2.45100 42.13400 27.30500
C  -0.53600 42.58200 22.83800
C  3.71400 44.03600 24.77800
N  -0.24300 42.95000 28.05900
C  0.49000 43.00700 29.25200
C  -0.32500 42.59900 30.42900
C  -1.75000 42.19200 29.75300
C  -1.45400 42.39200 28.26100
C  -2.13000 40.68500 30.04000
C  -0.52500 43.82100 31.42400
C  -0.69600 43.44200 32.90200
H  -1.78900 42.47700 33.36800
N  -1.28900 42.53200 25.17300
C  -2.40700 42.15600 25.92800
C  -3.44200 41.82100 24.98500
C  -2.92900 41.97300 23.68600
C  -1.54500 42.35400 23.82500
C  -4.83000 41.49900 25.47600
C  -3.66500 41.99100 22.37600
O  -3.07300 42.19800 21.32900
C  -5.09600 41.70600 22.31400
N  1.44500 43.27600 24.11600
C  0.83000 42.87200 22.96700
C  1.71300 43.10300 21.74500
C  2.83000 44.04900 22.34000
C  2.67600 43.76900 23.88800
C  2.26000 41.88900 21.02400
C  2.71400 45.51100 21.99100
C  3.57300 46.02400 20.90800
N  2.46300 43.59300 26.77000
C  3.72700 43.84600 26.19900
C  4.77900 43.72100 27.26400
C  4.04000 43.57800 28.47600
C  2.63200 43.45800 28.13300
C  6.22400 43.87000 26.92500
C  4.27000 43.44200 29.87200
O  5.30000 43.27700 30.53400
C  2.86900 43.17200 30.52100
C  2.97300 41.75200 30.96700
O  2.70100 40.76000 30.28000
O  3.20100 41.79200 32.31400
C  2.85800 40.63100 32.99900
H  -3.43200 41.90900 27.72900
H  -0.83800 42.26600 21.83700
H  4.68100 44.36600 24.39100
H  0.10300 41.73500 30.93800
H  -2.61400 42.82900 29.94600
H  -1.80900 40.08600 29.18700
H  -3.21700 40.70700 30.12800
H  -1.69600 40.25700 30.94300
H  -1.28200 44.52400 31.07600
H  0.39800 44.40000 31.45600
H  -0.84700 44.31500 33.53700
H  0.29200 43.08500 33.19600
H  -5.48100 42.32100 25.77300
H  -4.81300 40.75800 26.27500
H  -5.40800 40.92700 24.75000
H  -5.16800 40.65400 22.59000
H  -5.44900 41.69600 21.28300
H  -5.62200 42.35000 23.01900
H  1.10500 43.67400 21.04300
H  3.78100 43.62500 22.01700
H  1.84700 40.93700 21.35800
H  3.34000 41.83600 21.16100
H  2.26600 42.11100 19.95700
H  2.83700 46.10900 22.89400
H  1.66200 45.66600 21.75300
H  3.02700 46.27000 19.99700
H  4.19300 45.21400 20.52400
H  4.25400 46.83900 21.15000
H  6.64000 43.11300 26.26000
H  6.66400 43.64800 27.89700
H  6.44700 44.87900 26.57800
H  2.51400 43.83100 31.31300
H  2.74900 41.01700 34.01300
H  3.64100 39.88300 32.86800
H  1.91200 40.18700 32.68800

