158

Mg -0.18800 44.20100 24.98700
C  1.71900 44.45000 28.06600
C  -2.85200 43.24900 26.77200
C  -1.84500 43.45500 22.07800
C  2.77200 44.35200 23.26000
N  -0.43900 43.81600 27.21600
C  0.35500 44.17000 28.33700
C  -0.42500 43.90200 29.61200
C  -1.90700 43.52400 29.12500
C  -1.69400 43.49300 27.59000
C  -2.54100 42.25200 29.82000
C  -0.43800 45.18500 30.49600
C  0.07400 44.88100 31.95900
H  -0.22700 43.41700 32.51700
N  -2.18800 43.57700 24.48600
C  -3.08900 43.23600 25.42700
C  -4.34900 42.91800 24.76000
C  -4.14600 43.12200 23.34900
C  -2.68500 43.32200 23.21700
C  -5.57000 42.41700 25.65500
C  -5.11800 43.06600 22.16300
O  -4.76000 43.30800 21.02300
C  -6.66100 42.97400 22.58100
N  0.38600 44.02500 23.02500
C  -0.46800 43.76700 22.01100
C  0.23500 43.81900 20.66100
C  1.57800 44.38500 21.06000
C  1.54000 44.27400 22.50800
C  0.31000 42.42300 20.04100
C  1.86300 45.89700 20.52000
C  1.66800 47.03000 21.45500
N  1.81800 44.40900 25.46600
C  2.93400 44.45800 24.65400
C  4.12100 44.63800 25.45000
C  3.68500 44.62400 26.81400
C  2.29400 44.52400 26.81500
C  5.51900 44.88100 25.02600
C  4.14600 44.68900 28.23900
O  5.27700 44.78100 28.68100
C  2.81700 44.70300 29.06300
C  2.90700 43.68200 30.20500
O  2.42400 42.55000 30.16500
O  3.69900 44.17300 31.18700
C  4.05300 43.13100 32.15000
H  -3.74000 43.04300 27.37300
H  -2.44200 43.46300 21.16400
H  3.68500 44.37500 22.66200
H  0.11400 43.08700 30.09600
H  -2.56900 44.36700 29.32100
H  -3.49000 42.58300 30.24300
H  -1.79200 41.79400 30.46700
H  -2.62900 41.56200 28.98100
H  -1.47600 45.50700 30.58700
H  0.24700 45.97300 30.18300
H  -0.24700 45.67000 32.63900
H  1.16000 44.89200 31.87000
H  -6.11000 41.63400 25.12200
H  -6.25400 43.24500 25.83800
H  -5.19800 41.92200 26.55200
H  -6.98800 41.95300 22.78200
H  -7.25700 43.38200 21.76600
H  -7.00900 43.46500 23.49000
H  -0.30200 44.52100 20.02300
H  2.36400 43.67700 20.79700
H  1.23100 42.42100 19.45800
H  -0.50300 42.13500 19.37400
H  0.28500 41.72200 20.87600
H  1.21800 46.10300 19.66500
H  2.81600 46.10400 20.03400
H  1.03800 47.81300 21.03400
H  2.62800 47.48500 21.70200
H  1.07300 46.76900 22.33000
H  5.74300 45.16200 23.99700
H  6.07900 43.97600 25.25900
H  5.74700 45.74600 25.64900
H  2.70700 45.62400 29.63400
H  4.96300 42.61200 31.84900
H  3.31500 42.33000 32.20600
H  4.25000 43.54800 33.13700
Mg -5.10100 25.73000 26.98900
C  -4.00300 27.52800 29.64700
C  -6.80300 23.58100 28.94900
C  -5.90300 23.86400 24.18100
C  -3.24000 27.91800 24.87500
N  -5.28300 25.54200 29.04600
C  -4.73500 26.37900 29.99700
C  -5.21300 25.99400 31.36800
C  -5.82700 24.62100 31.15100
C  -6.07200 24.58200 29.60700
C  -4.99400 23.42100 31.64700
C  -6.29500 27.00200 31.87200
C  -6.59100 27.05000 33.33300
H  -6.10000 25.99000 34.33900
N  -6.12400 23.90800 26.61000
C  -6.91900 23.31800 27.53400
C  -7.74500 22.18600 26.92900
C  -7.39800 22.26000 25.54100
C  -6.45800 23.36000 25.38100
C  -8.77300 21.28000 27.66700
C  -7.83800 21.35800 24.47000
O  -7.44500 21.54700 23.31300
C  -8.78200 20.12900 24.76000
N  -4.43000 25.75900 24.89900
C  -4.96900 24.89900 23.92700
C  -4.45000 25.23600 22.53000
C  -3.78900 26.67300 22.73900
C  -3.77600 26.78100 24.27800
C  -3.42100 24.11300 22.05800
C  -4.59200 27.83000 22.02800
C  -3.71900 28.72700 21.13700
N  -3.87900 27.38600 27.24600
C  -3.22700 28.22100 26.26800
C  -2.60100 29.30600 26.94500
C  -2.87100 29.06900 28.29100
C  -3.67000 27.94000 28.39600
C  -1.78000 30.34200 26.29600
C  -2.71700 29.58700 29.60000
O  -2.08500 30.54600 30.03300
C  -3.43200 28.60800 30.58000
C  -2.47500 28.17600 31.65200
O  -1.41900 27.59300 31.44600
O  -3.03700 28.44300 32.85700
C  -2.12800 27.95700 33.90300
H  -7.40600 22.95600 29.61100
H  -6.11300 23.41200 23.20900
H  -2.56400 28.56000 24.30600
H  -4.38200 25.99000 32.07300
H  -6.74900 24.70400 31.72700
H  -3.99800 23.75600 31.93600
H  -4.92600 22.58200 30.95400
H  -5.53800 23.01600 32.50100
H  -7.21600 26.87400 31.30300
H  -5.94800 28.01000 31.64600
H  -7.67000 26.91800 33.24800
H  -6.34900 28.06200 33.65600
H  -9.69300 21.26400 27.08300
H  -8.93000 21.81200 28.60500
H  -8.47200 20.26000 27.90700
H  -8.53700 19.55200 25.65200
H  -8.68100 19.43300 23.92700
H  -9.79700 20.51900 24.68200
H  -5.25600 25.23000 21.79500
H  -2.76400 26.71000 22.37000
H  -3.73900 23.62800 21.13400
H  -3.23000 23.39900 22.85900
H  -2.40800 24.50800 21.98200
H  -5.12000 28.39200 22.79800
H  -5.38500 27.45900 21.37900
H  -2.68800 28.68200 21.48800
H  -4.13900 29.70900 20.91800
H  -3.70600 28.19700 20.18500
H  -2.23100 30.92600 25.49400
H  -0.90100 29.94700 25.78600
H  -1.52900 31.12200 27.01500
H  -4.23100 29.23300 30.97700
H  -2.28600 26.88100 33.97400
H  -2.38300 28.34700 34.88900
H  -1.08400 28.19900 33.70000

