158

Mg 41.57400 7.95100 29.77700
C  43.25600 9.39700 32.45400
C  39.43800 6.44400 31.99000
C  39.82200 6.78800 27.12500
C  44.02800 9.07200 27.56000
N  41.53400 7.73200 31.99900
C  42.13100 8.59600 32.89700
C  41.57200 8.36300 34.37100
C  40.43600 7.29100 34.15600
C  40.50000 7.06400 32.61700
C  40.61100 5.90600 34.89500
C  41.12700 9.73300 34.83500
C  40.93700 9.92500 36.35200
H  41.62400 11.04500 37.11100
N  39.80000 7.01000 29.61200
C  39.06100 6.41700 30.59400
C  37.79800 6.00000 30.06900
C  37.86100 6.19300 28.63000
C  39.14900 6.70400 28.37700
C  36.64100 5.48400 30.89800
C  36.74200 6.03500 27.63700
O  36.88200 6.18000 26.42900
C  35.33900 5.77400 28.17200
N  41.94400 7.86600 27.64100
C  41.08600 7.31900 26.79300
C  41.60500 7.47500 25.30300
C  42.76400 8.55100 25.45500
C  42.96000 8.49700 26.96500
C  41.95500 6.16600 24.63000
C  42.59700 9.98000 24.87100
C  41.33600 10.73900 25.13600
N  43.32500 8.89800 29.91400
C  44.23200 9.31500 28.89500
C  45.35000 10.03000 29.57700
C  44.97500 10.13000 30.91400
C  43.81800 9.38700 31.09500
C  46.52700 10.53800 28.81100
C  45.33200 10.75800 32.17700
O  46.32100 11.51700 32.41800
C  44.28500 10.29500 33.20400
C  45.02900 9.64300 34.36600
O  45.98900 8.89300 34.29600
O  44.48000 10.11500 35.51200
C  44.98500 9.74300 36.88900
H  38.66700 6.26300 32.74200
H  39.32000 6.50100 26.19900
H  44.77000 9.39800 26.82900
H  42.33900 8.00800 35.06000
H  39.44100 7.58400 34.49200
H  39.84800 5.81400 35.66800
H  41.56300 5.77400 35.40900
H  40.39400 5.08800 34.20800
H  40.21200 9.89300 34.26500
H  41.78200 10.57200 34.60200
H  41.17000 8.92400 36.71600
H  39.90400 10.27100 36.35300
H  36.68700 4.41700 30.67500
H  35.62600 5.81600 30.67800
H  36.72500 5.49300 31.98400
H  35.14400 6.61200 28.84100
H  35.25200 4.87200 28.77800
H  34.59800 5.71400 27.37500
H  40.79200 7.80300 24.65500
H  43.66400 8.11700 25.02000
H  43.02100 6.20700 24.40700
H  41.27400 6.03300 23.78900
H  41.73200 5.35000 25.31800
H  42.96100 10.14300 23.85600
H  43.37000 10.52900 25.40800
H  41.01800 11.23100 24.21700
H  41.43600 11.66000 25.71100
H  40.58200 10.13600 25.64300
H  46.84900 9.77600 28.10200
H  47.35500 10.90300 29.41900
H  46.11600 11.32400 28.17700
H  43.85200 11.21400 33.59800
H  46.04700 9.51200 36.80100
H  44.31500 9.06400 37.41600
H  44.95700 10.67200 37.45800
Mg 40.81200 40.27600 27.69800
C  40.52900 42.99100 29.99200
C  41.80800 38.33700 30.39700
C  41.52300 37.88800 25.54200
C  40.09000 42.51100 25.18400
N  41.21700 40.71400 29.91900
C  40.93200 41.80800 30.63800
C  41.07500 41.61900 32.14000
C  41.66700 40.19400 32.17900
C  41.55600 39.68700 30.77200
C  43.08400 40.08600 32.78200
C  39.65500 41.64700 32.80900
C  39.57600 42.66400 34.04300
H  38.86400 42.20000 35.35100
N  41.50900 38.29300 27.93400
C  41.84200 37.67900 29.11300
C  42.16800 36.32600 28.78400
C  42.29600 36.21800 27.35100
C  41.78500 37.46500 26.85700
C  42.45000 35.28600 29.85100
C  42.73600 35.08200 26.48000
O  42.78200 35.09600 25.25300
C  43.11200 33.78600 27.09800
N  40.93000 40.15500 25.68500
C  41.02000 39.02800 24.99600
C  40.83900 39.27700 23.50400
C  40.22000 40.66500 23.46600
C  40.49000 41.18200 24.86300
C  42.05100 39.11200 22.66900
C  38.71400 40.77800 23.05500
C  37.67600 39.93000 23.79000
N  40.39100 42.37500 27.51500
C  40.05300 43.08800 26.42800
C  39.73100 44.40900 26.85800
C  39.83600 44.48200 28.24900
C  40.29100 43.16900 28.60100
C  39.40100 45.56500 25.93100
C  39.73400 45.31800 29.50600
O  39.50600 46.54500 29.60200
C  40.04400 44.35900 30.68100
C  41.07500 44.89500 31.52900
O  42.24800 44.69700 31.35100
O  40.61600 45.60500 32.52400
C  41.59100 46.09500 33.51000
H  41.93600 37.64200 31.23000
H  41.57200 37.00500 24.90300
H  39.87400 43.18700 24.35400
H  41.75000 42.37900 32.53500
H  41.07600 39.57800 32.85700
H  43.76600 40.88400 32.48600
H  43.49600 39.08500 32.65200
H  42.90800 40.18700 33.85300
H  39.26800 40.68900 33.15700
H  38.96800 42.05500 32.06600
H  39.07600 43.57900 33.72800
H  40.58800 42.86600 34.39600
H  41.86200 35.39600 30.76100
H  43.49600 35.44700 30.11500
H  42.26100 34.24200 29.60000
H  42.28300 33.33700 27.64500
H  43.99700 33.97100 27.70800
H  43.41800 33.13300 26.28100
H  40.16600 38.46300 23.23500
H  40.86900 41.27100 22.83400
H  42.89400 38.74300 23.25200
H  42.35600 40.02400 22.15700
H  41.96500 38.36700 21.87700
H  38.74300 40.30000 22.07600
H  38.55300 41.84500 22.90300
H  36.82500 40.60200 23.89700
H  37.95700 39.83100 24.83900
H  37.36100 39.02500 23.27100
H  39.74700 45.25300 24.94600
H  39.94000 46.47600 26.19200
H  38.34500 45.82300 25.85000
H  39.06600 44.36800 31.16200
H  42.30600 46.83100 33.14200
H  42.07200 45.27500 34.04400
H  41.08600 46.55900 34.35800

