158

Mg -1.85300 17.12300 26.01800
C  -2.67500 14.85500 28.54800
C  -2.89200 19.73900 27.90600
C  -1.90900 19.25300 23.21700
C  -1.81300 14.39200 23.70600
N  -2.70100 17.19300 27.92900
C  -2.90100 16.19600 28.81300
C  -3.32900 16.84200 30.11100
C  -3.60700 18.30600 29.86000
C  -2.96300 18.43800 28.47900
C  -5.05400 18.84300 29.91100
C  -2.30200 16.52200 31.21200
C  -2.60600 17.06700 32.56900
H  -2.60200 16.13900 33.74200
N  -2.00200 19.26900 25.70200
C  -2.41500 20.13300 26.61600
C  -2.10000 21.47800 26.17900
C  -1.71300 21.31600 24.78800
C  -1.93400 19.93900 24.43500
C  -2.37500 22.69000 26.99500
C  -1.16200 22.37300 23.87800
O  -0.92800 22.14700 22.72100
C  -0.78000 23.67300 24.51700
N  -1.71900 16.87000 23.81800
C  -1.91000 17.89600 22.91100
C  -1.80300 17.43500 21.47200
C  -1.46400 15.91300 21.67800
C  -1.71200 15.67000 23.16300
C  -3.16700 17.66500 20.68400
C  -0.03400 15.46400 21.36500
C  1.06200 16.23100 22.15500
N  -2.07900 14.92500 26.06700
C  -2.00000 13.99900 25.11000
C  -2.22500 12.74000 25.78900
C  -2.41400 12.96800 27.12300
C  -2.31300 14.38200 27.25900
C  -2.34700 11.40000 25.08500
C  -2.56000 12.33700 28.42800
O  -2.49100 11.14900 28.76500
C  -2.68400 13.54400 29.42400
C  -1.49000 13.40100 30.31100
O  -0.41600 13.80500 30.06400
O  -1.77700 12.54700 31.31600
C  -0.71800 12.07900 32.21400
H  -3.19500 20.50800 28.62000
H  -1.88500 20.00000 22.42100
H  -1.69700 13.57100 22.99500
H  -4.23500 16.31600 30.41300
H  -3.04300 18.98500 30.49900
H  -5.22600 19.09000 30.95900
H  -5.63500 17.93300 29.76200
H  -5.24600 19.57100 29.12300
H  -1.38800 16.83900 30.71000
H  -2.41000 15.45600 31.41500
H  -3.61100 17.48200 32.63400
H  -1.92800 17.90600 32.72800
H  -2.76900 22.34700 27.95100
H  -3.05300 23.37800 26.48800
H  -1.46700 23.25900 27.19400
H  -1.58400 24.33100 24.84600
H  -0.36700 24.23900 23.68200
H  0.03500 23.53100 25.22700
H  -1.12800 18.07100 20.89900
H  -2.10000 15.28400 21.05700
H  -3.90900 18.12100 21.34000
H  -3.61000 16.73600 20.32300
H  -3.04400 18.23000 19.76000
H  0.23200 15.59200 20.31500
H  0.01500 14.40100 21.59900
H  1.75700 16.68800 21.45200
H  1.46100 15.55800 22.91400
H  0.55100 17.00800 22.72400
H  -1.86400 11.52100 24.11500
H  -3.36500 11.09600 24.84100
H  -1.79700 10.74600 25.76200
H  -3.55800 13.42100 30.06300
H  -0.98200 12.56800 33.15200
H  0.23400 12.53800 31.94700
H  -0.69800 11.01800 32.46300
Mg 6.61300 55.42600 42.25900
C  6.36800 52.00200 41.71200
C  9.95200 55.25900 41.03200
C  6.68700 58.79900 41.94000
C  3.16500 55.49900 43.09400
N  7.89100 53.83700 41.33200
C  7.60000 52.51500 41.22600
C  8.77600 51.65900 40.78000
C  9.95000 52.64300 41.07400
C  9.25200 54.02700 41.19700
C  10.77300 52.20200 42.33400
C  8.76000 51.26300 39.21900
C  9.87300 50.28200 38.72600
H  10.40400 50.36700 37.28400
N  8.03500 56.89500 41.43800
C  9.36300 56.58200 41.12400
C  9.96100 57.73700 40.60200
C  9.13600 58.86600 40.83700
C  7.87700 58.21700 41.51300
C  11.35100 57.90600 39.78700
C  9.39900 60.35200 40.60300
O  10.52500 60.79300 40.27600
C  8.25900 61.36200 40.68000
N  5.12600 56.89900 42.39500
C  5.43700 58.23700 42.39600
C  4.27200 59.10300 42.79800
C  3.26200 58.03100 43.20700
C  3.84200 56.70800 42.81700
C  4.58000 60.16100 43.86600
C  1.89100 58.09600 42.45800
C  0.64800 58.14600 43.33800
N  5.14600 54.00900 42.70700
C  3.80800 54.18500 43.00000
C  3.28900 52.87200 43.35700
C  4.21500 51.96300 42.77500
C  5.27800 52.74100 42.31500
C  2.02100 52.61700 44.17400
C  4.49500 50.52800 42.45100
O  3.79100 49.50800 42.51300
C  6.00500 50.49700 41.80200
C  5.81200 49.85700 40.43500
O  5.24200 50.36100 39.46200
O  6.50900 48.68900 40.37100
C  6.41800 48.05600 39.04000
H  10.97700 55.30900 40.66000
H  6.54800 59.87300 41.79500
H  2.18200 55.51200 43.57000
H  8.86700 50.72100 41.32700
H  10.69000 52.71600 40.27800
H  11.01500 53.09600 42.90900
H  11.63400 51.56700 42.12400
H  10.18000 51.53100 42.95600
H  8.74100 52.18300 38.63500
H  7.82600 50.74300 39.00300
H  9.35000 49.32700 38.67500
H  10.60500 50.18600 39.52700
H  11.23300 58.61600 38.96900
H  11.82900 56.99800 39.42000
H  12.17700 58.38300 40.31600
H  7.96600 61.54500 41.71400
H  7.54900 60.86500 40.01900
H  8.48900 62.29100 40.15700
H  3.90400 59.67400 41.94600
H  3.08200 58.00400 44.28200
H  3.97100 60.01300 44.75800
H  4.60500 61.19100 43.51000
H  5.63900 60.08800 44.11300
H  1.77900 57.23700 41.79600
H  1.83200 58.99900 41.85000
H  0.04900 59.05600 43.31400
H  0.87000 57.97300 44.39100
H  0.03300 57.31200 43.00000
H  1.44100 51.84100 43.67500
H  1.45300 53.52900 44.36000
H  2.25000 52.19100 45.15100
H  6.45000 49.80000 42.51300
H  6.13600 47.04300 39.32700
H  7.39400 48.13900 38.56300
H  5.59600 48.41500 38.42000

