158

Mg 46.63500 34.85600 28.59700
C  44.82600 33.14900 31.00700
C  46.55400 37.57700 30.66800
C  47.60100 36.90800 26.00900
C  45.73900 32.45800 26.31800
N  45.97300 35.20400 30.71700
C  45.22700 34.38100 31.50400
C  44.99400 34.95400 32.85900
C  45.12500 36.45900 32.50300
C  45.95200 36.41000 31.22500
C  43.85600 37.36200 32.33800
C  46.02700 34.38400 33.88800
C  45.42000 34.34600 35.30000
H  45.40900 35.69800 36.01400
N  47.31500 36.89100 28.46200
C  47.19300 37.84100 29.45500
C  47.87800 39.04500 29.00100
C  48.25800 38.79900 27.64500
C  47.78800 37.47400 27.31100
C  48.02800 40.23200 29.93500
C  49.02100 39.65900 26.70000
O  49.29900 39.34500 25.56700
C  49.31200 41.01100 27.05100
N  46.66700 34.75400 26.46800
C  47.15600 35.65100 25.59700
C  47.20400 35.09200 24.18000
C  46.75200 33.63000 24.32600
C  46.39100 33.59500 25.82300
C  46.42100 35.89700 23.00200
C  47.75500 32.54400 23.78900
C  47.16600 31.68400 22.68600
N  45.49400 33.17700 28.58800
C  45.32000 32.22500 27.60900
C  44.55700 31.05200 28.20500
C  44.41700 31.40600 29.53800
C  44.98700 32.65900 29.74400
C  44.06500 29.81300 27.40300
C  43.84300 30.89200 30.76700
O  43.33700 29.83900 31.07600
C  43.96600 32.09900 31.77900
C  44.64100 31.59700 32.99300
O  45.84000 31.33900 33.11500
O  43.63000 31.36500 33.88400
C  44.04000 30.77100 35.16100
H  46.42300 38.37700 31.39900
H  47.99100 37.54700 25.21400
H  45.53200 31.68900 25.57100
H  43.97800 34.65400 33.11600
H  45.63800 36.90300 33.35600
H  43.02500 36.70100 32.58200
H  43.83900 37.67900 31.29500
H  43.91900 38.26800 32.94100
H  46.84400 35.10400 33.94100
H  46.42700 33.41200 33.60000
H  46.02400 33.62700 35.85300
H  44.41400 33.92600 35.31500
H  48.02500 41.17300 29.38500
H  48.88400 40.07100 30.59000
H  47.08500 40.23200 30.48100
H  48.43900 41.55500 27.41100
H  49.72100 41.57800 26.21500
H  50.06100 40.96200 27.84100
H  48.25300 35.09300 23.88100
H  45.84200 33.52200 23.73600
H  45.63200 35.35000 22.48700
H  47.22200 36.05300 22.27800
H  45.89900 36.80900 23.29400
H  48.07100 31.99100 24.67400
H  48.65300 33.05500 23.44500
H  46.15200 31.95300 22.39200
H  47.24100 30.61500 22.88700
H  47.75600 31.72800 21.77100
H  44.78800 29.04300 27.67300
H  43.99900 29.93900 26.32300
H  43.11700 29.44200 27.79300
H  42.96000 32.43800 32.02800
H  43.50000 29.84100 35.34100
H  43.83200 31.37700 36.04300
H  45.08800 30.50700 35.30800
Mg 0.17100 42.34900 25.76300
C  2.58100 42.40000 28.32300
C  -2.02800 41.25300 28.13300
C  -2.10200 42.29800 23.48400
C  2.71500 43.15800 23.44800
N  0.31700 41.77600 27.97900
C  1.35200 41.99500 28.88100
C  0.87300 42.06300 30.31200
C  -0.51400 41.42200 30.24300
C  -0.77400 41.49000 28.70100
C  -0.71000 39.96200 30.68500
C  0.92900 43.50800 30.96100
C  1.88400 43.57700 32.19600
H  1.82600 42.48500 33.27600
N  -1.78000 41.83500 25.80100
C  -2.48700 41.35400 26.81400
C  -3.82300 41.00300 26.42100
C  -3.91500 41.52400 25.10300
C  -2.58000 41.99300 24.74600
C  -4.76900 40.43500 27.39800
C  -5.18400 41.58400 24.23200
O  -5.07400 42.04500 23.06500
C  -6.57400 41.13200 24.67400
N  0.26400 42.82700 23.73700
C  -0.84100 42.68400 22.97300
C  -0.50300 43.04700 21.50500
C  1.03500 43.44700 21.58600
C  1.42400 43.13400 22.97700
C  -0.91300 41.98200 20.52800
C  1.37000 44.92300 21.18600
C  1.01900 46.12900 22.14000
N  2.15600 42.59400 25.75900
C  3.06600 42.89900 24.78500
C  4.37700 43.04900 25.38800
C  4.22700 42.78200 26.74000
C  2.87200 42.57500 26.94400
C  5.59700 43.40000 24.56700
C  4.96300 42.66600 27.96300
O  6.19100 42.81800 28.20200
C  3.93900 42.51800 29.08000
C  4.33500 41.30000 29.87300
O  4.28400 40.13100 29.46600
O  4.83600 41.69300 31.10800
C  5.33200 40.61300 31.96600
H  -2.77800 40.89800 28.84200
H  -2.83300 42.10600 22.69500
H  3.46400 43.42200 22.69900
H  1.55100 41.36800 30.80800
H  -1.34000 41.98100 30.68400
H  0.12300 39.75100 31.35500
H  -0.94200 39.20700 29.93200
H  -1.57500 39.91400 31.34700
H  -0.06700 43.94100 31.05800
H  1.34200 44.17600 30.20600
H  1.72500 44.55700 32.64800
H  2.85400 43.59200 31.70000
H  -4.41700 39.61100 28.01800
H  -5.70500 40.08300 26.96500
H  -4.92900 41.26000 28.09200
H  -6.65200 40.07100 24.91100
H  -7.33100 41.49200 23.97700
H  -6.72400 41.59900 25.64700
H  -1.17000 43.90100 21.39300
H  1.63100 42.89100 20.86100
H  -1.35700 41.07800 20.94500
H  0.01200 41.64300 20.06300
H  -1.66400 42.36800 19.83900
H  0.94200 45.04600 20.19100
H  2.45200 45.02500 21.09400
H  1.71100 46.39900 22.93800
H  0.02400 46.02000 22.57200
H  0.84000 46.99000 21.49700
H  6.55300 43.34100 25.08700
H  5.45700 44.43900 24.26900
H  5.56600 42.85400 23.62400
H  3.88800 43.42200 29.68600
H  6.20100 40.15600 31.49400
H  4.63800 39.79300 32.15500
H  5.51700 41.13400 32.90600

