158

Mg 46.63800 4.22700 46.94300
C  44.55700 6.79600 46.69200
C  43.84400 2.11700 46.49400
C  48.84200 1.69500 46.55500
C  49.29800 6.50200 46.85700
N  44.47400 4.45500 46.59500
C  43.83900 5.65400 46.51600
C  42.44100 5.46500 45.97300
C  42.03400 4.01600 46.55500
C  43.52300 3.44900 46.58900
C  41.31700 3.95700 47.89000
C  42.30200 5.80100 44.52900
C  41.48600 7.06800 44.16500
H  42.00200 8.13000 43.11400
N  46.40600 2.23600 46.49100
C  45.11700 1.54200 46.38600
C  45.47900 0.14900 46.21500
C  46.91000 0.02000 46.19500
C  47.41800 1.37800 46.39200
C  44.41300 -0.91700 46.01800
C  47.68500 -1.28900 45.75500
O  47.09500 -2.33700 45.54900
C  49.21100 -1.36800 45.56900
N  48.77400 4.13700 46.67600
C  49.44400 2.95700 46.71900
C  50.94300 3.16000 46.63300
C  51.16300 4.70500 46.68100
C  49.63100 5.15000 46.71400
C  51.62000 2.40700 47.85100
C  52.03200 5.29100 45.52600
C  53.50500 5.03000 45.44400
N  46.93500 6.29800 46.94200
C  48.01400 7.12800 46.95000
C  47.67200 8.55600 46.96800
C  46.22300 8.45300 46.89800
C  45.89900 7.05100 46.84500
C  48.51800 9.74000 47.21000
C  45.08100 9.22100 46.95300
O  44.88800 10.40800 47.17400
C  43.87100 8.13500 46.68800
C  42.80800 8.24700 47.66700
O  42.74900 7.55700 48.69000
O  41.85100 9.17100 47.27500
C  40.73000 9.22200 48.14400
H  42.90600 1.55800 46.48700
H  49.60200 0.91800 46.45200
H  50.10300 7.22100 47.02500
H  41.81700 6.17100 46.52100
H  41.52700 3.45900 45.76800
H  40.31000 3.65800 47.59800
H  41.14200 4.88700 48.43000
H  41.69700 3.18400 48.55800
H  41.85300 4.88600 44.14200
H  43.30300 5.89500 44.10800
H  41.48200 7.59300 45.12000
H  40.45000 6.77400 43.99900
H  44.71000 -1.65400 45.27300
H  43.46000 -0.54400 45.64200
H  44.13300 -1.41300 46.94800
H  49.73700 -1.18800 46.50600
H  49.50000 -0.58400 44.86900
H  49.63400 -2.34400 45.33000
H  51.26300 2.78700 45.66000
H  51.63300 5.16700 47.55000
H  50.99500 1.81700 48.52200
H  52.15200 3.09000 48.51300
H  52.37200 1.72400 47.45600
H  51.75900 6.34600 45.55400
H  51.61800 4.91600 44.59100
H  53.70900 4.74600 44.41100
H  53.76600 4.25000 46.15900
H  54.12500 5.90400 45.63900
H  48.29200 10.05300 48.22900
H  48.19500 10.55700 46.56500
H  49.58400 9.56900 47.36400
H  43.57000 8.24200 45.64600
H  40.29100 8.22500 48.14000
H  40.02900 9.90600 47.66600
H  41.01600 9.46900 49.16700
Mg 16.35800 51.80500 26.03400
C  17.98400 50.86400 28.93700
C  13.82500 53.12500 28.09300
C  14.80900 52.86700 23.30800
C  18.62800 50.15500 24.17300
N  15.88900 51.89800 28.19300
C  16.82900 51.53100 29.20200
C  16.32300 51.87600 30.59500
C  14.87300 52.48100 30.31400
C  14.85100 52.49400 28.82900
C  13.66200 51.79600 31.01200
C  17.26100 52.86000 31.42500
C  17.68800 52.36900 32.81000
H  16.91500 53.02300 34.04400
N  14.62100 52.94000 25.76300
C  13.70900 53.39200 26.71900
C  12.66400 54.12100 26.02700
C  12.94400 54.05600 24.62100
C  14.23100 53.25000 24.47700
C  11.49700 54.77000 26.70300
C  12.23900 54.76300 23.39800
O  12.59100 54.65400 22.21800
C  10.99400 55.67900 23.63800
N  16.72800 51.69700 23.97300
C  15.97200 52.18300 23.02500
C  16.57300 51.71700 21.59800
C  17.88400 51.07800 22.05800
C  17.65900 50.86500 23.47900
C  15.54100 50.77800 20.85800
C  19.07700 52.10800 21.79400
C  20.41700 51.54500 21.52200
N  17.93000 50.63700 26.41500
C  18.86500 50.07800 25.57100
C  19.92100 49.48500 26.29600
C  19.66300 49.69200 27.67300
C  18.43100 50.43100 27.65300
C  21.18800 48.86900 25.75600
C  20.14700 49.55300 29.09000
O  21.12400 48.96300 29.52800
C  19.04300 50.30400 29.88700
C  18.50600 49.20300 30.70000
O  17.83600 48.23700 30.37900
O  19.12000 49.27200 31.98600
C  18.58800 48.31000 32.98200
H  13.00300 53.45200 28.73300
H  14.32200 53.24200 22.40600
H  19.43000 49.83000 23.50800
H  16.24600 50.94900 31.16200
H  14.84800 53.55900 30.47300
H  12.71500 52.26500 30.74700
H  13.65200 51.96400 32.08900
H  13.60000 50.71400 30.89300
H  16.76900 53.82500 31.54700
H  18.16300 53.00500 30.83000
H  18.71100 52.73800 32.74500
H  17.67200 51.28000 32.77600
H  11.64000 54.82000 27.78200
H  10.61300 54.18100 26.46000
H  11.47700 55.80300 26.35700
H  11.25800 56.59100 24.17200
H  10.27400 54.97400 24.05600
H  10.66600 55.86300 22.61500
H  16.57100 52.67900 21.08600
H  18.04300 50.13900 21.52700
H  16.08200 49.85100 20.66700
H  15.11800 51.21600 19.95400
H  14.64500 50.53400 21.42900
H  18.97700 52.76200 22.66000
H  18.76400 52.69900 20.93300
H  21.00500 51.23600 22.38600
H  20.98000 52.22800 20.88500
H  20.20700 50.66700 20.91000
H  21.32700 49.16000 24.71500
H  21.03800 47.80000 25.60900
H  22.04200 49.06800 26.40400
H  19.41800 51.03800 30.60000
H  17.50200 48.32600 33.07500
H  18.96400 48.66000 33.94300
H  19.03300 47.31800 32.91000

