158

Mg 47.04800 25.87500 28.23200
C  47.98800 27.97800 30.93300
C  46.22500 23.42400 30.54100
C  46.28400 23.89700 25.62300
C  48.46800 28.25300 25.99500
N  46.83300 25.89100 30.44600
C  47.34600 26.84000 31.34400
C  47.12700 26.33200 32.78000
C  46.61100 24.90300 32.64500
C  46.56800 24.65800 31.08500
C  47.45100 23.72700 33.53100
C  46.22200 27.27500 33.63700
C  46.81300 27.88500 34.89100
H  45.80300 28.06200 36.01900
N  46.43400 23.91700 28.14900
C  46.02400 23.06800 29.17300
C  45.54600 21.82400 28.61300
C  45.55000 21.95300 27.19300
C  46.08500 23.29700 26.95100
C  45.03400 20.63400 29.41000
C  45.22400 20.90400 26.07100
O  45.28700 21.12900 24.88000
C  44.76300 19.49900 26.45400
N  47.25100 26.10100 26.10200
C  46.88900 25.09100 25.24400
C  47.11900 25.55000 23.75800
C  47.72900 27.00900 23.86100
C  47.77700 27.19200 25.39200
C  47.91300 24.56900 22.89000
C  46.94700 28.12400 23.20800
C  47.62300 29.39800 22.52400
N  48.00700 27.64700 28.36800
C  48.58800 28.50700 27.38100
C  49.21500 29.63500 28.00700
C  49.05400 29.47100 29.34500
C  48.28100 28.29400 29.58300
C  50.00000 30.71300 27.38200
C  49.41600 30.07000 30.62100
O  50.17600 30.98600 30.90100
C  48.74100 29.04100 31.66300
C  49.87400 28.58100 32.49100
O  50.63800 27.70700 32.27600
O  49.78900 29.19900 33.70300
C  50.82200 28.91200 34.76600
H  46.11800 22.62100 31.27300
H  46.13700 23.22900 24.77200
H  48.99000 28.88700 25.27500
H  48.10100 26.21300 33.25400
H  45.58200 24.91600 33.00500
H  48.39900 24.20000 33.78900
H  47.56900 22.80300 32.96500
H  46.90100 23.44200 34.42800
H  45.30400 26.80800 33.99400
H  45.98500 28.16900 33.06000
H  47.16900 28.89900 34.70700
H  47.60600 27.21500 35.22300
H  43.95200 20.59200 29.28700
H  45.29900 20.84300 30.44600
H  45.62400 19.77200 29.09700
H  43.77400 19.46900 26.91000
H  45.57000 19.13300 27.08900
H  44.81700 18.91000 25.53800
H  46.13700 25.61700 23.29000
H  48.77300 26.91400 23.56400
H  47.35400 24.28000 22.00000
H  48.04000 23.64500 23.45400
H  48.85100 25.01700 22.56300
H  46.26700 28.60500 23.91200
H  46.41300 27.69300 22.36100
H  48.63800 29.16200 22.20500
H  47.59000 30.27200 23.17500
H  47.06600 29.62000 21.61300
H  50.94400 30.80500 27.91900
H  49.42800 31.64000 27.33600
H  50.18400 30.37800 26.36100
H  48.12100 29.67900 32.29200
H  51.60300 28.34800 34.25600
H  50.29100 28.28100 35.48000
H  51.21100 29.81800 35.23200
Mg 5.78500 53.54800 42.00400
C  5.11100 50.04000 41.52800
C  8.69300 53.06500 40.57700
C  6.05900 56.70900 42.29900
C  2.32400 53.60800 43.29000
N  6.69200 51.70800 40.95100
C  6.31400 50.36800 40.96600
C  7.38900 49.41800 40.45200
C  8.58000 50.45900 40.39700
C  7.97800 51.83400 40.62500
C  9.71300 50.13800 41.33200
C  6.98700 48.80100 39.06500
C  6.08500 49.54200 38.05300
H  6.46500 49.52800 36.56000
N  7.18600 54.73600 41.41800
C  8.37800 54.39600 40.87300
C  9.08300 55.60700 40.51300
C  8.33200 56.70200 41.06700
C  7.12900 56.08200 41.58400
C  10.40100 55.67600 39.78900
C  8.75600 58.15100 40.89800
O  9.80900 58.48000 40.38700
C  7.86500 59.22100 41.33100
N  4.36200 54.92700 42.73200
C  4.82000 56.22700 42.87000
C  3.69900 57.16300 43.30900
C  2.44700 56.11900 43.50400
C  3.05200 54.79400 43.08700
C  4.09700 58.02200 44.59600
C  1.17200 56.56400 42.65700
C  0.10000 57.41400 43.30800
N  4.07700 52.14900 42.41200
C  2.86400 52.32300 42.98100
C  2.28000 51.04300 43.40000
C  3.12500 50.09900 42.83100
C  4.16300 50.83300 42.19400
C  0.93200 50.82000 44.08400
C  3.33700 48.70000 42.59400
O  2.64800 47.70200 42.96500
C  4.64200 48.54700 41.77300
C  4.20400 47.80600 40.58100
O  3.41100 48.15700 39.71500
O  4.82000 46.56600 40.61400
C  4.50800 45.58400 39.53600
H  9.72900 52.87600 40.28800
H  6.02500 57.79100 42.44100
H  1.30700 53.70600 43.67600
H  7.51000 48.74400 41.30000
H  8.93500 50.49700 39.36700
H  9.70000 49.05200 41.42800
H  9.65000 50.70000 42.26300
H  10.58400 50.24900 40.68600
H  6.53000 47.81400 39.14700
H  7.94800 48.64500 38.57500
H  6.00100 50.61400 38.23300
H  5.08900 49.10600 38.11700
H  10.52900 54.70600 39.31000
H  11.14200 55.96300 40.53500
H  10.56300 56.44100 39.02900
H  8.25500 60.22600 41.16800
H  7.72100 59.18900 42.41100
H  6.92100 59.14500 40.79200
H  3.46200 57.75800 42.42600
H  2.22500 56.08900 44.57100
H  5.18000 58.00700 44.71800
H  3.66900 57.56600 45.48900
H  3.77500 59.05900 44.50400
H  0.73400 55.61700 42.34100
H  1.44800 56.95700 41.67900
H  -0.27300 58.16000 42.60700
H  0.42800 57.97700 44.18200
H  -0.71400 56.75200 43.60500
H  0.54200 49.85400 43.76200
H  0.30500 51.61500 43.68100
H  0.90700 51.00400 45.15800
H  5.35300 47.92500 42.31700
H  5.49400 45.35700 39.13000
H  4.00300 45.95700 38.64500
H  4.11800 44.63300 39.90100

