158

Mg -1.73900 17.78500 27.53200
C  -2.40100 15.50500 30.15000
C  -2.00100 20.23800 29.67300
C  -1.56100 19.74400 24.82100
C  -2.39000 14.94900 25.33200
N  -2.02400 17.78100 29.64400
C  -2.22600 16.78900 30.57600
C  -2.20700 17.32900 32.02700
C  -2.27800 18.90500 31.84100
C  -2.14400 19.00400 30.29600
C  -3.47300 19.70700 32.46300
C  -1.04500 16.82400 32.90400
C  -0.71000 17.70700 34.08100
H  -0.37800 16.91000 35.32100
N  -1.47800 19.69800 27.26000
C  -1.66600 20.62500 28.29800
C  -1.37100 21.93800 27.73300
C  -1.24700 21.79000 26.27000
C  -1.39900 20.37300 26.02900
C  -1.44000 23.21000 28.58500
C  -0.96000 22.97400 25.24300
O  -0.94600 22.75800 24.05400
C  -0.61000 24.33500 25.75200
N  -2.07400 17.43400 25.35800
C  -1.83000 18.41700 24.46400
C  -2.13100 17.89900 22.96700
C  -2.23400 16.32900 23.18600
C  -2.17600 16.16400 24.69300
C  -3.42700 18.54100 22.27900
C  -1.02000 15.53600 22.55100
C  0.25400 15.36600 23.34500
N  -2.22400 15.65900 27.64000
C  -2.41700 14.66700 26.67400
C  -2.83400 13.48700 27.34200
C  -2.77400 13.72000 28.67100
C  -2.42000 15.06600 28.84300
C  -3.09200 12.12400 26.80100
C  -2.96000 13.08200 30.00400
O  -3.28900 11.97200 30.31900
C  -2.67900 14.27200 31.01600
C  -1.37800 13.93200 31.60500
O  -0.32700 14.13300 31.04000
O  -1.53200 13.43500 32.88700
C  -0.37600 13.07000 33.71500
H  -1.98900 21.10000 30.34300
H  -1.56500 20.45400 23.99200
H  -2.46800 14.01700 24.76900
H  -3.13800 16.97500 32.46900
H  -1.33500 19.37400 32.11800
H  -3.06700 20.63900 32.85400
H  -3.96700 19.19300 33.28800
H  -4.11000 19.97800 31.62100
H  -0.19500 16.47100 32.31900
H  -1.44900 15.93600 33.38900
H  -1.38600 18.55000 34.22800
H  0.21800 18.14700 33.71600
H  -0.52300 23.78400 28.44900
H  -1.55400 23.02300 29.65300
H  -2.30900 23.73000 28.18100
H  -1.41100 24.78100 26.34200
H  -0.41500 24.92300 24.85500
H  0.28500 24.33300 26.37500
H  -1.23200 18.13500 22.39900
H  -3.18600 15.97500 22.78900
H  -3.85700 19.32200 22.90600
H  -4.19500 17.79500 22.07200
H  -3.13800 19.00200 21.33400
H  -0.50100 16.10500 21.77900
H  -1.45200 14.55100 22.37500
H  0.12700 15.59700 24.40300
H  1.18300 15.72100 22.90100
H  0.52000 14.31000 23.39800
H  -2.13700 11.75500 26.42700
H  -3.73400 12.11700 25.92000
H  -3.48300 11.47400 27.58400
H  -3.46700 14.45000 31.74800
H  -0.40200 11.98000 33.71200
H  -0.59200 13.38500 34.73600
H  0.60400 13.43100 33.40200
Mg 54.49700 25.08100 44.08400
C  51.43900 26.60200 43.45400
C  52.78300 22.05800 43.22000
C  57.47000 23.57300 43.70700
C  55.85000 28.16400 44.73900
N  52.44500 24.40800 43.21500
C  51.37700 25.24300 43.06400
C  50.09300 24.49500 42.56000
C  50.45400 23.03700 42.90300
C  51.98200 23.15300 43.18100
C  49.76100 22.42100 44.18400
C  49.92200 24.65600 41.01700
C  48.62000 24.08800 40.47700
H  48.45400 24.10200 38.93200
N  55.02200 23.03300 43.68100
C  54.16700 21.98800 43.41100
C  55.03500 20.81700 43.22700
C  56.43600 21.23000 43.29000
C  56.37600 22.64600 43.60400
C  54.42600 19.44500 42.89200
C  57.58700 20.38400 42.93500
O  57.40800 19.18500 42.76300
C  59.00500 20.94100 42.81700
N  56.42000 25.82900 43.86000
C  57.49200 25.00100 43.90800
C  58.71800 25.82000 44.29700
C  58.18000 27.27600 44.46100
C  56.69600 27.10100 44.37700
C  59.65500 25.33500 45.46300
C  58.81200 28.37600 43.43600
C  60.28200 28.71000 43.67700
N  53.82200 27.03500 44.22000
C  54.45800 28.16500 44.55300
C  53.48800 29.29700 44.70600
C  52.24700 28.67800 44.24800
C  52.54000 27.31900 43.92100
C  53.79500 30.72000 45.03600
C  50.84500 28.88500 44.01200
O  50.10200 29.83400 44.21800
C  50.30600 27.60900 43.34800
C  50.01500 28.07200 41.91200
O  50.80500 28.16400 40.99000
O  48.72300 28.30200 41.84800
C  48.15700 28.63600 40.52900
H  52.18900 21.19200 42.92100
H  58.46700 23.16100 43.87800
H  56.25300 29.10600 45.11500
H  49.21200 24.90700 43.04900
H  50.46600 22.34600 42.06100
H  49.03700 21.67600 43.85600
H  49.19400 23.27800 44.54800
H  50.53000 22.13600 44.90200
H  50.65300 24.00600 40.53700
H  49.93600 25.68300 40.65100
H  47.72800 24.50400 40.94500
H  48.56300 23.06600 40.85300
H  54.54100 19.10300 41.86300
H  53.39500 19.25500 43.18900
H  54.95100 18.71300 43.50600
H  59.59700 20.13600 42.38000
H  59.33800 21.11100 43.84100
H  59.13600 21.78600 42.14200
H  59.32500 25.77200 43.39300
H  58.39100 27.76000 45.41400
H  59.22300 24.51200 46.03100
H  59.77400 26.09700 46.23400
H  60.63300 25.08900 45.04800
H  58.34700 29.34600 43.61100
H  58.93000 28.02300 42.41200
H  60.73400 27.95800 44.32300
H  60.39600 29.73000 44.04400
H  60.83700 28.71600 42.73800
H  54.11400 31.29600 44.16800
H  54.56500 30.81600 45.80200
H  52.88900 31.20000 45.40500
H  49.33800 27.39400 43.80000
H  48.71900 29.55600 40.36800
H  47.10900 28.90100 40.66800
H  48.21600 27.88800 39.73800

