158

Mg 0.83800 8.75900 26.83100
C  1.43500 11.01700 29.30600
C  0.65600 6.16600 29.17200
C  0.61000 6.47600 24.38700
C  1.14600 11.34100 24.47400
N  0.93300 8.60300 28.93000
C  1.19700 9.70300 29.78100
C  1.04700 9.27200 31.23100
C  1.19900 7.69300 31.14000
C  0.83900 7.48200 29.70200
C  2.61800 7.21200 31.66100
C  -0.34000 9.64300 31.84800
C  -0.55000 9.35400 33.32200
H  0.69800 9.05200 34.13700
N  0.61800 6.65400 26.75100
C  0.50800 5.76700 27.82200
C  0.19000 4.41100 27.33700
C  0.20900 4.46500 25.90500
C  0.51800 5.83100 25.62500
C  -0.02900 3.31500 28.24700
C  -0.17400 3.33100 24.86200
O  -0.25600 3.50100 23.61100
C  -0.55200 1.85900 25.30000
N  0.90400 8.91600 24.74200
C  0.70500 7.82100 23.97800
C  0.73300 8.25200 22.47600
C  0.44900 9.81300 22.56500
C  0.94200 10.06900 24.00400
C  1.99900 7.85100 21.73700
C  -1.10400 10.15900 22.50900
C  -1.52000 11.35100 21.56700
N  1.24500 10.78700 26.77600
C  1.38700 11.70600 25.80300
C  1.70300 12.97100 26.32400
C  1.82300 12.77800 27.68700
C  1.42400 11.43400 27.92100
C  1.90900 14.19000 25.41600
C  2.08700 13.38100 29.04200
O  2.42900 14.53800 29.31600
C  1.76600 12.27400 30.09700
C  2.92900 12.06000 30.97000
O  4.00200 11.46400 30.79600
O  2.61000 12.65200 32.21300
C  3.66900 12.50800 33.17900
H  0.62700 5.36500 29.91300
H  0.39400 5.92000 23.47200
H  1.08700 12.12700 23.71900
H  1.91100 9.72700 31.71500
H  0.49500 7.20000 31.81000
H  3.00800 7.69100 32.55900
H  3.36600 7.26600 30.87100
H  2.47400 6.20900 32.06400
H  -1.05000 8.96200 31.37900
H  -0.63400 10.63900 31.51700
H  -1.07900 8.40100 33.29300
H  -1.10000 10.17600 33.78000
H  -1.06600 3.23700 28.57400
H  0.57500 3.35000 29.15300
H  0.25300 2.42600 27.68200
H  0.33100 1.48600 25.81800
H  -0.71000 1.30700 24.37300
H  -1.44200 1.94200 25.92400
H  -0.14000 7.68400 22.15500
H  0.98800 10.42900 21.84400
H  2.75100 7.45500 22.41900
H  2.38900 8.71500 21.19900
H  1.69000 7.05600 21.05800
H  -1.33600 10.51000 23.51400
H  -1.68600 9.28100 22.23100
H  -2.14400 10.98900 20.75000
H  -0.70000 11.95000 21.17200
H  -2.02300 12.16300 22.09300
H  1.76200 15.12300 25.96000
H  1.12500 14.30700 24.66800
H  2.92200 14.18500 25.01300
H  0.86400 12.41000 30.69400
H  3.58400 13.15000 34.05600
H  4.59800 12.80100 32.68900
H  3.86600 11.48100 33.48600
Mg 49.92200 44.40500 41.55400
C  46.68100 44.97500 40.39500
C  49.43200 41.07800 40.76000
C  53.09700 44.02100 42.10500
C  50.10400 47.81200 42.41200
N  48.22600 43.18400 40.78900
C  46.97400 43.64600 40.43700
C  46.16400 42.53800 39.79700
C  46.89900 41.25300 40.33000
C  48.29900 41.86500 40.61800
C  46.24700 40.62600 41.63000
C  46.22000 42.60500 38.29400
C  44.82800 42.64400 37.57200
H  44.74500 43.57800 36.31300
N  51.20200 42.75500 41.36800
C  50.78500 41.46300 41.04100
C  51.99600 40.64100 41.02600
C  53.07900 41.43200 41.49100
C  52.50900 42.77600 41.69400
C  52.07900 39.31500 40.59500
C  54.57500 41.04900 41.63100
O  55.00500 39.95600 41.38100
C  55.68300 42.06800 41.90500
N  51.40400 45.73300 42.17000
C  52.69900 45.29900 42.36200
C  53.60600 46.43400 42.87200
C  52.63700 47.67800 42.95700
C  51.28600 47.04800 42.53200
C  54.33000 46.08700 44.23100
C  53.12200 48.98400 42.32700
C  54.43500 49.54800 42.72400
N  48.63700 46.11200 41.47400
C  48.86800 47.46100 41.78500
C  47.73000 48.26900 41.39200
C  46.86000 47.28900 40.81700
C  47.46700 46.01700 40.88600
C  47.68300 49.77400 41.41100
C  45.60900 47.16800 40.10800
O  44.75800 47.99200 39.82500
C  45.47300 45.63200 39.82500
C  44.22000 45.13500 40.44700
O  43.32500 44.58300 39.80800
O  44.18500 45.47900 41.78000
C  42.81500 45.62100 42.26900
H  49.31600 40.02700 40.48800
H  54.11000 44.01800 42.51300
H  50.23900 48.80600 42.84300
H  45.14000 42.55000 40.17000
H  46.76600 40.41900 39.64100
H  45.49700 41.17900 42.19500
H  47.09900 40.67800 42.30700
H  45.98300 39.58300 41.45500
H  46.92500 41.88500 37.87800
H  46.58500 43.59200 38.01000
H  43.98900 42.97900 38.18200
H  44.59000 41.62300 37.27500
H  52.32000 39.25300 39.53300
H  51.12600 38.82800 40.80200
H  52.87400 38.79900 41.13200
H  55.73900 42.42200 42.93400
H  55.49200 42.90100 41.22900
H  56.63100 41.71300 41.49900
H  54.41500 46.51500 42.14600
H  52.47600 47.96600 43.99600
H  54.33100 45.02400 44.47500
H  53.90800 46.67600 45.04500
H  55.34400 46.48600 44.20800
H  52.37600 49.75000 42.54000
H  53.29800 48.92300 41.25300
H  54.98400 49.87300 41.83900
H  55.07900 48.89800 43.31700
H  54.12600 50.43900 43.27000
H  47.01000 50.23600 42.13200
H  47.44400 50.12200 40.40600
H  48.71900 50.10800 41.46400
H  45.40400 45.27800 38.79600
H  42.90000 46.16000 43.21200
H  42.64300 44.58700 42.56600
H  42.02200 45.92000 41.58300

