158

Mg 17.53100 -2.33900 27.25200
C  16.46200 -0.27200 29.81500
C  19.45500 -4.04400 29.48000
C  19.06600 -3.80500 24.56000
C  15.83700 -0.19900 24.89000
N  17.81900 -2.24400 29.45000
C  17.22300 -1.42400 30.26100
C  17.68400 -1.70700 31.71100
C  18.85200 -2.69300 31.54700
C  18.66000 -3.03000 30.08600
C  20.23700 -2.15200 31.90600
C  16.47400 -2.16800 32.59000
C  16.25600 -1.43100 33.95900
H  17.41400 -0.78900 34.66700
N  18.93000 -3.82100 27.03300
C  19.57000 -4.45000 28.12400
C  20.38100 -5.51600 27.56100
C  20.29800 -5.44000 26.14200
C  19.39600 -4.37700 25.80900
C  20.93800 -6.55300 28.50300
C  20.99200 -6.31400 25.07200
O  20.64100 -6.19200 23.87600
C  21.98600 -7.29500 25.40800
N  17.52400 -2.00100 25.07900
C  18.22700 -2.77500 24.19400
C  18.07100 -2.26500 22.80800
C  16.90600 -1.20900 22.81500
C  16.69400 -1.11400 24.36500
C  19.45800 -1.84400 22.32300
C  15.66600 -1.62100 21.93700
C  14.78000 -0.41400 21.59800
N  16.35600 -0.60900 27.22000
C  15.67800 0.11700 26.23500
C  14.94600 1.17100 26.83400
C  15.24700 1.08800 28.18800
C  16.06300 -0.03900 28.42500
C  14.06500 2.24400 26.11600
C  14.98700 1.72400 29.59500
O  14.25800 2.67100 29.93900
C  15.76500 0.90800 30.57300
C  16.69300 1.94200 31.21100
O  17.66200 2.43000 30.65200
O  16.27800 2.21100 32.52500
C  17.17000 3.21400 33.11200
H  20.16000 -4.52900 30.15800
H  19.56500 -4.20200 23.67300
H  15.31300 0.47700 24.21000
H  18.10700 -0.79000 32.12000
H  18.70900 -3.53000 32.23100
H  20.95000 -2.18200 31.08100
H  20.67100 -2.86300 32.61000
H  20.06300 -1.23100 32.46200
H  16.47200 -3.25000 32.71700
H  15.56800 -1.90800 32.04200
H  15.85700 -2.13700 34.68800
H  15.48100 -0.66700 33.88600
H  22.02200 -6.46600 28.58600
H  20.67100 -7.48900 28.01200
H  20.54300 -6.55000 29.51800
H  21.60100 -8.20900 25.86000
H  22.73000 -6.83800 26.06000
H  22.42600 -7.73700 24.51500
H  17.80200 -3.09700 22.15700
H  17.28800 -0.24400 22.48400
H  20.23200 -1.83000 23.08900
H  19.46000 -0.85500 21.86400
H  19.91600 -2.51900 21.60000
H  15.02500 -2.34800 22.43600
H  16.05700 -2.08700 21.03200
H  14.88700 -0.16000 20.54300
H  14.96100 0.53100 22.10900
H  13.73000 -0.54000 21.86200
H  14.51600 2.39800 25.13600
H  13.93700 3.19700 26.62900
H  13.07500 1.81400 25.95900
H  15.05200 0.46800 31.27100
H  18.08100 2.68000 33.38400
H  16.61700 3.58900 33.97300
H  17.31100 4.05400 32.43300
Mg -5.23700 24.99100 25.79600
C  -3.53600 26.41800 28.49100
C  -6.49700 22.61900 27.93900
C  -6.28900 23.19200 23.10300
C  -3.12300 26.89000 23.57400
N  -4.83500 24.41000 28.02400
C  -4.25600 25.21700 28.89900
C  -4.61700 24.87500 30.34500
C  -5.39400 23.50900 30.12100
C  -5.62900 23.49600 28.59200
C  -4.54900 22.31000 30.53500
C  -5.54800 25.97200 31.02500
C  -5.47100 26.08300 32.55700
H  -4.88800 24.91700 33.41200
N  -6.35300 23.29500 25.53300
C  -6.80100 22.46900 26.57100
C  -7.71500 21.55600 26.01100
C  -7.66900 21.65900 24.59900
C  -6.72400 22.78000 24.37900
C  -8.57500 20.59700 26.84400
C  -8.33500 20.80300 23.44000
O  -8.27700 21.24300 22.33500
C  -9.27700 19.52600 23.69700
N  -4.70900 25.00200 23.61500
C  -5.38600 24.18700 22.70900
C  -4.93400 24.47400 21.25300
C  -3.98200 25.71900 21.42400
C  -3.92000 25.91500 22.94600
C  -4.29500 23.15800 20.70600
C  -4.57900 27.04800 20.78200
C  -3.60700 28.20500 20.37700
N  -3.81400 26.49600 25.93400
C  -3.02400 27.14400 25.00300
C  -2.22800 28.17100 25.69800
C  -2.44800 27.95400 27.07700
C  -3.30900 26.89100 27.16600
C  -1.41400 29.28100 25.09700
C  -1.97200 28.34800 28.41500
O  -1.15300 29.15500 28.86600
C  -2.78700 27.41300 29.45300
C  -1.76500 26.69500 30.29900
O  -0.89300 25.90400 29.95100
O  -2.04600 27.09600 31.55900
C  -0.98600 26.64000 32.51200
H  -7.08300 22.09800 28.69900
H  -6.65800 22.76900 22.16600
H  -2.59700 27.66100 23.00600
H  -3.66600 24.82600 30.87400
H  -6.37500 23.48400 30.59400
H  -5.11300 21.66400 31.20700
H  -3.60900 22.61300 30.99700
H  -4.26100 21.64200 29.72300
H  -6.58600 25.76700 30.76600
H  -5.32300 26.95600 30.61400
H  -6.39700 26.43800 33.00900
H  -4.83300 26.94800 32.73600
H  -9.58300 21.00000 26.74500
H  -8.41000 20.52000 27.91900
H  -8.61000 19.59500 26.41700
H  -9.46600 19.17500 22.68300
H  -10.25500 19.86400 24.03900
H  -8.73800 18.84400 24.35600
H  -5.83700 24.71900 20.69200
H  -3.01800 25.48600 20.97000
H  -4.26300 22.41900 21.50600
H  -3.29400 23.38800 20.34200
H  -4.89100 22.68200 19.92700
H  -5.27200 27.58000 21.43400
H  -5.18300 26.68700 19.95000
H  -4.03200 28.49100 19.41500
H  -2.59400 27.80600 20.31900
H  -3.70300 29.02500 21.08900
H  -1.57800 30.20200 25.65700
H  -1.67200 29.53300 24.06900
H  -0.34000 29.09400 25.08300
H  -3.40600 28.15500 29.95600
H  -0.36300 27.46700 32.85200
H  -0.33800 25.80800 32.23500
H  -1.51500 26.21900 33.36700

