158

Mg 17.43600 -1.80200 27.83200
C  15.98500 0.04000 30.62400
C  19.47300 -3.34200 30.17200
C  19.09100 -3.18200 25.29900
C  15.36800 -0.01400 25.81000
N  17.70000 -1.58700 30.09200
C  16.96500 -0.84400 31.03400
C  17.45300 -1.11800 32.47600
C  18.79000 -2.02300 32.24200
C  18.64000 -2.36100 30.70800
C  20.07600 -1.21700 32.51100
C  16.41200 -1.79900 33.32300
C  16.30800 -1.20900 34.79500
H  17.47500 -0.42200 35.31000
N  19.08400 -3.12200 27.73800
C  19.71000 -3.65000 28.82100
C  20.65600 -4.69300 28.30700
C  20.60600 -4.65700 26.86800
C  19.53600 -3.65600 26.54300
C  21.32800 -5.61800 29.15500
C  21.38500 -5.49800 25.83500
O  21.03700 -5.46100 24.62000
C  22.53500 -6.39600 26.21500
N  17.32000 -1.62500 25.91000
C  18.18000 -2.20400 24.97500
C  17.98200 -1.66100 23.57100
C  16.59200 -0.96900 23.72200
C  16.32600 -0.89300 25.21000
C  19.21000 -0.82200 23.04600
C  15.40000 -1.63800 22.94700
C  15.26600 -1.07400 21.46900
N  15.88800 -0.41700 28.12800
C  15.06100 0.21400 27.18300
C  14.08200 1.11200 27.77400
C  14.41100 1.00300 29.09600
C  15.51400 0.11900 29.25900
C  13.05800 1.96000 27.12300
C  14.07500 1.50600 30.36800
O  13.25400 2.30200 30.76100
C  15.11500 1.01500 31.37200
C  15.94700 2.23900 31.74100
O  16.72500 2.87600 31.02100
O  15.56300 2.42100 33.07200
C  16.44200 3.39600 33.78300
H  20.02600 -3.88800 30.94000
H  19.52000 -3.66100 24.41700
H  14.80000 0.56700 25.08200
H  17.66100 -0.11800 32.85700
H  18.76600 -3.00700 32.71200
H  20.64400 -1.87000 33.17400
H  20.02600 -0.32300 33.13300
H  20.64500 -0.84400 31.66000
H  16.70200 -2.84700 33.39300
H  15.46100 -1.66900 32.80700
H  16.16700 -1.99600 35.53500
H  15.35600 -0.70800 34.96700
H  21.54900 -6.58000 28.69300
H  20.76300 -5.81000 30.06800
H  22.24600 -5.12400 29.47400
H  23.35600 -5.83100 26.65600
H  22.97300 -6.85600 25.32900
H  22.29500 -7.17100 26.94300
H  17.83600 -2.49600 22.88500
H  16.69200 0.06800 23.40300
H  18.97200 0.17500 22.67600
H  19.94200 -1.40000 22.48200
H  19.68300 -0.57000 23.99500
H  14.48800 -1.44500 23.51200
H  15.66700 -2.69400 22.99400
H  16.15200 -0.45100 21.34300
H  14.42300 -0.42400 21.23300
H  15.33900 -1.84400 20.70100
H  13.00000 2.90100 27.66900
H  12.06700 1.54900 27.31200
H  13.17700 2.18400 26.06300
H  14.64000 0.55300 32.23700
H  16.08900 4.42800 33.80200
H  17.51200 3.27600 33.61500
H  16.38200 3.18400 34.85000
Mg 29.92900 57.74100 41.07500
C  27.09500 55.77300 40.14300
C  31.89000 55.26600 39.55200
C  32.46100 59.84700 41.38000
C  27.66300 60.34500 41.93100
N  29.57000 55.69400 40.05500
C  28.31200 55.09100 39.81400
C  28.45500 53.71400 39.21300
C  29.96800 53.63100 38.93300
C  30.52700 54.87200 39.60300
C  30.60400 52.21900 39.23200
C  27.53200 53.52900 37.90100
C  27.40900 54.79200 36.95200
H  27.73700 54.68300 35.47600
N  31.88300 57.52500 40.70200
C  32.50500 56.47600 40.07100
C  33.97300 56.75600 40.03300
C  34.14700 58.01000 40.59800
C  32.76500 58.55200 40.87900
C  34.91700 55.68800 39.60300
C  35.48700 58.68700 40.83100
O  36.51900 58.06800 40.57600
C  35.68800 60.13700 41.23800
N  30.03900 59.81800 41.56800
C  31.20600 60.40100 41.70700
C  31.04000 61.89700 41.82900
C  29.57300 62.05500 42.26100
C  29.02100 60.64300 41.87400
C  32.02100 62.70200 42.69800
C  28.88000 63.36700 41.63600
C  27.97600 64.22100 42.58800
N  27.82700 58.01600 41.07700
C  27.06100 59.12200 41.49900
C  25.66600 58.80900 41.25400
C  25.66500 57.45900 40.89000
C  26.98800 57.06000 40.72700
C  24.47900 59.71200 41.36700
C  24.76200 56.46600 40.46100
O  23.52100 56.45000 40.44400
C  25.64900 55.25900 39.94400
C  25.38200 54.15700 40.84600
O  25.73000 54.15500 42.03900
O  24.82000 53.08800 40.23300
C  24.57900 51.88100 41.07800
H  32.59800 54.57700 39.08600
H  33.30800 60.53600 41.34900
H  27.00700 61.20200 42.09700
H  28.19200 53.02000 40.01100
H  30.07000 53.71200 37.85100
H  30.19800 51.56600 38.45900
H  30.22800 51.80400 40.16800
H  31.68900 52.30100 39.18000
H  26.52000 53.29200 38.22700
H  27.87000 52.72400 37.24900
H  28.22300 55.42500 37.30400
H  26.49200 55.38200 36.93700
H  35.96900 55.97500 39.58500
H  34.66800 55.25800 38.63200
H  34.81800 54.87600 40.32300
H  35.36700 60.73600 40.38600
H  36.75200 60.37000 41.27800
H  35.17200 60.35600 42.17200
H  31.21600 62.31000 40.83600
H  29.67600 62.07800 43.34600
H  32.29100 63.65800 42.24900
H  32.97100 62.18100 42.81400
H  31.72600 62.86000 43.73500
H  28.21500 63.12200 40.80800
H  29.69200 63.97300 41.23400
H  27.02100 64.42800 42.10400
H  28.51200 65.14300 42.81000
H  27.70900 63.69500 43.50400
H  24.23500 60.13300 40.39200
H  24.66100 60.48300 42.11600
H  23.65700 59.05100 41.64200
H  25.46400 55.07700 38.88500
H  25.29200 51.07100 40.92300
H  23.58800 51.47000 40.88500
H  24.61900 52.01600 42.15900

