158

Mg 25.10900 1.25200 30.27300
C  27.56000 1.19700 32.65800
C  22.64900 1.63200 32.71200
C  22.73400 1.25200 27.84800
C  27.54200 1.04300 27.86500
N  25.08700 1.47200 32.45200
C  26.27800 1.52900 33.17900
C  25.98900 1.91700 34.59600
C  24.33500 2.15000 34.56900
C  23.98700 1.74700 33.21600
C  23.65900 1.34700 35.67200
C  26.82700 2.98600 35.33600
C  26.12600 3.53400 36.56000
H  26.00700 2.74600 37.86800
N  22.99200 1.24700 30.29500
C  22.15200 1.45300 31.37500
C  20.74900 1.44100 30.88700
C  20.74600 1.23300 29.47700
C  22.20300 1.21900 29.12400
C  19.63100 1.40200 31.88000
C  19.61700 1.07800 28.52300
O  19.74300 0.77900 27.29500
C  18.25500 1.27400 29.02700
N  25.13600 1.12300 28.18700
C  24.03300 1.17400 27.40700
C  24.42900 1.60600 25.97000
C  25.93600 1.29400 25.93300
C  26.24600 1.23900 27.42700
C  23.63000 1.00600 24.80300
C  26.84300 2.37900 25.16200
C  26.96000 3.77900 25.80700
N  27.17200 0.96000 30.22400
C  28.05900 0.87700 29.17400
C  29.32700 0.58200 29.65500
C  29.19200 0.84400 31.02200
C  27.84500 0.95000 31.29200
C  30.51600 0.29400 28.77800
C  29.97400 0.99900 32.20000
O  31.17000 1.06900 32.32900
C  28.94700 1.29300 33.34600
C  29.07900 0.24300 34.31600
O  28.86500 -0.96400 34.15000
O  29.42800 0.88500 35.53800
C  29.27200 0.11900 36.77000
H  21.94300 1.87000 33.51000
H  22.01600 1.58900 27.09700
H  28.25100 1.16600 27.04300
H  26.18000 1.03800 35.21100
H  24.11600 3.21800 34.57100
H  23.30300 2.12100 36.35200
H  24.39700 0.65900 36.08300
H  22.83000 0.74400 35.30100
H  27.03000 3.73600 34.57100
H  27.73000 2.43200 35.59200
H  25.14400 3.99200 36.43500
H  26.63300 4.44900 36.86600
H  19.06500 2.33200 31.94400
H  19.88000 1.11100 32.90000
H  19.02400 0.53900 31.60700
H  17.99100 0.35700 29.55500
H  17.55800 1.45800 28.21000
H  18.12900 2.05300 29.77900
H  24.18500 2.66600 25.91100
H  26.04200 0.32800 25.43900
H  24.35900 0.71600 24.04600
H  22.92600 1.64000 24.26400
H  23.15000 0.08000 25.11900
H  26.18800 2.57000 24.31300
H  27.75700 1.85400 24.88200
H  26.24800 3.87500 26.62700
H  26.75700 4.59700 25.11600
H  27.91800 3.91600 26.30700
H  31.14100 -0.57100 29.00100
H  31.23800 1.10200 28.88900
H  30.16300 0.28600 27.74700
H  29.21900 2.22100 33.84800
H  28.85500 -0.85100 36.49800
H  28.75300 0.66100 37.56100
H  30.26600 -0.09800 37.16000
Mg 48.68200 35.47600 27.81800
C  46.72800 33.59900 30.12900
C  48.82500 37.96500 30.15900
C  50.55000 37.21100 25.63500
C  48.06200 33.01500 25.40200
N  47.72200 35.72900 29.78100
C  47.21400 34.79000 30.62100
C  47.42200 35.19000 32.08100
C  47.72100 36.75200 32.04100
C  48.10900 36.86100 30.52300
C  46.55900 37.62200 32.49500
C  48.63600 34.48900 32.73400
C  48.56000 34.22200 34.23100
H  47.55100 35.08800 35.11400
N  49.70600 37.36500 27.90100
C  49.55000 38.25300 28.95700
C  50.46100 39.43300 28.56600
C  50.93100 39.20600 27.20800
C  50.38600 37.95300 26.83800
C  50.64700 40.60900 29.54900
C  51.80800 40.10000 26.35600
O  52.15500 39.76400 25.21200
C  52.41800 41.38300 26.98000
N  49.06200 35.28100 25.81000
C  49.95500 36.10300 25.14400
C  50.57900 35.44300 23.96400
C  49.69700 34.14900 23.81100
C  48.92200 34.08700 25.10100
C  50.60100 36.43300 22.76600
C  50.62100 32.93100 23.61400
C  50.10500 31.80300 22.71800
N  47.54100 33.73900 27.65900
C  47.41500 32.79100 26.60400
C  46.62600 31.63300 27.07800
C  46.27600 31.96700 28.39800
C  46.88900 33.17300 28.73900
C  46.34700 30.43200 26.33200
C  45.49000 31.52200 29.53300
O  44.74500 30.54200 29.65200
C  45.72800 32.59200 30.65400
C  46.26200 31.99600 31.91900
O  47.32700 31.36800 31.99400
O  45.34400 32.34500 32.97800
C  45.61800 31.67800 34.23900
H  48.94000 38.69100 30.96600
H  51.28900 37.67400 24.97900
H  47.98900 32.26400 24.61200
H  46.48300 35.03800 32.61300
H  48.58600 36.95600 32.67100
H  46.82400 38.11900 33.42900
H  45.60600 37.09900 32.57500
H  46.32200 38.43800 31.81200
H  49.55800 34.88800 32.31200
H  48.57900 33.50600 32.26700
H  49.58000 34.47200 34.52200
H  48.46400 33.16000 34.45700
H  50.36800 41.56200 29.10100
H  51.65700 40.60300 29.96100
H  49.97000 40.60200 30.40300
H  53.05000 41.16700 27.84200
H  51.64300 42.11800 27.19500
H  53.08500 41.88800 26.28100
H  51.61600 35.13100 24.08800
H  48.96500 34.25500 23.01000
H  49.81000 37.17300 22.88200
H  50.39400 35.85800 21.86300
H  51.56200 36.93600 22.65500
H  50.69400 32.49800 24.61200
H  51.62000 33.26500 23.33400
H  50.66800 30.89500 22.93100
H  50.30300 32.25000 21.74300
H  49.05200 31.59100 22.90100
H  47.25300 29.83500 26.23100
H  45.95200 30.69800 25.35200
H  45.52500 29.96500 26.87600
H  44.74300 33.02800 30.82400
H  44.64900 31.22800 34.45800
H  45.91700 32.32600 35.06300
H  46.36400 30.89000 34.14200

