158

Mg -2.18500 17.38000 26.84700
C  -2.93400 15.22700 29.46000
C  -2.80300 19.99900 29.03300
C  -1.99300 19.47000 24.16000
C  -1.87500 14.64800 24.75400
N  -2.73400 17.54500 29.04100
C  -2.97500 16.57900 29.96700
C  -3.07900 17.13000 31.45000
C  -2.97200 18.66400 31.15500
C  -2.86600 18.72800 29.64300
C  -3.99800 19.60300 31.81900
C  -2.10800 16.46500 32.39200
C  -1.33500 17.25700 33.40400
H  -1.01700 16.57900 34.82500
N  -2.25100 19.43700 26.61900
C  -2.50800 20.35500 27.66000
C  -2.39200 21.63600 27.16800
C  -2.09400 21.52400 25.76300
C  -2.13800 20.07000 25.40000
C  -2.71800 22.83500 28.05600
C  -1.79200 22.59100 24.66000
O  -1.40600 22.38100 23.51800
C  -1.65500 23.97400 25.09500
N  -2.20600 17.10600 24.76200
C  -2.11400 18.10700 23.82600
C  -1.89200 17.53600 22.39300
C  -1.53600 16.07900 22.70800
C  -1.94200 15.87700 24.20400
C  -3.17600 17.76500 21.55900
C  -0.03300 15.72300 22.57600
C  0.87500 16.48100 23.59600
N  -2.33200 15.34100 26.98200
C  -2.15000 14.31900 26.06600
C  -2.37900 13.04200 26.64000
C  -2.65700 13.30700 27.95600
C  -2.58600 14.75400 28.11400
C  -2.49100 11.67800 25.95100
C  -3.03400 12.73500 29.16700
O  -3.25800 11.52900 29.44600
C  -3.18500 13.91300 30.21800
C  -2.20700 13.56300 31.24700
O  -1.05500 13.74200 31.12300
O  -2.75700 12.90200 32.36300
C  -1.85800 12.55000 33.46900
H  -2.98400 20.81500 29.73500
H  -1.68100 20.01900 23.26900
H  -1.63500 13.85000 24.04800
H  -4.12800 16.89300 31.63300
H  -1.99200 19.07300 31.39800
H  -4.72700 19.99700 31.11100
H  -3.47500 20.36200 32.40000
H  -4.46700 18.94400 32.55000
H  -1.30500 16.05100 31.78300
H  -2.59300 15.66200 32.94800
H  -1.85700 18.14200 33.76700
H  -0.41600 17.68700 33.00600
H  -3.51700 23.42600 27.61000
H  -1.90800 23.56200 28.11800
H  -2.95500 22.67900 29.10900
H  -2.70000 24.23100 25.27400
H  -1.23400 24.55500 24.27400
H  -1.14300 23.98000 26.05700
H  -0.97700 18.05900 22.11400
H  -2.09000 15.34200 22.12600
H  -3.64600 18.71200 21.82500
H  -3.96200 17.02700 21.72000
H  -2.96200 17.81600 20.49200
H  0.34000 15.91200 21.56900
H  0.10200 14.66700 22.81300
H  0.39000 17.20000 24.25600
H  1.72800 16.92300 23.08200
H  1.27600 15.76200 24.31100
H  -3.57200 11.62300 26.07700
H  -1.88300 10.89900 26.41300
H  -2.33600 11.80100 24.87900
H  -4.16800 13.77200 30.66900
H  -1.96200 13.37300 34.17600
H  -0.82600 12.44900 33.13100
H  -2.14000 11.58700 33.89700
Mg 9.30600 47.56800 26.50900
C  7.36600 47.49400 29.48400
C  11.91500 48.77800 28.24000
C  10.92200 47.29800 23.68500
C  6.27100 46.72300 24.82900
N  9.45900 48.35000 28.54800
C  8.66400 47.99100 29.65700
C  9.28200 48.47500 30.97200
C  10.62600 49.05800 30.55400
C  10.67600 48.74200 29.02100
C  10.79000 50.61200 30.77800
C  9.42500 47.40200 32.13100
C  10.17600 47.86400 33.41000
H  9.61300 47.53900 34.84300
N  11.17600 48.05700 26.00600
C  12.22300 48.44000 26.86800
C  13.42100 48.37300 26.19300
C  13.15500 47.89900 24.80900
C  11.64500 47.79000 24.79700
C  14.74100 48.70900 26.93200
C  14.13600 47.63500 23.73100
O  13.82400 47.53500 22.55700
C  15.57500 47.69900 24.00900
N  8.72600 47.13100 24.47500
C  9.63900 46.86800 23.57600
C  8.98900 46.49200 22.22000
C  7.54800 46.08300 22.67400
C  7.51000 46.68100 24.07500
C  9.03800 47.63700 21.17700
C  7.25400 44.54400 22.61800
C  7.83500 43.52300 23.62800
N  7.24400 47.25300 27.03500
C  6.12900 46.90600 26.20400
C  4.97300 46.76800 26.98400
C  5.41200 46.89100 28.29200
C  6.76100 47.29600 28.27600
C  3.59000 46.36600 26.50900
C  5.03000 46.72800 29.66700
O  3.91800 46.39100 30.11900
C  6.26700 47.19300 30.51500
C  6.55000 46.07500 31.40100
O  7.36800 45.17800 31.17600
O  5.80900 46.17400 32.56500
C  6.24800 45.24400 33.62500
H  12.77800 49.16800 28.78400
H  11.61300 47.10700 22.86100
H  5.44900 46.33300 24.22500
H  8.59800 49.23900 31.34200
H  11.44000 48.50800 31.02500
H  11.62500 50.94100 31.39600
H  9.90400 50.89300 31.34800
H  10.78900 51.13800 29.82300
H  9.89300 46.52600 31.68200
H  8.42800 47.15200 32.49600
H  10.38200 48.93200 33.33800
H  11.16200 47.40800 33.49400
H  14.68700 48.98600 27.98500
H  15.35400 49.49600 26.49300
H  15.37700 47.82500 26.88200
H  15.79600 46.93800 24.75800
H  15.90100 48.60000 24.52800
H  16.22300 47.53700 23.14800
H  9.58200 45.64200 21.88300
H  6.79300 46.56300 22.05200
H  9.54500 48.56300 21.45000
H  8.04000 47.92700 20.85100
H  9.48000 47.25800 20.25500
H  7.47200 44.07400 21.65900
H  6.16800 44.45500 22.62100
H  8.33300 44.08700 24.41600
H  8.34300 42.61900 23.29200
H  6.95100 43.13200 24.13000
H  3.59900 45.76300 25.60000
H  2.96600 47.25900 26.48700
H  3.25000 45.64700 27.25400
H  5.83400 48.06500 31.00400
H  7.17700 45.58000 34.08600
H  6.42200 44.20000 33.36800
H  5.47000 45.25500 34.38900

