158

Mg 8.99200 3.32100 27.37200
C  10.31900 1.97400 30.35200
C  6.76300 5.31600 29.33600
C  7.49100 4.35000 24.50200
C  10.90900 0.98000 25.65100
N  8.58300 3.53200 29.57400
C  9.41900 3.00800 30.60700
C  9.17900 3.75200 31.90500
C  7.90700 4.58900 31.65000
C  7.64300 4.45800 30.11800
C  6.66200 4.32300 32.59400
C  10.35800 4.59700 32.43800
C  10.10800 5.22700 33.84700
H  10.88000 4.58200 35.01600
N  7.38500 4.62900 27.03700
C  6.66200 5.45000 27.97200
C  5.79900 6.31300 27.22400
C  6.02500 6.03800 25.83200
C  6.98500 4.90500 25.74500
C  4.93100 7.40900 27.91100
C  5.36000 6.71800 24.63900
O  5.57500 6.44100 23.43500
C  4.41800 7.83000 24.88200
N  9.09100 2.68200 25.30000
C  8.44600 3.32700 24.29300
C  8.89300 2.84500 22.99000
C  10.22700 2.05900 23.36600
C  10.13200 1.90000 24.86000
C  7.73000 2.05400 22.24300
C  11.60900 2.61900 22.95500
C  12.06100 3.94200 23.66200
N  10.34700 1.77700 27.88900
C  11.02000 0.92300 27.05500
C  11.88000 0.04600 27.85100
C  11.61000 0.39100 29.19200
C  10.67400 1.46600 29.13700
C  12.88000 -0.96800 27.22900
C  12.01300 0.25500 30.58900
O  12.89100 -0.39100 31.01500
C  11.21000 1.25600 31.41700
C  10.45000 0.53100 32.33200
O  9.27600 0.15800 32.12300
O  11.13700 0.31800 33.42600
C  10.27600 -0.21200 34.57400
H  6.32200 6.15200 29.88200
H  6.90800 4.59500 23.61200
H  11.52300 0.27800 25.08200
H  9.07300 2.91800 32.59900
H  8.05800 5.64800 31.86000
H  5.84200 3.82500 32.07700
H  6.40300 5.33800 32.89500
H  7.07900 3.80200 33.45500
H  10.55800 5.40200 31.73100
H  11.29700 4.04300 32.44600
H  9.07600 5.01400 34.12500
H  10.30400 6.29900 33.84400
H  5.45600 8.35700 27.79800
H  4.76000 7.22000 28.97100
H  3.94500 7.38400 27.44600
H  3.37800 7.54300 25.03800
H  4.56800 8.51000 24.04400
H  4.75200 8.47800 25.69300
H  9.25500 3.70900 22.43200
H  10.21900 1.04700 22.96000
H  6.76900 2.01500 22.75400
H  8.11200 1.05800 22.01700
H  7.49000 2.47400 21.26600
H  11.58300 2.60300 21.86600
H  12.38400 1.87300 23.13100
H  11.83200 4.03000 24.72400
H  11.65800 4.84000 23.19500
H  13.15000 4.00300 23.66500
H  13.66200 -0.96200 27.98800
H  13.11900 -0.65200 26.21300
H  12.47200 -1.97800 27.19200
H  11.90300 1.87800 31.98300
H  9.80700 -1.18400 34.42000
H  9.51600 0.50700 34.87900
H  10.99500 -0.42800 35.36400
Mg 24.56900 -6.11400 46.25300
C  26.38400 -3.51300 44.69000
C  22.05900 -5.52600 44.32200
C  23.33500 -9.00200 47.50500
C  27.75000 -6.94300 47.91000
N  24.25500 -4.66700 44.61500
C  25.15500 -3.71800 44.11900
C  24.53100 -2.95800 42.93900
C  23.07000 -3.42000 42.93100
C  23.09700 -4.59600 44.01900
C  22.02300 -2.25200 43.04900
C  25.41500 -3.21200 41.61000
C  25.96000 -1.90100 40.99900
H  25.41000 -1.62100 39.64100
N  22.83000 -7.02200 46.11100
C  21.86500 -6.61100 45.25600
C  20.71900 -7.43000 45.39200
C  20.99000 -8.49500 46.31700
C  22.40600 -8.19100 46.73900
C  19.49700 -7.03400 44.64700
C  20.06700 -9.56400 46.74300
O  18.88800 -9.66200 46.31800
C  20.51500 -10.66900 47.75100
N  25.47000 -7.76300 47.40000
C  24.67700 -8.83500 47.82300
C  25.59000 -9.97700 48.35600
C  26.94200 -9.30400 48.63700
C  26.76200 -7.92100 47.91500
C  25.13400 -10.72400 49.58700
C  28.24200 -10.10300 48.22800
C  29.52400 -9.91000 49.12800
N  26.61900 -5.37900 46.34100
C  27.71500 -5.79500 47.11900
C  28.70300 -4.78200 47.06800
C  28.24600 -3.88400 46.06100
C  26.90500 -4.26500 45.69900
C  29.98500 -4.83600 47.79400
C  28.68000 -2.80400 45.25300
O  29.74700 -2.22400 45.26700
C  27.48900 -2.45600 44.29600
C  26.96700 -1.08500 44.52400
O  26.22800 -0.72700 45.41800
O  27.51100 -0.23500 43.50800
C  26.90700 1.13200 43.51200
H  21.26900 -5.14800 43.66900
H  22.90200 -9.94400 47.84800
H  28.68400 -7.27400 48.36700
H  24.67600 -1.91600 43.22400
H  22.65600 -3.84000 42.01500
H  22.52800 -1.35900 42.67900
H  21.71800 -2.13100 44.08800
H  21.11200 -2.50100 42.50500
H  24.76900 -3.69200 40.87500
H  26.19300 -3.96000 41.76700
H  27.04300 -1.88500 40.87900
H  25.76400 -0.98300 41.55200
H  18.77000 -7.84500 44.60500
H  19.74600 -6.67100 43.65000
H  19.03300 -6.23900 45.23000
H  19.68600 -11.27600 48.11500
H  21.03500 -10.09500 48.51800
H  21.19000 -11.37700 47.27000
H  25.75800 -10.73800 47.59400
H  27.03100 -8.97800 49.67300
H  24.10300 -10.84400 49.92000
H  25.68600 -10.26800 50.41000
H  25.46900 -11.75100 49.44600
H  28.54400 -9.85000 47.21200
H  28.00300 -11.16600 48.26000
H  30.34800 -9.68800 48.45000
H  29.74800 -10.83900 49.65200
H  29.42300 -9.09500 49.84600
H  30.69000 -5.57600 47.41600
H  29.72200 -5.08600 48.82200
H  30.30600 -3.79700 47.73200
H  27.75700 -2.64700 43.25700
H  27.44800 1.71400 42.76600
H  27.06500 1.56700 44.49900
H  25.83400 1.22100 43.34300

