158

Mg 16.47600 51.83400 26.60100
C  18.32600 50.24200 29.08100
C  14.00600 52.46000 28.83900
C  14.53600 52.83400 23.96700
C  18.91300 50.82500 24.22700
N  16.24100 51.36700 28.61500
C  17.09800 50.75300 29.50000
C  16.64900 50.96000 30.99200
C  15.14700 51.25300 30.80100
C  15.10900 51.74000 29.36000
C  14.15100 50.17400 31.12000
C  17.38500 52.11200 31.81500
C  18.00600 51.78500 33.24600
H  17.08800 51.04000 34.27100
N  14.56000 52.62800 26.47500
C  13.72400 52.90700 27.53700
C  12.65800 53.71500 27.02100
C  12.82400 53.88200 25.59100
C  14.02200 53.10700 25.26200
C  11.56400 54.39700 27.92700
C  12.11400 54.84500 24.59100
O  12.50500 54.93100 23.44000
C  10.96000 55.68600 25.10200
N  16.63700 51.58100 24.43500
C  15.74600 52.21500 23.63200
C  16.23300 52.31300 22.17700
C  17.72300 51.92900 22.30900
C  17.76500 51.33800 23.69300
C  15.34600 51.44200 21.21100
C  18.82400 52.91200 21.81800
C  20.01300 52.33700 21.11500
N  18.18400 50.76400 26.59600
C  19.07600 50.50700 25.58300
C  20.24900 49.87400 26.18100
C  20.02100 49.81700 27.56000
C  18.74800 50.32700 27.70200
C  21.46400 49.54900 25.36900
C  20.64500 49.46400 28.80900
O  21.80700 49.13200 29.18200
C  19.43200 49.56100 29.85500
C  19.12000 48.15000 30.28700
O  18.39800 47.33300 29.74700
O  19.79400 47.97000 31.44400
C  19.51000 46.69800 32.06900
H  13.37000 52.86400 29.62900
H  13.85500 53.08100 23.15000
H  19.75300 50.76600 23.53000
H  16.76600 50.02000 31.52900
H  14.94400 52.12300 31.42600
H  13.52900 49.97200 30.24800
H  13.44000 50.45900 31.89500
H  14.57800 49.19300 31.33200
H  16.73900 52.98800 31.86800
H  18.15000 52.38600 31.08800
H  18.33000 52.70000 33.74000
H  18.93300 51.21200 33.25700
H  11.86000 55.42000 28.16100
H  11.40400 53.91400 28.89100
H  10.62000 54.43300 27.38400
H  10.13500 55.04800 25.41800
H  10.59500 56.29500 24.27500
H  11.39600 56.33300 25.86300
H  16.16600 53.29400 21.70700
H  17.80200 51.01500 21.72100
H  15.94100 50.82500 20.53800
H  14.69800 52.13100 20.66900
H  14.77000 50.73600 21.80900
H  19.23700 53.38600 22.70800
H  18.32800 53.74400 21.31700
H  20.28300 52.81800 20.17500
H  19.91900 51.28700 20.83900
H  20.80900 52.47200 21.84800
H  22.21700 49.27100 26.10600
H  21.84400 50.50500 25.00800
H  21.31700 48.84000 24.55400
H  19.73200 50.13300 30.73300
H  18.48300 46.39900 31.86200
H  19.47000 46.86700 33.14500
H  20.23100 45.90400 31.87100
Mg 0.80700 43.62000 25.82100
C  2.93100 43.56100 28.67100
C  -1.69000 42.63400 27.89300
C  -1.05000 43.12700 23.07700
C  3.68900 43.95700 23.70400
N  0.66200 43.12500 28.07000
C  1.59600 43.39600 29.05300
C  0.89400 43.30300 30.48500
C  -0.58700 43.05700 30.12400
C  -0.52300 42.90900 28.61400
C  -1.22200 41.76900 30.74200
C  1.18200 44.53800 31.37300
C  0.97800 44.39800 32.94900
H  0.80500 43.04700 33.62100
N  -1.11200 42.94000 25.52200
C  -1.93700 42.54500 26.54200
C  -3.29400 42.24100 25.99700
C  -3.12100 42.33800 24.57800
C  -1.71900 42.78300 24.34900
C  -4.44200 41.84500 26.84700
C  -4.19900 42.14500 23.48300
O  -3.86100 42.16200 22.33900
C  -5.66100 41.86900 23.82500
N  1.26900 43.70300 23.75300
C  0.26200 43.44000 22.84200
C  0.92500 43.40000 21.39700
C  2.35000 43.90500 21.56400
C  2.46800 43.90300 23.13100
C  0.73500 42.14700 20.56800
C  2.56000 45.27200 20.98300
C  1.90000 46.53100 21.77200
N  2.94700 43.79900 26.07100
C  3.87500 43.91000 25.09100
C  5.21100 43.94400 25.81500
C  4.84900 43.72900 27.14800
C  3.48800 43.70500 27.30600
C  6.57800 44.07500 25.21600
C  5.43800 43.44600 28.41900
O  6.62100 43.27000 28.71600
C  4.23600 43.51600 29.48500
C  4.09200 42.34900 30.40800
O  3.34500 41.40800 30.45700
O  5.07800 42.43000 31.36800
C  5.17000 41.42700 32.44200
H  -2.58900 42.35100 28.44500
H  -1.60800 43.01900 22.14400
H  4.57200 43.92900 23.06300
H  1.25100 42.46100 31.08000
H  -1.11100 43.99400 30.31200
H  -2.23000 42.05600 31.04000
H  -0.81500 41.48000 31.71100
H  -1.07200 40.93500 30.05600
H  0.51200 45.36300 31.13100
H  2.23400 44.75300 31.18700
H  0.24500 45.13800 33.27100
H  1.87600 44.83800 33.38100
H  -5.22100 41.39600 26.23000
H  -4.98400 42.66800 27.31300
H  -4.13700 41.09500 27.57700
H  -6.26200 41.93000 22.91800
H  -6.05600 42.67000 24.45000
H  -5.72900 40.85900 24.22800
H  0.32800 44.11300 20.82900
H  2.99100 43.13800 21.12900
H  -0.00800 41.54500 21.09100
H  1.70500 41.66500 20.44900
H  0.55100 42.23900 19.49700
H  2.09100 45.37200 20.00500
H  3.58200 45.57300 20.75300
H  1.98900 46.36900 22.84600
H  0.85400 46.71700 21.53000
H  2.43700 47.45500 21.55600
H  7.18300 44.79200 25.77000
H  6.55800 44.44700 24.19100
H  7.14600 43.15100 25.10900
H  4.41100 44.33600 30.18200
H  4.23600 41.42500 33.00300
H  5.96800 41.79000 33.08900
H  5.39300 40.45400 32.00400

