158

Mg 48.29500 15.94800 28.07800
C  46.11200 15.98900 30.94500
C  50.45700 17.85900 29.71700
C  49.87900 16.16100 25.16500
C  45.32400 14.68800 26.28600
N  48.18700 16.94700 30.06800
C  47.35800 16.65800 31.14600
C  47.98100 17.17700 32.42500
C  49.16500 18.05400 31.91400
C  49.30600 17.55500 30.52300
C  48.83300 19.54400 31.81600
C  48.36100 15.99600 33.34600
C  47.94600 16.15800 34.82700
H  47.28100 17.42500 35.41700
N  50.08500 16.71000 27.59700
C  50.80500 17.50000 28.38900
C  51.94200 18.01700 27.64000
C  51.82500 17.45800 26.33300
C  50.57600 16.65900 26.28500
C  52.95400 19.10600 28.16100
C  52.69000 17.64600 25.10000
O  52.46500 17.00200 24.07200
C  53.83200 18.49900 25.11200
N  47.64500 15.52500 26.03800
C  48.63800 15.56300 25.11300
C  48.07300 15.06600 23.79800
C  46.63300 14.61200 24.12300
C  46.48300 15.00400 25.52300
C  48.18900 16.17400 22.72700
C  46.45700 13.06500 23.92500
C  45.70600 12.65600 22.73400
N  46.14000 15.45200 28.44800
C  45.11700 14.93600 27.63100
C  44.02900 14.49900 28.45700
C  44.33900 14.84100 29.74800
C  45.63600 15.49800 29.70600
C  42.70200 13.91300 27.95100
C  43.94400 14.71600 31.12700
O  43.06100 14.09400 31.63900
C  45.07100 15.46700 31.94500
C  44.36600 16.50800 32.83300
O  44.51200 17.71900 32.85900
O  43.57500 15.83800 33.77900
C  43.07500 16.59200 34.98700
H  51.15300 18.53100 30.22400
H  50.38200 16.20200 24.19700
H  44.63300 14.06900 25.71100
H  47.26900 17.85300 32.90000
H  50.04000 17.86300 32.53500
H  48.00700 19.75300 31.13700
H  49.70400 20.12100 31.50500
H  48.60400 19.92600 32.81100
H  49.39900 15.67400 33.42200
H  47.94600 15.09500 32.89300
H  48.80400 16.00500 35.48200
H  47.39100 15.24900 35.05700
H  53.48100 19.64900 27.37700
H  53.79700 18.60900 28.64200
H  52.48600 19.77800 28.88000
H  53.60300 19.53000 25.38300
H  54.24100 18.42800 24.10400
H  54.52600 18.05300 25.82300
H  48.69800 14.23500 23.46800
H  45.86100 15.23500 23.66900
H  47.33400 16.08100 22.05800
H  48.91100 15.87000 21.96900
H  48.29600 17.18500 23.12000
H  46.10500 12.63700 24.86400
H  47.42500 12.58200 23.79100
H  45.31800 11.63800 22.77800
H  46.39900 12.80600 21.90600
H  44.89100 13.36000 22.56700
H  42.28900 14.68000 27.29600
H  42.05300 13.74600 28.81100
H  42.87600 13.03100 27.33400
H  45.55700 14.80700 32.66400
H  42.14000 16.07700 35.20500
H  42.73800 17.61200 34.80300
H  43.69300 16.46900 35.87700
Mg -1.25900 35.35700 26.85800
C  -3.26000 33.53800 29.00700
C  -0.08000 37.19600 29.58400
C  0.51700 37.20400 24.73300
C  -2.59600 33.44900 24.19800
N  -1.70000 35.39900 29.01600
C  -2.49600 34.51000 29.67200
C  -2.24100 34.54300 31.21600
C  -1.51800 35.89800 31.37500
C  -1.05100 36.17900 29.87800
C  -2.37300 37.00800 32.01000
C  -1.60100 33.24900 31.74500
C  -2.32400 32.37000 32.81000
H  -1.65300 32.05800 34.15400
N  0.00300 37.03000 27.12800
C  0.41300 37.64100 28.32800
C  1.41100 38.63000 27.96600
C  1.70200 38.57400 26.57700
C  0.71000 37.57900 26.11100
C  2.02900 39.45200 29.09400
C  2.70800 39.32300 25.77400
O  2.80300 39.24200 24.56600
C  3.66100 40.20400 26.48400
N  -1.23600 35.53800 24.76600
C  -0.30300 36.27100 24.10000
C  -0.14700 35.83400 22.63900
C  -1.05800 34.56300 22.49100
C  -1.73200 34.49600 23.88400
C  -0.55400 36.98200 21.72000
C  -0.36700 33.21700 22.00400
C  0.65300 32.61100 23.00900
N  -2.73900 33.92700 26.59000
C  -3.23900 33.24400 25.43400
C  -4.09600 32.13500 25.83200
C  -4.11500 32.24400 27.21900
C  -3.29200 33.28300 27.63700
C  -4.48200 31.11100 24.86200
C  -4.62000 31.63000 28.41300
O  -5.37200 30.69600 28.57600
C  -4.12000 32.49500 29.60100
C  -5.32300 33.10300 30.26600
O  -6.11100 33.90500 29.75600
O  -5.45300 32.51600 31.55100
C  -6.61200 33.03600 32.34200
H  0.36000 37.67800 30.45900
H  1.12300 37.68000 23.96000
H  -2.88300 32.86600 23.32000
H  -3.19000 34.61600 31.74700
H  -0.63400 35.79000 32.00400
H  -2.01100 37.07100 33.03600
H  -3.42700 36.73200 32.03400
H  -2.47000 37.83800 31.31100
H  -0.62000 33.54500 32.11600
H  -1.47600 32.58000 30.89300
H  -2.53200 31.35400 32.47500
H  -3.30900 32.80300 32.98400
H  1.54200 39.39700 30.06800
H  1.82400 40.50100 28.87900
H  3.10200 39.26800 29.04000
H  3.18900 40.97200 27.09700
H  4.08000 40.89600 25.75200
H  4.39200 39.71000 27.12300
H  0.88700 35.56900 22.42000
H  -1.77400 34.70600 21.68200
H  -0.74200 37.96700 22.14500
H  -1.50400 36.75200 21.23700
H  0.21700 37.13000 20.96400
H  0.25000 33.39000 21.12300
H  -1.06700 32.43200 21.71900
H  0.35900 31.67500 23.48300
H  0.63900 33.32000 23.83700
H  1.58600 32.57200 22.44700
H  -5.04900 31.57900 24.05700
H  -5.24300 30.46200 25.29500
H  -3.62200 30.63200 24.39500
H  -3.54000 31.82500 30.23600
H  -6.24900 33.76300 33.06800
H  -7.17100 32.19000 32.74100
H  -7.31600 33.67100 31.80300

