158

Mg 26.26300 0.78400 28.73700
C  28.09200 -0.05400 31.69800
C  23.52900 1.22600 30.66200
C  24.47300 0.84100 25.85600
C  29.11500 -0.30900 26.89700
N  25.93500 0.61900 30.92000
C  26.82400 0.41700 31.96500
C  26.22100 0.82900 33.32600
C  24.71800 1.01000 32.95300
C  24.71000 0.95300 31.42700
C  23.77000 -0.00800 33.71200
C  27.03400 1.98200 33.93200
C  27.55100 1.71000 35.31000
H  27.49500 2.81800 36.27600
N  24.24500 1.00500 28.33900
C  23.29200 1.23900 29.22200
C  22.03100 1.43300 28.50000
C  22.29400 1.23300 27.14300
C  23.70000 1.09700 27.06100
C  20.73500 1.71800 29.25000
C  21.36200 1.24500 25.93800
O  21.71100 1.11500 24.77300
C  19.89000 1.49800 26.24600
N  26.76900 0.30800 26.70500
C  25.85800 0.75300 25.69200
C  26.53700 0.58700 24.29900
C  28.06200 0.51500 24.69300
C  27.99000 0.09400 26.15800
C  26.02700 -0.65700 23.45400
C  28.90400 1.79800 24.34600
C  29.28500 1.90400 22.85400
N  28.14300 -0.00800 29.11300
C  29.18900 -0.47300 28.29200
C  30.28100 -0.95500 29.11800
C  29.90500 -0.72900 30.38700
C  28.63300 -0.21100 30.38800
C  31.58400 -1.35300 28.59400
C  30.37900 -0.86100 31.72500
O  31.41600 -1.24700 32.18000
C  29.22700 -0.44200 32.71600
C  28.83600 -1.42600 33.78300
O  27.95100 -2.22500 33.78600
O  29.62400 -1.21800 34.91100
C  29.39200 -2.11500 35.99100
H  22.85000 1.75200 31.33600
H  23.96400 1.02300 24.90700
H  30.07400 -0.52700 26.42200
H  26.43800 -0.04800 33.93700
H  24.41000 2.03700 33.14700
H  24.42400 -0.72100 34.21500
H  23.15700 -0.50200 32.95900
H  23.18100 0.53900 34.44800
H  26.47100 2.91400 33.88800
H  27.93400 2.10900 33.33000
H  28.60000 1.44700 35.17400
H  27.13100 0.80800 35.75600
H  19.98900 0.92500 29.21900
H  20.41100 2.74400 29.07400
H  21.11600 1.81600 30.26700
H  19.48700 0.94100 27.09200
H  19.38700 1.18200 25.33300
H  19.76300 2.54500 26.52100
H  26.25600 1.50500 23.78300
H  28.63400 -0.27900 24.21300
H  26.71000 -1.47600 23.23100
H  25.46900 -0.26900 22.60100
H  25.17200 -0.99400 24.03900
H  29.74700 1.93200 25.02300
H  28.29000 2.66200 24.59700
H  28.88800 1.14600 22.17900
H  30.36000 1.77200 22.73300
H  28.88300 2.83900 22.46500
H  32.34900 -1.10000 29.32800
H  31.91200 -0.77700 27.72900
H  31.55400 -2.42500 28.39900
H  29.67200 0.35900 33.30500
H  28.44500 -1.82000 36.44200
H  30.24400 -2.10900 36.67200
H  29.32400 -3.16100 35.69300
Mg 16.59600 52.64400 26.67200
C  18.71600 50.94800 28.97200
C  14.54800 53.41800 29.36100
C  14.62000 54.13200 24.48200
C  18.67300 51.44700 24.18200
N  16.56800 52.23300 28.81100
C  17.58300 51.57600 29.52900
C  17.24800 51.64700 31.04200
C  15.79000 51.93800 31.02000
C  15.61900 52.62500 29.66200
C  14.88100 50.72900 31.25000
C  18.06600 52.75200 31.70000
C  18.16500 52.75100 33.22500
H  17.03800 52.00400 33.92400
N  14.81600 53.71700 26.87500
C  14.18300 53.90300 28.06800
C  12.94700 54.61300 27.77500
C  12.95800 54.94700 26.38400
C  14.17000 54.29300 25.84200
C  12.00700 55.13900 28.87900
C  11.98400 55.82500 25.57200
O  12.20200 55.99100 24.35900
C  10.83400 56.42000 26.20400
N  16.62700 52.64300 24.65200
C  15.75400 53.46100 23.97800
C  16.05300 53.41100 22.46000
C  17.58500 52.93800 22.42200
C  17.63000 52.32500 23.84800
C  15.09700 52.52500 21.60100
C  18.68400 53.99400 22.10400
C  19.97200 53.54600 21.54000
N  18.25200 51.28000 26.49900
C  19.02900 50.90900 25.43900
C  20.14900 50.15800 25.86600
C  20.05900 50.08500 27.30300
C  18.93100 50.88200 27.62500
C  21.17900 49.50600 25.02200
C  20.66900 49.56200 28.52500
O  21.62400 48.88300 28.82400
C  19.82300 50.21900 29.71800
C  19.36100 49.15200 30.55800
O  18.68800 48.20300 30.18300
O  19.78400 49.47300 31.82600
C  19.37300 48.60200 32.91300
H  13.91100 53.67700 30.20900
H  13.95000 54.48600 23.69500
H  19.45400 51.23400 23.44800
H  17.50700 50.69900 31.51400
H  15.48500 52.73600 31.69700
H  14.15800 50.64300 30.43900
H  14.30200 50.77100 32.17300
H  15.49900 49.83900 31.36500
H  17.46600 53.65700 31.60300
H  18.98900 52.67100 31.12700
H  18.09900 53.77400 33.59700
H  19.07900 52.23500 33.51800
H  11.82100 56.21200 28.86200
H  12.40400 54.85800 29.85400
H  10.97400 54.83000 28.71600
H  9.96900 55.79500 26.42900
H  10.51700 57.22400 25.53900
H  11.13400 56.91000 27.13000
H  16.16800 54.45400 22.16700
H  17.66700 52.05300 21.79100
H  14.55900 51.78400 22.19200
H  15.59400 51.96300 20.81000
H  14.30500 53.12400 21.15000
H  18.93800 54.44900 23.06200
H  18.32400 54.77300 21.43200
H  20.48800 54.30400 20.95100
H  19.85300 52.66600 20.90800
H  20.60200 53.27300 22.38600
H  21.74700 48.84900 25.68100
H  21.79100 50.21400 24.46400
H  20.73400 48.83700 24.28600
H  20.43000 50.97900 30.21100
H  19.38000 47.57100 32.55900
H  18.39500 48.84300 33.32900
H  20.14500 48.75100 33.66700

