158

Mg 49.15400 45.22000 42.74000
C  45.86900 45.76200 41.62000
C  48.86000 41.91300 41.72600
C  52.43000 44.89500 42.73400
C  49.42700 48.73800 43.09600
N  47.53000 43.98600 41.63400
C  46.26000 44.45600 41.28300
C  45.41300 43.30200 40.57900
C  46.26900 42.03400 41.06800
C  47.64000 42.64000 41.46600
C  45.67200 41.15100 42.16000
C  45.40900 43.47700 39.10800
C  44.33100 42.68800 38.40800
H  44.76800 41.61200 37.30500
N  50.46500 43.62500 42.48400
C  50.14000 42.37600 42.04200
C  51.31700 41.56800 42.05300
C  52.39000 42.34600 42.36500
C  51.80600 43.66900 42.57800
C  51.47700 40.10100 41.70000
C  53.86600 41.92900 42.46200
O  54.23300 40.77200 42.22100
C  54.98500 42.93900 42.85800
N  50.66700 46.60000 43.18400
C  51.93300 46.19900 42.97900
C  52.92300 47.43200 42.96200
C  51.95400 48.63500 43.28800
C  50.60500 47.96300 43.12800
C  54.19600 47.33000 43.94000
C  52.21000 49.79500 42.27600
C  52.46200 51.12700 42.98800
N  47.88700 46.88500 42.55000
C  48.12800 48.23200 42.80200
C  46.94300 48.97000 42.60000
C  45.96800 48.04300 42.20000
C  46.60800 46.82800 42.20500
C  46.84500 50.48900 42.75100
C  44.68500 47.93100 41.68000
O  43.78200 48.69500 41.44000
C  44.53000 46.42600 41.25900
C  43.25100 45.83800 41.72000
O  42.53100 45.05100 41.08400
O  42.87800 46.28100 42.94800
C  41.61900 45.74600 43.55900
H  48.63200 40.85500 41.58700
H  53.51700 44.97400 42.65800
H  49.45300 49.76800 43.46000
H  44.39600 43.42200 40.95300
H  46.36200 41.32300 40.24600
H  46.16900 41.01100 43.12000
H  45.56700 40.11700 41.83200
H  44.67400 41.57100 42.28900
H  46.43300 43.22500 38.83400
H  45.29400 44.55400 38.98700
H  43.78100 43.44000 37.84300
H  43.68200 42.21000 39.14200
H  51.93100 39.54600 42.52100
H  52.05900 40.01800 40.78300
H  50.49700 39.64300 41.57100
H  55.12100 43.49800 41.93200
H  55.86000 42.31600 43.04600
H  54.76800 43.46300 43.78800
H  53.30400 47.49200 41.94300
H  51.96500 48.84000 44.35800
H  55.09000 47.13300 43.34800
H  54.15900 46.59100 44.74000
H  54.30800 48.29700 44.43100
H  51.38200 49.91100 41.57700
H  53.14600 49.64000 41.73800
H  53.49700 51.38400 42.76200
H  52.51700 51.07800 44.07600
H  51.76300 51.93200 42.75800
H  46.72800 50.71100 43.81200
H  45.99200 50.89400 42.20600
H  47.75300 50.97500 42.39600
H  44.33800 46.42500 40.18600
H  40.77300 45.88000 42.88500
H  41.39000 46.21600 44.51600
H  41.71400 44.71500 43.89900
Mg -5.82200 26.03100 26.19100
C  -3.91900 27.44300 28.83700
C  -7.21000 23.94800 28.49600
C  -7.32000 24.55500 23.69500
C  -4.29100 28.30700 24.04500
N  -5.49100 25.69500 28.32400
C  -4.66400 26.40500 29.23300
C  -5.07700 26.04400 30.71400
C  -5.76900 24.69000 30.47800
C  -6.21800 24.78200 28.98400
C  -4.93300 23.38900 30.69300
C  -5.96300 27.10100 31.48200
C  -5.87300 27.13200 33.00900
H  -5.03500 26.13400 33.81200
N  -7.08700 24.41200 26.09800
C  -7.61100 23.72200 27.15900
C  -8.68600 22.87100 26.64600
C  -8.65800 22.87800 25.21300
C  -7.70000 23.95100 24.94200
C  -9.58900 22.04800 27.60100
C  -9.48400 22.15300 24.19200
O  -9.31700 22.27100 22.97700
C  -10.63700 21.37400 24.61600
N  -5.73600 26.35000 24.12400
C  -6.45000 25.60800 23.23600
C  -6.37800 26.15700 21.78400
C  -5.65700 27.54500 21.98600
C  -5.18300 27.36800 23.46400
C  -5.66400 25.15800 20.86600
C  -6.63200 28.80400 21.96400
C  -6.24900 29.83500 20.97700
N  -4.31400 27.58000 26.32800
C  -3.84200 28.39000 25.39000
C  -3.02700 29.39800 25.96600
C  -2.92500 29.03100 27.35500
C  -3.79000 27.89800 27.47500
C  -2.34700 30.53200 25.27200
C  -2.34100 29.41400 28.60600
O  -1.55200 30.33500 28.90600
C  -2.99200 28.38300 29.61700
C  -1.87400 27.74800 30.35900
O  -0.75200 27.56400 29.90600
O  -2.27000 27.64900 31.65200
C  -1.17800 27.32400 32.58200
H  -7.68700 23.19800 29.13100
H  -7.80200 24.08800 22.83300
H  -4.00800 29.15400 23.41600
H  -4.17200 25.91600 31.30800
H  -6.66500 24.65800 31.09700
H  -4.90500 22.87200 29.73400
H  -5.48000 22.89500 31.49500
H  -3.96100 23.62200 31.13000
H  -7.00200 26.98600 31.17400
H  -5.60400 28.10300 31.24600
H  -6.88700 27.00600 33.38800
H  -5.50000 28.11800 33.28600
H  -9.51600 20.97400 27.42800
H  -10.61700 22.26100 27.31000
H  -9.48000 22.30800 28.65400
H  -11.01600 20.66400 23.88100
H  -11.43200 22.02400 24.98300
H  -10.33600 20.89500 25.54700
H  -7.42700 26.22300 21.49300
H  -4.81700 27.70200 21.31000
H  -6.20000 24.23900 20.62800
H  -4.74600 24.76200 21.30100
H  -5.38300 25.72000 19.97600
H  -6.52900 29.32900 22.91300
H  -7.66400 28.47000 21.85300
H  -5.76100 29.42200 20.09400
H  -5.66600 30.59800 21.49300
H  -7.11100 30.36100 20.56800
H  -3.00900 31.27500 24.82800
H  -1.58100 30.22200 24.56200
H  -1.86200 31.04200 26.10600
H  -3.52800 29.07000 30.27200
H  -0.29400 27.90900 32.32700
H  -0.94300 26.26000 32.61700
H  -1.58900 27.47500 33.58000

