158

Mg 34.48500 3.31700 30.14500
C  32.20900 3.78800 32.69500
C  36.99700 2.97800 32.51000
C  36.70100 2.60100 27.69100
C  31.96300 3.73100 27.66500
N  34.49500 3.28300 32.37400
C  33.44900 3.51900 33.20000
C  33.88900 3.27800 34.62200
C  35.45400 3.52400 34.50800
C  35.74300 3.18400 33.06800
C  36.09800 4.85100 34.88400
C  33.25400 1.98000 35.14800
C  32.86000 1.95300 36.59100
H  33.33400 3.00500 37.57400
N  36.61900 3.00700 30.07300
C  37.47900 2.88000 31.13700
C  38.87100 2.70500 30.68700
C  38.70400 2.39300 29.30500
C  37.25600 2.65900 28.93900
C  40.09800 2.50700 31.68400
C  39.78900 1.90500 28.36600
O  39.60300 1.51200 27.21000
C  41.18900 1.71100 28.91900
N  34.33900 3.32600 27.92900
C  35.43500 2.98200 27.20900
C  35.11800 2.84400 25.66100
C  33.54900 2.98500 25.68300
C  33.23500 3.45600 27.14000
C  35.91200 3.80900 24.74800
C  32.82900 1.72100 25.24700
C  32.24300 1.70800 23.80600
N  32.55600 3.77300 30.07000
C  31.63500 3.88600 29.06400
C  30.27800 4.13100 29.64500
C  30.50700 4.10700 31.06900
C  31.85500 3.90900 31.29100
C  29.07500 4.36000 28.88800
C  29.90100 4.18600 32.27900
O  28.76500 4.36500 32.58300
C  30.98800 4.16100 33.35400
C  31.12000 5.46200 33.97400
O  31.51100 6.48100 33.40800
O  30.82700 5.30900 35.33000
C  30.95000 6.57900 36.10500
H  37.80400 2.92000 33.24300
H  37.37700 2.35300 26.87000
H  31.16500 3.77000 26.92100
H  33.40300 4.06100 35.20300
H  35.85200 2.78700 35.20500
H  36.74900 4.58000 35.71600
H  35.33600 5.55500 35.21900
H  36.75700 5.21800 34.09700
H  34.13100 1.33400 35.11200
H  32.55800 1.52000 34.44700
H  33.28200 1.00500 36.92500
H  31.79300 1.84700 36.78500
H  39.76400 2.62100 32.71500
H  40.87800 3.26600 31.61500
H  40.57000 1.52800 31.60100
H  41.82600 1.68900 28.03600
H  41.26600 0.78700 29.49200
H  41.44700 2.53500 29.58500
H  35.38000 1.80000 25.49100
H  33.33100 3.85700 25.06700
H  35.28500 4.33100 24.02500
H  36.64700 3.28000 24.14000
H  36.40000 4.55500 25.37500
H  31.98500 1.55000 25.91600
H  33.42200 0.80800 25.19300
H  31.26700 1.22300 23.84100
H  32.92200 1.12100 23.18700
H  32.22900 2.66300 23.28100
H  29.10800 3.79200 27.95800
H  28.71800 5.37300 28.70000
H  28.27300 3.87800 29.44600
H  30.85200 3.36300 34.08400
H  30.12200 7.24600 35.86300
H  31.86000 7.12100 35.84800
H  31.03200 6.42000 37.18000
Mg 17.31800 52.84600 26.77400
C  19.41600 51.26800 28.92400
C  15.06300 53.11800 29.25600
C  15.09300 54.25600 24.55100
C  19.40500 52.12800 24.20800
N  17.28600 52.31300 28.85000
C  18.31000 51.81400 29.59700
C  17.99500 51.85000 31.09100
C  16.42200 51.85900 31.02100
C  16.21200 52.52300 29.63100
C  15.74700 50.41000 31.19800
C  18.70800 53.07700 31.74700
C  18.29700 53.32900 33.13300
H  17.41400 52.28700 33.87300
N  15.38200 53.80100 26.92400
C  14.64300 53.80400 28.06400
C  13.37500 54.51900 27.75400
C  13.38000 54.84000 26.40600
C  14.63600 54.27600 25.85700
C  12.40200 54.83300 28.90300
C  12.26600 55.51900 25.67100
O  12.38100 55.89800 24.51900
C  10.97900 55.72700 26.32600
N  17.19800 52.99200 24.67900
C  16.25800 53.74600 23.99300
C  16.67100 53.94900 22.50100
C  18.22800 53.57900 22.54800
C  18.29700 52.82500 23.87400
C  15.84800 53.04000 21.56500
C  19.21400 54.79400 22.48200
C  20.23000 54.64700 21.30300
N  19.09400 51.85800 26.50300
C  19.81700 51.63000 25.42200
C  21.04800 50.89900 25.81400
C  20.93100 50.76000 27.22900
C  19.74100 51.35300 27.56300
C  22.20600 50.25300 25.01800
C  21.56300 50.12900 28.39900
O  22.52800 49.40100 28.59200
C  20.69100 50.66200 29.56200
C  20.26600 49.49300 30.29500
O  19.65800 48.51900 29.86700
O  20.72900 49.63400 31.60200
C  20.30300 48.51700 32.46100
H  14.27600 53.17400 30.01200
H  14.33300 54.66300 23.88000
H  20.08100 51.90800 23.37900
H  18.40200 50.94900 31.55100
H  15.83100 52.46100 31.71200
H  15.17100 50.28600 30.28100
H  15.12000 50.28500 32.08200
H  16.55200 49.67900 31.26700
H  18.58900 54.02600 31.22400
H  19.76300 52.85300 31.90700
H  17.82700 54.31100 33.17300
H  19.13600 53.43900 33.82000
H  12.71500 54.45300 29.87600
H  11.47600 54.33000 28.62600
H  12.31400 55.90600 29.07400
H  10.56200 54.76000 26.60600
H  10.23300 56.09900 25.62300
H  11.13000 56.37500 27.18900
H  16.42000 54.94300 22.13100
H  18.40000 52.96300 21.66600
H  15.51700 52.13100 22.06700
H  16.50400 52.81900 20.72300
H  14.96700 53.65300 21.37200
H  19.70000 54.80400 23.45800
H  18.66000 55.72100 22.33600
H  20.15400 53.74300 20.69800
H  21.21900 54.61300 21.76100
H  20.14000 55.55200 20.70300
H  23.06100 50.55800 25.62200
H  22.19100 50.63600 23.99800
H  22.08200 49.17100 25.02400
H  21.28300 51.34700 30.16900
H  20.72600 48.60300 33.46200
H  20.72400 47.57600 32.10800
H  19.21400 48.55500 32.47900

