158

Mg 25.47200 1.28900 29.95300
C  27.61600 0.77400 32.70100
C  22.82300 1.37000 32.06500
C  23.53300 1.57600 27.27900
C  28.20900 0.24100 27.83800
N  25.29300 0.98400 32.18900
C  26.29700 1.05500 33.10100
C  25.80300 1.38900 34.49200
C  24.23300 1.39600 34.25400
C  24.07600 1.27600 32.74500
C  23.50400 0.19200 34.92500
C  26.40600 2.73000 34.89600
C  27.23100 2.77800 36.17700
H  26.79800 3.83300 37.19600
N  23.47100 1.48100 29.76100
C  22.54400 1.46500 30.73400
C  21.24000 1.70600 30.12000
C  21.39500 1.65000 28.74000
C  22.82800 1.57000 28.47100
C  19.95100 1.63300 30.90000
C  20.42100 1.64400 27.54500
O  20.74400 1.78300 26.37600
C  18.98300 1.28400 27.93200
N  25.91000 1.00400 27.84400
C  24.88900 1.25700 26.96200
C  25.34800 0.95800 25.48100
C  26.88300 0.60000 25.74600
C  27.00900 0.60100 27.23100
C  24.65600 -0.20800 24.62000
C  27.92400 1.57000 25.08000
C  27.83000 3.03400 25.51900
N  27.56500 0.68700 30.20500
C  28.52100 0.28900 29.25500
C  29.77900 -0.07300 29.96400
C  29.44700 0.19100 31.29700
C  28.10600 0.53400 31.38400
C  31.08100 -0.46300 29.35800
C  29.94400 0.26800 32.64800
O  31.07300 0.03200 33.14700
C  28.75600 0.65600 33.61600
C  28.73300 -0.27700 34.81200
O  27.98500 -1.26200 34.83600
O  29.44300 0.24900 35.82100
C  29.19000 -0.24900 37.18000
H  22.02400 1.53900 32.79100
H  23.03100 1.65500 26.31300
H  29.04100 -0.02200 27.18200
H  26.09400 0.58000 35.16300
H  23.76900 2.31400 34.61400
H  23.09600 0.47100 35.89600
H  24.28300 -0.56700 34.99900
H  22.73200 -0.16800 34.24500
H  25.58200 3.42600 35.05400
H  27.04900 3.07900 34.08800
H  28.28200 2.88500 35.90900
H  27.15600 1.79800 36.64700
H  19.22700 2.31300 30.45200
H  20.16000 1.92400 31.92900
H  19.41000 0.68700 30.87100
H  18.37800 0.92200 27.10100
H  18.51000 2.20800 28.26700
H  18.88000 0.50400 28.68600
H  25.28500 1.90100 24.93800
H  27.13400 -0.40100 25.39600
H  25.45300 -0.72700 24.08700
H  24.09300 0.29700 23.83600
H  24.05300 -0.82800 25.28300
H  27.59500 1.49700 24.04400
H  28.97500 1.28000 25.07300
H  27.41000 3.09400 26.52300
H  27.22300 3.60200 24.81400
H  28.79800 3.53500 25.49300
H  31.17300 -1.52600 29.13800
H  31.94700 -0.26100 29.98800
H  31.12200 0.04800 28.39600
H  28.95200 1.66900 33.96800
H  28.47400 -1.07100 37.20800
H  28.84200 0.56200 37.82000
H  30.15200 -0.64700 37.50100
Mg -11.91100 16.79500 41.91100
C  -8.71000 15.44700 41.73300
C  -10.60500 19.84800 40.79800
C  -14.92900 18.04900 41.96700
C  -13.16000 13.59600 42.78100
N  -9.88400 17.52300 41.26300
C  -8.71100 16.77500 41.27100
C  -7.58900 17.54000 40.65900
C  -8.11400 19.07600 40.73600
C  -9.64400 18.83600 41.02300
C  -7.44300 19.99200 41.80100
C  -7.33400 17.19300 39.09100
C  -5.86300 17.39800 38.66600
H  -5.58500 18.25000 37.35200
N  -12.59600 18.66600 41.43200
C  -11.93200 19.79500 41.05200
C  -12.87100 20.87600 40.93600
C  -14.20400 20.39700 41.33400
C  -13.93000 19.00800 41.61500
C  -12.51000 22.26500 40.48100
C  -15.43300 21.20100 41.52700
O  -15.42900 22.34100 41.08400
C  -16.61700 20.78200 42.39200
N  -13.74400 16.00500 42.36300
C  -14.90300 16.68800 42.21800
C  -16.14000 15.82400 42.40400
C  -15.53200 14.53400 42.95800
C  -14.03900 14.69700 42.68500
C  -17.18400 16.54800 43.27100
C  -16.12200 13.24800 42.22300
C  -15.96700 11.85100 42.91900
N  -11.11800 14.89000 42.18000
C  -11.77700 13.70000 42.48100
C  -10.71200 12.61400 42.49800
C  -9.50900 13.29300 42.21200
C  -9.81300 14.62000 42.05800
C  -10.90100 11.15900 42.63100
C  -8.07400 13.07600 42.13000
O  -7.46900 11.98900 42.23100
C  -7.50900 14.55700 41.74300
C  -6.47100 14.98700 42.73600
O  -6.55000 15.24700 43.96800
O  -5.25200 15.02500 42.05200
C  -4.07000 15.13300 42.81900
H  -10.11800 20.82000 40.69300
H  -15.91700 18.51500 42.00100
H  -13.58600 12.60300 42.93900
H  -6.75100 17.40500 41.34200
H  -8.04400 19.58800 39.77700
H  -8.07500 20.19000 42.66700
H  -7.30200 20.98800 41.38100
H  -6.43300 19.67100 42.05600
H  -7.94100 17.88600 38.50800
H  -7.74500 16.19600 38.92900
H  -5.47700 16.40700 38.42800
H  -5.32500 17.73800 39.55100
H  -11.43600 22.44600 40.45300
H  -12.80900 22.97500 41.25200
H  -12.98700 22.43700 39.51600
H  -17.04500 21.76500 42.59100
H  -16.24700 20.27600 43.28300
H  -17.22300 20.19000 41.70700
H  -16.41600 15.63900 41.36600
H  -15.51300 14.43100 44.04300
H  -17.46300 15.97500 44.15500
H  -18.04400 16.63700 42.60700
H  -16.87100 17.54500 43.58200
H  -15.75300 13.24400 41.19700
H  -17.20000 13.39500 42.29300
H  -16.94800 11.53600 43.27200
H  -15.26800 11.91800 43.75300
H  -15.56300 11.15000 42.18700
H  -11.43800 10.85300 43.52900
H  -9.93500 10.65600 42.65300
H  -11.47000 10.76200 41.79100
H  -6.99800 14.46800 40.78500
H  -3.32500 14.84200 42.07800
H  -3.94800 14.39000 43.60700
H  -3.81700 16.10100 43.25000

