158

Mg 43.79400 3.91000 47.14100
C  41.75300 6.85000 46.96900
C  40.74100 2.01000 47.08200
C  45.39600 1.04600 46.50700
C  46.55400 5.79200 46.71500
N  41.49600 4.39500 47.13600
C  40.95700 5.64900 47.08300
C  39.38100 5.56200 47.23900
C  39.17800 4.03500 47.29300
C  40.55800 3.42200 47.10500
C  38.44400 3.43900 48.56100
C  38.57200 6.27700 46.13100
C  38.67100 5.74600 44.76800
H  38.65000 6.73000 43.61000
N  43.22700 1.79800 46.93500
C  41.94900 1.24300 46.90300
C  42.01200 -0.18000 46.69200
C  43.41700 -0.51500 46.52800
C  44.08900 0.78200 46.56200
C  40.84300 -1.05400 46.39800
C  43.96700 -1.92900 46.24400
O  43.28000 -2.94600 46.19600
C  45.50000 -2.22000 45.91800
N  45.68000 3.52900 46.37900
C  46.13900 2.18600 46.52400
C  47.66400 2.22500 46.55200
C  48.04900 3.75800 46.73200
C  46.71600 4.42700 46.65800
C  48.25600 1.30400 47.63200
C  49.08300 4.31600 45.67100
C  50.49800 4.31500 46.25400
N  44.17300 5.92400 46.69300
C  45.38600 6.58900 46.68100
C  45.18500 7.99200 46.70300
C  43.79500 8.15800 46.89200
C  43.19500 6.87100 46.84500
C  46.25400 8.94000 46.56300
C  42.75700 9.11100 47.00700
O  42.75200 10.34500 47.07400
C  41.47200 8.27400 47.07400
C  40.71600 8.65800 48.33700
O  40.85800 8.10800 49.42300
O  39.88000 9.64800 48.04200
C  39.17300 10.24300 49.13900
H  39.81400 1.44400 47.19000
H  45.97800 0.12800 46.40100
H  47.53000 6.28100 46.68800
H  39.17600 5.99700 48.21700
H  38.58200 3.70200 46.44300
H  38.14000 4.35500 49.06600
H  39.12400 2.79300 49.11600
H  37.54700 2.88200 48.28800
H  38.90700 7.30600 46.00800
H  37.52100 6.23700 46.41900
H  37.70700 5.28300 44.56000
H  39.43500 4.97700 44.65800
H  41.07000 -1.63800 45.50600
H  39.98400 -0.42500 46.16600
H  40.42300 -1.59000 47.24900
H  45.62800 -1.64100 45.00300
H  45.56400 -3.23200 45.51900
H  46.16900 -2.10100 46.77000
H  47.89500 1.79800 45.57600
H  48.45300 3.93800 47.72800
H  49.24900 1.66800 47.89500
H  48.35900 0.26400 47.32100
H  47.67100 1.23500 48.54900
H  48.89400 5.33500 45.33600
H  49.07500 3.65300 44.80500
H  50.44100 4.15000 47.33000
H  50.90600 5.29200 45.99600
H  51.07700 3.46300 45.89700
H  47.15000 8.44300 46.19200
H  46.36600 9.39800 47.54600
H  45.94800 9.65500 45.80000
H  40.83500 8.42700 46.20200
H  39.81000 10.30900 50.02200
H  38.42600 9.50700 49.43600
H  38.58500 11.11500 48.85400
Mg 46.81500 34.99000 28.39200
C  45.23100 32.91100 30.80900
C  47.12000 37.43200 30.72500
C  47.91500 37.00100 25.96000
C  46.23600 32.49100 25.98900
N  46.27400 35.15200 30.47600
C  45.69800 34.17900 31.29100
C  45.87700 34.54000 32.80500
C  46.09600 36.10400 32.66200
C  46.53300 36.24700 31.16500
C  44.85300 36.87100 33.11100
C  47.19600 33.79200 33.27000
C  47.38200 33.76300 34.79400
H  46.41200 34.55300 35.61700
N  47.49400 37.03100 28.39500
C  47.60500 37.84300 29.48200
C  48.27600 39.12200 29.11800
C  48.48600 38.95300 27.70900
C  47.91700 37.61800 27.29200
C  48.61500 40.24200 30.04900
C  49.04500 40.03800 26.70000
O  49.19900 39.82300 25.54300
C  49.51000 41.43600 27.16300
N  47.00700 34.78100 26.22500
C  47.55000 35.72800 25.45300
C  47.78400 35.25500 23.98600
C  47.36300 33.77800 24.07300
C  46.84300 33.67100 25.53600
C  46.99600 36.02800 22.84600
C  48.46100 32.66300 23.71000
C  48.13300 31.84600 22.47400
N  46.03500 33.07700 28.30200
C  45.84200 32.18700 27.29200
C  45.09800 30.99600 27.73500
C  44.79500 31.20900 29.05700
C  45.38500 32.46900 29.42100
C  44.69900 29.90700 26.78500
C  44.02500 30.72400 30.29600
O  43.27000 29.76300 30.47200
C  44.17100 31.89500 31.33800
C  44.57500 31.34900 32.70400
O  45.51800 30.63000 32.96300
O  43.51600 31.66500 33.55800
C  43.66000 31.19700 34.99400
H  47.36700 38.09400 31.55700
H  48.31100 37.65500 25.18000
H  46.03200 31.66300 25.30700
H  45.07200 34.28400 33.49400
H  46.90700 36.31400 33.35900
H  44.95200 37.65500 33.86300
H  44.21900 36.17400 33.65800
H  44.36400 37.36500 32.27200
H  48.01600 34.42700 32.93500
H  47.20000 32.78600 32.85100
H  48.40800 34.08900 34.96200
H  47.27200 32.75200 35.18500
H  48.20900 41.22000 29.79300
H  49.69000 40.42100 30.00900
H  48.47200 40.01700 31.10600
H  48.77800 42.20600 26.91800
H  50.43700 41.61900 26.62000
H  49.82400 41.52100 28.20300
H  48.87300 35.27000 23.94300
H  46.46200 33.63100 23.47800
H  46.82300 37.08900 23.02400
H  46.08900 35.64400 22.38000
H  47.74300 36.12600 22.05800
H  48.75600 32.02900 24.54600
H  49.40000 33.20100 23.57500
H  47.25000 32.10300 21.88900
H  48.13600 30.80300 22.79400
H  49.03900 31.95200 21.87800
H  44.86500 29.00900 27.37900
H  45.26900 29.83600 25.85800
H  43.63700 29.96200 26.54700
H  43.18900 32.35600 31.44600
H  44.23800 30.28200 35.12000
H  42.67400 30.87100 35.32700
H  43.98100 31.97100 35.69000

