158

Mg 49.21800 35.54600 27.72700
C  46.63600 34.19400 29.85400
C  49.42700 38.12500 29.96800
C  50.97400 37.20600 25.38400
C  48.21700 33.07100 25.35200
N  48.23700 35.95800 29.83700
C  47.28300 35.30500 30.49200
C  46.88100 36.06200 31.79100
C  47.60400 37.42300 31.62800
C  48.45000 37.20700 30.39000
C  46.67300 38.61100 31.56000
C  47.42000 35.38100 33.07400
C  48.64300 34.49900 33.11900
H  49.92800 35.20000 33.60400
N  50.24700 37.28800 27.72000
C  50.30200 38.15600 28.76600
C  51.22100 39.20900 28.42600
C  51.59200 39.03600 27.08400
C  50.94700 37.76400 26.63500
C  51.45200 40.44500 29.31000
C  52.26900 39.91200 26.04300
O  52.41400 39.68100 24.85700
C  52.62100 41.37000 26.47400
N  49.35600 35.26000 25.64200
C  50.25600 36.09500 24.90600
C  50.49500 35.52900 23.53600
C  49.79600 34.14200 23.54200
C  49.07100 34.12000 24.91400
C  49.93400 36.39000 22.45400
C  50.67300 32.89000 23.30100
C  50.61200 32.28400 21.86600
N  47.80500 33.94000 27.60000
C  47.57700 33.00900 26.57200
C  46.54400 32.09700 26.98500
C  46.15800 32.50900 28.27700
C  46.92700 33.63900 28.58600
C  46.02400 30.91600 26.18600
C  45.21400 32.20100 29.36600
O  44.42700 31.22400 29.47200
C  45.46600 33.36800 30.46500
C  46.04900 32.63600 31.56400
O  47.05800 31.82000 31.60500
O  45.17600 32.88100 32.58700
C  45.39900 32.14900 33.82400
H  49.63700 38.97800 30.61600
H  51.52100 37.65300 24.55100
H  47.89000 32.27200 24.68400
H  45.79500 36.11900 31.86000
H  48.28200 37.58100 32.46700
H  45.62700 38.30600 31.54900
H  46.90700 39.18000 30.66000
H  46.69200 39.23100 32.45600
H  46.66500 34.71700 33.49400
H  47.50400 36.22600 33.75800
H  48.93400 34.09900 32.14800
H  48.42600 33.67800 33.80300
H  52.50400 40.70200 29.43500
H  50.80000 40.45400 30.18400
H  51.00100 41.25700 28.74000
H  51.73300 42.00100 26.43700
H  53.38000 41.55300 25.71400
H  53.15000 41.42200 27.42500
H  51.57600 35.50500 23.40500
H  49.03400 34.10400 22.76400
H  50.69600 37.09200 22.11700
H  49.03400 36.91800 22.76700
H  49.65700 35.79400 21.58500
H  50.22400 32.20700 24.02200
H  51.71200 33.14500 23.50800
H  50.70400 31.22200 22.09700
H  51.47400 32.56800 21.26100
H  49.75700 32.59100 21.26400
H  45.28400 30.32600 26.72700
H  46.93800 30.34600 26.02200
H  45.59000 31.29900 25.26200
H  44.67400 34.10200 30.61600
H  45.64600 31.08900 33.77300
H  44.42100 32.13300 34.30400
H  46.19000 32.62900 34.40200
Mg 17.17000 52.28900 26.52400
C  19.09100 50.83300 29.28200
C  14.63300 52.66600 28.80800
C  15.25800 53.10800 23.94900
C  19.57100 50.70900 24.27000
N  16.92400 51.72800 28.79400
C  17.90600 51.36500 29.69100
C  17.40300 51.49600 31.12700
C  15.82300 51.80800 30.91100
C  15.76600 52.10900 29.43300
C  14.95800 50.55300 31.27900
C  18.23000 52.58100 31.81500
C  18.56300 52.47100 33.34600
H  17.69000 51.59500 34.25400
N  15.33900 53.04700 26.46000
C  14.41100 53.16800 27.51300
C  13.23800 53.86200 26.98200
C  13.40000 54.01400 25.52500
C  14.68000 53.39000 25.28000
C  12.10300 54.31800 27.90000
C  12.55200 54.76500 24.50000
O  12.94200 54.98700 23.35000
C  11.21900 55.27900 24.85700
N  17.37800 51.93900 24.43900
C  16.53100 52.56500 23.57900
C  16.97100 52.38900 22.08400
C  18.45600 51.90300 22.26500
C  18.46900 51.42100 23.71000
C  16.09100 51.47600 21.19100
C  19.52700 52.91800 21.94700
C  20.63500 52.47500 20.97700
N  18.99500 51.06500 26.74300
C  19.79200 50.47900 25.66300
C  20.84700 49.82900 26.28000
C  20.69600 49.99100 27.67100
C  19.49700 50.66100 27.90800
C  21.99400 49.16200 25.56100
C  21.24200 49.67300 29.04200
O  22.21600 48.97500 29.36700
C  20.14800 50.18200 30.06900
C  19.61200 48.95100 30.74500
O  18.81100 48.13000 30.28400
O  19.96000 49.02500 32.11000
C  19.58000 47.85500 32.94300
H  13.76900 52.67200 29.47500
H  14.70800 53.41500 23.05700
H  20.29700 50.38700 23.52000
H  17.46300 50.52400 31.61600
H  15.45900 52.60300 31.56200
H  15.08100 50.26900 32.32400
H  15.31200 49.69300 30.71100
H  13.93100 50.89500 31.15200
H  17.65700 53.50000 31.69100
H  19.21100 52.76700 31.37700
H  18.71000 53.47900 33.73400
H  19.53200 52.01000 33.53800
H  12.20400 53.79200 28.84900
H  11.09300 54.15300 27.52400
H  12.15000 55.38200 28.13100
H  11.25700 56.24600 25.35900
H  10.72100 54.44400 25.35000
H  10.66400 55.55000 23.95900
H  16.95200 53.35800 21.58500
H  18.51700 50.98000 21.69000
H  15.02100 51.64600 21.31200
H  16.34900 50.45100 21.46000
H  16.35000 51.74900 20.16900
H  19.95100 53.06400 22.94100
H  19.09900 53.88600 21.68700
H  20.91900 53.25100 20.26600
H  20.35600 51.56900 20.43800
H  21.53100 52.29400 21.57100
H  22.82800 49.07300 26.25700
H  22.26300 49.82500 24.73900
H  21.64300 48.25000 25.07700
H  20.69200 50.80000 30.78200
H  20.45900 47.21100 32.95900
H  18.73300 47.34900 32.47900
H  19.36300 48.06400 33.99000

