158

Mg 25.23400 -0.42000 29.15700
C  27.30400 -0.40700 32.17100
C  22.53700 -0.33700 31.05800
C  23.70100 -0.72800 26.28400
C  28.48900 -1.10200 27.53200
N  25.00100 -0.36100 31.34700
C  25.90100 -0.26200 32.36800
C  25.19000 -0.05300 33.74600
C  23.69200 -0.39300 33.36500
C  23.73100 -0.41700 31.82800
C  22.88300 -1.54200 34.16500
C  25.49400 1.29200 34.47100
C  26.22300 1.24000 35.84300
H  25.86000 2.22100 36.95800
N  23.37800 -0.31700 28.67700
C  22.35000 -0.38900 29.62500
C  21.09100 -0.37500 28.84100
C  21.38800 -0.34300 27.40900
C  22.86700 -0.42100 27.39100
C  19.73900 -0.28100 29.58100
C  20.37100 -0.20800 26.17500
O  20.78200 -0.20900 25.05800
C  18.87700 -0.25700 26.47700
N  26.03500 -0.87800 27.20200
C  25.10200 -0.87400 26.14400
C  25.76300 -0.84100 24.78400
C  27.27900 -0.94600 25.21200
C  27.31500 -0.94100 26.73600
C  25.29500 -1.92500 23.77900
C  27.97200 0.36300 24.70700
C  27.73700 1.74400 25.47000
N  27.43300 -0.68000 29.72400
C  28.56300 -0.89500 28.92900
C  29.77500 -0.90800 29.76900
C  29.27400 -0.74400 31.01500
C  27.95100 -0.55300 30.94300
C  31.16800 -1.03400 29.26200
C  29.70800 -0.66100 32.44800
O  30.80200 -0.95000 32.95200
C  28.35200 -0.44000 33.26500
C  28.15600 -1.66100 34.16900
O  27.89300 -2.79100 33.80200
O  28.35800 -1.22200 35.47100
C  28.40500 -2.18400 36.57400
H  21.63100 -0.36300 31.66700
H  23.03400 -0.85700 25.42900
H  29.36800 -1.36000 26.93800
H  25.55100 -0.86000 34.38400
H  23.19100 0.56100 33.52900
H  22.27300 -2.19500 33.54000
H  22.11700 -1.08400 34.79000
H  23.61700 -2.05100 34.79000
H  24.50100 1.73100 34.56700
H  26.13500 1.90000 33.83300
H  27.20700 1.57700 35.51700
H  26.26800 0.24600 36.28700
H  19.36100 0.73300 29.45300
H  19.88300 -0.48800 30.64200
H  19.10700 -1.08100 29.19600
H  18.65400 -1.24500 26.88100
H  18.46200 -0.07200 25.48600
H  18.56300 0.57000 27.11400
H  25.48600 0.13100 24.37600
H  27.78400 -1.81800 24.79800
H  25.94000 -2.74500 23.46400
H  24.98400 -1.49000 22.82900
H  24.41500 -2.45500 24.14400
H  27.62900 0.55900 23.69100
H  29.05300 0.22900 24.66800
H  27.56400 1.53900 26.52600
H  26.93900 2.31000 24.98800
H  28.68100 2.27400 25.59700
H  31.19100 -2.02900 28.81700
H  31.83700 -0.82800 30.09700
H  31.44700 -0.29500 28.51100
H  28.41200 0.52700 33.76500
H  29.27800 -1.89400 37.15900
H  28.47000 -3.18500 36.14700
H  27.51800 -2.09700 37.20100
Mg -11.03200 16.90200 43.29300
C  -7.49500 17.19500 43.40000
C  -11.14100 20.06600 42.22900
C  -14.25700 16.33000 42.48800
C  -10.67400 13.39300 43.72600
N  -9.38900 18.37700 42.77600
C  -8.03700 18.34800 42.98100
C  -7.36800 19.63000 42.54100
C  -8.53400 20.60700 42.29900
C  -9.80000 19.65100 42.37500
C  -8.69200 21.72100 43.34000
C  -6.51700 19.40900 41.24700
C  -4.96000 19.66700 41.42100
H  -4.35400 20.42400 40.22500
N  -12.54600 18.09600 42.63300
C  -12.37500 19.40400 42.28100
C  -13.66200 19.93800 41.94000
C  -14.57600 18.79000 42.05700
C  -13.78800 17.66000 42.41300
C  -13.91600 21.40400 41.64300
C  -16.06800 18.87500 41.71400
O  -16.55400 19.94000 41.33500
C  -17.14000 17.77500 41.84000
N  -12.30500 15.14400 43.19100
C  -13.58300 15.21000 42.96900
C  -14.28900 13.84000 43.14300
C  -13.05200 12.86600 43.04900
C  -11.92500 13.87700 43.40700
C  -15.02000 13.70400 44.54400
C  -12.71600 12.17900 41.71600
C  -13.01400 10.72400 41.56600
N  -9.48300 15.51100 43.46800
C  -9.45500 14.19400 43.77100
C  -8.06200 13.68300 43.83300
C  -7.26100 14.84900 43.78100
C  -8.17800 15.93100 43.56700
C  -7.60700 12.21600 43.96600
C  -5.90900 15.27900 43.87500
O  -4.83900 14.74600 44.22800
C  -6.01800 16.84200 43.63900
C  -5.45300 17.58600 44.82200
O  -5.99800 17.64100 45.90200
O  -4.22400 18.10200 44.47500
C  -3.62400 18.78400 45.62500
H  -11.24700 21.14900 42.13800
H  -15.29900 16.05700 42.31000
H  -10.57300 12.32000 43.90200
H  -6.74000 20.01000 43.34700
H  -8.55000 21.15200 41.35500
H  -7.94700 21.55900 44.12000
H  -9.68800 21.72000 43.78200
H  -8.56700 22.69300 42.86400
H  -6.84800 20.13700 40.50600
H  -6.68700 18.40200 40.86700
H  -4.44900 18.71000 41.31800
H  -4.76800 20.23800 42.32900
H  -14.45900 21.93900 42.42300
H  -14.42800 21.41800 40.68100
H  -12.93700 21.82700 41.41700
H  -18.12800 18.23200 41.89300
H  -16.98800 17.25500 42.78600
H  -17.04000 17.25300 40.88800
H  -14.82600 13.66400 42.21100
H  -13.08500 12.07100 43.79500
H  -16.05400 13.55100 44.23300
H  -14.87500 14.57700 45.17900
H  -14.78400 12.73100 44.97400
H  -11.74400 12.42100 41.28600
H  -13.39200 12.56300 40.95200
H  -12.77300 10.11000 42.43400
H  -12.23000 10.26100 40.96600
H  -13.97800 10.36300 41.20700
H  -6.85000 12.20400 44.75000
H  -7.18700 11.84500 43.03100
H  -8.41800 11.52500 44.19700
H  -5.48100 17.12300 42.73400
H  -4.20700 19.70300 45.70300
H  -2.58400 18.92500 45.33100
H  -3.56000 18.15400 46.51200

