158

Mg 24.94400 -8.00300 46.11800
C  27.31400 -5.44300 44.82900
C  22.58600 -6.75400 43.90400
C  23.30500 -10.75000 46.68700
C  27.64500 -9.18400 47.95600
N  25.05800 -6.48700 44.41900
C  26.06900 -5.50400 44.24200
C  25.46900 -4.42800 43.28900
C  24.01300 -4.83200 43.09100
C  23.86200 -6.15000 43.84300
C  22.99200 -3.76700 43.70700
C  26.20300 -4.36100 41.92900
C  26.10600 -3.04000 41.21500
H  25.53100 -2.99700 39.82300
N  23.14300 -8.69300 45.46400
C  22.26100 -7.97300 44.59300
C  21.03800 -8.74800 44.46900
C  21.22100 -9.93800 45.25900
C  22.60300 -9.86800 45.81000
C  19.91000 -8.30800 43.64000
C  20.19200 -10.99400 45.41700
O  19.05300 -10.84900 44.93300
C  20.44100 -12.24500 46.12500
N  25.42700 -9.78800 47.11700
C  24.50600 -10.75400 47.34000
C  25.14400 -11.96200 48.05600
C  26.38900 -11.36700 48.72500
C  26.55700 -10.00300 47.90600
C  24.16200 -12.74000 49.02200
C  27.64700 -12.32900 48.68600
C  28.22500 -12.59900 50.11300
N  27.02900 -7.42700 46.38100
C  27.97900 -8.02600 47.18400
C  29.17900 -7.22100 47.27900
C  28.94000 -6.21400 46.36300
C  27.67100 -6.41200 45.73000
C  30.43100 -7.41800 48.07600
C  29.55200 -5.01700 45.81600
O  30.65900 -4.47600 45.97800
C  28.52300 -4.57000 44.71100
C  28.22200 -3.12400 44.78500
O  28.53600 -2.33400 43.89000
O  27.60300 -2.73400 45.97200
C  27.20600 -1.31900 46.03700
H  21.88400 -6.26900 43.22200
H  22.78400 -11.68700 46.89800
H  28.50700 -9.48400 48.55500
H  25.58500 -3.46600 43.78800
H  23.76700 -5.00500 42.04400
H  22.32400 -3.27100 43.00400
H  23.51400 -2.91600 44.14500
H  22.46100 -4.19400 44.55800
H  25.80000 -5.16000 41.30700
H  27.25700 -4.57800 42.10300
H  27.15400 -2.76900 41.08900
H  25.57800 -2.30600 41.82400
H  20.09800 -7.37900 43.10200
H  19.03000 -8.03700 44.22300
H  19.74500 -9.15200 42.97000
H  20.45800 -12.07000 47.20000
H  21.34100 -12.76000 45.79100
H  19.66700 -12.90100 45.72700
H  25.36800 -12.63600 47.22800
H  26.06400 -11.24000 49.75700
H  24.57300 -12.87900 50.02100
H  23.90400 -13.70500 48.58600
H  23.18600 -12.28200 49.18100
H  28.48700 -11.83700 48.19500
H  27.37800 -13.28200 48.23100
H  29.04700 -11.92500 50.35300
H  28.73500 -13.54500 49.93200
H  27.45500 -12.64900 50.88200
H  30.35700 -8.06000 48.95300
H  30.99500 -6.52100 48.32900
H  31.07000 -8.08700 47.49900
H  29.00600 -4.57200 43.73400
H  26.11800 -1.38400 46.01100
H  27.47300 -0.64300 45.22500
H  27.58300 -0.91700 46.97800
Mg -2.57200 34.82200 27.13500
C  -3.64600 33.34300 30.07300
C  -1.25800 37.53500 29.02200
C  -2.07500 36.58500 24.25800
C  -4.05000 32.37900 25.33500
N  -2.53100 35.35500 29.26200
C  -2.98300 34.51300 30.29200
C  -2.52600 35.02600 31.63100
C  -1.70400 36.33100 31.24500
C  -1.89300 36.47900 29.72500
C  -2.06800 37.56700 31.99300
C  -1.79400 33.94200 32.48000
C  -2.46800 33.67200 33.85200
H  -1.50300 33.65700 35.09700
N  -1.68200 36.72100 26.68200
C  -1.17400 37.63300 27.61800
C  -0.47600 38.69000 26.89400
C  -0.69600 38.39900 25.43800
C  -1.55900 37.22700 25.40300
C  0.24400 39.78700 27.52400
C  -0.15200 39.16900 24.18500
O  -0.46100 38.93400 23.06900
C  0.55300 40.50500 24.41800
N  -3.22800 34.67300 25.14000
C  -2.88500 35.46000 24.09200
C  -3.49400 34.97500 22.77100
C  -3.51600 33.47900 23.07400
C  -3.65900 33.47000 24.64700
C  -4.76800 35.71500 22.42800
C  -2.30300 32.68500 22.63500
C  -1.06500 32.67000 23.49100
N  -3.60100 33.13400 27.53700
C  -4.20100 32.22800 26.69500
C  -4.86500 31.16700 27.50900
C  -4.70100 31.59100 28.80900
C  -3.93500 32.79200 28.76100
C  -5.59900 29.95000 27.01600
C  -5.02000 31.31400 30.19700
O  -5.71500 30.39700 30.67000
C  -4.37700 32.40300 31.08000
C  -5.49500 33.02100 31.79400
O  -5.98900 34.07900 31.45700
O  -5.91400 32.20800 32.83500
C  -6.95100 32.82600 33.67400
H  -0.76800 38.30400 29.62300
H  -2.00400 37.02400 23.26100
H  -4.46500 31.72200 24.56800
H  -3.41000 35.24900 32.22800
H  -0.65700 36.11000 31.45500
H  -1.15500 38.03200 32.36400
H  -2.74300 37.31000 32.81000
H  -2.57200 38.34700 31.42200
H  -0.81200 34.32200 32.76500
H  -1.68500 33.02200 31.90600
H  -3.19100 32.85600 33.87900
H  -2.99500 34.60100 34.07000
H  0.17200 39.71000 28.60800
H  -0.27300 40.68000 27.17100
H  1.24500 39.80300 27.09200
H  1.50400 40.13800 24.80500
H  0.03700 41.24000 25.03600
H  0.65400 41.02000 23.46200
H  -2.71900 35.03500 22.00700
H  -4.46200 33.05000 22.74300
H  -5.06900 36.37800 23.23900
H  -5.58600 35.00000 22.34900
H  -4.65500 36.21600 21.46600
H  -2.09600 33.09200 21.64500
H  -2.68300 31.66400 22.58900
H  -0.33600 33.05000 22.77500
H  -0.79200 31.67400 23.84000
H  -1.02900 33.31700 24.36800
H  -6.57800 30.31600 26.70700
H  -5.75500 29.24100 27.82900
H  -5.09200 29.55600 26.13500
H  -3.70300 31.98000 31.82500
H  -6.31800 33.41100 34.34100
H  -7.43600 31.97600 34.15400
H  -7.71800 33.36800 33.12200

