158

Mg 46.10200 24.83200 28.87500
C  46.83500 26.99100 31.48600
C  44.91000 22.62100 31.35900
C  45.71200 22.49000 26.52100
C  47.88200 26.90500 26.70800
N  45.80900 24.87000 31.11000
C  46.14800 25.85800 31.89900
C  45.72100 25.59300 33.41900
C  45.32100 24.11600 33.42900
C  45.38700 23.86300 31.86600
C  46.02400 23.06500 34.35900
C  44.68800 26.55400 33.98200
C  45.03300 27.20700 35.25000
H  45.51200 26.34800 36.45900
N  45.35100 22.80200 28.93300
C  44.88400 22.11000 30.07900
C  44.47100 20.71400 29.62800
C  44.69600 20.67400 28.23700
C  45.27500 22.02900 27.82300
C  43.99100 19.64300 30.62800
C  44.57600 19.44700 27.33700
O  44.81400 19.58800 26.15000
C  43.94500 18.21300 27.83800
N  46.80900 24.63100 26.84400
C  46.49500 23.60400 26.07300
C  46.95800 23.83800 24.69800
C  47.59500 25.28700 24.71600
C  47.41600 25.62000 26.17600
C  47.85400 22.69500 24.15300
C  46.90700 26.28900 23.72700
C  45.74900 27.17900 24.15800
N  47.15200 26.60100 28.95900
C  47.81200 27.31400 28.00700
C  48.31500 28.48600 28.62700
C  48.02100 28.42000 29.96700
C  47.24100 27.26700 30.14100
C  49.11800 29.54200 28.10400
C  48.08800 29.09100 31.17500
O  48.58700 30.20100 31.49500
C  47.25200 28.22800 32.27500
C  48.21300 27.96100 33.42800
O  48.87000 26.98600 33.58500
O  48.19600 28.96800 34.35600
C  48.64600 28.65100 35.72000
H  44.51900 22.06300 32.21300
H  45.51300 21.80200 25.69700
H  48.51900 27.49800 26.04800
H  46.64200 25.85000 33.94100
H  44.27200 24.06900 33.72300
H  45.29600 22.42300 34.85400
H  46.69100 23.52600 35.08800
H  46.69800 22.34200 33.90000
H  43.71700 26.09600 34.16700
H  44.59200 27.28900 33.18200
H  44.07700 27.60600 35.58800
H  45.69600 28.06700 35.15600
H  44.41000 18.64300 30.52000
H  42.91300 19.78100 30.71700
H  44.29700 20.01500 31.60600
H  42.96200 18.45200 28.24500
H  44.54100 17.78700 28.64500
H  43.78300 17.63000 26.93100
H  46.09000 23.87000 24.04000
H  48.66600 25.27500 24.51400
H  47.38800 22.15000 23.33200
H  47.97600 21.88100 24.86800
H  48.87100 23.02600 23.94300
H  46.47700 25.76700 22.87200
H  47.57100 27.01100 23.25200
H  45.50900 26.98100 25.20300
H  44.81000 26.84700 23.71600
H  45.86700 28.26100 24.09000
H  49.94500 29.10800 27.54200
H  49.48600 30.16900 28.91600
H  48.55500 30.13200 27.38100
H  46.41300 28.79600 32.67600
H  47.80300 28.45500 36.38300
H  49.16300 29.55800 36.03600
H  49.36900 27.83500 35.72900
Mg -1.45600 34.36900 26.81900
C  -3.15900 32.56700 29.18700
C  0.21800 36.10300 29.39100
C  -0.65800 36.90800 24.63000
C  -3.49500 33.01200 24.41200
N  -1.44100 34.28900 29.01700
C  -2.23400 33.46300 29.76200
C  -1.93200 33.57500 31.20600
C  -0.99400 34.78600 31.25200
C  -0.64000 35.07400 29.78900
C  -1.52100 36.10100 32.08100
C  -1.42700 32.24600 31.84900
C  -2.05800 31.91500 33.21700
H  -1.02500 31.93300 34.41900
N  -0.10800 36.04800 26.90500
C  0.41300 36.59400 28.05100
C  1.24300 37.75100 27.67600
C  1.02200 37.99600 26.28400
C  0.06800 37.00500 25.87100
C  1.88500 38.62000 28.68400
C  1.65000 38.99100 25.39600
O  1.29400 39.16300 24.23400
C  2.84500 39.80800 25.90000
N  -2.10700 34.97500 24.88100
C  -1.61700 36.03600 24.20200
C  -2.20400 36.16100 22.85100
C  -2.91500 34.79800 22.70000
C  -2.79100 34.18100 24.06800
C  -3.17300 37.31700 22.59100
C  -2.28600 33.84300 21.57700
C  -3.22800 33.04000 20.60700
N  -2.97900 32.89200 26.80100
C  -3.59100 32.35700 25.68700
C  -4.46400 31.31200 26.10000
C  -4.37300 31.33400 27.49100
C  -3.42000 32.33000 27.87500
C  -5.22800 30.34400 25.19800
C  -4.87600 30.78700 28.75200
O  -5.67800 29.89500 28.97800
C  -4.06100 31.55400 29.86500
C  -5.12700 32.15100 30.72000
O  -5.92200 33.04300 30.42300
O  -5.12800 31.49600 31.97900
C  -6.22500 31.88000 32.92300
H  0.75500 36.57000 30.22000
H  -0.30400 37.58900 23.85300
H  -4.09200 32.53700 23.63100
H  -2.81300 33.95600 31.72200
H  -0.10400 34.50200 31.81300
H  -1.26300 37.00200 31.52300
H  -0.82800 36.14100 32.92100
H  -2.52500 35.99100 32.49000
H  -0.35700 32.41400 31.97600
H  -1.46400 31.46300 31.09200
H  -2.45300 30.90000 33.24100
H  -2.88100 32.61700 33.34900
H  1.15500 38.53300 29.48900
H  1.92500 39.66000 28.35800
H  2.85700 38.26200 29.02000
H  3.40000 40.33700 25.12500
H  3.58200 39.16900 26.38600
H  2.43800 40.58000 26.55200
H  -1.40900 36.28800 22.11600
H  -3.97600 34.92300 22.48300
H  -3.17700 37.84600 23.54400
H  -4.16800 37.02500 22.25500
H  -2.85800 37.84400 21.69000
H  -1.67600 33.18000 22.19200
H  -1.58000 34.48800 21.05300
H  -2.98100 33.28400 19.57400
H  -4.27100 33.33200 20.73600
H  -3.21900 31.95300 20.69200
H  -4.62600 30.02200 24.34800
H  -6.10300 30.94900 24.96100
H  -5.54400 29.49700 25.80800
H  -3.53800 30.85100 30.51400
H  -7.01100 32.51500 32.51300
H  -5.77300 32.42100 33.75400
H  -6.73300 31.00500 33.32700

