158

Mg 35.64900 1.26400 29.36300
C  33.47300 2.44800 31.80400
C  38.26300 1.43700 31.50700
C  37.58500 0.44900 26.77000
C  32.97300 1.85400 26.99900
N  35.82800 1.95300 31.44700
C  34.76300 2.11800 32.27300
C  35.27600 2.19200 33.78100
C  36.86100 2.14000 33.61800
C  37.03200 1.86200 32.08100
C  37.64400 3.42800 34.08500
C  34.66300 1.09100 34.67700
C  34.45500 1.58000 36.14200
H  35.30700 2.67000 36.78500
N  37.64200 0.87200 29.21300
C  38.57200 0.89100 30.25000
C  39.92100 0.46100 29.73100
C  39.74200 0.19200 28.29400
C  38.26300 0.50700 28.04800
C  41.14900 0.59000 30.54300
C  40.87700 -0.12200 27.20100
O  40.74700 0.08400 25.97000
C  42.16900 -0.63000 27.77000
N  35.31000 1.11600 27.18300
C  36.31300 0.68600 26.37900
C  35.85600 0.67100 24.89900
C  34.29100 0.93300 25.06100
C  34.13700 1.38800 26.48000
C  36.64000 1.58700 23.91900
C  33.40000 -0.20800 24.50900
C  32.30900 0.24300 23.53200
N  33.66200 1.97300 29.32900
C  32.71600 2.10800 28.35100
C  31.42800 2.51600 28.85800
C  31.64100 2.68400 30.22900
C  33.02700 2.36000 30.48300
C  30.19100 2.70800 27.98900
C  31.07800 3.05500 31.48800
O  29.97900 3.41500 31.84200
C  32.26500 2.97300 32.53200
C  32.46000 4.32100 33.02400
O  33.51000 5.01400 32.71600
O  31.46900 4.67400 33.91300
C  31.74300 5.89600 34.64600
H  39.08700 1.48900 32.22300
H  38.25400 0.16200 25.95600
H  32.29600 2.20300 26.21600
H  34.99400 3.17900 34.14800
H  37.39900 1.39000 34.19700
H  37.83500 3.96000 33.15300
H  38.62200 3.25200 34.53400
H  37.02400 3.91600 34.83600
H  35.32100 0.22700 34.76800
H  33.72200 0.79900 34.21100
H  34.63200 0.72000 36.78800
H  33.41200 1.87200 36.26300
H  41.37800 -0.45600 30.74600
H  41.03700 1.17600 31.45500
H  41.88800 1.01200 29.86200
H  42.75300 0.20300 28.16200
H  42.75000 -1.03400 26.94100
H  41.96900 -1.51700 28.37000
H  36.00300 -0.34700 24.53800
H  33.99700 1.86300 24.57500
H  37.45300 2.16400 24.36100
H  36.05800 2.25700 23.28700
H  37.19500 0.96800 23.21500
H  33.03300 -0.75500 25.37800
H  34.01200 -0.88600 23.91400
H  31.38500 -0.27200 23.79700
H  32.49800 0.01000 22.48400
H  32.18100 1.31400 23.68500
H  29.90000 3.74000 27.79300
H  29.37000 2.20400 28.49900
H  30.30100 2.12100 27.07800
H  32.00800 2.40000 33.42300
H  31.38500 6.74200 34.06100
H  32.78700 5.94000 34.95800
H  31.10800 5.88200 35.53100
Mg 42.32300 41.39600 26.68400
C  41.42600 43.85000 29.21800
C  43.43600 39.36600 29.23700
C  43.75200 39.53700 24.34200
C  41.58400 43.92500 24.31200
N  42.46600 41.58700 28.93800
C  41.85800 42.60400 29.72800
C  41.81500 42.17600 31.20100
C  42.57300 40.76400 31.20600
C  42.85500 40.57000 29.74000
C  43.65000 40.52800 32.29900
C  40.42000 42.33500 31.91600
C  40.40300 41.67800 33.33000
H  39.76700 42.48500 34.48000
N  43.29800 39.58900 26.77600
C  43.69100 38.90500 27.89400
C  44.18300 37.60700 27.49300
C  44.21400 37.67600 26.08500
C  43.77300 38.97800 25.66700
C  44.45000 36.42000 28.47400
C  44.57600 36.58600 25.12400
O  44.63900 36.68200 23.91900
C  44.91600 35.18700 25.66400
N  42.72200 41.79200 24.76900
C  43.24700 40.76600 23.89000
C  43.12900 41.11300 22.45000
C  42.11000 42.24700 22.51300
C  42.21400 42.78000 23.93100
C  44.44900 41.35600 21.82900
C  40.72200 41.93900 21.91500
C  39.68900 41.28700 22.79900
N  41.56200 43.42400 26.71700
C  41.35800 44.25200 25.65100
C  40.98000 45.59600 26.15700
C  40.95800 45.43600 27.52600
C  41.37200 44.15300 27.82100
C  40.67400 46.77500 25.26800
C  40.71900 46.08800 28.71200
O  40.48500 47.30200 28.87400
C  40.93200 45.09200 29.87800
C  41.96800 45.64600 30.89200
O  43.20500 45.81600 30.73600
O  41.31000 45.80800 32.12200
C  42.00400 46.21800 33.31200
H  43.74100 38.64000 29.99400
H  44.02100 38.87700 23.51500
H  41.32600 44.65900 23.54600
H  42.44900 42.87000 31.75300
H  41.84600 39.98500 31.43600
H  44.54000 40.37200 31.68900
H  43.51600 39.60200 32.85700
H  43.94000 41.38800 32.90300
H  39.61800 41.92900 31.29900
H  40.35900 43.40700 32.10300
H  41.40700 41.39100 33.64500
H  39.79600 40.77700 33.24600
H  43.72100 35.61300 28.40300
H  44.55200 36.72000 29.51700
H  45.39900 35.91300 28.29500
H  45.84100 35.25200 26.23800
H  45.08600 34.42800 24.90100
H  43.99000 34.96000 26.19200
H  42.58200 40.32800 21.92900
H  42.58100 43.04600 21.94100
H  45.20400 40.95300 22.50300
H  44.61000 42.43100 21.74900
H  44.48700 40.78000 20.90400
H  40.81200 41.42300 20.95900
H  40.21700 42.89400 21.77700
H  39.43400 40.41500 22.19600
H  38.77300 41.82000 23.05300
H  40.05800 40.87900 23.74000
H  41.59400 47.31000 25.03600
H  40.01500 47.44200 25.82500
H  40.13700 46.33700 24.42700
H  39.97700 44.90100 30.36800
H  43.08700 46.30300 33.22500
H  41.79000 45.57800 34.16800
H  41.66300 47.20400 33.62600

