158

Mg 48.14700 15.74700 27.50900
C  46.33800 15.76100 30.54100
C  50.44400 17.65800 28.89000
C  49.56600 16.08400 24.36700
C  45.27700 14.26900 25.85700
N  48.22400 16.66500 29.51600
C  47.54800 16.38900 30.66300
C  48.13200 17.02400 31.90100
C  49.38300 17.78600 31.28300
C  49.35300 17.40400 29.79500
C  49.29800 19.29400 31.52200
C  48.50500 15.97400 32.97700
C  47.94300 16.38700 34.35100
H  47.82400 17.86500 34.71700
N  49.81400 16.71100 26.73500
C  50.66600 17.40800 27.50100
C  51.82100 17.82900 26.73500
C  51.60100 17.40200 25.38000
C  50.27400 16.69100 25.44100
C  52.98100 18.55200 27.24800
C  52.52300 17.61200 24.13200
O  52.15700 17.30700 23.00500
C  53.88700 18.17900 24.26700
N  47.51000 15.10100 25.44200
C  48.30900 15.46700 24.40300
C  47.73900 14.89100 23.08200
C  46.43400 14.19000 23.53000
C  46.38700 14.50200 25.03000
C  47.57700 15.81300 21.89800
C  46.30000 12.66200 23.11900
C  45.49200 12.48000 21.80500
N  46.27700 15.17200 28.02500
C  45.21900 14.54200 27.27100
C  44.12800 14.29200 28.11800
C  44.49400 14.74400 29.40500
C  45.83300 15.21000 29.30200
C  42.79300 13.59100 27.73500
C  44.07300 14.92000 30.74800
O  42.98000 14.84400 31.22400
C  45.28200 15.47800 31.55500
C  44.85200 16.68000 32.27800
O  44.54200 17.78500 31.84500
O  44.53000 16.36400 33.58300
C  43.87200 17.25900 34.49200
H  51.32400 18.15800 29.29900
H  50.02300 16.15000 23.37800
H  44.49300 13.83100 25.23500
H  47.39100 17.73600 32.26300
H  50.40500 17.50300 31.53500
H  48.85600 19.85000 30.69500
H  50.30900 19.64300 31.73400
H  48.67400 19.39300 32.41000
H  49.58500 15.83100 32.96000
H  47.98800 15.03100 32.79600
H  48.62600 15.93000 35.06700
H  46.91200 16.05000 34.45900
H  53.17100 19.40100 26.59300
H  53.87000 17.93300 27.36600
H  52.69800 19.01200 28.19500
H  54.51200 17.77800 25.06500
H  53.82300 19.26100 24.38400
H  54.27700 18.01400 23.26300
H  48.46600 14.11900 22.83000
H  45.61400 14.74800 23.07800
H  48.55900 15.85400 21.42700
H  47.40800 16.86100 22.14200
H  46.77800 15.57300 21.19600
H  45.65600 12.13800 23.82500
H  47.27700 12.18000 23.15800
H  46.10500 12.02800 21.02500
H  45.14900 13.42000 21.37400
H  44.60500 11.87100 21.97900
H  42.12900 14.31200 27.25800
H  42.44300 13.29700 28.72400
H  42.89900 12.68400 27.14000
H  45.44200 14.70200 32.30500
H  43.76900 16.64200 35.38500
H  42.90900 17.65000 34.16400
H  44.45000 18.14900 34.74200
Mg 26.86700 50.86100 26.47000
C  25.04200 51.84000 29.22400
C  29.28000 49.58400 28.52700
C  28.55300 49.82400 23.68800
C  24.59300 52.39300 24.34500
N  27.04600 50.63900 28.66200
C  26.22200 51.08600 29.60800
C  26.72800 50.72800 31.00200
C  28.13000 50.00800 30.73700
C  28.10500 50.06900 29.23700
C  29.35800 50.58600 31.49400
C  25.79900 49.76200 31.90600
C  25.50000 50.38400 33.22900
H  26.65100 50.43400 34.22300
N  28.68700 49.79500 26.19000
C  29.52700 49.30500 27.13800
C  30.64500 48.61100 26.55400
C  30.40500 48.59900 25.15100
C  29.15400 49.38300 24.94800
C  31.82000 47.92400 27.31900
C  31.20300 47.88100 24.06400
O  30.92100 47.97100 22.87400
C  32.36100 46.98300 24.34100
N  26.63700 51.12200 24.26300
C  27.43800 50.55700 23.35500
C  26.97500 50.81300 21.89600
C  25.55300 51.51100 22.15700
C  25.55500 51.66600 23.67300
C  28.05200 51.75800 21.20500
C  24.24800 50.84600 21.58800
C  23.25800 51.95400 21.08500
N  25.22800 52.05000 26.71600
C  24.33900 52.56200 25.76500
C  23.24400 53.18700 26.50500
C  23.56800 53.00100 27.84200
C  24.63900 52.21700 27.90800
C  22.14600 53.82900 25.86100
C  23.01800 53.19500 29.21700
O  21.95300 53.79800 29.46500
C  24.02100 52.48000 30.15600
C  24.54200 53.59600 31.03100
O  25.33200 54.46500 30.67700
O  23.89200 53.54900 32.25100
C  24.16500 54.63700 33.19200
H  30.05500 49.21300 29.20100
H  29.26400 49.59200 22.89200
H  23.89200 52.89200 23.67300
H  27.00600 51.67400 31.46500
H  28.12800 48.95100 31.00500
H  30.02400 49.90400 32.02400
H  29.07100 51.37800 32.18600
H  29.94200 51.09000 30.72300
H  26.24700 48.77700 32.03000
H  24.85500 49.71100 31.36400
H  24.63300 49.86300 33.63500
H  25.26800 51.42100 32.98300
H  31.75700 48.19000 28.37500
H  32.75100 48.21100 26.83200
H  31.79400 46.83700 27.25500
H  33.08200 47.16400 23.54300
H  31.95700 45.98400 24.18000
H  32.98600 47.04700 25.23200
H  26.92600 49.82700 21.43400
H  25.56500 52.55200 21.83200
H  28.79000 51.13200 20.70300
H  28.51900 52.28500 22.03700
H  27.71000 52.59600 20.59700
H  23.79000 50.19000 22.32900
H  24.51600 50.24600 20.71900
H  22.69400 51.48800 20.27600
H  23.79500 52.85100 20.77700
H  22.61600 52.17800 21.93700
H  22.43400 54.86500 25.67800
H  21.21500 53.78800 26.42500
H  22.06800 53.29700 24.91300
H  23.51100 51.70800 30.73200
H  23.23900 55.08600 33.55200
H  24.77300 55.41200 32.72500
H  24.74800 54.19400 33.99900

