158

Mg 36.38900 2.45600 30.54600
C  34.02800 3.63500 32.71900
C  38.62000 2.24000 33.01700
C  38.78800 1.64800 28.14100
C  34.03100 2.61200 27.84600
N  36.38000 3.09400 32.62700
C  35.25200 3.38800 33.35600
C  35.44400 3.22500 34.83400
C  37.02900 3.05200 34.88800
C  37.39500 2.77700 33.44500
C  37.91700 4.16100 35.59200
C  34.68400 2.00000 35.44900
C  34.12500 2.29100 36.84200
H  34.64000 3.48700 37.64300
N  38.42000 1.95100 30.63200
C  39.14900 1.84500 31.74800
C  40.44100 1.34400 31.42200
C  40.55700 1.17600 30.05200
C  39.22700 1.67200 29.53600
C  41.36600 1.02800 32.59400
C  41.78600 0.65000 29.25900
O  41.81900 0.67300 28.00800
C  43.00400 0.06800 30.04700
N  36.39300 2.26100 28.19300
C  37.51000 1.92800 27.53400
C  37.21700 1.78400 26.07900
C  35.63200 1.98300 25.97800
C  35.27000 2.28900 27.40300
C  38.14600 2.81800 25.23500
C  34.86700 0.87100 25.16900
C  34.72700 -0.46700 25.91800
N  34.42000 2.98400 30.27800
C  33.60000 2.96300 29.20100
C  32.21800 3.24300 29.59900
C  32.44000 3.51300 31.00300
C  33.78600 3.42900 31.32800
C  31.01300 3.23400 28.68500
C  31.70900 3.93100 32.16400
O  30.49200 4.14100 32.25500
C  32.69000 3.98700 33.29400
C  32.72600 5.29700 34.00700
O  33.24300 6.32800 33.54200
O  32.09500 5.14400 35.21900
C  32.19700 6.42600 35.92500
H  39.25900 2.10200 33.89200
H  39.62200 1.36500 27.49600
H  33.29200 2.63400 27.04200
H  35.11700 4.19700 35.20500
H  37.18500 2.08600 35.36800
H  38.90000 4.20400 35.12200
H  38.01100 3.79700 36.61500
H  37.37000 5.10400 35.60100
H  35.24700 1.07400 35.56400
H  33.86100 1.67600 34.81200
H  34.40500 1.41600 37.42900
H  33.06600 2.40300 36.61100
H  41.11800 1.36600 33.60000
H  42.33400 1.38400 32.24000
H  41.23200 -0.05200 32.66500
H  43.39600 1.04900 30.31600
H  43.50900 -0.56400 29.31700
H  42.63800 -0.59400 30.83200
H  37.41600 0.80300 25.64600
H  35.33800 2.90300 25.47200
H  38.99800 2.25100 24.86000
H  38.49900 3.73800 25.70000
H  37.49700 3.15100 24.42500
H  35.33700 0.68400 24.20300
H  33.95400 1.40900 24.91400
H  34.74800 -1.20100 25.11300
H  33.80600 -0.55400 26.49400
H  35.60400 -0.78500 26.48300
H  30.04900 3.15900 29.18900
H  31.13000 2.43800 27.95000
H  31.03300 4.19500 28.17100
H  32.37500 3.26500 34.04700
H  31.72900 7.28200 35.43800
H  33.25400 6.59300 36.13400
H  31.74300 6.25500 36.90100
Mg -2.21200 34.51100 27.03200
C  -4.24800 32.95300 29.46500
C  -0.93700 36.49000 29.50600
C  -0.73500 36.24700 24.64900
C  -3.78500 32.59600 24.53600
N  -2.71900 34.84000 29.19400
C  -3.39200 33.91900 30.01800
C  -3.18700 34.23600 31.49000
C  -2.41100 35.59700 31.35500
C  -2.03500 35.69200 29.89000
C  -3.08800 36.85300 31.89600
C  -2.41600 33.18100 32.33300
C  -3.27700 32.55400 33.41200
H  -3.86300 33.46700 34.48200
N  -0.86400 36.06500 27.06000
C  -0.39800 36.64500 28.23200
C  0.51200 37.71600 27.79600
C  0.59100 37.70100 26.36900
C  -0.35200 36.65800 25.96000
C  1.16300 38.69400 28.74100
C  1.46900 38.39700 25.48900
O  1.56700 38.06700 24.32700
C  2.39100 39.56500 25.91500
N  -2.32800 34.48800 24.91900
C  -1.56900 35.26900 24.13500
C  -1.57400 34.87500 22.66300
C  -2.58100 33.73200 22.65800
C  -2.88500 33.55200 24.16400
C  -1.87400 36.07000 21.72300
C  -1.88700 32.43700 21.96600
C  -0.61100 31.81800 22.71200
N  -3.68700 33.05900 26.95000
C  -4.24200 32.40900 25.86700
C  -5.23800 31.40900 26.31300
C  -5.27000 31.50400 27.78000
C  -4.35800 32.58300 28.08500
C  -5.91800 30.28900 25.47500
C  -5.81700 31.06300 29.02400
O  -6.64700 30.21100 29.30800
C  -5.15200 31.89400 30.16500
C  -6.23900 32.51500 30.92900
O  -6.62500 33.68100 30.73600
O  -6.61000 31.60700 31.90900
C  -7.66700 32.11400 32.84900
H  -0.36400 36.92700 30.32600
H  -0.26700 36.67700 23.76200
H  -4.37600 32.03200 23.81100
H  -4.16500 34.32600 31.96300
H  -1.52900 35.42700 31.97300
H  -3.58600 36.71200 32.85500
H  -3.84100 37.11000 31.15100
H  -2.27300 37.57000 31.99500
H  -1.57700 33.59100 32.89600
H  -1.96900 32.40600 31.71100
H  -2.63400 31.96800 34.06900
H  -4.04200 31.85600 33.07400
H  0.84200 39.67900 28.40300
H  2.24500 38.57500 28.68400
H  0.89500 38.51600 29.78200
H  1.86900 40.49000 26.16000
H  3.07900 39.73900 25.08700
H  2.97000 39.22600 26.77400
H  -0.57000 34.58000 22.35800
H  -3.48200 34.15000 22.21000
H  -2.84700 36.01000 21.23500
H  -1.18700 36.06400 20.87600
H  -1.86900 36.96200 22.35000
H  -1.48400 32.77000 21.00900
H  -2.74300 31.77600 21.82700
H  -1.06600 30.89200 23.06500
H  -0.48000 32.43200 23.60300
H  0.34900 31.77300 22.19900
H  -5.80600 29.36000 26.03400
H  -5.47100 30.20100 24.48400
H  -6.95700 30.58400 25.33100
H  -4.64300 31.21000 30.84500
H  -7.40600 33.12300 33.16900
H  -7.83200 31.41300 33.66600
H  -8.60500 32.28900 32.32300

