158

Mg 46.95900 25.54200 28.91900
C  47.64900 27.55700 31.66000
C  46.19700 22.90100 31.16600
C  46.95900 23.41900 26.34500
C  48.26500 28.12200 26.85600
N  46.82000 25.34300 31.09200
C  47.05200 26.37700 31.99900
C  46.71500 26.00700 33.38100
C  46.53000 24.47100 33.24000
C  46.55800 24.17800 31.76400
C  47.40500 23.54000 34.03100
C  45.62200 26.74600 34.15800
C  45.73800 26.62100 35.75000
H  44.40300 26.33400 36.50000
N  46.47600 23.50500 28.68200
C  46.10300 22.65400 29.71000
C  45.80100 21.35500 29.07500
C  46.11200 21.47100 27.65700
C  46.53800 22.88300 27.49000
C  45.29200 20.23800 29.90800
C  45.97300 20.41500 26.54900
O  46.36700 20.57100 25.42000
C  45.47800 19.01500 26.90700
N  47.62000 25.73900 26.91200
C  47.41300 24.72500 26.00700
C  47.92500 25.03800 24.55500
C  47.99200 26.56700 24.70700
C  47.95300 26.86100 26.26100
C  49.19800 24.25600 24.23800
C  46.84600 27.26300 23.90900
C  45.49100 27.29000 24.64900
N  47.86800 27.44100 29.15800
C  48.20100 28.44200 28.24000
C  48.60800 29.64500 28.97200
C  48.42000 29.32300 30.29000
C  47.95900 28.02000 30.37400
C  49.19300 30.93000 28.28800
C  48.46200 29.87100 31.62500
O  48.80100 30.95000 32.04300
C  47.97300 28.70300 32.63000
C  49.03800 28.31100 33.57500
O  50.15900 27.95500 33.18300
O  48.59400 28.20300 34.90300
C  49.63500 27.65700 35.72000
H  45.92000 22.16600 31.92500
H  46.93300 22.78100 25.45900
H  48.50000 28.91800 26.14700
H  47.63600 26.10900 33.95500
H  45.50800 24.20200 33.50700
H  48.13700 24.14800 34.56200
H  48.00100 22.84000 33.44600
H  46.86200 22.99900 34.80600
H  44.64700 26.42000 33.79500
H  45.68100 27.82100 33.98800
H  46.16700 27.50500 36.22200
H  46.40300 25.76500 35.85700
H  45.99700 19.40700 29.92400
H  44.32800 19.85700 29.57100
H  45.08200 20.61200 30.91000
H  45.81600 18.60500 27.85800
H  45.70100 18.26600 26.14700
H  44.39300 18.93300 26.85200
H  47.20500 24.79900 23.77200
H  48.97900 26.81500 24.31600
H  49.34000 23.78200 23.26600
H  49.40900 23.56100 25.05100
H  49.97500 25.02000 24.21900
H  46.72000 26.74500 22.95800
H  47.20700 28.28600 23.80200
H  45.34800 28.26900 25.10700
H  45.51100 26.59700 25.49000
H  44.61700 27.16300 24.01000
H  49.71700 30.69000 27.36200
H  49.85100 31.43000 28.99900
H  48.40500 31.62500 27.99800
H  47.07600 29.08300 33.11900
H  50.67000 27.99900 35.73500
H  49.74500 26.62000 35.40300
H  49.20000 27.68700 36.71900
Mg 48.60000 44.84600 44.43300
C  45.09300 44.99000 43.74900
C  48.53800 41.47000 43.32900
C  51.90500 44.90800 44.06200
C  48.43300 48.28700 44.82800
N  46.96400 43.46200 43.55300
C  45.64600 43.70300 43.40900
C  44.88700 42.48400 42.83800
C  45.89800 41.33300 43.03400
C  47.22600 42.09300 43.34100
C  45.60200 40.23200 44.05200
C  44.49300 42.67500 41.37000
C  43.38000 41.69700 40.81900
H  43.24500 41.42300 39.33500
N  50.04900 43.31800 43.93000
C  49.75500 42.03200 43.46900
C  50.97500 41.37400 43.30600
C  52.06300 42.31500 43.64200
C  51.37100 43.55200 43.94500
C  51.03300 39.96800 42.83200
C  53.54000 42.08000 43.67600
O  54.03400 40.97100 43.32900
C  54.51100 43.02200 44.32400
N  49.97400 46.38700 44.14500
C  51.34200 46.17700 44.28300
C  52.14300 47.42000 44.62300
C  51.00400 48.46800 44.75400
C  49.73500 47.66600 44.61000
C  52.97400 47.25700 45.91300
C  51.10400 49.62700 43.77500
C  51.13100 50.98200 44.39600
N  47.08800 46.40800 44.40100
C  47.17400 47.77600 44.51100
C  45.85700 48.38000 44.45700
C  44.98100 47.32100 44.25200
C  45.78000 46.12900 44.15100
C  45.51400 49.79200 44.78300
C  43.56700 46.93200 44.04000
O  42.55400 47.62700 43.99800
C  43.59700 45.38800 43.66800
C  42.81700 44.71100 44.71800
O  42.15000 43.71900 44.44700
O  43.13400 45.13300 46.01600
C  42.50700 44.45700 47.17000
H  48.51400 40.41900 43.03600
H  52.99100 45.02600 44.09400
H  48.49500 49.32000 45.17600
H  44.10100 42.11200 43.49400
H  46.09400 40.78900 42.11000
H  44.60500 40.35500 44.47400
H  46.41800 40.11600 44.76500
H  45.36200 39.31800 43.50900
H  45.30100 42.41100 40.68800
H  44.17000 43.69700 41.17400
H  42.46200 42.21200 41.10200
H  43.35000 40.78500 41.41500
H  52.05900 39.59900 42.80900
H  50.60100 39.87000 41.83600
H  50.53400 39.37100 43.59500
H  54.85300 43.85800 43.71500
H  55.43200 42.50400 44.59100
H  54.02100 43.49200 45.17700
H  52.93200 47.54800 43.88100
H  50.95300 48.87900 45.76200
H  52.70300 46.32100 46.40300
H  52.87600 48.10100 46.59500
H  54.03700 47.13100 45.70500
H  50.25400 49.64100 43.09200
H  51.99700 49.50100 43.16300
H  51.25400 51.70800 43.59300
H  52.00800 50.89300 45.03700
H  50.14800 51.15400 44.83600
H  45.99800 50.28100 45.62900
H  44.44700 49.80100 45.00100
H  45.73800 50.31900 43.85500
H  43.15400 45.22700 42.68500
H  42.92800 43.45200 47.14400
H  41.42100 44.50300 47.09800
H  42.72000 44.84100 48.16700

