158

Mg 26.13000 1.56900 29.39900
C  28.21200 1.22400 32.15400
C  23.54500 2.05800 31.39100
C  24.12500 1.58500 26.61000
C  28.81300 0.58100 27.25500
N  25.92600 1.56100 31.53600
C  26.90500 1.51000 32.49500
C  26.41700 1.80800 33.90200
C  24.89300 1.86400 33.58700
C  24.73300 1.86500 32.05800
C  23.80700 0.84000 34.15100
C  27.00800 3.13100 34.57300
C  27.66200 2.90400 35.87300
H  27.28600 3.81500 37.03300
N  24.12100 1.85000 29.03700
C  23.25500 1.99900 29.96900
C  21.99500 2.32200 29.38000
C  22.14200 2.05200 28.00100
C  23.48500 1.79400 27.82200
C  20.76100 2.60500 30.15200
C  21.06100 2.03700 26.96400
O  21.25500 1.74500 25.80200
C  19.65700 2.20500 27.39600
N  26.45300 1.03600 27.26900
C  25.47500 1.20800 26.30200
C  26.01400 1.22500 24.82900
C  27.47000 0.77700 25.06700
C  27.64400 0.94500 26.56100
C  25.25800 0.25300 23.86800
C  28.56600 1.53700 24.28100
C  28.52200 1.53800 22.71700
N  28.16600 1.01100 29.55300
C  29.13300 0.65200 28.68300
C  30.37800 0.43700 29.41800
C  29.99000 0.57900 30.73500
C  28.64700 1.00200 30.80600
C  31.79600 0.05900 28.95300
C  30.63000 0.59800 32.01500
O  31.81300 0.31800 32.37900
C  29.43700 0.92900 33.01500
C  29.23100 -0.30700 33.84600
O  29.30600 -1.49300 33.51200
O  29.10000 0.07600 35.12000
C  29.02500 -0.85700 36.22000
H  22.73300 2.21000 32.10500
H  23.51000 1.69500 25.71500
H  29.69000 0.29300 26.67100
H  26.63300 0.91700 34.49200
H  24.50900 2.83100 33.91400
H  23.46900 0.19400 33.34100
H  22.97800 1.34800 34.64300
H  24.29400 0.24900 34.92600
H  26.20600 3.80900 34.86400
H  27.67300 3.65400 33.88500
H  28.73500 2.98900 35.69800
H  27.58500 1.88500 36.25100
H  20.85100 2.72500 31.23200
H  20.19100 1.67600 30.12600
H  20.23800 3.48800 29.78500
H  19.08800 1.94300 26.50400
H  19.56000 3.28200 27.53300
H  19.40200 1.54800 28.22800
H  26.13000 2.25300 24.48500
H  27.52100 -0.30500 24.95000
H  24.89500 -0.56300 24.49300
H  25.87800 -0.18900 23.08800
H  24.45700 0.73000 23.30300
H  29.54600 1.20800 24.62800
H  28.43200 2.59100 24.52400
H  29.42300 1.90700 22.22600
H  27.73900 2.22900 22.40600
H  28.21800 0.54700 22.37900
H  31.89200 0.14500 27.87100
H  32.09900 -0.92600 29.30900
H  32.54500 0.73300 29.37000
H  29.69800 1.81400 33.59600
H  29.37300 -1.86000 35.97100
H  27.95500 -0.86400 36.42800
H  29.69700 -0.50800 37.00400
Mg 25.98000 50.08100 26.75900
C  23.97300 51.58700 29.18300
C  28.17800 49.03300 29.14100
C  27.91200 48.77600 24.31900
C  23.95100 51.58900 24.33700
N  26.05400 50.32400 28.97300
C  25.09200 50.91700 29.72600
C  25.38400 50.68200 31.25400
C  26.81000 50.04600 31.21400
C  27.08200 49.80200 29.69700
C  27.89600 50.84700 31.93700
C  24.33100 49.66400 31.80500
C  23.80700 50.07900 33.23900
H  24.75500 50.73100 34.28000
N  27.81800 49.01400 26.72400
C  28.53200 48.73100 27.81500
C  29.63200 47.89100 27.37300
C  29.53500 47.76100 25.98000
C  28.39200 48.50100 25.59300
C  30.74600 47.34900 28.29400
C  30.41300 46.98400 25.00500
O  30.28400 47.09800 23.78400
C  31.35900 46.01800 25.50100
N  25.89100 50.12800 24.67800
C  26.79600 49.55900 23.91500
C  26.53900 49.78200 22.39000
C  25.16300 50.47200 22.42100
C  25.03300 50.79000 23.90700
C  27.75300 50.50500 21.71700
C  24.00000 49.61200 21.76300
C  23.59900 49.97500 20.31900
N  24.26300 51.27300 26.69100
C  23.60500 51.94000 25.67000
C  22.47500 52.66200 26.11400
C  22.59700 52.49300 27.50500
C  23.65500 51.71700 27.77300
C  21.46400 53.39300 25.19700
C  22.05200 52.83600 28.80400
O  21.05000 53.48800 29.11600
C  22.93500 52.24900 29.91600
C  23.32300 53.34300 30.80600
O  24.10700 54.27400 30.54000
O  22.86800 53.04200 32.04900
C  23.19500 54.03500 33.09600
H  28.97400 48.79400 29.85000
H  28.50900 48.44400 23.46700
H  23.42500 52.09700 23.52600
H  25.45900 51.61200 31.81900
H  26.80000 49.07400 31.70800
H  28.04400 50.47400 32.95000
H  27.51700 51.86600 32.01400
H  28.84200 50.71000 31.41200
H  24.67700 48.65300 32.01900
H  23.47800 49.56400 31.13400
H  23.27000 49.25400 33.70700
H  23.00400 50.78500 33.03000
H  30.60000 46.26900 28.29400
H  30.62300 47.66800 29.32900
H  31.74500 47.59100 27.93000
H  32.25300 46.48000 25.92200
H  31.70800 45.42000 24.65900
H  30.98800 45.22500 26.15000
H  26.50000 48.76800 21.99200
H  25.29000 51.39100 21.84800
H  27.61700 51.56300 21.49400
H  27.89500 49.91100 20.81400
H  28.72300 50.50100 22.21400
H  23.16700 49.73400 22.45600
H  24.32200 48.57100 21.74200
H  23.82400 49.16300 19.62700
H  24.28400 50.74300 19.96000
H  22.56000 50.28800 20.21600
H  22.04700 53.93900 24.45600
H  21.03000 54.16500 25.83300
H  20.71000 52.73400 24.76700
H  22.29100 51.54200 30.44100
H  24.25800 54.25000 33.20600
H  22.73400 53.81000 34.05800
H  22.94100 55.06500 32.84500

