158

Mg -0.79000 7.65900 25.87800
C  0.14300 9.32000 28.92600
C  -0.89900 4.76900 27.87100
C  -1.39000 5.87800 22.98800
C  0.18100 10.44100 24.09700
N  -0.46300 7.12800 28.15900
C  -0.13100 7.99000 29.14000
C  -0.05800 7.27600 30.48200
C  -0.33400 5.77400 30.17600
C  -0.59000 5.87600 28.63600
C  0.78800 4.77900 30.61900
C  -1.09800 7.92800 31.59800
C  -0.64800 8.10000 33.00400
H  0.76200 7.59400 33.46900
N  -1.17300 5.64100 25.48000
C  -1.22100 4.63100 26.48000
C  -1.49200 3.41500 25.81100
C  -1.71400 3.70300 24.45700
C  -1.42000 5.16300 24.20000
C  -1.69100 2.10100 26.62200
C  -2.19100 2.78000 23.29900
O  -2.56900 3.17600 22.19700
C  -2.35300 1.27900 23.58200
N  -0.56300 7.99200 23.89400
C  -0.98600 7.19600 22.86500
C  -0.98500 7.87200 21.49200
C  -0.45000 9.30400 21.86900
C  -0.15000 9.26400 23.37100
C  -0.02300 7.25900 20.38600
C  -1.53200 10.36500 21.50400
C  -2.91900 10.16400 22.19800
N  0.05500 9.57600 26.35300
C  0.35200 10.59500 25.46000
C  0.69500 11.78200 26.27200
C  0.74400 11.30100 27.54100
C  0.27400 9.95300 27.61700
C  1.11200 13.15000 25.73300
C  1.01800 11.69700 28.85700
O  1.39600 12.76500 29.31500
C  0.71500 10.45400 29.76500
C  1.97200 10.10900 30.49700
O  2.84600 9.36300 30.12900
O  2.06500 10.81300 31.67700
C  3.36000 10.63100 32.41300
H  -0.82000 3.80900 28.38500
H  -1.52100 5.47800 21.98000
H  0.22800 11.28000 23.40000
H  0.96600 7.41600 30.82900
H  -1.29800 5.35000 30.45500
H  1.52000 5.20800 31.30400
H  1.28400 4.44800 29.70700
H  0.23700 3.99800 31.14400
H  -1.99900 7.31600 31.55500
H  -1.34600 8.93500 31.26200
H  -1.29000 7.48900 33.64000
H  -0.82000 9.10300 33.39400
H  -0.86100 1.40000 26.70600
H  -2.55500 1.55700 26.23900
H  -1.95000 2.43200 27.62800
H  -2.63000 0.82600 22.63000
H  -3.17600 1.11500 24.27700
H  -1.41300 0.85700 23.93800
H  -2.00800 7.79900 21.12400
H  0.49200 9.48200 21.35000
H  0.16000 8.03800 19.64500
H  -0.53600 6.49800 19.79800
H  0.95000 6.97000 20.78400
H  -1.61200 10.20900 20.42800
H  -1.23000 11.41200 21.53200
H  -3.41100 11.12000 22.01400
H  -2.66600 10.12600 23.25700
H  -3.32000 9.23200 21.80000
H  0.31100 13.42500 25.04600
H  2.06300 13.13200 25.20000
H  1.13000 13.88800 26.53500
H  0.04100 10.77800 30.55800
H  4.22700 10.14300 31.96900
H  3.19500 10.13600 33.37100
H  3.58900 11.67200 32.64300
Mg 40.43800 9.91200 29.69800
C  42.35300 11.12900 32.26400
C  38.26300 8.52800 31.91200
C  38.73200 8.62200 27.06500
C  42.91200 11.00200 27.39500
N  40.51600 9.69300 31.88900
C  41.28900 10.40600 32.74600
C  40.73800 10.30800 34.19300
C  39.45000 9.32300 34.07200
C  39.33400 9.12600 32.50100
C  39.59200 7.93900 34.86600
C  40.48200 11.67800 34.96500
C  39.72300 11.53700 36.28900
H  40.39200 12.32800 37.49200
N  38.80500 8.62600 29.50800
C  38.04800 8.21700 30.55400
C  36.96800 7.43300 30.14500
C  36.96100 7.44600 28.69000
C  38.20400 8.24300 28.33700
C  36.07200 6.74000 31.14200
C  35.97100 6.88700 27.68700
O  36.16700 7.01000 26.45000
C  34.71300 6.27300 28.16800
N  40.70200 9.94500 27.48700
C  39.82700 9.36800 26.64500
C  40.21100 9.46100 25.19500
C  41.67400 10.16900 25.28500
C  41.80500 10.31400 26.79100
C  40.12600 8.08500 24.43100
C  41.92300 11.38100 24.24600
C  41.20800 12.63300 24.76500
N  42.25200 10.86200 29.78800
C  43.10100 11.32200 28.78700
C  44.25100 11.89300 29.41200
C  43.95000 11.95500 30.77100
C  42.74900 11.24600 30.92900
C  45.35700 12.29100 28.52000
C  44.37200 12.49100 32.05900
O  45.36900 13.09900 32.37300
C  43.29700 12.02900 33.08700
C  44.02900 11.44800 34.25600
O  44.34600 10.30200 34.35300
O  44.27800 12.38500 35.18300
C  45.00800 11.88000 36.38600
H  37.48600 8.25600 32.63000
H  38.23100 8.17500 26.20400
H  43.71700 11.25000 26.70000
H  41.48900 9.75700 34.75900
H  38.51700 9.84600 34.28300
H  40.40400 7.83800 35.58600
H  39.82800 7.16700 34.13300
H  38.60700 7.71500 35.27600
H  39.97300 12.31600 34.24200
H  41.42700 12.15000 35.23400
H  39.57500 10.49400 36.56900
H  38.72500 11.97400 36.28300
H  35.19500 7.31100 31.44500
H  36.59800 6.42200 32.04200
H  35.63500 5.84600 30.69600
H  34.08900 6.32500 27.27600
H  34.31800 6.81400 29.02800
H  35.05700 5.28500 28.47400
H  39.50600 10.13800 24.71300
H  42.43000 9.41300 25.07200
H  40.90900 7.97300 23.68000
H  39.21100 7.95500 23.85200
H  40.11400 7.32600 25.21300
H  41.45900 11.10600 23.29800
H  42.97900 11.50100 24.00300
H  40.32600 12.73400 24.13300
H  41.94400 13.43500 24.70400
H  40.78400 12.56400 25.76700
H  46.29200 12.35500 29.07800
H  45.18600 13.20700 27.95500
H  45.62300 11.58800 27.73000
H  42.84800 12.96600 33.41600
H  44.42200 11.02800 36.73000
H  45.01000 12.67700 37.13000
H  46.04300 11.70000 36.09400

