158

Mg -0.93700 18.29500 27.28600
C  -1.56300 16.07400 30.19100
C  -1.93900 20.81300 29.17700
C  -0.70600 19.98200 24.53000
C  -0.45900 15.23900 25.50600
N  -1.53700 18.42400 29.52400
C  -1.71800 17.39600 30.52500
C  -1.90500 18.00600 31.90500
C  -2.32900 19.48200 31.46700
C  -1.92200 19.62500 29.97600
C  -3.85200 19.67200 31.56900
C  -0.72000 18.07100 32.83700
C  -1.12000 17.73400 34.26800
H  -0.08900 17.77500 35.29300
N  -1.16500 20.19500 26.93800
C  -1.56900 21.08600 27.83300
C  -1.66500 22.46000 27.18800
C  -1.39500 22.20300 25.76100
C  -1.06600 20.74000 25.66200
C  -2.16200 23.58300 27.94900
C  -1.33500 23.17200 24.55200
O  -1.00700 22.79900 23.42900
C  -1.80600 24.57100 24.67600
N  -0.42600 17.71300 25.39100
C  -0.41700 18.67300 24.38400
C  -0.30000 17.93200 22.93800
C  0.05600 16.52100 23.40100
C  -0.24000 16.44300 24.88700
C  -1.55300 17.96600 21.97500
C  1.51300 16.03300 23.08900
C  2.66000 16.95400 23.67300
N  -1.11200 16.07700 27.60600
C  -1.01200 14.99700 26.76400
C  -1.26400 13.74300 27.50100
C  -1.42100 14.11800 28.78200
C  -1.29600 15.52800 28.87300
C  -1.26300 12.38200 26.90500
C  -1.63900 13.59800 30.08400
O  -1.80800 12.42100 30.41600
C  -1.71200 14.87500 31.01700
C  -0.59400 14.78300 31.90600
O  0.58600 15.20200 31.63600
O  -0.99600 14.13700 33.02200
C  0.05500 13.92300 34.00600
H  -2.35300 21.67400 29.70400
H  -0.68700 20.49900 23.56800
H  -0.19500 14.31800 24.98200
H  -2.65900 17.41400 32.42400
H  -1.83200 20.31300 31.96800
H  -4.37700 18.82900 32.01900
H  -4.24100 19.85500 30.56700
H  -4.11600 20.55600 32.14900
H  -0.32700 19.08500 32.89700
H  0.14300 17.45600 32.58200
H  -1.43000 16.69100 34.19900
H  -2.00900 18.31100 34.52000
H  -1.84500 23.59700 28.99200
H  -3.24500 23.49600 27.86400
H  -1.85900 24.55800 27.56800
H  -1.59000 25.12000 23.75900
H  -1.17500 25.11700 25.37700
H  -2.82800 24.73800 25.01700
H  0.54300 18.37800 22.41100
H  -0.51300 15.78200 22.83700
H  -2.31400 17.36700 22.47600
H  -1.42500 17.58900 20.96000
H  -1.68600 19.03600 21.81100
H  1.60100 15.92300 22.00900
H  1.67800 15.02700 23.47600
H  2.97300 17.66200 22.90500
H  3.54400 16.32500 23.77200
H  2.41100 17.27500 24.68400
H  -1.13200 12.24600 25.83200
H  -2.21000 11.92500 27.19200
H  -0.57400 11.75400 27.47000
H  -2.65300 15.01000 31.54900
H  0.46900 14.89200 34.28500
H  0.86200 13.36600 33.53100
H  -0.41600 13.54400 34.91300
Mg 54.62400 24.20900 45.16500
C  51.97200 26.10100 44.07200
C  53.16900 21.37400 43.99400
C  57.67900 22.84000 45.28900
C  56.28100 27.43900 46.10000
N  52.81500 23.80900 44.02100
C  51.77300 24.73200 43.75700
C  50.51300 23.99900 43.20800
C  50.81700 22.51600 43.44100
C  52.35000 22.53400 43.84200
C  49.92600 21.80900 44.46200
C  50.06800 24.35700 41.79500
C  48.58200 24.07700 41.35900
H  48.14500 24.07100 39.83100
N  55.31900 22.28300 44.75300
C  54.57200 21.23700 44.28500
C  55.46700 20.04000 44.17200
C  56.76100 20.53300 44.41400
C  56.63700 21.94700 44.77600
C  55.07000 18.64000 43.88400
C  58.10500 19.80000 44.39000
O  58.01100 18.61800 44.40800
C  59.45500 20.42400 44.42000
N  56.71600 25.08200 45.49600
C  57.68000 24.18500 45.63100
C  58.99600 24.85600 46.17800
C  58.62900 26.37100 46.12800
C  57.11900 26.34300 45.98800
C  59.59200 24.40000 47.51700
C  59.26800 27.08300 44.87700
C  60.32900 28.23700 45.15400
N  54.19300 26.33400 45.29300
C  54.90800 27.46000 45.69600
C  53.96900 28.50200 45.79300
C  52.75400 28.07100 45.21500
C  53.00100 26.71600 44.84700
C  54.05200 29.85700 46.44800
C  51.39300 28.41600 44.90800
O  50.81000 29.50700 45.00200
C  50.90300 27.23300 44.05000
C  50.59900 27.85300 42.72300
O  51.44300 28.15000 41.89800
O  49.29800 27.76800 42.44200
C  48.77400 27.74200 41.05100
H  52.66400 20.41900 43.83200
H  58.72900 22.62600 45.49800
H  56.62500 28.37000 46.55700
H  49.66000 24.29000 43.82000
H  50.78000 21.96400 42.50200
H  50.35200 21.61900 45.44700
H  49.71100 20.81900 44.06000
H  49.03200 22.37900 44.71300
H  50.62100 23.74900 41.07900
H  50.24200 25.40700 41.56000
H  47.94800 24.68700 42.00200
H  48.29900 23.08000 41.69500
H  55.59900 18.15000 43.06600
H  54.00900 18.62600 43.63300
H  55.13000 18.02600 44.78300
H  59.57500 21.40000 43.95000
H  60.13600 19.82900 43.81100
H  59.69600 20.44300 45.48300
H  59.80600 24.57000 45.50700
H  58.90500 26.80400 47.08900
H  58.76600 24.03200 48.12700
H  60.02200 25.31700 47.91800
H  60.42000 23.71600 47.33500
H  58.54600 27.64800 44.28800
H  59.86200 26.52400 44.15500
H  60.80000 27.97900 46.10200
H  59.82100 29.19300 45.28100
H  61.00400 28.34200 44.30400
H  53.08800 30.23100 46.79300
H  54.33500 30.52400 45.63400
H  54.75100 29.82800 47.28400
H  49.99200 26.82200 44.48700
H  48.08800 28.58600 40.97400
H  48.33200 26.74800 40.98300
H  49.52000 27.93300 40.28000

