158

Mg 24.67000 -6.21100 45.80400
C  27.05500 -3.99200 44.41800
C  22.32800 -5.06500 43.46300
C  22.83100 -8.81800 46.49700
C  27.38500 -7.79800 47.51800
N  24.66400 -4.50900 44.25300
C  25.75100 -3.82100 43.83900
C  25.38500 -2.84300 42.68800
C  23.80700 -3.00800 42.53400
C  23.54800 -4.27600 43.46500
C  23.09000 -1.68000 42.96600
C  26.18500 -2.93200 41.33200
C  26.79000 -1.70700 40.68300
H  26.22500 -1.42800 39.27900
N  22.88600 -6.75300 45.14100
C  22.03600 -6.13600 44.24400
C  20.86000 -6.86900 44.21300
C  20.91200 -7.85000 45.20300
C  22.25100 -7.86100 45.68700
C  19.63200 -6.40300 43.32100
C  19.79000 -8.81400 45.54900
O  18.79500 -8.74800 44.87600
C  19.72500 -9.73900 46.73500
N  25.05800 -8.04000 46.89500
C  24.09900 -8.96600 46.99400
C  24.56200 -10.29100 47.68800
C  26.01000 -9.81700 48.10000
C  26.17600 -8.50000 47.44800
C  23.69200 -10.86300 48.87300
C  27.01000 -10.89500 47.56500
C  27.28100 -12.08400 48.55300
N  26.73800 -5.88300 46.07800
C  27.68800 -6.55700 46.86600
C  29.01500 -5.96400 46.72800
C  28.75900 -4.96400 45.77800
C  27.37400 -4.88700 45.44900
C  30.24300 -6.42300 47.51400
C  29.38800 -3.87100 45.13800
O  30.52000 -3.42200 45.18500
C  28.34100 -3.23200 44.09800
C  28.34700 -1.81100 44.37700
O  28.02700 -1.26900 45.48800
O  28.67700 -1.04800 43.26600
C  28.32600 0.36500 43.42200
H  21.74100 -4.56000 42.69400
H  22.11900 -9.60700 46.74800
H  28.24200 -8.16600 48.08600
H  25.61300 -1.81500 42.96700
H  23.63400 -3.25800 41.48800
H  23.21300 -1.50600 44.03500
H  22.03300 -1.71700 42.70400
H  23.51400 -0.80600 42.47100
H  25.57300 -3.38100 40.54900
H  26.88800 -3.73800 41.54000
H  27.86500 -1.83200 40.55600
H  26.49700 -0.81900 41.24200
H  19.09900 -7.11400 42.69100
H  20.01900 -5.72700 42.55900
H  18.97000 -5.89700 44.02400
H  18.74400 -10.17200 46.92900
H  20.10800 -9.23600 47.62300
H  20.33300 -10.55700 46.34900
H  24.58000 -11.17100 47.04500
H  26.04300 -9.61600 49.17100
H  23.50500 -11.92300 48.70100
H  22.67200 -10.47800 48.87500
H  24.04900 -10.75400 49.89700
H  28.01300 -10.52300 47.35900
H  26.59300 -11.38200 46.68400
H  28.34200 -12.28500 48.70500
H  26.75300 -12.94100 48.13400
H  26.86600 -11.80300 49.52100
H  30.43600 -7.47500 47.30600
H  29.95000 -6.30500 48.55800
H  31.03700 -5.77500 47.14200
H  28.68600 -3.36700 43.07300
H  29.06000 0.76500 44.12100
H  27.27900 0.47000 43.70500
H  28.32500 0.73200 42.39500
Mg -4.84600 25.67800 26.27600
C  -3.80200 26.88100 29.53500
C  -6.73000 23.43300 27.69100
C  -5.00900 24.45600 23.11900
C  -2.29200 27.99200 24.97400
N  -5.08300 25.13300 28.39600
C  -4.63500 25.77000 29.53500
C  -5.42700 25.07900 30.75000
C  -6.12300 23.83100 30.14200
C  -6.02200 24.16300 28.63500
C  -5.56000 22.43300 30.66500
C  -6.27500 26.09700 31.52800
C  -5.98600 26.13200 33.06600
H  -5.67000 24.79800 33.82800
N  -5.77800 24.21200 25.51300
C  -6.62100 23.49100 26.25100
C  -7.23200 22.63100 25.30900
C  -6.61800 22.72000 23.98300
C  -5.73000 23.87300 24.17900
C  -8.38900 21.71300 25.69200
C  -6.89000 21.88100 22.69300
O  -6.34000 22.08300 21.62800
C  -7.79900 20.64000 22.85500
N  -3.80900 26.27000 24.24100
C  -4.16200 25.51600 23.11700
C  -3.53800 26.06000 21.88900
C  -2.79500 27.37100 22.44800
C  -2.93600 27.24700 23.97000
C  -2.44100 25.06800 21.33800
C  -3.36200 28.67600 21.98100
C  -3.26400 28.84500 20.41000
N  -3.46500 27.21600 27.00300
C  -2.52200 28.04800 26.33900
C  -1.93500 28.94100 27.36500
C  -2.43000 28.58200 28.62400
C  -3.28200 27.44500 28.33800
C  -1.03000 30.08800 27.12800
C  -2.37900 28.88100 30.02100
O  -1.84300 29.76000 30.64100
C  -3.23100 27.71300 30.67100
C  -2.34400 26.84300 31.61000
O  -1.73100 25.77900 31.36500
O  -2.38000 27.31300 32.90300
C  -1.55000 26.67500 33.97300
H  -7.39500 22.62700 28.00600
H  -5.34800 24.04400 22.16600
H  -1.55600 28.72900 24.64600
H  -4.66500 24.70600 31.43400
H  -7.19200 23.79500 30.35100
H  -4.71400 22.49900 31.34900
H  -5.07800 21.87200 29.86500
H  -6.27400 21.81500 31.20800
H  -7.31900 25.90400 31.28200
H  -5.91100 27.03000 31.09700
H  -6.95800 26.49700 33.40000
H  -5.16200 26.83000 33.21100
H  -9.25500 21.86200 25.04700
H  -8.76200 21.78100 26.71400
H  -8.13400 20.65700 25.59700
H  -8.16400 20.46800 21.84300
H  -8.73000 20.88800 23.36400
H  -7.25300 19.90500 23.44700
H  -4.30700 26.11800 21.11900
H  -1.71600 27.50900 22.36800
H  -1.51500 25.53200 21.00000
H  -2.93200 24.62900 20.46900
H  -2.29100 24.30600 22.10300
H  -2.86000 29.47800 22.52300
H  -4.42300 28.74400 22.22200
H  -2.56000 28.08600 20.06900
H  -3.02700 29.89600 20.24600
H  -4.18500 28.60400 19.88000
H  -1.38900 30.59300 26.23100
H  -0.05600 29.64200 26.92800
H  -1.06100 30.82800 27.92800
H  -4.00300 28.24500 31.22600
H  -1.04900 27.53400 34.41900
H  -0.72800 26.08400 33.57100
H  -2.14300 26.19700 34.75400

