158

Mg 17.67500 -1.72800 27.59000
C  16.53100 0.08100 30.45000
C  19.71800 -3.43600 29.69500
C  19.37700 -2.71300 24.80400
C  15.79400 0.46300 25.65700
N  18.13300 -1.53500 29.87500
C  17.42400 -0.86100 30.81700
C  17.91600 -1.20100 32.30400
C  19.01500 -2.29100 31.98600
C  18.94900 -2.45700 30.39200
C  20.36200 -2.01100 32.56600
C  16.70400 -1.60700 33.21800
C  16.60200 -0.92200 34.59900
H  17.80500 -0.26000 35.20400
N  19.12100 -3.03000 27.29000
C  19.81600 -3.70700 28.30900
C  20.67600 -4.73900 27.66900
C  20.61700 -4.45700 26.28100
C  19.64000 -3.33000 26.02600
C  21.28900 -5.90300 28.46900
C  21.62100 -5.12000 25.16900
O  21.42900 -4.80100 23.96300
C  22.63700 -6.04800 25.65400
N  17.62300 -1.15900 25.52900
C  18.43200 -1.71600 24.57900
C  18.13000 -1.16200 23.21400
C  16.83300 -0.36200 23.40600
C  16.70700 -0.30200 24.93300
C  19.34900 -0.40900 22.53900
C  15.52700 -1.00600 22.81600
C  14.49800 -0.03000 22.20700
N  16.29500 -0.17700 27.88700
C  15.65400 0.62000 27.01700
C  14.74500 1.53600 27.65700
C  15.12300 1.43400 29.03200
C  16.06500 0.32500 29.09700
C  13.87000 2.47500 26.97200
C  14.84300 1.89700 30.44600
O  13.98000 2.69700 30.87100
C  15.82300 1.09600 31.38000
C  16.71900 2.09600 31.94500
O  17.84600 2.41600 31.54200
O  15.98800 2.66600 32.93600
C  16.77700 3.67400 33.62300
H  20.35300 -4.03300 30.35200
H  20.06100 -2.93700 23.98300
H  15.27300 1.14900 24.98500
H  18.38600 -0.29300 32.68100
H  18.70900 -3.13500 32.60400
H  20.52800 -2.67800 33.41200
H  20.50800 -0.98000 32.88600
H  21.15500 -2.18000 31.83700
H  16.68000 -2.69600 33.23500
H  15.78900 -1.35200 32.68200
H  16.21000 -1.66000 35.29900
H  15.77000 -0.21800 34.61100
H  21.01100 -6.82600 27.96000
H  20.84500 -5.94400 29.46400
H  22.37300 -5.80000 28.51100
H  23.46600 -5.69700 26.26800
H  23.01900 -6.44600 24.71400
H  22.00800 -6.76900 26.17800
H  17.79100 -2.01900 22.63200
H  16.88300 0.63500 22.96800
H  20.28300 -0.54000 23.08600
H  19.14200 0.66000 22.58300
H  19.40200 -0.66600 21.48100
H  15.07100 -1.51400 23.66600
H  15.68800 -1.77100 22.05600
H  14.40900 -0.08500 21.12200
H  14.64100 1.02200 22.45200
H  13.53800 -0.28300 22.65600
H  13.18900 1.91900 26.32800
H  14.48400 3.14200 26.36600
H  13.26100 3.04700 27.67300
H  15.22100 0.69500 32.19600
H  16.91500 4.47200 32.89400
H  17.63400 3.19500 34.09700
H  16.20100 4.02900 34.47700
Mg 6.29700 54.53800 40.50300
C  5.55700 51.10000 40.48200
C  9.46200 53.96700 39.43900
C  6.50800 57.77900 39.99400
C  2.59000 55.06200 40.73500
N  7.34000 52.76600 39.95500
C  6.80800 51.48600 40.02800
C  7.89700 50.51900 39.61100
C  9.24700 51.34800 39.62200
C  8.70300 52.77400 39.73300
C  10.30300 51.15000 40.69900
C  7.64700 49.84200 38.24100
C  6.91200 50.61400 37.05500
H  5.99100 49.90200 36.07600
N  7.77500 55.75200 39.76900
C  9.03300 55.33500 39.39700
C  9.86000 56.51500 39.13100
C  9.01500 57.62800 39.18300
C  7.70300 57.09200 39.70300
C  11.35800 56.38400 38.83100
C  9.45000 59.01700 38.92700
O  10.61000 59.26800 38.51800
C  8.53800 60.09300 39.16900
N  4.74400 56.11100 40.13400
C  5.18400 57.35400 40.21500
C  4.00200 58.41100 40.40300
C  2.74800 57.57700 40.25400
C  3.40600 56.17600 40.36000
C  4.08900 59.42000 41.60000
C  1.88400 57.73800 38.94900
C  2.20000 56.82700 37.73800
N  4.45800 53.36700 40.72000
C  3.16200 53.76400 40.86600
C  2.45000 52.53600 41.15700
C  3.30800 51.46300 41.13900
C  4.52300 52.02000 40.80300
C  0.92200 52.40100 41.36300
C  3.47300 50.04200 41.28300
O  2.65400 49.17800 41.55600
C  4.91500 49.74400 40.79100
C  4.83900 48.89100 39.63600
O  4.42900 49.14700 38.50900
O  5.16000 47.53900 40.03800
C  5.10500 46.49300 38.99800
H  10.48500 53.74800 39.12700
H  6.60200 58.86600 40.04700
H  1.54400 55.28600 40.95700
H  8.01600 49.69900 40.32000
H  9.71700 51.22900 38.64600
H  10.44500 52.06100 41.28000
H  11.27300 50.82700 40.32100
H  9.86400 50.44800 41.40700
H  7.13500 48.89300 38.39700
H  8.61000 49.47800 37.88300
H  7.61800 50.80600 36.24700
H  6.40600 51.52800 37.36400
H  11.63100 55.42200 38.39900
H  11.89500 56.44800 39.77800
H  11.67200 57.19500 38.17400
H  7.70000 59.84700 38.51600
H  8.96100 60.96600 38.67100
H  8.52100 60.16600 40.25600
H  4.00300 59.07300 39.53800
H  2.06100 57.49800 41.09700
H  3.18900 59.42600 42.21600
H  4.31700 60.39500 41.16800
H  4.83200 59.07600 42.32000
H  1.96100 58.76900 38.60400
H  0.83600 57.81900 39.23900
H  2.52500 57.42200 36.88500
H  1.36700 56.22800 37.36900
H  3.11200 56.24300 37.86500
H  0.40600 53.36000 41.33200
H  0.74300 51.90500 42.31700
H  0.36500 51.80800 40.63700
H  5.55800 49.29600 41.54900
H  5.43900 46.88700 38.03800
H  4.12000 46.04100 38.88100
H  5.80900 45.72700 39.32400

