158

Mg 17.10200 -2.20200 27.25200
C  16.11500 -0.50200 30.20000
C  18.69500 -4.41500 29.33200
C  17.94200 -3.76000 24.47300
C  15.53000 0.39500 25.45100
N  17.23500 -2.54300 29.51500
C  16.85700 -1.64600 30.48100
C  17.39600 -2.10000 31.91700
C  18.27200 -3.29500 31.58300
C  18.08200 -3.42900 30.03600
C  19.71100 -3.39500 32.14300
C  16.20900 -2.38200 32.89200
C  16.25900 -1.75300 34.33400
H  17.53200 -0.91100 34.69200
N  18.13800 -3.95500 26.97400
C  18.68600 -4.72600 27.96400
C  19.22200 -5.90400 27.28600
C  19.07200 -5.75200 25.88300
C  18.38500 -4.42700 25.69900
C  19.83900 -7.11200 28.01100
C  19.39400 -6.63500 24.66900
O  18.98700 -6.40900 23.56700
C  19.94200 -8.00600 24.94000
N  16.81000 -1.75800 25.32500
C  17.25700 -2.51600 24.31800
C  17.12500 -1.80500 22.94200
C  16.05200 -0.76700 23.31600
C  16.21500 -0.65400 24.81600
C  18.44900 -1.35700 22.25000
C  14.60800 -0.97900 22.84400
C  13.58700 -1.67700 23.76700
N  16.04900 -0.34600 27.69500
C  15.42300 0.48100 26.83500
C  14.72900 1.52800 27.60500
C  14.95400 1.18000 28.92200
C  15.80800 0.00300 28.90700
C  14.03900 2.74200 27.02100
C  14.72300 1.53000 30.29000
O  14.07600 2.49100 30.66000
C  15.50300 0.48300 31.16100
C  16.59900 1.20800 31.91300
O  17.78800 1.38800 31.55500
O  16.00900 1.82000 32.90500
C  16.75000 2.97900 33.44400
H  19.31400 -5.07600 29.94200
H  18.23700 -4.11000 23.48200
H  15.03800 1.21700 24.92800
H  17.98000 -1.23100 32.22000
H  17.78500 -4.13300 32.08000
H  20.43000 -3.56100 31.34000
H  19.73800 -4.23100 32.84100
H  20.11700 -2.51400 32.64100
H  16.24700 -3.44800 33.11200
H  15.29000 -2.40500 32.30700
H  16.30500 -2.57200 35.05100
H  15.37200 -1.12500 34.40900
H  20.82100 -7.39100 27.62900
H  19.01600 -7.82400 27.95200
H  19.91600 -6.87200 29.07100
H  21.03100 -8.04000 24.96300
H  19.59100 -8.63700 24.12400
H  19.62500 -8.56300 25.82200
H  16.67600 -2.67100 22.45500
H  16.35400 0.17100 22.85000
H  18.88900 -2.05400 21.53700
H  19.28400 -1.15700 22.92200
H  18.31100 -0.43000 21.69400
H  14.62500 -1.40000 21.83800
H  14.24500 0.04000 22.70900
H  14.09900 -2.23100 24.55300
H  12.93100 -2.38500 23.26000
H  12.99700 -0.88200 24.22500
H  13.95900 3.51200 27.78900
H  13.08100 2.44000 26.60000
H  14.62300 3.10000 26.17300
H  14.82900 -0.06900 31.81600
H  17.24000 3.51900 32.63400
H  17.56200 2.77600 34.14200
H  16.08200 3.57300 34.06900
Mg 26.06700 49.57200 26.64300
C  23.83500 51.00400 28.83100
C  28.26400 49.18000 29.11600
C  28.34200 48.78100 24.14200
C  23.88800 50.58600 23.97900
N  26.07600 50.26900 28.79800
C  24.95700 50.61900 29.52900
C  25.04100 50.36900 31.01200
C  26.62600 50.04400 31.07300
C  27.07100 49.75900 29.58000
C  27.50600 51.17900 31.77200
C  24.08600 49.25000 31.60600
C  23.85800 49.17400 33.24000
H  24.63900 50.15200 34.07300
N  27.98500 49.09400 26.63500
C  28.76000 48.97900 27.79000
C  30.04100 48.47300 27.36900
C  30.11600 48.48500 25.94700
C  28.79700 48.83400 25.55000
C  31.12600 48.11900 28.47500
C  31.35700 48.22800 24.99000
O  31.37700 48.44300 23.78400
C  32.64300 47.86000 25.63300
N  26.01400 49.43000 24.46000
C  27.05900 49.04200 23.66100
C  26.68400 48.94600 22.14600
C  25.29400 49.61700 22.10200
C  25.00100 49.87000 23.61900
C  27.70000 49.63300 21.13300
C  24.17300 48.79500 21.38200
C  23.23700 49.56600 20.39700
N  24.21400 50.45300 26.34800
C  23.47100 50.87100 25.23200
C  22.30500 51.50700 25.68200
C  22.31300 51.43600 27.06100
C  23.56200 50.88600 27.41300
C  21.26400 52.00800 24.79500
C  21.65200 51.84200 28.26200
O  20.59700 52.40700 28.39800
C  22.52700 51.46200 29.47200
C  22.86400 52.74100 30.32600
O  23.53500 53.72500 30.01000
O  22.26900 52.58000 31.62800
C  22.60700 53.66400 32.53500
H  28.94100 48.87600 29.91600
H  28.97100 48.44400 23.31500
H  23.21300 50.81400 23.15100
H  24.94600 51.26900 31.61900
H  26.93200 49.14400 31.60600
H  28.01200 50.78200 32.65200
H  26.87400 51.96400 32.18800
H  28.20500 51.58300 31.04100
H  24.62300 48.36400 31.26700
H  23.16400 49.49000 31.07600
H  23.98100 48.16600 33.63500
H  22.80400 49.45000 33.21500
H  32.05400 48.56500 28.11700
H  31.41700 47.07000 28.41500
H  31.02600 48.55900 29.46700
H  33.35800 47.32000 25.01200
H  32.34700 47.11300 26.37000
H  33.16400 48.72500 26.04400
H  26.66800 47.87200 21.96000
H  25.38700 50.60600 21.65300
H  28.40300 50.35600 21.54500
H  27.12100 50.10900 20.34100
H  28.24800 48.85900 20.59600
H  23.69000 48.26500 22.20200
H  24.70200 48.13500 20.69400
H  23.26700 50.65500 20.43800
H  22.20100 49.24000 20.48600
H  23.48400 49.36700 19.35400
H  21.14400 51.41100 23.89100
H  21.51800 53.04600 24.57600
H  20.26400 51.96600 25.22600
H  21.98300 50.59900 29.85700
H  22.90200 54.56100 31.99100
H  23.42800 53.38100 33.19400
H  21.72900 53.86900 33.14700

