158

Mg -2.97700 17.63500 26.72900
C  -3.32500 15.31500 29.47900
C  -3.56900 20.14000 28.97700
C  -3.25100 19.75900 24.16800
C  -3.14600 14.88700 24.67500
N  -3.46900 17.69300 29.02000
C  -3.45700 16.62400 29.92100
C  -3.60800 17.12100 31.39500
C  -3.80200 18.66200 31.15200
C  -3.69900 18.87100 29.58900
C  -5.10000 19.18000 31.77700
C  -2.36400 16.79600 32.31500
C  -2.35200 17.64500 33.59100
H  -1.89500 16.95700 34.90300
N  -3.21000 19.66600 26.64100
C  -3.30300 20.52400 27.64500
C  -2.94800 21.84400 27.10600
C  -2.82400 21.78600 25.69000
C  -3.15300 20.41900 25.44200
C  -2.89100 23.07600 28.02200
C  -2.44200 22.88700 24.73600
O  -2.30700 22.65400 23.53800
C  -2.32200 24.30800 25.16000
N  -3.39100 17.34500 24.71400
C  -3.35600 18.36000 23.86700
C  -3.59800 17.90500 22.40000
C  -3.45900 16.29700 22.57900
C  -3.28100 16.14900 24.07800
C  -4.69100 18.58600 21.56100
C  -2.23600 15.75100 21.81900
C  -0.86600 16.31900 22.25600
N  -3.08100 15.54000 26.95900
C  -3.15400 14.57900 26.00500
C  -3.05400 13.25200 26.57400
C  -3.19200 13.52200 27.93700
C  -3.19800 14.92000 28.14000
C  -2.96100 11.97500 25.85400
C  -3.37600 12.83200 29.22500
O  -3.47200 11.68300 29.58100
C  -3.42300 14.01700 30.24600
C  -2.29900 13.77300 31.10600
O  -1.12900 14.02600 30.89800
O  -2.73100 13.08400 32.20800
C  -1.67900 12.77900 33.23100
H  -3.54400 20.96800 29.69000
H  -3.41400 20.41100 23.30700
H  -3.24100 13.98000 24.07300
H  -4.49400 16.63000 31.79800
H  -3.09600 19.36800 31.58900
H  -5.68900 19.64800 30.98800
H  -4.88200 19.92400 32.54300
H  -5.69300 18.42200 32.28800
H  -1.41700 16.76100 31.77900
H  -2.65400 15.83400 32.73700
H  -3.15700 18.36400 33.74600
H  -1.55300 18.34300 33.33800
H  -1.89900 23.52400 27.96300
H  -3.15600 22.90200 29.06500
H  -3.59000 23.88300 27.79900
H  -2.40500 24.92900 24.26800
H  -1.42100 24.31900 25.77400
H  -3.17500 24.57800 25.78200
H  -2.67600 18.24100 21.92600
H  -4.39900 15.83500 22.27800
H  -5.15800 17.98100 20.78400
H  -4.34900 19.54100 21.16100
H  -5.57600 18.79200 22.16300
H  -2.28700 15.86500 20.73700
H  -2.08000 14.69200 22.02600
H  -0.90900 17.13300 22.98000
H  -0.34000 16.61600 21.34900
H  -0.31500 15.52600 22.76300
H  -3.74200 12.02700 25.09500
H  -3.12400 11.17200 26.57200
H  -1.98900 11.91900 25.36400
H  -4.34800 13.95500 30.82000
H  -2.17100 11.90100 33.64900
H  -1.57600 13.65700 33.86800
H  -0.71600 12.46100 32.83100
Mg 42.55300 41.45000 26.49900
C  41.58000 43.91900 28.91400
C  43.35800 39.36300 29.12400
C  43.84600 39.34900 24.24000
C  42.12100 43.91900 24.02100
N  42.56200 41.68400 28.78900
C  42.02600 42.69400 29.54600
C  41.94700 42.31000 31.07500
C  42.75100 41.02900 31.07400
C  42.89400 40.60000 29.58800
C  44.15100 41.11100 31.79200
C  40.41500 42.21500 31.41200
C  39.96700 43.18500 32.47600
H  39.14200 42.64200 33.63400
N  43.37900 39.56300 26.69200
C  43.70300 38.91300 27.86700
C  44.22000 37.55200 27.51100
C  44.34700 37.52500 26.07300
C  43.83500 38.86500 25.58700
C  44.60500 36.64900 28.60300
C  44.93200 36.43400 25.14500
O  44.93100 36.56500 23.93000
C  45.57500 35.25200 25.75200
N  42.90900 41.63600 24.47700
C  43.40400 40.56600 23.76100
C  43.49700 40.92000 22.26400
C  42.84600 42.36600 22.07400
C  42.62500 42.66200 23.60100
C  44.84400 40.77200 21.62900
C  41.46900 42.43400 21.41900
C  41.28900 43.70000 20.58300
N  42.07200 43.49300 26.46000
C  41.90400 44.38100 25.36700
C  41.32600 45.65500 25.80800
C  41.16400 45.48600 27.18600
C  41.64500 44.19800 27.54800
C  40.93300 46.83100 25.06300
C  40.71300 46.18100 28.35700
O  40.24400 47.34600 28.44300
C  40.92400 45.15300 29.53900
C  41.64600 45.82800 30.68400
O  42.85000 45.98400 30.73400
O  40.72900 46.41000 31.59900
C  41.31900 47.10100 32.80400
H  43.76400 38.70600 29.89600
H  44.28800 38.74300 23.44600
H  41.84300 44.57000 23.18900
H  42.49500 43.12100 31.55500
H  42.30900 40.20600 31.63500
H  43.88800 41.00100 32.84400
H  44.59100 42.07000 31.51800
H  44.87900 40.36400 31.47500
H  40.27800 41.27200 31.94100
H  39.68000 42.41100 30.63200
H  39.32600 43.87800 31.93200
H  40.76200 43.78100 32.92400
H  45.67900 36.50700 28.48200
H  44.06900 35.74000 28.32700
H  44.19800 36.83500 29.59700
H  45.67900 34.41200 25.06500
H  44.97700 34.85700 26.57400
H  46.48700 35.54800 26.27100
H  42.87700 40.20000 21.72900
H  43.49300 43.14500 21.67200
H  44.91800 39.83400 21.07800
H  45.72300 40.91600 22.25600
H  44.83600 41.53600 20.85200
H  40.65100 42.26200 22.11800
H  41.43600 41.60500 20.71200
H  42.18000 43.84200 19.97200
H  41.11400 44.58300 21.19800
H  40.49900 43.62900 19.83500
H  40.28100 46.63500 24.21100
H  41.88600 47.25900 24.75100
H  40.42500 47.49000 25.76700
H  39.92800 44.88500 29.89400
H  40.68600 47.98200 32.90600
H  42.30100 47.54900 32.64800
H  41.32400 46.35100 33.59600

