158

Mg 55.50500 23.01100 44.56000
C  53.18000 25.44800 43.11100
C  53.21700 20.65300 43.49600
C  57.90700 20.85000 44.95800
C  57.75000 25.68500 45.05300
N  53.39200 23.05900 43.42900
C  52.66400 24.15200 43.02300
C  51.24500 23.72400 42.47500
C  51.09900 22.28200 42.98400
C  52.57400 21.92300 43.34400
C  50.24700 22.18400 44.15000
C  51.03300 23.81700 40.93800
C  49.71800 24.53400 40.45900
H  49.19200 24.13400 39.07700
N  55.53500 20.98000 44.41500
C  54.50300 20.18700 43.92600
C  55.01200 18.80400 43.92800
C  56.32600 18.78900 44.43900
C  56.66500 20.22500 44.62200
C  54.11800 17.72500 43.52600
C  57.26200 17.51400 44.74700
O  56.83500 16.40500 44.49800
C  58.64500 17.64300 45.24100
N  57.57400 23.21800 44.60200
C  58.38900 22.16100 45.01900
C  59.73600 22.52600 45.68300
C  59.54000 24.10000 45.78600
C  58.14000 24.34500 45.14600
C  60.09000 21.81000 47.02000
C  60.75700 24.93300 45.14600
C  61.16200 26.17500 45.96700
N  55.55100 25.16300 44.11800
C  56.50400 26.09600 44.47900
C  55.95100 27.43000 44.23700
C  54.69600 27.18500 43.60100
C  54.49400 25.81400 43.56400
C  56.55000 28.70600 44.67500
C  53.57500 27.85700 43.01400
O  53.36300 29.09200 42.88500
C  52.50200 26.77500 42.64200
C  52.48500 26.78800 41.14500
O  53.45400 26.41300 40.45800
O  51.36500 27.44100 40.65000
C  51.42000 27.49600 39.20900
H  52.54500 19.81500 43.29800
H  58.74400 20.22200 45.27100
H  58.34400 26.50700 45.45600
H  50.47800 24.34100 42.94300
H  50.66500 21.62400 42.23100
H  49.26800 21.75100 43.94400
H  50.00000 23.11800 44.65400
H  50.79700 21.51200 44.80900
H  50.93500 22.80500 40.54700
H  51.84000 24.35000 40.43500
H  49.80700 25.62100 40.48400
H  48.92200 24.28400 41.16000
H  53.80800 17.92000 42.50000
H  53.20200 17.68500 44.11500
H  54.60700 16.76100 43.38500
H  59.25400 18.24200 44.56400
H  59.17000 16.69000 45.28800
H  58.64500 18.02100 46.26300
H  60.38900 22.14800 44.89700
H  59.31400 24.42500 46.80200
H  59.24100 21.26500 47.43200
H  60.31000 22.60100 47.73700
H  60.98500 21.18700 47.02300
H  60.56900 25.27700 44.12900
H  61.59600 24.24000 45.08300
H  60.27100 26.50700 46.50000
H  61.41600 26.96300 45.25800
H  62.04900 26.05600 46.58900
H  56.71000 28.83800 45.74500
H  55.95900 29.60000 44.47300
H  57.50900 28.77900 44.16400
H  51.51400 26.99000 43.04800
H  51.94300 28.44000 39.05500
H  50.42300 27.59100 38.78000
H  51.85600 26.68400 38.62800
Mg 0.19800 44.20800 25.34500
C  2.14500 43.91600 28.27100
C  -2.53100 43.13100 27.16900
C  -1.51800 43.87800 22.46200
C  3.12800 44.64000 23.57700
N  -0.14700 43.65900 27.45600
C  0.77000 43.70800 28.46500
C  0.10200 43.39200 29.81700
C  -1.41700 43.22500 29.42600
C  -1.36500 43.31800 27.93700
C  -2.10600 41.86000 29.98100
C  0.26200 44.71200 30.71400
C  1.05500 44.60900 32.06200
H  0.55800 43.43400 33.01100
N  -1.79500 43.59100 24.86500
C  -2.74700 43.22900 25.78200
C  -3.93800 43.01900 25.03800
C  -3.67700 43.00100 23.69500
C  -2.28900 43.52100 23.58800
C  -5.25600 42.67600 25.74200
C  -4.63500 42.72700 22.50500
O  -4.20900 42.92500 21.33900
C  -6.12000 42.44100 22.74900
N  0.69800 44.51400 23.27400
C  -0.13900 44.19500 22.29100
C  0.54200 44.20800 20.94600
C  1.99800 44.69700 21.34300
C  1.96600 44.63400 22.84200
C  0.51400 42.94100 20.12000
C  2.32800 46.08300 20.59000
C  1.62600 47.33600 21.13500
N  2.24600 44.34000 25.73400
C  3.31300 44.53800 24.91500
C  4.53900 44.66300 25.69400
C  4.10300 44.38000 26.97900
C  2.69200 44.22000 27.03500
C  5.99100 44.88200 25.26100
C  4.61600 44.15000 28.30100
O  5.72700 44.20200 28.75100
C  3.33500 43.97000 29.24500
C  3.54500 42.69100 29.99800
O  3.58600 41.56100 29.51400
O  3.80600 43.00600 31.29000
C  4.44700 41.98300 32.07200
H  -3.42000 42.86200 27.74300
H  -1.98500 43.78600 21.47900
H  4.06100 44.78200 23.02700
H  0.48200 42.49100 30.29700
H  -2.07300 44.00300 29.81500
H  -2.93800 42.17700 30.61000
H  -1.44700 41.21500 30.56100
H  -2.52300 41.27700 29.16000
H  -0.69300 45.15300 31.00200
H  0.66900 45.43900 30.01200
H  0.84300 45.54900 32.57100
H  2.13800 44.56600 31.95000
H  -5.53000 41.62900 25.61800
H  -6.00100 43.27900 25.22400
H  -5.21900 42.95800 26.79500
H  -6.60700 43.31600 23.18100
H  -6.08700 41.55600 23.38500
H  -6.69100 42.14600 21.86800
H  0.03100 44.94900 20.33200
H  2.69700 43.93500 20.99800
H  0.19800 42.14600 20.79700
H  1.49000 42.58600 19.79000
H  -0.23300 42.97400 19.32700
H  2.12000 46.09600 19.52000
H  3.41400 46.13200 20.65900
H  0.67300 47.12400 21.61900
H  1.44200 47.99500 20.28700
H  2.31100 47.87400 21.79000
H  6.49600 45.42200 26.06200
H  6.13000 45.45300 24.34300
H  6.43400 43.89500 25.12700
H  3.05900 44.76800 29.93500
H  5.26400 41.49400 31.54100
H  3.69700 41.23600 32.33400
H  4.72600 42.43800 33.02200

