158

Mg 26.18400 1.11900 29.16200
C  28.02600 0.89100 32.15500
C  23.33700 1.34800 31.12900
C  24.39400 0.91000 26.41100
C  29.07100 -0.03200 27.43800
N  25.83700 0.97900 31.44000
C  26.70700 1.16600 32.42500
C  25.97400 1.44600 33.73000
C  24.48600 1.25200 33.37800
C  24.54600 1.04100 31.85700
C  23.81000 0.04100 34.08300
C  26.38900 2.86100 34.30200
C  25.95700 2.98900 35.76600
H  26.98500 2.81200 36.78900
N  24.14200 1.34500 28.74700
C  23.15600 1.41600 29.70500
C  21.90900 1.70000 28.97100
C  22.22900 1.68300 27.55300
C  23.64700 1.31900 27.51300
C  20.66900 1.95000 29.74400
C  21.36000 1.86900 26.31300
O  21.78100 1.99800 25.16800
C  19.92700 2.12000 26.43600
N  26.66300 0.60900 27.19300
C  25.69900 0.60700 26.17800
C  26.36600 0.40100 24.85100
C  27.87700 0.30400 25.20000
C  27.91600 0.28700 26.71400
C  25.78100 -0.84900 24.11900
C  28.72800 1.46600 24.65200
C  29.45400 1.22200 23.27000
N  28.12200 0.54500 29.65900
C  29.16600 0.04300 28.86300
C  30.29000 -0.30700 29.66400
C  29.92400 0.08300 30.97100
C  28.59700 0.57100 30.89300
C  31.38100 -1.17000 29.21800
C  30.43000 0.12300 32.31200
O  31.53500 -0.10900 32.76600
C  29.17400 0.66800 33.17600
C  28.73900 -0.30600 34.23900
O  28.05600 -1.33900 34.05500
O  29.19400 0.17600 35.45800
C  29.07700 -0.70800 36.60600
H  22.43500 1.56900 31.70300
H  23.67900 0.80800 25.59100
H  29.97000 -0.33500 26.89700
H  26.23700 0.71900 34.49800
H  23.79600 2.06600 33.59900
H  23.50000 -0.68500 33.33100
H  23.05300 0.34300 34.80600
H  24.39300 -0.51600 34.81700
H  26.06600 3.64400 33.61600
H  27.45700 2.81400 34.08700
H  25.16200 2.27000 35.96400
H  25.51300 3.96200 35.97600
H  20.40300 3.00100 29.63000
H  20.67400 1.73200 30.81200
H  19.80100 1.39300 29.39100
H  19.63200 2.88900 25.72200
H  19.69300 2.43000 27.45400
H  19.54000 1.11500 26.27000
H  26.26000 1.36200 24.34700
H  28.33100 -0.56200 24.71900
H  26.35600 -1.13200 23.23700
H  24.73100 -0.67800 23.88200
H  25.81400 -1.71100 24.78600
H  29.62500 1.66200 25.24000
H  28.16900 2.39700 24.55900
H  30.42000 1.70600 23.12700
H  28.70000 1.59000 22.57500
H  29.55700 0.15700 23.06400
H  31.71100 -1.76200 30.07200
H  32.22100 -0.74900 28.66700
H  31.01000 -1.87300 28.47200
H  29.45800 1.60500 33.65500
H  30.05200 -0.69400 37.09500
H  28.87800 -1.76000 36.40000
H  28.31500 -0.23300 37.22300
Mg 0.73200 43.12800 26.13800
C  2.87400 43.43600 28.80300
C  -1.89400 42.46500 28.26500
C  -1.11000 42.56700 23.51600
C  3.62500 43.33300 23.98800
N  0.58500 42.97400 28.28700
C  1.58100 43.18300 29.15300
C  1.01600 43.15700 30.59500
C  -0.42200 42.60100 30.48200
C  -0.63300 42.73200 28.93700
C  -0.67400 41.23700 31.15500
C  1.02500 44.54100 31.32700
C  1.24200 44.52100 32.83400
H  0.93700 43.20400 33.67700
N  -1.23300 42.59500 25.90400
C  -2.15400 42.39600 26.89700
C  -3.41400 42.03900 26.32900
C  -3.20000 42.01000 24.88900
C  -1.76600 42.35800 24.73400
C  -4.69500 41.79400 27.08900
C  -4.15400 41.65800 23.78100
O  -3.93100 41.52700 22.58500
C  -5.59200 41.39700 24.10400
N  1.17700 43.10800 24.00500
C  0.19100 42.90800 23.16600
C  0.67900 43.01400 21.71200
C  2.18200 43.39100 21.84300
C  2.36300 43.28600 23.35800
C  0.40000 41.74800 20.88300
C  2.52100 44.74300 21.15800
C  2.26900 45.99000 22.11100
N  2.87700 43.27200 26.37700
C  3.86400 43.34600 25.39600
C  5.13100 43.54800 26.05800
C  4.82300 43.60100 27.43000
C  3.38600 43.45200 27.47800
C  6.41700 43.69600 25.34200
C  5.40000 43.77300 28.74900
O  6.54600 43.93700 29.12900
C  4.12700 43.61200 29.72400
C  4.43900 42.44100 30.55300
O  4.71000 41.34400 30.14600
O  4.46400 42.80000 31.92400
C  4.99400 41.80200 32.80200
H  -2.80300 42.23900 28.82700
H  -1.68100 42.40100 22.60100
H  4.43500 43.45900 23.26600
H  1.58500 42.46600 31.21600
H  -1.08800 43.33900 30.92700
H  -1.40600 41.25400 31.96200
H  0.23800 40.77000 31.53000
H  -1.19000 40.59600 30.44000
H  0.11300 45.05900 31.03100
H  1.86800 45.17800 31.06200
H  0.56900 45.28400 33.22400
H  2.18800 44.95800 33.15400
H  -5.43900 42.53600 26.79900
H  -4.65900 41.82900 28.17800
H  -4.96900 40.75300 26.91700
H  -5.68700 40.63800 24.88100
H  -6.00600 40.88400 23.23500
H  -6.02400 42.38000 24.28700
H  0.13100 43.89600 21.38100
H  2.81400 42.56700 21.51300
H  1.28700 41.38100 20.36600
H  -0.30900 41.89800 20.06900
H  0.11300 40.99900 21.62100
H  1.99500 44.89600 20.21600
H  3.57800 44.63300 20.91700
H  1.70100 46.74300 21.56400
H  3.19100 46.47700 22.42600
H  1.76600 45.85000 23.06800
H  6.39500 43.67800 24.25300
H  7.01500 42.82900 25.62300
H  6.79900 44.65000 25.70600
H  4.10600 44.46300 30.40400
H  4.14500 41.41300 33.36400
H  5.71400 42.21600 33.50800
H  5.42800 40.95100 32.27800

