158

Mg 54.50600 24.32000 45.36400
C  51.98300 26.63900 44.55700
C  52.51800 21.92800 43.89900
C  57.13000 22.41900 45.28600
C  56.50100 27.06800 46.34400
N  52.44400 24.33600 44.50700
C  51.63300 25.33400 44.21600
C  50.26000 24.85200 43.73000
C  50.40600 23.39600 43.98100
C  51.91400 23.18400 44.07800
C  49.70300 22.76700 45.18300
C  50.05900 25.24000 42.20900
C  48.53800 25.28800 42.01000
H  48.09100 24.71600 40.72900
N  54.79900 22.36900 44.76600
C  53.82800 21.52800 44.26900
C  54.42500 20.28900 44.10300
C  55.83000 20.33800 44.37100
C  55.97600 21.73700 44.84100
C  53.59700 19.04600 43.76400
C  56.87000 19.26600 44.28900
O  56.44300 18.18100 43.85200
C  58.31100 19.35100 44.73300
N  56.50400 24.68200 45.70400
C  57.38800 23.68600 45.73400
C  58.82600 24.08500 46.26300
C  58.59700 25.54300 46.69600
C  57.11500 25.79200 46.21900
C  59.26000 23.17800 47.45600
C  59.65000 26.56200 46.11100
C  60.61900 26.90000 47.20400
N  54.27600 26.35700 45.55000
C  55.16500 27.32600 46.04600
C  54.39700 28.57200 46.28100
C  53.15400 28.33000 45.66000
C  53.17900 27.02300 45.14000
C  54.96400 29.76000 46.97500
C  51.85100 28.94800 45.31600
O  51.41100 30.07700 45.57000
C  51.08300 27.87200 44.55100
C  50.85300 28.30900 43.20600
O  51.74500 28.54000 42.40600
O  49.45200 28.36100 42.93200
C  49.01700 28.89000 41.66100
H  51.78500 21.17800 43.59700
H  57.96600 21.73100 45.43400
H  57.03200 27.89100 46.82700
H  49.56800 25.43500 44.33800
H  49.87700 22.77200 43.26100
H  50.39000 22.20400 45.81600
H  48.94800 22.08700 44.78900
H  49.22600 23.53700 45.78900
H  50.69800 24.51500 41.70500
H  50.43700 26.18900 41.82800
H  48.21200 26.31900 42.14500
H  47.98600 24.73700 42.77100
H  52.60700 19.12900 44.21300
H  54.00100 18.11400 44.16000
H  53.62500 19.04500 42.67400
H  58.73200 20.14800 44.12000
H  58.69900 18.35100 44.54200
H  58.33700 19.55300 45.80400
H  59.45500 24.08800 45.37200
H  58.66200 25.57500 47.78400
H  59.68200 23.78100 48.26000
H  60.05200 22.52900 47.08200
H  58.47300 22.48400 47.75200
H  59.05500 27.42300 45.80500
H  60.27400 26.06100 45.37100
H  60.62200 26.23800 48.07000
H  60.29200 27.90700 47.46100
H  61.62500 26.94000 46.78500
H  54.92700 29.50600 48.03500
H  54.30400 30.60500 46.78100
H  56.01000 29.90100 46.70200
H  50.15200 27.77600 45.11100
H  47.97600 28.57800 41.56600
H  49.66700 28.39900 40.93600
H  48.99700 29.97900 41.64300
Mg 47.50800 16.49200 28.87800
C  45.62300 16.03600 31.66700
C  49.62500 18.43000 30.74300
C  49.47000 16.95200 26.12700
C  44.96300 15.23900 26.92600
N  47.55100 17.22100 30.91600
C  46.68400 16.89700 31.87800
C  47.27700 17.25800 33.25900
C  48.34000 18.30600 32.90300
C  48.43700 18.05800 31.41000
C  47.92600 19.75300 33.23500
C  47.93900 15.99100 33.95100
C  48.06400 16.00800 35.54600
H  47.83600 17.32000 36.33500
N  49.35100 17.41300 28.52100
C  50.09500 18.00500 29.48600
C  51.32000 18.48700 28.87800
C  51.38800 17.93900 27.59100
C  50.05600 17.39100 27.33800
C  52.32600 19.34400 29.69300
C  52.52500 17.80300 26.65000
O  52.48700 17.16500 25.58900
C  53.89300 18.30500 27.07600
N  47.19300 16.36600 26.72600
C  48.21100 16.38100 25.84000
C  47.64700 16.03100 24.34800
C  46.26100 15.35200 24.68800
C  46.06900 15.70000 26.18200
C  47.62500 17.22500 23.35300
C  46.10900 13.82900 24.45900
C  45.05700 13.40000 23.43500
N  45.67400 15.72200 29.15100
C  44.77500 15.19700 28.30500
C  43.68200 14.61200 29.01300
C  43.95600 14.88400 30.37200
C  45.22800 15.53300 30.39700
C  42.60900 13.90700 28.33900
C  43.52000 14.67300 31.73200
O  42.45600 14.18700 32.17100
C  44.64800 15.40000 32.63700
C  43.99800 16.35600 33.54300
O  43.26900 17.23700 33.13500
O  44.18600 16.08300 34.84500
C  43.75300 17.14000 35.80700
H  50.21500 19.08200 31.39100
H  50.12100 16.91500 25.25100
H  44.21200 14.71500 26.33100
H  46.42900 17.71300 33.77000
H  49.27900 18.02900 33.38300
H  48.69500 20.09600 33.92700
H  46.98800 19.77500 33.79100
H  47.95300 20.36600 32.33400
H  48.87900 15.68300 33.49300
H  47.25200 15.16200 33.77700
H  49.08600 15.65100 35.66800
H  47.38100 15.24600 35.92200
H  52.63600 20.14300 29.01900
H  53.19400 18.75600 29.99100
H  51.97900 19.82500 30.60800
H  53.95600 19.39300 27.07900
H  54.66400 17.93000 26.40200
H  54.21200 18.13200 28.10400
H  48.34000 15.30400 23.92200
H  45.56100 15.96200 24.11700
H  48.32800 17.05000 22.53900
H  47.86700 18.14400 23.88700
H  46.64000 17.40200 22.92100
H  45.96700 13.29800 25.40000
H  47.05900 13.40400 24.13700
H  45.11100 14.17200 22.66700
H  44.04000 13.26800 23.80300
H  45.31600 12.41100 23.05800
H  42.00200 13.42100 29.10300
H  43.04600 13.13900 27.70100
H  41.96000 14.56600 27.76100
H  44.98700 14.54600 33.22200
H  42.66900 17.23300 35.75400
H  44.09700 18.10100 35.42600
H  44.22500 16.89500 36.75900

