158

Mg 7.88200 3.45100 27.25700
C  9.34300 1.85200 30.02600
C  6.10100 5.45200 29.37300
C  6.68400 5.02600 24.46300
C  9.06000 0.80200 25.18600
N  7.81100 3.65300 29.46300
C  8.63200 3.02500 30.39500
C  8.44700 3.55300 31.89200
C  7.37300 4.73000 31.62100
C  7.09100 4.66900 30.04800
C  6.10000 4.42200 32.44300
C  9.78200 3.89800 32.54000
C  9.74400 4.83400 33.72500
H  10.56600 4.57400 34.96600
N  6.55600 5.03800 26.98300
C  5.98100 5.72300 27.97100
C  5.18300 6.78200 27.39400
C  5.57500 6.82200 25.97000
C  6.29000 5.58400 25.73200
C  4.35600 7.77400 28.12300
C  5.29600 7.85300 24.93000
O  5.76200 7.78500 23.79400
C  4.67400 9.14500 25.35800
N  7.95500 3.07700 25.13800
C  7.36200 3.82700 24.20800
C  7.39500 3.26900 22.81500
C  7.96600 1.89200 23.03800
C  8.39300 1.93100 24.52700
C  5.93900 3.21500 22.15600
C  9.19800 1.48700 22.13300
C  8.97900 0.16700 21.39600
N  8.94400 1.67300 27.51600
C  9.36200 0.74800 26.59000
C  10.15900 -0.19800 27.31300
C  10.19400 0.12800 28.63000
C  9.45100 1.33500 28.71200
C  10.93000 -1.29600 26.70600
C  10.73500 -0.16700 29.91100
O  11.37300 -1.15400 30.30700
C  10.23800 0.99500 30.84700
C  9.55100 0.29300 31.93300
O  8.50600 -0.33700 31.94000
O  10.39800 0.41400 33.02900
C  9.85600 -0.05900 34.28200
H  5.45200 6.07100 29.99600
H  6.19300 5.50200 23.61100
H  9.27200 -0.07500 24.57200
H  8.04800 2.73700 32.49500
H  7.79100 5.67000 31.98300
H  6.08800 3.43800 32.91300
H  5.22500 4.42400 31.79300
H  5.97100 5.27600 33.10800
H  10.40400 4.37300 31.78000
H  10.18100 2.95400 32.91000
H  8.73500 5.10100 34.04100
H  10.07400 5.75200 33.23900
H  4.10200 7.45400 29.13300
H  3.39500 8.00100 27.66100
H  4.85800 8.74000 28.17100
H  3.71700 9.03000 25.86800
H  4.51600 9.64000 24.40000
H  5.42000 9.69600 25.93200
H  7.95500 3.96500 22.19000
H  7.17300 1.14500 22.99100
H  5.70900 2.23300 21.74200
H  5.78800 4.05800 21.48200
H  5.27100 3.39600 22.99700
H  10.13600 1.49400 22.68900
H  9.22300 2.24700 21.35100
H  8.21500 -0.47400 21.83600
H  9.88700 -0.40100 21.59900
H  8.88700 0.38400 20.33200
H  11.85900 -1.43400 27.25900
H  11.19500 -1.19300 25.65300
H  10.31200 -2.18000 26.86300
H  11.12000 1.55400 31.16000
H  9.70900 0.84000 34.88000
H  10.53500 -0.67900 34.86700
H  8.90400 -0.58900 34.29600
Mg 45.71300 4.96800 47.11500
C  43.64100 7.72300 46.66300
C  43.07800 2.90100 46.35200
C  47.98600 2.35000 46.95500
C  48.45800 7.16800 47.34000
N  43.75600 5.30600 46.33700
C  43.09100 6.51800 46.29900
C  41.58800 6.28600 45.80900
C  41.32900 4.79300 46.06600
C  42.81700 4.25400 46.34000
C  40.34400 4.55500 47.20300
C  41.33400 6.74900 44.34200
C  39.84200 7.21200 43.96900
H  39.53800 7.72900 42.57100
N  45.48200 2.90000 46.77500
C  44.31800 2.19700 46.59100
C  44.55500 0.78300 46.38700
C  45.98700 0.59000 46.48200
C  46.62500 1.97000 46.72100
C  43.53400 -0.27000 45.98600
C  46.70800 -0.66700 46.17900
O  46.20700 -1.75100 46.21700
C  48.15200 -0.69300 45.73300
N  47.94000 4.76400 47.24100
C  48.55900 3.56500 47.24200
C  50.07000 3.70100 47.32600
C  50.17600 5.32000 47.33400
C  48.77600 5.79600 47.35400
C  50.65000 2.94800 48.51600
C  50.87500 5.94300 46.10800
C  52.18900 6.73200 46.35200
N  46.01400 7.00700 47.11200
C  47.13200 7.74600 47.31100
C  46.84400 9.15000 47.29100
C  45.40800 9.18800 47.11600
C  45.02600 7.85900 46.97100
C  47.78200 10.32900 47.42000
C  44.24200 10.04900 46.93600
O  44.16100 11.23300 47.10100
C  43.08600 9.19300 46.55000
C  41.99600 9.29800 47.59800
O  41.94400 8.66200 48.66400
O  41.01200 10.18700 47.13700
C  39.90500 10.59900 48.04700
H  42.14400 2.37500 46.14600
H  48.66300 1.50200 46.83700
H  49.20900 7.95100 47.21400
H  41.06200 6.94800 46.49600
H  40.82000 4.25400 45.26800
H  39.62600 5.37600 47.20900
H  40.75500 4.44600 48.20600
H  39.75100 3.69500 46.89100
H  41.63500 5.90700 43.71800
H  41.95900 7.63300 44.21700
H  39.68500 8.10200 44.57800
H  39.10200 6.46100 44.24500
H  43.58600 -1.22500 46.50900
H  43.53300 -0.38400 44.90200
H  42.55500 0.17000 46.17700
H  48.34800 -1.61300 45.18200
H  48.60500 -0.59600 46.72000
H  48.50100 0.17300 45.17100
H  50.62300 3.27700 46.48700
H  50.62700 5.53700 48.30300
H  49.88800 2.51200 49.16100
H  51.41600 3.45000 49.10600
H  51.21100 2.10100 48.12000
H  50.22000 6.70500 45.68500
H  50.99600 5.20700 45.31400
H  52.31700 6.62000 47.42900
H  52.05200 7.80300 46.20200
H  53.02900 6.37700 45.75400
H  47.34100 11.26900 47.08700
H  48.66100 10.24800 46.78100
H  48.16500 10.25700 48.43800
H  42.60800 9.26000 45.57300
H  38.98000 10.11100 47.74100
H  39.72300 11.65900 47.87300
H  40.14300 10.38700 49.08900

