158

Mg 49.81900 46.67600 42.41300
C  46.42800 47.04000 41.83000
C  49.67600 43.45600 41.15200
C  53.18200 46.40200 42.74100
C  50.03500 50.05900 43.13100
N  48.20800 45.41700 41.46800
C  46.90300 45.85100 41.26500
C  46.02600 44.74600 40.58400
C  47.11400 43.56600 40.52100
C  48.41300 44.18500 41.09000
C  46.67900 42.36400 41.28400
C  45.42900 45.19400 39.25400
C  43.95300 45.31600 39.26400
H  43.17800 45.01700 38.02700
N  51.27000 45.14100 42.16400
C  50.97900 43.89000 41.55900
C  52.20100 43.07500 41.50000
C  53.27900 43.87900 42.09000
C  52.61000 45.15200 42.34600
C  52.31400 41.67900 40.84400
C  54.75900 43.51300 42.24700
O  55.10000 42.36300 41.95900
C  55.75200 44.38000 43.00400
N  51.37700 48.06600 42.58400
C  52.67000 47.70000 42.86800
C  53.60100 48.90400 43.20900
C  52.58700 50.13500 43.14300
C  51.25500 49.39800 42.92300
C  54.17700 48.76300 44.64600
C  52.78200 51.05000 41.95200
C  52.41900 52.52400 42.16600
N  48.51000 48.21100 42.48500
C  48.71500 49.54200 42.99100
C  47.47000 50.21800 43.03800
C  46.49300 49.30600 42.69200
C  47.18700 48.13600 42.30000
C  47.27000 51.64100 43.50700
C  45.09200 49.16500 42.36800
O  44.20000 49.95000 42.44700
C  45.05000 47.66200 41.80300
C  44.09900 46.86700 42.68400
O  44.32300 46.21600 43.76700
O  42.88400 46.98700 42.09800
C  41.77600 46.39100 42.76000
H  49.72900 42.42400 40.79900
H  54.25000 46.41200 42.96500
H  50.08800 51.12400 43.36500
H  45.22000 44.55900 41.29400
H  47.33800 43.27300 39.49500
H  47.04300 41.52000 40.69900
H  45.60000 42.25300 41.18000
H  47.01300 42.26900 42.31800
H  45.84100 44.55600 38.47200
H  45.86900 46.18200 39.11700
H  43.75500 46.35600 39.52200
H  43.47000 44.65800 39.98600
H  52.52400 41.00400 41.67300
H  53.15900 41.63900 40.15800
H  51.51300 41.32800 40.19300
H  56.00800 45.23400 42.37600
H  56.65000 43.79200 43.19400
H  55.40400 44.86400 43.91600
H  54.42100 48.99400 42.49800
H  52.52800 50.68800 44.08000
H  54.47100 47.77500 45.00000
H  53.59500 49.30000 45.39600
H  55.15500 49.21800 44.48700
H  52.13000 50.68000 41.16100
H  53.80100 50.93300 41.58200
H  53.24900 53.19300 41.93800
H  52.35200 52.61200 43.25000
H  51.60500 52.85400 41.52000
H  47.71900 52.33200 42.79400
H  47.72900 51.75100 44.49000
H  46.21400 51.80700 43.71800
H  44.68100 47.67000 40.77800
H  40.92300 46.10100 42.14600
H  41.42800 47.13700 43.47500
H  41.99300 45.51800 43.37500
Mg 0.95200 42.74900 26.09400
C  2.20900 42.77300 29.35900
C  -2.07300 41.78900 27.54600
C  -0.14400 41.70300 23.11900
C  4.04600 43.48600 24.86400
N  0.22000 42.43400 28.34700
C  0.87200 42.46800 29.45900
C  -0.02400 42.43600 30.66400
C  -1.47200 42.15100 29.99400
C  -1.08900 42.06400 28.51900
C  -2.08200 40.84300 30.52800
C  0.08700 43.59600 31.69600
C  0.45500 43.15800 33.21600
H  -0.59100 43.72800 34.19800
N  -0.92200 42.05200 25.35300
C  -2.01800 41.73000 26.08300
C  -3.13700 41.26100 25.23100
C  -2.63100 41.30500 23.90400
C  -1.18200 41.69000 24.07200
C  -4.61200 40.99200 25.65400
C  -3.34300 41.11800 22.54300
O  -2.68800 41.23000 21.52500
C  -4.89800 40.90200 22.30900
N  1.80500 42.77400 24.29800
C  1.16500 42.18200 23.19400
C  2.10500 42.04400 22.04800
C  3.33600 42.99800 22.48000
C  3.11800 43.03600 23.98000
C  2.46400 40.59800 21.58100
C  3.46100 44.41400 21.71800
C  4.07500 44.31300 20.32600
N  2.83400 43.09600 26.89300
C  4.00800 43.40800 26.23800
C  5.06500 43.45400 27.21200
C  4.43500 43.23900 28.45200
C  3.08400 43.04200 28.23100
C  6.56000 43.48300 26.93300
C  4.65200 42.99000 29.86600
O  5.67600 42.90900 30.49100
C  3.21400 42.82200 30.54400
C  3.17200 41.59900 31.39900
O  3.03600 40.44300 31.03400
O  3.39800 41.92900 32.78700
C  3.34500 40.74500 33.65200
H  -3.07000 41.58000 27.93900
H  -0.49800 41.36400 22.14300
H  4.94800 43.74400 24.30500
H  0.20600 41.56000 31.27100
H  -2.18600 42.95100 30.18800
H  -3.13900 41.04800 30.70000
H  -1.66700 40.56800 31.49800
H  -1.88700 39.99500 29.87200
H  -0.78900 44.24000 31.77500
H  0.87600 44.26700 31.35800
H  1.38600 43.68200 33.43000
H  0.63600 42.09100 33.34600
H  -4.76400 41.26100 26.70000
H  -5.03800 40.00500 25.47900
H  -5.24600 41.78200 25.25100
H  -5.41000 41.82000 22.59500
H  -5.02400 40.19100 23.12600
H  -5.13100 40.42500 21.35700
H  1.55700 42.40700 21.17900
H  4.21900 42.37200 22.35500
H  2.55700 39.87400 22.39000
H  3.41500 40.63500 21.04900
H  1.72900 40.27600 20.84300
H  3.93300 45.19500 22.31300
H  2.43100 44.75000 21.59400
H  4.42400 43.30700 20.09300
H  4.94800 44.96600 20.33400
H  3.41200 44.65000 19.52900
H  6.80800 44.54400 26.95500
H  6.76400 43.04200 25.95700
H  7.02600 42.96900 27.77400
H  3.16500 43.72100 31.15800
H  2.51300 40.11200 33.34600
H  3.30300 41.15000 34.66400
H  4.25400 40.14400 33.63700

