158

Mg 8.83900 3.72500 27.84500
C  10.00500 1.99600 30.73100
C  6.89900 5.56000 29.83900
C  7.63900 5.15500 25.04300
C  10.56000 1.39700 25.83400
N  8.53800 3.70600 30.08400
C  9.16000 3.08200 30.98500
C  8.66100 3.46200 32.38400
C  7.69000 4.63500 32.14900
C  7.70600 4.62400 30.60300
C  6.25100 4.57700 32.90600
C  9.81000 3.87400 33.37200
C  9.64200 5.10200 34.32400
H  10.29900 5.26900 35.68300
N  7.51400 5.14500 27.46700
C  6.85600 5.85300 28.44200
C  6.09100 6.92900 27.81200
C  6.33000 6.80600 26.42700
C  7.18000 5.65100 26.27600
C  5.18000 7.84400 28.61200
C  5.92400 7.72100 25.36700
O  6.10500 7.49000 24.17000
C  5.17200 8.96000 25.75400
N  9.10200 3.34100 25.78300
C  8.43900 4.07300 24.79600
C  8.83700 3.65300 23.38800
C  9.77900 2.45900 23.63800
C  9.87500 2.39300 25.17100
C  7.62700 3.35700 22.47600
C  11.14300 2.47900 22.89200
C  11.22700 1.28300 21.82300
N  10.02200 2.00900 28.13800
C  10.63300 1.18500 27.23900
C  11.27900 0.13600 27.99100
C  11.05800 0.37800 29.30700
C  10.29300 1.51200 29.40000
C  12.17400 -0.91800 27.30600
C  11.47500 -0.03300 30.70700
O  12.14600 -0.93000 31.12000
C  10.72300 1.05800 31.70100
C  9.87400 0.29900 32.74100
O  8.83300 -0.23500 32.51900
O  10.53100 0.37200 33.98000
C  9.97700 -0.18800 35.26100
H  6.33100 6.24400 30.47200
H  7.42100 5.67300 24.10700
H  11.16300 0.82200 25.12800
H  8.08000 2.61800 32.75800
H  8.07800 5.64900 32.24100
H  5.49600 4.21600 32.20800
H  6.04000 5.59200 33.24100
H  6.26000 3.91200 33.76900
H  10.72700 4.11000 32.83300
H  10.07200 3.01600 33.99100
H  8.61300 5.43900 34.45400
H  10.21500 5.88000 33.82000
H  4.26200 8.14300 28.10500
H  5.71000 8.72900 28.96400
H  4.73800 7.34500 29.47400
H  5.80500 9.57200 26.39600
H  4.16500 8.69600 26.08000
H  5.08500 9.45700 24.78800
H  9.35100 4.39800 22.78100
H  9.26600 1.52500 23.41000
H  7.70300 2.31700 22.15800
H  7.43500 4.01800 21.63100
H  6.80100 3.44900 23.18100
H  11.99500 2.37500 23.56400
H  11.26500 3.38900 22.30400
H  10.29800 0.74100 21.64400
H  12.05900 0.60100 22.00000
H  11.36100 1.70400 20.82600
H  13.19000 -0.52500 27.30600
H  11.76100 -1.22900 26.34600
H  12.05400 -1.79300 27.94400
H  11.57800 1.60000 32.10500
H  9.74500 0.55900 36.02000
H  10.72400 -0.83100 35.72600
H  9.08700 -0.75500 34.98800
Mg 48.04400 16.31300 28.37500
C  46.48200 15.86500 31.48600
C  50.49600 18.12700 29.87300
C  49.41500 16.86700 25.28400
C  45.23600 14.95500 26.81600
N  48.38000 17.05600 30.45300
C  47.67600 16.59100 31.56200
C  48.38400 17.02700 32.83600
C  49.57300 17.91100 32.28200
C  49.44700 17.76000 30.78600
C  49.55500 19.41300 32.82400
C  48.71100 15.81100 33.80700
C  48.47400 16.06500 35.28400
H  48.22400 17.49900 35.80700
N  49.78900 17.22900 27.71400
C  50.66700 17.97300 28.50100
C  51.78400 18.36400 27.74200
C  51.53700 18.00800 26.40800
C  50.22000 17.33300 26.35900
C  53.01000 19.10900 28.28200
C  52.46200 18.10200 25.15200
O  52.14600 17.70100 24.03000
C  53.81400 18.89800 25.27900
N  47.46400 15.79300 26.35100
C  48.19000 16.25800 25.24900
C  47.51200 15.83700 23.90100
C  46.22000 15.05100 24.42000
C  46.31200 15.20900 25.95800
C  47.14100 17.02400 22.91100
C  46.04600 13.60500 23.95400
C  45.70700 13.41400 22.43200
N  46.22300 15.52800 28.96500
C  45.20200 14.89700 28.26200
C  44.14100 14.53600 29.17900
C  44.61700 14.80900 30.42300
C  45.85400 15.47500 30.26800
C  42.87500 14.00500 28.79000
C  44.33100 14.75600 31.84300
O  43.31500 14.36000 32.41300
C  45.46000 15.44600 32.60800
C  44.79000 16.56300 33.36100
O  44.24900 17.52200 32.81900
O  44.53700 16.14900 34.67200
C  43.71100 17.03100 35.45800
H  51.23600 18.78900 30.32900
H  49.78600 17.21700 24.31900
H  44.26200 14.63300 26.43900
H  47.59600 17.64200 33.27100
H  50.53300 17.51600 32.61400
H  48.67900 19.56200 33.45500
H  49.48100 20.01500 31.91800
H  50.47200 19.73900 33.31300
H  49.72300 15.54000 33.50500
H  48.09200 14.96600 33.50600
H  49.36800 15.68300 35.77500
H  47.60600 15.42900 35.46000
H  53.87800 18.46400 28.41700
H  52.74900 19.56300 29.23800
H  53.13500 20.02700 27.70800
H  54.36400 18.57600 26.16300
H  53.60200 19.96100 25.16700
H  54.42400 18.56600 24.43900
H  48.07600 15.07400 23.36400
H  45.33100 15.59400 24.09900
H  46.08400 17.21600 22.72400
H  47.69200 16.74200 22.01500
H  47.62500 17.95300 23.21200
H  45.28100 13.13800 24.57400
H  46.99200 13.09600 24.14200
H  46.17500 12.49400 22.08200
H  46.00100 14.29300 21.85900
H  44.63200 13.24400 22.36700
H  42.30500 13.88700 29.71200
H  42.98200 13.02800 28.31700
H  42.41200 14.69800 28.08800
H  45.78000 14.73300 33.36800
H  44.34700 17.77100 35.94300
H  43.34400 16.51700 36.34700
H  42.90500 17.52700 34.91900

