158

Mg -2.19100 16.90800 26.53500
C  -2.43800 14.61800 28.95900
C  -3.07500 19.44200 28.89500
C  -2.13400 19.24700 24.06300
C  -2.16900 14.36400 24.05800
N  -2.82300 17.03200 28.61000
C  -2.59800 15.92700 29.46300
C  -2.74900 16.33400 30.90400
C  -3.00100 17.87700 30.81800
C  -3.03300 18.15800 29.36100
C  -4.35100 18.30200 31.37900
C  -1.62100 15.93500 31.89900
C  -1.18500 16.95500 32.94800
H  -0.95200 16.32100 34.38600
N  -2.44700 19.02400 26.48600
C  -2.83600 19.85400 27.56100
C  -2.78900 21.22200 27.08100
C  -2.56000 21.15300 25.67100
C  -2.36300 19.76000 25.37800
C  -3.07900 22.44700 28.00600
C  -2.63500 22.25900 24.64600
O  -2.42500 22.12800 23.44800
C  -2.96700 23.63000 25.10000
N  -2.20400 16.87600 24.27200
C  -2.13600 17.97100 23.49100
C  -1.99300 17.60700 22.01100
C  -1.82000 15.98200 22.06700
C  -2.08000 15.69000 23.60400
C  -3.12700 18.14300 21.16700
C  -0.54500 15.33300 21.49000
C  0.70800 15.41300 22.41400
N  -2.28500 14.89600 26.40600
C  -2.27500 13.97200 25.42200
C  -2.15700 12.62700 25.96500
C  -2.24800 12.86300 27.31900
C  -2.29400 14.26400 27.54500
C  -2.20300 11.34900 25.27600
C  -2.26100 12.19000 28.56800
O  -2.34400 11.00800 28.80500
C  -2.46300 13.27400 29.67000
C  -1.38400 13.12500 30.66800
O  -0.22800 13.39500 30.44800
O  -1.89200 12.55600 31.84200
C  -0.77900 11.92200 32.58300
H  -3.28100 20.28400 29.55900
H  -2.04800 19.91700 23.20600
H  -2.24400 13.54000 23.34500
H  -3.58600 15.70900 31.21400
H  -2.24300 18.48100 31.31700
H  -4.13700 19.00700 32.18300
H  -4.89600 17.52800 31.91900
H  -5.03100 18.85500 30.73100
H  -0.75000 15.54200 31.37300
H  -1.96500 15.05200 32.43700
H  -1.84000 17.81400 33.09700
H  -0.23100 17.36600 32.61800
H  -2.30500 23.20200 27.87700
H  -3.16900 22.26700 29.07800
H  -4.04500 22.82200 27.66900
H  -3.88800 23.67700 25.68000
H  -3.13800 24.18300 24.17600
H  -2.26200 24.13400 25.76100
H  -0.99600 17.83700 21.63400
H  -2.71400 15.55900 21.61000
H  -2.66500 18.67900 20.33700
H  -3.66900 18.80400 21.84300
H  -3.79100 17.39500 20.73500
H  -0.31500 15.86200 20.56600
H  -0.77600 14.29800 21.23800
H  0.52700 15.56000 23.47900
H  1.27600 16.26500 22.03900
H  1.49600 14.66200 22.36100
H  -1.95300 11.41600 24.21700
H  -3.19800 10.97300 25.51600
H  -1.48500 10.64400 25.69500
H  -3.35400 13.18300 30.29100
H  -0.35800 11.17700 31.90900
H  -1.25800 11.47800 33.45600
H  -0.14800 12.73900 32.93300
Mg 29.88300 58.37800 39.99100
C  26.93500 56.52500 39.36600
C  31.65800 55.51200 39.07000
C  32.80200 60.19900 40.31600
C  28.04100 61.29800 40.36700
N  29.31400 56.28000 39.33300
C  28.06300 55.81600 39.05000
C  28.07500 54.33500 38.61700
C  29.61300 53.91400 38.61300
C  30.24500 55.30500 38.99600
C  30.01900 52.69000 39.43500
C  27.31400 54.16400 37.21800
C  27.38500 55.36500 36.10900
H  27.40400 54.97900 34.64400
N  31.96200 57.90900 39.82000
C  32.44400 56.65800 39.47900
C  33.87100 56.71500 39.55100
C  34.24100 58.07100 39.80400
C  32.99200 58.83500 40.04500
C  34.78500 55.50300 39.36100
C  35.62100 58.67700 39.85700
O  36.57700 57.90900 39.71100
C  35.89800 60.15800 40.19100
N  30.35000 60.51700 40.36300
C  31.61700 60.98100 40.51800
C  31.59000 62.51300 40.58300
C  30.11500 62.83500 40.82300
C  29.43900 61.46600 40.49300
C  32.55800 63.16300 41.65800
C  29.54600 63.96100 39.95800
C  28.69500 64.81800 40.80800
N  27.89200 58.88200 40.00600
C  27.27400 60.08000 40.23000
C  25.85400 59.80000 40.28900
C  25.64400 58.44900 39.87300
C  26.93000 57.89500 39.78900
C  24.80400 60.83600 40.55300
C  24.65100 57.40300 39.61700
O  23.44300 57.38000 39.66300
C  25.46400 56.14200 39.22000
C  25.10800 55.09900 40.16700
O  25.65300 54.97800 41.28700
O  24.09700 54.29100 39.78400
C  23.40000 53.55100 40.87900
H  32.08000 54.67200 38.51500
H  33.64100 60.89700 40.33900
H  27.47100 62.23000 40.40300
H  27.57300 53.73500 39.37500
H  29.99200 53.75300 37.60300
H  30.84900 52.87000 40.11800
H  30.40800 51.93000 38.75800
H  29.12800 52.34400 39.96000
H  26.28400 53.98500 37.52800
H  27.61200 53.21400 36.77500
H  28.30200 55.92700 36.28500
H  26.62000 56.13400 36.21600
H  35.28100 55.53100 38.39100
H  34.14600 54.62400 39.26600
H  35.46000 55.43700 40.21400
H  35.51300 60.87000 39.46200
H  36.98800 60.19700 40.19700
H  35.51700 60.42100 41.17700
H  31.93100 62.93900 39.64000
H  29.87100 63.08900 41.85400
H  32.06400 63.71800 42.45500
H  33.23000 63.82500 41.11100
H  33.27800 62.50400 42.14300
H  29.00200 63.53600 39.11500
H  30.28700 64.64100 39.53700
H  28.46100 64.37800 41.77700
H  27.66800 64.84400 40.44400
H  29.08500 65.83100 40.90700
H  24.34800 61.29700 39.67600
H  25.20100 61.59400 41.22800
H  23.94200 60.36500 41.02500
H  25.30800 55.82900 38.18800
H  24.08400 52.82900 41.32400
H  22.48400 53.13500 40.46000
H  23.16800 54.31600 41.62000

