158

Mg 35.74300 49.32100 25.00200
C  36.01100 47.88800 28.23900
C  34.77700 52.22100 26.49500
C  35.66400 50.57900 21.96000
C  36.58800 46.13900 23.68000
N  35.52100 49.93900 27.18000
C  35.64600 49.21100 28.29900
C  35.40600 50.06600 29.58500
C  34.84200 51.38200 28.98100
C  35.03700 51.16800 27.44800
C  33.46700 51.85200 29.51300
C  36.65600 50.17600 30.52200
C  36.49300 49.74100 32.01500
H  35.16100 50.08400 32.66300
N  35.30500 51.14300 24.31200
C  34.85400 52.21700 25.06400
C  34.54600 53.32500 24.19000
C  34.88600 52.87700 22.84400
C  35.36400 51.46100 23.01200
C  34.00500 54.59400 24.61700
C  34.78000 53.64300 21.44500
O  35.20800 53.19400 20.36700
C  34.24600 55.03700 21.47600
N  35.80800 48.46700 23.06100
C  35.91500 49.20300 21.97200
C  36.27000 48.42400 20.63900
C  36.74000 47.03100 21.28300
C  36.25000 47.19300 22.76400
C  34.97500 48.24100 19.75900
C  38.27100 46.72000 21.08600
C  38.63700 45.28500 20.56000
N  36.23500 47.41000 25.72600
C  36.53000 46.24300 25.10000
C  36.64100 45.17800 26.04700
C  36.47200 45.79700 27.25700
C  36.22500 47.11200 27.04700
C  37.02000 43.73300 25.73400
C  36.49300 45.55500 28.68300
O  36.81100 44.60800 29.31700
C  36.06000 46.84100 29.33700
C  34.84000 46.85000 30.14300
O  33.75300 47.25900 29.81300
O  35.02700 46.11600 31.29900
C  33.93000 46.05700 32.23500
H  34.53500 53.15600 27.00500
H  35.73000 51.08700 20.99600
H  37.01400 45.23100 23.25000
H  34.52000 49.64700 30.06100
H  35.53000 52.13600 29.36600
H  32.83300 51.01800 29.81400
H  33.08800 52.41000 28.65700
H  33.72500 52.44400 30.39200
H  36.95500 51.22000 30.61700
H  37.51000 49.61200 30.14800
H  37.35000 50.01300 32.63000
H  36.74200 48.68000 32.03600
H  34.76900 55.33700 24.39100
H  33.80400 54.66800 25.68500
H  33.06500 54.86200 24.13400
H  33.33600 55.04900 22.07600
H  34.08400 55.44300 20.47700
H  35.04400 55.70700 21.79300
H  37.08000 48.99000 20.18000
H  36.16600 46.13200 21.05700
H  34.10800 48.26200 20.41900
H  35.11600 47.26500 19.29600
H  34.91500 49.08900 19.07600
H  38.77700 46.75500 22.05100
H  38.67000 47.43500 20.36600
H  37.74700 44.66300 20.46000
H  39.35500 44.77000 21.19800
H  39.20700 45.26700 19.63100
H  37.78000 43.67100 24.95500
H  36.19100 43.11100 25.39700
H  37.49800 43.19900 26.55500
H  36.88400 47.10000 30.00200
H  33.08200 45.66200 31.67500
H  33.66400 47.02900 32.65100
H  34.03200 45.42800 33.12000
Mg -1.78300 34.51900 26.27500
C  -3.14600 32.56100 28.92700
C  -0.65700 36.73400 28.45100
C  -0.88600 36.19100 23.56100
C  -3.41800 32.07700 24.07700
N  -2.00500 34.59300 28.43500
C  -2.43800 33.71300 29.27900
C  -2.10500 34.24900 30.73100
C  -1.45500 35.60100 30.59000
C  -1.39500 35.70200 29.08400
C  -2.03800 36.80100 31.35900
C  -1.30300 33.10400 31.46800
C  -1.90400 32.50500 32.74500
H  -1.03500 32.43700 34.05200
N  -0.84100 36.20000 26.02800
C  -0.35300 36.95700 27.06000
C  0.49000 37.99200 26.54800
C  0.37900 37.89700 25.12900
C  -0.44300 36.67200 24.80400
C  1.25800 38.96500 27.52700
C  0.98400 38.75200 24.06000
O  0.70800 38.56700 22.86500
C  1.93600 39.83000 24.42900
N  -2.36000 34.23000 24.08300
C  -1.67600 35.05000 23.21600
C  -1.78400 34.60300 21.78600
C  -2.32300 33.08400 22.06700
C  -2.64000 33.09900 23.51600
C  -2.83600 35.35000 20.94200
C  -1.41100 31.86400 21.63100
C  -0.04900 31.87300 22.36200
N  -3.17000 32.75600 26.42500
C  -3.67300 31.84900 25.46100
C  -4.38800 30.77000 26.10400
C  -4.27200 31.04700 27.49100
C  -3.51600 32.23500 27.61700
C  -4.80900 29.53700 25.42600
C  -4.59200 30.49300 28.82100
O  -5.14200 29.46100 29.18300
C  -3.86600 31.52100 29.79400
C  -4.85700 32.13900 30.78300
O  -5.54800 33.07800 30.48100
O  -4.88300 31.50800 31.99800
C  -5.90200 31.98400 32.85500
H  -0.40700 37.52900 29.15600
H  -0.51600 36.69000 22.66300
H  -3.74300 31.38900 23.29400
H  -3.09800 34.36600 31.16500
H  -0.40500 35.60300 30.88200
H  -2.56300 37.45000 30.65700
H  -1.32300 37.39600 31.92800
H  -2.79300 36.54100 32.10100
H  -0.40200 33.51100 31.92800
H  -1.03600 32.33600 30.74100
H  -1.92400 31.43500 32.53400
H  -2.87900 32.96200 32.90900
H  0.92000 39.99600 27.42400
H  2.29700 38.80000 27.24200
H  1.30100 38.70100 28.58400
H  2.33400 40.40200 23.59000
H  2.72800 39.36300 25.01500
H  1.41700 40.50700 25.10700
H  -0.81800 34.62600 21.28000
H  -3.29300 32.88300 21.61200
H  -3.25900 36.16800 21.52500
H  -3.59500 34.68800 20.52400
H  -2.30100 35.70400 20.06100
H  -1.29600 31.94400 20.55000
H  -1.97400 30.95800 21.86000
H  -0.00100 32.66200 23.11300
H  0.78800 32.02100 21.68000
H  0.23000 30.94800 22.86700
H  -4.17400 29.37400 24.55600
H  -5.86400 29.60700 25.16300
H  -4.67600 28.66300 26.06500
H  -3.19300 31.01900 30.48800
H  -5.46400 32.61200 33.63100
H  -6.33900 31.06900 33.25600
H  -6.75600 32.48300 32.39700

