158

Mg 0.95600 42.10700 26.11400
C  2.25700 42.11600 29.32800
C  -2.09400 41.01900 27.36000
C  -0.12300 41.72700 22.93600
C  4.08200 43.06100 24.92300
N  0.15500 41.52200 28.14400
C  0.85100 41.76900 29.31300
C  -0.09700 41.50800 30.52700
C  -1.46000 41.04500 29.80100
C  -1.14000 41.27600 28.36800
C  -2.05500 39.59700 30.13400
C  -0.41900 42.78900 31.38900
C  -0.29100 42.61000 32.90700
H  -0.42400 41.10700 33.40600
N  -0.82700 41.37800 25.29600
C  -2.00700 41.09300 25.95600
C  -3.04700 40.74200 24.94900
C  -2.50900 41.02500 23.70000
C  -1.06100 41.34500 23.93600
C  -4.36100 40.27900 25.54200
C  -3.20200 40.90200 22.34000
O  -2.68200 41.35600 21.34300
C  -4.69200 40.47800 22.16400
N  1.92000 42.24900 24.19900
C  1.13700 42.23600 23.04800
C  1.97800 42.67100 21.81200
C  3.29000 43.18600 22.51200
C  3.11100 42.76800 23.93500
C  2.16100 41.53600 20.74300
C  3.35800 44.73500 22.35300
C  3.21500 45.35000 20.93400
N  2.72400 42.56400 26.91400
C  3.92700 42.87700 26.27000
C  4.95200 43.12400 27.27200
C  4.32500 42.72400 28.52800
C  2.98700 42.48000 28.19900
C  6.41700 43.36600 26.98500
C  4.49400 42.59500 29.94000
O  5.51600 42.68000 30.56800
C  3.17600 42.26700 30.56500
C  3.39800 41.00400 31.31700
O  3.36400 39.87800 30.88500
O  3.55300 41.38400 32.61100
C  3.76900 40.27600 33.61600
H  -3.03400 40.75400 27.85000
H  -0.53600 41.68000 21.92600
H  5.01700 43.42200 24.48900
H  0.23700 40.66700 31.13300
H  -2.36400 41.55900 30.12700
H  -2.98400 39.64800 30.70200
H  -1.31900 38.99800 30.67000
H  -2.32300 39.09000 29.20700
H  -1.31300 43.21800 30.93600
H  0.33200 43.49900 31.04300
H  -1.15100 43.14900 33.30300
H  0.69400 42.99800 33.16800
H  -4.54300 40.72700 26.51800
H  -4.40600 39.19200 25.61800
H  -5.12400 40.63800 24.85100
H  -4.84100 39.54500 22.70800
H  -5.09000 40.38500 21.15300
H  -5.35100 41.13800 22.72800
H  1.41700 43.52500 21.43300
H  4.09200 42.80600 21.88000
H  1.42300 40.77200 20.98700
H  3.13400 41.11900 21.00300
H  1.99100 41.99700 19.76900
H  4.29000 45.12000 22.76800
H  2.50300 45.10800 22.91700
H  2.33500 45.98600 20.83600
H  3.17700 44.49600 20.25800
H  3.99200 46.07100 20.67900
H  7.15100 43.01300 27.70900
H  6.49400 44.44500 26.85100
H  6.62400 42.83800 26.05400
H  2.98400 43.07800 31.26700
H  4.32100 40.72300 34.44200
H  4.40900 39.53900 33.13200
H  2.80300 39.90500 33.95800
Mg -13.20400 16.09100 42.74500
C  -10.36400 14.20100 41.94700
C  -11.85200 18.65100 40.77600
C  -16.23200 17.61400 42.47900
C  -14.81300 13.04800 43.51800
N  -11.34000 16.36500 41.38000
C  -10.33100 15.46000 41.32300
C  -9.13100 16.04900 40.46200
C  -9.58300 17.55400 40.21200
C  -10.99700 17.53800 40.81800
C  -8.62200 18.60100 40.83300
C  -8.70300 15.30100 39.18600
C  -7.23000 15.03500 38.95200
H  -6.45100 15.85000 37.87800
N  -13.87600 17.96600 41.93600
C  -13.13000 18.87900 41.31200
C  -13.87400 20.12500 41.25100
C  -15.15100 19.83300 41.80500
C  -15.18000 18.41000 42.02500
C  -13.22600 21.39400 40.74300
C  -16.20600 20.82100 42.14200
O  -16.18700 22.02600 41.68900
C  -17.41200 20.56400 42.88900
N  -15.22900 15.38300 42.97300
C  -16.26300 16.31400 43.00100
C  -17.62700 15.59700 43.40100
C  -17.16100 14.19200 43.74400
C  -15.64300 14.15600 43.41600
C  -18.63000 16.35800 44.28300
C  -17.98000 12.96000 43.12300
C  -19.47800 13.09700 42.75800
N  -12.61900 14.07000 42.94800
C  -13.40200 12.95100 43.31900
C  -12.48900 11.84400 43.47300
C  -11.26100 12.29800 43.08400
C  -11.45800 13.59700 42.54900
C  -12.90900 10.44000 43.75100
C  -9.85800 11.96700 42.87300
O  -9.17400 10.97200 43.08300
C  -9.21600 13.22000 42.09700
C  -8.03000 13.75900 42.82700
O  -8.04200 14.54200 43.72500
O  -6.87400 13.17200 42.34900
C  -5.63800 13.70600 43.01300
H  -11.27900 19.46900 40.33400
H  -17.23200 18.05000 42.43900
H  -15.22300 12.12700 43.93700
H  -8.31400 15.92700 41.17300
H  -9.70400 17.84200 39.16800
H  -9.02400 19.02500 41.75300
H  -8.62700 19.39200 40.08300
H  -7.62700 18.18900 40.99900
H  -8.97200 15.96600 38.36600
H  -9.27900 14.37800 39.13000
H  -7.15200 13.97500 38.70900
H  -6.76400 15.20800 39.92200
H  -13.50700 21.55300 39.70200
H  -12.14000 21.32900 40.80900
H  -13.48000 22.20500 41.42600
H  -17.86300 21.43500 43.36500
H  -17.33500 19.84200 43.70100
H  -18.14000 20.21700 42.15500
H  -18.07900 15.54500 42.41000
H  -17.16900 14.15700 44.83300
H  -18.97000 15.76500 45.13100
H  -19.52100 16.50100 43.67200
H  -18.27600 17.32200 44.64900
H  -18.03900 12.15600 43.85600
H  -17.45400 12.61500 42.23300
H  -20.03700 12.20900 43.05500
H  -19.64600 13.31600 41.70300
H  -19.83200 13.97300 43.30200
H  -13.43100 10.40000 44.70700
H  -12.14000 9.68500 43.91400
H  -13.52400 10.09200 42.92200
H  -8.80800 12.97200 41.11700
H  -4.94700 14.13600 42.28800
H  -5.23100 12.90900 43.63500
H  -5.80300 14.60600 43.60500

