158

Mg 24.61400 2.20500 29.67200
C  26.86100 2.01100 32.33700
C  22.03500 2.62400 32.02200
C  22.41400 2.37100 27.14700
C  27.12200 1.21800 27.59500
N  24.51700 2.24000 31.92900
C  25.54800 2.19300 32.85000
C  25.11700 2.46700 34.31700
C  23.48100 2.60200 34.10300
C  23.27700 2.49100 32.59400
C  22.61100 1.60300 35.02100
C  25.86200 3.58600 35.06400
C  25.19000 4.53800 36.21300
H  25.76800 4.57300 37.57800
N  22.48900 2.44500 29.60500
C  21.63100 2.49600 30.66700
C  20.26700 2.50900 30.18800
C  20.27200 2.46700 28.75600
C  21.73600 2.33800 28.43700
C  19.10100 2.42200 31.16400
C  19.17800 2.44100 27.75800
O  19.31700 2.48400 26.54300
C  17.84300 2.30900 28.28600
N  24.75000 1.86000 27.67600
C  23.73800 2.15700 26.83000
C  24.23100 2.06300 25.42800
C  25.71800 1.69200 25.51700
C  25.91700 1.60100 27.05100
C  23.47600 1.07900 24.48400
C  26.69800 2.79300 24.81900
C  26.51400 4.27500 25.24700
N  26.62700 1.76700 29.80000
C  27.53900 1.34100 28.95300
C  28.88400 1.05400 29.60600
C  28.60600 1.33800 30.92000
C  27.23800 1.72700 31.00900
C  30.13100 0.74500 28.97000
C  29.19300 1.31300 32.20900
O  30.25500 0.96300 32.64300
C  28.10500 1.80400 33.24100
C  28.04100 0.76400 34.21900
O  27.53300 -0.33200 34.15000
O  28.61200 1.24200 35.37700
C  28.86800 0.17900 36.33800
H  21.21600 2.90700 32.68600
H  21.68400 2.59600 26.36600
H  27.86700 0.80100 26.91400
H  25.32900 1.52700 34.82700
H  23.07400 3.57400 34.38000
H  21.69500 2.12500 35.29500
H  23.17700 1.26900 35.89000
H  22.27300 0.71300 34.48900
H  26.36200 4.25200 34.36100
H  26.69300 3.05900 35.53200
H  24.17000 4.17400 36.33500
H  25.02300 5.55400 35.85500
H  18.57000 3.35000 30.95100
H  19.42600 2.54500 32.19700
H  18.45700 1.54300 31.19100
H  17.71500 1.27300 28.60000
H  17.09900 2.38700 27.49400
H  17.61200 3.14000 28.95300
H  23.96900 2.97600 24.89500
H  26.01600 0.72300 25.11700
H  22.66000 0.60300 25.02800
H  24.10100 0.27500 24.09500
H  23.05600 1.65600 23.66000
H  26.83900 2.56000 23.76400
H  27.69200 2.58100 25.21300
H  27.28400 4.56200 25.96300
H  25.52400 4.44600 25.67000
H  26.60400 4.90000 24.35800
H  30.88900 1.35800 29.45800
H  29.91600 0.91900 27.91600
H  30.33300 -0.32700 28.97200
H  28.44800 2.76000 33.63500
H  29.40900 -0.65800 35.89700
H  28.01100 -0.17900 36.90900
H  29.63700 0.57700 37.00000
Mg 34.88300 2.39000 29.22200
C  32.70600 3.93900 31.46100
C  37.22800 2.06500 31.72300
C  36.98600 1.28000 26.96500
C  32.49700 3.09900 26.64800
N  35.01500 3.04400 31.31000
C  33.94200 3.57900 32.07200
C  34.30800 3.37400 33.58200
C  35.88300 3.20400 33.53500
C  36.12600 2.70500 32.10000
C  36.87300 4.39700 33.91200
C  33.45000 2.26900 34.30000
C  32.78900 2.84500 35.57700
H  33.45500 4.02800 36.33000
N  36.83200 1.64800 29.38000
C  37.61400 1.64300 30.43000
C  38.82400 0.92400 30.11000
C  38.71100 0.58300 28.73200
C  37.44400 1.16600 28.26200
C  40.08900 0.79500 31.07100
C  39.72500 -0.19500 27.80500
O  39.51100 -0.52900 26.61300
C  41.10700 -0.72800 28.43600
N  34.72300 2.29100 27.14200
C  35.75300 1.77000 26.46400
C  35.43800 1.68700 24.94700
C  33.90800 1.98800 24.93200
C  33.69500 2.58300 26.30900
C  36.26200 2.61200 24.11100
C  32.95600 0.78400 24.55900
C  32.56700 -0.25400 25.63400
N  32.98800 3.40300 29.02300
C  32.09800 3.53600 27.93600
C  30.79500 3.99400 28.43200
C  30.95800 4.15800 29.81700
C  32.31700 3.80000 30.10500
C  29.60800 4.30800 27.54100
C  30.34300 4.62800 31.01800
O  29.25000 5.03700 31.17900
C  31.42900 4.43100 32.14000
C  31.53300 5.77500 32.78500
O  31.96200 6.76200 32.22800
O  31.06400 5.77200 34.02700
C  31.17000 7.07100 34.73100
H  38.04300 1.94600 32.43900
H  37.65600 0.95300 26.16700
H  31.80000 3.22500 25.81700
H  34.15300 4.40300 33.90400
H  36.21300 2.41200 34.20700
H  37.59000 4.68500 33.14300
H  37.45600 4.10300 34.78400
H  36.38400 5.35700 34.07800
H  33.96900 1.36000 34.60200
H  32.63800 2.02400 33.61500
H  32.78100 2.03700 36.30800
H  31.76100 3.08000 35.30100
H  39.90100 1.25200 32.04200
H  41.00700 1.20700 30.65300
H  40.23000 -0.27300 31.24100
H  40.94100 -1.05600 29.46200
H  41.88300 0.03700 28.40200
H  41.51600 -1.58600 27.90300
H  35.57900 0.63100 24.71500
H  33.79100 2.83300 24.25300
H  36.93300 3.22600 24.71100
H  35.65800 3.33000 23.55600
H  36.88900 1.99300 23.47000
H  33.33400 0.22100 23.70600
H  32.03300 1.18600 24.14000
H  31.51300 -0.04500 25.81600
H  33.12900 -0.22800 26.56800
H  32.76700 -1.23700 25.20800
H  29.87300 4.34800 26.48500
H  29.10300 5.25600 27.72800
H  29.02000 3.41200 27.74000
H  31.02200 3.73800 32.87700
H  30.44900 7.73200 34.25000
H  32.19200 7.43800 34.63800
H  30.93700 6.79300 35.75900

