158

Mg 51.09600 47.04100 42.06700
C  47.86400 48.23400 41.16700
C  50.17000 44.07500 40.73900
C  54.22600 46.13700 42.67600
C  51.84500 50.17600 43.40400
N  49.19800 46.29500 41.08800
C  48.05300 46.94600 40.77100
C  47.09500 46.10100 39.94600
C  47.80500 44.70600 39.97800
C  49.14400 45.05900 40.64800
C  47.05100 43.64600 40.86100
C  46.85500 46.75700 38.52900
C  45.33900 46.85600 38.41000
H  44.69500 46.15100 37.09500
N  52.08500 45.33800 41.72100
C  51.48400 44.19700 41.15200
C  52.51000 43.14500 41.08500
C  53.72400 43.72200 41.61500
C  53.38800 45.09700 42.08800
C  52.30200 41.75400 40.53600
C  55.05500 42.98900 41.72900
O  55.12300 41.84800 41.25100
C  56.20500 43.61700 42.44800
N  52.84900 48.09900 42.84300
C  54.02500 47.49000 42.96100
C  55.05100 48.37800 43.58400
C  54.29300 49.71500 43.77700
C  52.91600 49.33300 43.28500
C  55.76000 47.75000 44.84400
C  54.90400 50.88100 42.93800
C  54.41300 52.35200 43.36600
N  50.12500 48.88100 42.28600
C  50.52100 50.05300 42.88700
C  49.48800 51.06300 42.90000
C  48.41200 50.32100 42.22800
C  48.87000 49.05700 41.85600
C  49.42700 52.45600 43.42200
C  47.05000 50.49500 41.66100
O  46.27700 51.42800 41.69400
C  46.63400 49.12600 40.97900
C  45.47200 48.70900 41.76000
O  45.41900 48.18500 42.85800
O  44.37500 48.92700 40.99600
C  43.10500 48.39400 41.53000
H  49.71800 43.14100 40.39700
H  55.26900 45.90900 42.90600
H  52.02600 51.21600 43.68600
H  46.25500 45.98200 40.63000
H  47.95000 44.35400 38.95600
H  46.71100 42.84400 40.20600
H  46.14900 43.98700 41.37100
H  47.77800 43.28000 41.58600
H  47.31900 46.10400 37.78900
H  47.40900 47.68700 38.39800
H  45.06900 47.90400 38.27700
H  44.78900 46.50500 39.28300
H  53.13200 41.34400 39.96100
H  51.38800 41.82500 39.94600
H  52.15300 41.02400 41.33200
H  57.06200 42.96400 42.60900
H  55.87600 43.77900 43.47400
H  56.53200 44.51700 41.92700
H  55.72600 48.62700 42.76500
H  54.34000 50.01800 44.82300
H  55.47600 46.72400 45.08000
H  55.60400 48.42400 45.68600
H  56.83200 47.72000 44.64600
H  54.53800 50.65600 41.93600
H  55.96900 50.78100 42.72900
H  55.24800 52.98400 43.66600
H  53.78800 52.40600 44.25800
H  53.72500 52.69500 42.59400
H  49.47300 53.09000 42.53600
H  50.34800 52.51700 44.00000
H  48.51700 52.70000 43.97000
H  46.53200 49.25500 39.90100
H  43.06000 48.37900 42.61900
H  42.92200 47.36500 41.22000
H  42.29700 49.01700 41.14600
Mg 10.02800 48.35700 26.31100
C  8.05400 47.89100 29.25700
C  12.69000 49.20100 28.44300
C  11.84900 48.75800 23.61800
C  7.14700 47.93000 24.49600
N  10.34000 48.35600 28.56500
C  9.40700 48.20500 29.62900
C  9.99300 48.52700 30.99800
C  11.46600 48.91300 30.68400
C  11.50100 48.87200 29.10700
C  11.92900 50.20300 31.30800
C  9.85800 47.39000 32.03800
C  11.02000 47.17000 33.04900
H  10.62200 46.67000 34.49300
N  11.98000 48.91600 26.08600
C  12.92800 49.06200 27.04000
C  14.23300 49.36600 26.39100
C  14.03100 49.33500 25.01400
C  12.56800 48.96400 24.83800
C  15.55400 49.73200 27.04200
C  14.95100 49.68600 23.85600
O  14.62700 49.67200 22.66200
C  16.40700 49.98900 24.12300
N  9.51900 48.49500 24.29400
C  10.49000 48.44900 23.34200
C  10.00200 48.15400 21.90400
C  8.48100 47.75000 22.32200
C  8.32300 48.23100 23.79100
C  10.09400 49.37800 20.87800
C  8.14600 46.22300 22.05200
C  8.71100 45.20600 23.03600
N  8.01700 47.96400 26.78400
C  6.95000 47.81400 25.86700
C  5.73600 47.51500 26.57600
C  6.09300 47.42400 27.96400
C  7.44800 47.81500 28.00400
C  4.37000 47.40400 25.90300
C  5.62400 47.20400 29.33100
O  4.57200 46.87800 29.73500
C  6.90000 47.42700 30.20200
C  7.28800 46.06800 30.74700
O  7.85100 45.16100 30.11900
O  6.85800 46.09400 32.02000
C  7.27700 44.93400 32.81900
H  13.57400 49.38200 29.05700
H  12.48400 48.87400 22.73700
H  6.23000 47.70700 23.94700
H  9.47100 49.36100 31.46800
H  12.14500 48.10700 30.96200
H  11.14400 50.65500 31.91400
H  12.26200 50.97400 30.61200
H  12.78700 50.01000 31.95200
H  9.79700 46.43300 31.52000
H  8.94300 47.55300 32.60700
H  11.64300 48.05900 33.14700
H  11.69100 46.39400 32.68100
H  16.39300 49.06500 26.84300
H  15.40000 49.74800 28.12000
H  15.72000 50.76700 26.74300
H  16.84900 49.14400 24.65100
H  16.47600 50.86900 24.76300
H  17.00300 50.11900 23.22000
H  10.55400 47.32400 21.46400
H  7.87900 48.36500 21.65400
H  10.48400 49.08200 19.90400
H  10.86600 50.05200 21.25000
H  9.16400 49.90100 20.65600
H  8.58600 45.89400 21.11100
H  7.07300 46.04600 21.98200
H  9.20800 45.54700 23.94400
H  9.43600 44.51500 22.60700
H  7.87700 44.54400 23.27200
H  4.27000 48.22300 25.19100
H  3.74000 47.51700 26.78500
H  4.21800 46.42300 25.45100
H  6.67300 48.18600 30.95100
H  7.72700 45.32200 33.73300
H  7.99300 44.19200 32.46600
H  6.43300 44.31600 33.12600

