158

Mg 35.60300 49.06500 25.28400
C  35.96000 47.08500 28.01500
C  34.29600 51.63000 27.02700
C  34.98400 50.82600 22.28100
C  36.94000 46.52500 23.28600
N  35.01400 49.30800 27.25100
C  35.31000 48.35200 28.26800
C  35.17600 49.07600 29.65300
C  34.48300 50.46500 29.34800
C  34.65700 50.53400 27.81400
C  33.07400 50.65900 29.81000
C  36.59700 49.29500 30.32600
C  36.59800 48.71600 31.76700
H  35.21400 48.53900 32.39000
N  34.81700 50.97100 24.74400
C  34.35000 51.84500 25.63900
C  33.98000 53.09500 25.02100
C  34.03400 52.81400 23.58400
C  34.54900 51.48500 23.46100
C  33.66300 54.35800 25.84400
C  33.64600 53.75200 22.45200
O  33.87500 53.45800 21.31200
C  32.99400 55.06200 22.62900
N  36.06900 48.75500 23.06000
C  35.66400 49.55300 22.14200
C  36.01100 48.91500 20.73000
C  36.82600 47.63400 21.03800
C  36.51500 47.59200 22.57100
C  34.76300 48.77600 19.88100
C  38.34900 47.85100 20.82400
C  39.12600 46.62600 20.33900
N  36.27600 47.16400 25.49400
C  36.76400 46.27800 24.63600
C  37.16800 45.10100 25.34500
C  36.80500 45.29800 26.65800
C  36.34000 46.60700 26.75000
C  37.76200 43.89800 24.68400
C  36.72100 44.66500 27.95300
O  36.98800 43.54800 28.36800
C  36.24200 45.84700 28.92200
C  35.07100 45.40100 29.66400
O  33.90900 45.39500 29.30400
O  35.51800 45.01500 30.89500
C  34.58700 44.18600 31.62800
H  33.98800 52.51800 27.58200
H  34.79800 51.31600 21.32300
H  37.30700 45.73100 22.63200
H  34.53600 48.36900 30.18200
H  35.10800 51.22800 29.81300
H  33.01100 51.63600 30.29000
H  32.69700 49.91200 30.50800
H  32.33500 50.66800 29.00900
H  36.76900 50.36300 30.45600
H  37.32500 48.81900 29.66900
H  37.10400 49.43400 32.41300
H  37.06200 47.73100 31.83700
H  33.60100 55.28500 25.27400
H  34.43400 54.45500 26.60800
H  32.70900 54.15100 26.33000
H  32.36900 55.23500 23.50500
H  32.41700 55.14000 21.70800
H  33.84800 55.72600 22.49500
H  36.51200 49.64800 20.09700
H  36.38900 46.73200 20.60900
H  33.84600 48.54800 20.42600
H  34.94000 47.93400 19.21200
H  34.49700 49.71100 19.38800
H  38.74100 48.18600 21.78400
H  38.47900 48.73500 20.20000
H  38.46900 45.80500 20.05300
H  39.77900 46.31000 21.15200
H  39.68600 46.99600 19.48000
H  37.27900 43.68200 23.73100
H  37.54900 42.97000 25.21400
H  38.83300 44.02400 24.52400
H  37.00600 46.11700 29.65100
H  35.15600 43.66700 32.39900
H  34.15400 43.43400 30.96900
H  33.62300 44.56300 31.97000
Mg 6.48800 54.23700 41.94000
C  5.75300 50.89700 41.31500
C  9.14800 54.04400 39.93200
C  6.55800 57.67300 41.90200
C  3.05600 54.59600 43.27700
N  7.10400 52.81400 40.39600
C  6.83200 51.45300 40.53600
C  7.74000 50.58600 39.66600
C  9.00600 51.46100 39.81500
C  8.41000 52.83900 39.93100
C  9.93600 51.00400 40.95900
C  7.33500 50.49900 38.20000
C  8.10500 49.33200 37.43500
H  7.35500 48.44700 36.44700
N  7.71800 55.66800 41.10400
C  8.78300 55.37900 40.26900
C  9.56800 56.54400 40.05800
C  8.88200 57.59500 40.63900
C  7.63800 57.06900 41.21900
C  10.97200 56.51600 39.56000
C  9.38100 59.10000 40.79500
O  10.42700 59.42000 40.31500
C  8.61400 60.07300 41.60600
N  4.94600 55.91000 42.36600
C  5.37300 57.18500 42.49600
C  4.33300 58.10200 43.16900
C  3.17400 57.11900 43.33500
C  3.69700 55.77600 42.94400
C  4.84400 58.77000 44.45200
C  1.94900 57.46300 42.50800
C  1.26300 58.87300 42.73900
N  4.76900 53.03100 42.34800
C  3.54300 53.30800 42.99900
C  2.93000 52.01200 43.28700
C  3.73800 51.03100 42.72800
C  4.89200 51.65400 42.12800
C  1.58800 51.80900 43.97300
C  3.91200 49.61100 42.48300
O  3.26900 48.64300 42.84800
C  5.24000 49.49800 41.41400
C  4.67300 48.99800 40.16300
O  3.91300 49.64400 39.40900
O  5.08000 47.71800 39.96500
C  4.55800 46.98900 38.83000
H  10.13000 53.85900 39.49100
H  6.44400 58.74700 42.06300
H  2.11800 54.73900 43.81600
H  7.74400 49.64700 40.21900
H  9.59300 51.43200 38.89700
H  9.65800 50.00700 41.30000
H  9.92000 51.69400 41.80300
H  10.98100 50.98400 40.65200
H  7.59100 51.45300 37.73900
H  6.24700 50.54600 38.16700
H  8.57000 48.65500 38.15200
H  8.89800 49.83400 36.88100
H  11.11800 55.71100 38.83900
H  11.67200 56.24800 40.35100
H  11.33400 57.45800 39.14600
H  9.05800 61.05300 41.43600
H  8.70100 59.73000 42.63700
H  7.56700 60.25400 41.36300
H  4.06300 58.90100 42.47800
H  2.90300 57.05000 44.38900
H  4.62700 58.20100 45.35600
H  4.37300 59.72700 44.67200
H  5.92500 58.87500 44.54400
H  1.21900 56.68400 42.72800
H  2.22800 57.39300 41.45700
H  1.38200 59.48000 41.84200
H  1.67000 59.38600 43.61100
H  0.22500 58.68200 43.01300
H  0.95400 52.64700 43.68300
H  1.82500 51.73400 45.03400
H  1.07100 50.90100 43.66200
H  5.99600 48.78200 41.73900
H  4.95600 47.25600 37.85100
H  3.47000 46.94900 38.78800
H  4.76800 45.92700 38.95900

