158

Mg 24.45900 -4.94700 44.88800
C  26.65100 -2.74000 43.36200
C  21.98000 -3.80200 42.83800
C  22.76000 -7.75800 45.59000
C  27.24200 -6.32200 46.61100
N  24.38500 -3.55200 43.34800
C  25.39900 -2.69800 42.87700
C  24.94900 -1.95800 41.57900
C  23.42700 -1.87800 41.78000
C  23.24300 -3.20000 42.68200
C  22.97000 -0.50500 42.26000
C  25.46600 -2.72500 40.29600
C  26.28200 -2.03500 39.16400
H  25.93000 -2.42300 37.69000
N  22.58900 -5.61000 44.33300
C  21.70400 -4.93800 43.56000
C  20.50300 -5.68900 43.57100
C  20.64500 -6.88600 44.34900
C  22.05800 -6.79800 44.76500
C  19.29000 -5.21800 42.71400
C  19.60700 -7.95200 44.67900
O  18.45000 -7.92500 44.28300
C  19.87800 -9.13500 45.61600
N  25.02000 -6.85800 45.84000
C  24.06100 -7.77400 46.07500
C  24.68500 -8.94500 46.98600
C  26.06500 -8.35300 47.30700
C  26.09900 -7.07600 46.53800
C  23.78400 -9.27300 48.20800
C  27.23800 -9.33400 46.89400
C  27.72000 -10.21700 48.12100
N  26.46200 -4.52000 45.10900
C  27.41300 -5.12400 45.89200
C  28.73400 -4.43500 45.75500
C  28.47700 -3.45200 44.75400
C  27.13100 -3.53400 44.39600
C  29.86700 -4.86300 46.45200
C  29.12800 -2.42900 43.93100
O  30.24600 -2.02500 43.84000
C  27.89600 -1.92600 42.97800
C  27.75100 -0.52200 43.04800
O  27.01600 0.05800 43.78400
O  28.58300 0.13300 42.24900
C  28.49200 1.65400 42.18800
H  21.11200 -3.38900 42.32100
H  22.27500 -8.72700 45.72200
H  28.09600 -6.68000 47.18900
H  25.49400 -1.01500 41.53300
H  22.92500 -2.10900 40.84000
H  22.76500 -0.62800 43.32300
H  22.04800 -0.29800 41.71600
H  23.72700 0.24000 42.01600
H  24.71500 -3.33900 39.79900
H  26.07000 -3.53200 40.71200
H  27.33000 -2.30100 39.30200
H  26.26400 -0.94800 39.24400
H  18.61900 -6.02700 42.42700
H  19.51500 -4.70000 41.78100
H  18.62300 -4.57000 43.28200
H  20.34600 -8.77700 46.53300
H  20.52100 -9.86200 45.11800
H  18.94900 -9.63700 45.88600
H  24.71900 -9.77100 46.27600
H  26.19300 -8.17400 48.37500
H  22.94900 -8.57300 48.22800
H  24.34600 -9.15700 49.13500
H  23.38900 -10.26900 48.01000
H  28.05400 -8.80800 46.39800
H  26.90400 -10.10000 46.19500
H  27.56800 -11.25600 47.82700
H  27.07100 -10.05300 48.98100
H  28.72800 -10.04100 48.49800
H  30.29400 -5.78900 46.06800
H  29.59800 -5.15500 47.46700
H  30.65300 -4.11000 46.38400
H  28.16000 -2.04200 41.92700
H  29.44500 2.05100 41.83700
H  28.23200 2.21700 43.08400
H  27.81700 1.82400 41.34900
Mg 9.51500 48.38000 26.16300
C  7.28300 48.49800 28.80900
C  12.00900 49.23100 28.58000
C  11.81500 47.92800 23.75700
C  6.97600 47.69000 23.95300
N  9.58700 48.91100 28.40200
C  8.57100 48.82600 29.32100
C  9.06600 49.16900 30.78700
C  10.44100 49.84400 30.54500
C  10.71500 49.25300 29.14300
C  10.43700 51.40100 30.60200
C  9.13100 47.94300 31.73000
C  8.75400 48.14200 33.17900
H  9.14200 47.07900 34.17800
N  11.59700 48.56900 26.20500
C  12.46000 48.83200 27.27600
C  13.87600 48.81200 26.75300
C  13.85200 48.32500 25.39400
C  12.34300 48.28200 25.07300
C  15.08800 49.09800 27.57400
C  14.96400 47.94100 24.47600
O  14.79200 47.57400 23.28800
C  16.33200 47.89000 24.91400
N  9.44600 47.97600 24.08800
C  10.51200 47.84800 23.35500
C  10.09900 47.46700 21.90000
C  8.57200 47.59200 21.92300
C  8.24100 47.65400 23.42500
C  10.88500 48.17500 20.75400
C  7.80000 46.46300 21.20800
C  6.79100 47.02100 20.18000
N  7.51200 48.30600 26.30100
C  6.62000 47.96100 25.28800
C  5.31800 47.80400 25.88300
C  5.49400 48.05100 27.28900
C  6.88700 48.33400 27.47200
C  4.06600 47.34800 25.15600
C  4.75800 48.15500 28.55700
O  3.56900 48.02700 28.78800
C  5.95100 48.37400 29.57300
C  6.03900 47.12500 30.33100
O  6.67600 46.13500 30.01500
O  5.20800 47.17000 31.41200
C  5.29100 46.14900 32.46500
H  12.80800 49.59500 29.23000
H  12.61500 47.73800 23.04000
H  6.12000 47.55300 23.28800
H  8.41900 49.88900 31.28700
H  11.15200 49.40900 31.24800
H  11.28800 51.64900 31.23600
H  9.61300 51.71800 31.24200
H  10.42900 51.95400 29.66300
H  10.06100 47.37500 31.69800
H  8.47500 47.19300 31.28700
H  7.67100 48.27300 33.16700
H  9.11000 49.10200 33.55300
H  15.85200 49.68000 27.05900
H  15.57600 48.15200 27.81100
H  14.86000 49.60600 28.51100
H  16.45500 47.29100 25.81700
H  16.83700 48.83700 25.10300
H  16.94500 47.44900 24.12800
H  10.39900 46.41900 21.88400
H  8.17700 48.52500 21.52100
H  11.02600 49.21000 21.06500
H  10.16900 48.14700 19.93200
H  11.72900 47.61000 20.36000
H  7.18700 45.85500 21.87300
H  8.42500 45.87400 20.53700
H  6.15500 46.20300 19.84100
H  7.28300 47.36100 19.26900
H  6.20500 47.87400 20.52300
H  4.28700 46.56300 24.43300
H  3.70900 48.16800 24.53300
H  3.26900 47.02500 25.82500
H  5.70400 49.27400 30.13400
H  6.17000 45.51000 32.37700
H  4.33700 45.62400 32.51100
H  5.39700 46.45000 33.50700

