158

Mg 16.41000 -1.45100 27.98900
C  15.09500 0.64500 30.39600
C  18.27000 -3.05900 30.48500
C  17.68700 -3.44100 25.68000
C  14.86800 0.48700 25.54100
N  16.68800 -1.16500 30.20700
C  16.02600 -0.21600 30.97000
C  16.35100 -0.50300 32.49200
C  17.59100 -1.45200 32.47900
C  17.52200 -1.92100 30.93300
C  18.95400 -0.72800 32.93600
C  15.12600 -1.11100 33.22100
C  15.16400 -1.23500 34.73900
H  16.39600 -0.67400 35.43300
N  17.76000 -3.09400 28.10800
C  18.40900 -3.55400 29.19700
C  19.23400 -4.72800 28.79100
C  18.97300 -4.94900 27.39600
C  18.11700 -3.78700 27.00100
C  20.16900 -5.51500 29.66200
C  19.48100 -6.11900 26.46800
O  19.14500 -6.05700 25.29900
C  20.22800 -7.27000 27.00300
N  16.23800 -1.49600 25.89200
C  16.95600 -2.35100 25.14200
C  17.07900 -2.00500 23.61300
C  16.21800 -0.63900 23.60100
C  15.75000 -0.50700 25.05400
C  18.57000 -1.85600 23.22900
C  14.97600 -0.68500 22.66700
C  15.22500 -0.35200 21.17100
N  15.34800 0.24500 27.90500
C  14.61800 0.85800 26.85800
C  13.79400 1.88600 27.36400
C  13.97600 1.82300 28.75000
C  14.89100 0.78600 29.01500
C  12.94100 2.68700 26.46600
C  13.43600 2.40700 29.99300
O  12.71100 3.34000 30.29100
C  14.17900 1.61200 31.11600
C  14.97500 2.69600 31.84500
O  16.06600 3.12600 31.56000
O  14.14500 3.09700 32.90700
C  14.88300 4.00200 33.74200
H  18.74700 -3.66700 31.25700
H  18.34800 -3.98900 25.00500
H  14.47900 1.05500 24.69300
H  16.68700 0.40300 32.99700
H  17.48000 -2.36400 33.06600
H  19.72600 -0.92200 32.19200
H  19.27800 -1.19800 33.86500
H  18.88800 0.35400 33.05500
H  15.10800 -2.11900 32.80500
H  14.14300 -0.74900 32.92100
H  14.96500 -2.29100 34.92400
H  14.31900 -0.60000 35.00500
H  19.62700 -6.33200 30.13700
H  20.38500 -4.90100 30.53600
H  21.05300 -5.73400 29.06300
H  21.18600 -6.92500 27.39200
H  20.37900 -7.89000 26.12000
H  19.54100 -7.64500 27.76100
H  16.58200 -2.86200 23.15800
H  16.84900 0.15000 23.19300
H  19.11600 -1.54400 24.12000
H  18.70500 -1.06600 22.49000
H  19.03900 -2.74300 22.80400
H  14.43400 0.22800 22.91400
H  14.26200 -1.50800 22.70500
H  14.82700 -1.17500 20.57800
H  16.31200 -0.29000 21.11400
H  14.66000 0.53900 20.89700
H  12.33100 3.37600 27.05000
H  12.17100 2.09100 25.97600
H  13.50200 3.35200 25.80900
H  13.41500 1.12200 31.72000
H  15.45700 4.72100 33.15700
H  15.40800 3.43200 34.50800
H  14.17700 4.58900 34.33100
Mg 40.15900 10.59900 29.59800
C  42.12100 11.63900 32.25300
C  38.12400 8.93300 31.75600
C  38.56500 9.19300 26.89700
C  42.75300 11.63400 27.46900
N  40.18000 10.28800 31.80000
C  40.88000 11.06100 32.68900
C  40.32600 10.83600 34.12400
C  39.18500 9.78800 33.95200
C  39.21100 9.61500 32.39700
C  39.28400 8.46500 34.78700
C  39.87400 12.26500 34.72200
C  39.26500 12.34800 36.18100
H  39.95800 13.22800 37.24900
N  38.62500 9.19700 29.36400
C  37.87000 8.65300 30.41600
C  36.78200 7.83200 29.85400
C  36.83400 8.03600 28.40800
C  38.02000 8.82700 28.17500
C  35.88300 7.08700 30.76000
C  35.84300 7.54200 27.42300
O  35.92900 7.67800 26.21700
C  34.66200 6.77400 27.90200
N  40.68800 10.30700 27.53200
C  39.77700 9.87500 26.59800
C  40.17100 10.28000 25.17700
C  41.39200 11.24300 25.39700
C  41.62400 11.05900 26.93300
C  40.49600 8.91300 24.45000
C  41.23200 12.81200 25.10800
C  39.82700 13.50900 25.25400
N  42.07600 11.54400 29.73900
C  43.07500 11.82000 28.81100
C  44.26100 12.34300 29.45600
C  43.90600 12.37000 30.77500
C  42.64600 11.71300 30.92200
C  45.56800 12.71300 28.96600
C  44.38200 12.66800 32.13800
O  45.43300 13.11600 32.62000
C  43.23300 12.32600 33.12100
C  43.81800 11.51600 34.24300
O  44.74400 10.76000 34.23100
O  43.01300 11.71400 35.36000
C  43.30200 10.93300 36.52600
H  37.39000 8.58300 32.48500
H  37.98700 8.80300 26.05700
H  43.52400 12.07400 26.83300
H  41.24000 10.42500 34.55300
H  38.26400 10.28700 34.25300
H  40.19500 8.26900 35.35100
H  39.29000 7.64300 34.07100
H  38.41900 8.35200 35.44100
H  39.18800 12.70100 33.99600
H  40.76900 12.88700 34.69200
H  39.17900 11.32300 36.54200
H  38.23400 12.63900 35.98000
H  36.28600 6.88300 31.75200
H  35.72900 6.09100 30.34600
H  34.88300 7.51800 30.71600
H  34.00700 7.34100 28.56400
H  35.01500 5.89700 28.44500
H  34.04700 6.37300 27.09700
H  39.29000 10.74600 24.73400
H  42.29200 10.81300 24.95800
H  39.60700 8.60400 23.90100
H  40.66700 8.10200 25.15700
H  41.33100 9.10100 23.77400
H  41.61800 12.97700 24.10200
H  41.95500 13.30500 25.75800
H  39.14500 12.82500 25.75900
H  39.47200 13.82700 24.27400
H  39.97400 14.34700 25.93400
H  45.53000 12.63900 27.87900
H  46.26200 11.93600 29.28700
H  45.81500 13.73700 29.24700
H  42.87400 13.24900 33.57800
H  43.94600 11.45200 37.23600
H  43.67100 9.95300 36.22200
H  42.36300 10.66200 37.00900

