158

Mg 2.55500 -0.98000 44.59400
C  5.81600 -0.49700 43.58900
C  1.60100 1.45200 42.35500
C  -0.72400 -1.97100 44.88100
C  3.54400 -3.97300 46.27900
N  3.58200 0.39700 43.13700
C  4.94500 0.45800 42.98900
C  5.29000 1.52200 41.96000
C  3.98700 2.37300 41.78700
C  2.97400 1.38800 42.46800
C  4.21400 3.77300 42.40200
C  5.98000 0.93800 40.69400
C  7.29800 1.56500 40.24000
H  7.25900 2.34900 38.94400
N  0.67300 -0.14300 43.95000
C  0.52100 0.72700 42.98400
C  -0.88200 1.04500 42.74800
C  -1.55500 0.02200 43.49500
C  -0.57800 -0.77500 44.20900
C  -1.44500 2.22900 41.85900
C  -3.04600 -0.20900 43.44500
O  -3.76700 0.52500 42.83500
C  -3.72600 -1.23400 44.28400
N  1.57700 -2.73700 45.40400
C  0.13400 -2.90000 45.39500
C  -0.23700 -4.14500 46.11200
C  1.15500 -4.84300 46.52100
C  2.15700 -3.79100 46.09700
C  -1.25600 -4.08100 47.28600
C  1.47800 -6.17000 45.78800
C  2.30600 -7.11800 46.54500
N  4.28300 -2.03500 44.90200
C  4.54900 -3.23400 45.63900
C  6.01700 -3.40000 45.65100
C  6.52200 -2.27000 44.91100
C  5.44400 -1.51600 44.50800
C  6.83100 -4.50300 46.20600
C  7.75700 -1.66600 44.35500
O  8.94100 -1.98800 44.46500
C  7.36900 -0.42700 43.48000
C  7.81400 0.82300 44.11200
O  7.39900 1.19500 45.14200
O  8.76000 1.49000 43.42100
C  9.26800 2.65900 44.12700
H  1.33900 2.21600 41.62100
H  -1.73100 -2.39200 44.90300
H  3.94400 -4.66400 47.02300
H  6.04900 2.14500 42.43200
H  3.59800 2.52900 40.78100
H  3.32300 4.40100 42.41300
H  5.11500 4.28500 42.06600
H  4.50100 3.71800 43.45200
H  5.33500 1.01300 39.81900
H  6.02500 -0.11100 40.98600
H  7.99300 0.72500 40.25700
H  7.56300 2.22900 41.06300
H  -2.20400 1.92000 41.14100
H  -0.62400 2.68500 41.30500
H  -1.86700 3.00600 42.49700
H  -4.79100 -1.01800 44.37300
H  -3.26100 -1.20300 45.27000
H  -3.54300 -2.19500 43.80300
H  -0.70900 -4.86500 45.44400
H  1.26000 -4.94400 47.60100
H  -2.11600 -4.68600 47.00000
H  -1.56000 -3.04000 47.39200
H  -0.80400 -4.25300 48.26300
H  1.95800 -5.82100 44.87300
H  0.60400 -6.68900 45.39400
H  1.82000 -8.07100 46.75500
H  2.60700 -6.66100 47.48700
H  3.20900 -7.14400 45.93500
H  6.45400 -4.82500 47.17700
H  7.85100 -4.21800 46.46100
H  6.84800 -5.34800 45.51700
H  7.67800 -0.51900 42.43900
H  10.32400 2.38600 44.13500
H  9.02700 2.90300 45.16100
H  9.25200 3.57400 43.53400
Mg 18.01200 -1.22600 27.15700
C  17.00000 0.79400 29.86600
C  19.81800 -3.14800 29.29700
C  19.09200 -2.82100 24.46900
C  16.25800 0.96400 25.02700
N  18.46800 -1.04400 29.33300
C  17.84800 -0.28800 30.25600
C  18.28100 -0.62300 31.68400
C  19.26800 -1.82200 31.47400
C  19.24600 -2.06200 29.93200
C  20.67100 -1.60500 32.08000
C  17.12900 -0.92200 32.68600
C  17.09000 -0.23800 34.08600
H  18.42900 0.21800 34.64700
N  19.20300 -2.76500 26.88400
C  19.86600 -3.47600 27.92200
C  20.59000 -4.66900 27.37200
C  20.33400 -4.57300 25.92200
C  19.45900 -3.39300 25.69800
C  21.46400 -5.74600 28.18100
C  20.97200 -5.38900 24.83100
O  20.97100 -5.17600 23.67500
C  21.96600 -6.41800 25.17100
N  17.91500 -0.84000 24.99900
C  18.38700 -1.70400 24.13300
C  18.05300 -1.45200 22.65800
C  16.98100 -0.30000 22.90200
C  17.05500 -0.03500 24.43600
C  19.27300 -0.84900 21.81400
C  15.48700 -0.69100 22.40700
C  14.63100 -1.36900 23.45400
N  16.94200 0.49200 27.39200
C  16.31400 1.26100 26.38900
C  15.59200 2.36500 27.02200
C  15.81900 2.22100 28.38300
C  16.59700 1.05700 28.57900
C  14.82300 3.38000 26.33800
C  15.52600 2.76100 29.72000
O  14.74000 3.65700 30.14300
C  16.33600 1.86700 30.72700
C  17.15400 2.76500 31.64000
O  18.36400 2.93700 31.57900
O  16.29500 3.28400 32.61000
C  16.92300 4.16700 33.59900
H  20.40900 -3.84100 29.90000
H  19.40100 -3.40600 23.60000
H  15.66700 1.50500 24.28500
H  18.88200 0.22400 32.01500
H  18.96200 -2.71700 32.01600
H  20.74400 -0.69900 32.68100
H  21.34400 -1.43600 31.23900
H  20.96200 -2.53000 32.57900
H  17.02300 -2.00200 32.78600
H  16.24800 -0.51300 32.19100
H  16.57200 -0.94200 34.73600
H  16.40800 0.59600 33.91600
H  22.51500 -5.87600 27.92400
H  20.94800 -6.70300 28.24600
H  21.46600 -5.47500 29.23700
H  21.46700 -7.04700 25.90800
H  22.94800 -6.10400 25.52500
H  22.17200 -7.09300 24.34000
H  17.60000 -2.36200 22.26400
H  17.27300 0.63700 22.42700
H  20.16600 -0.89200 22.43700
H  19.13900 0.13700 21.36800
H  19.63300 -1.52900 21.04200
H  15.51300 -1.28800 21.49500
H  15.14800 0.31400 22.15700
H  14.16100 -0.61100 24.08000
H  15.16100 -2.14000 24.01400
H  13.82300 -1.88700 22.93700
H  13.79500 3.06400 26.16000
H  15.31600 3.50200 25.37300
H  14.92200 4.29300 26.92600
H  15.59600 1.38400 31.36500
H  16.95000 5.19700 33.24300
H  17.96000 3.84400 33.69800
H  16.27400 4.10900 34.47300

