158

Mg 1.97900 -0.93500 43.59600
C  5.43100 -0.32700 43.02000
C  1.31900 1.89600 41.83700
C  -1.22000 -1.96700 43.15500
C  2.98200 -4.09100 44.84100
N  3.30900 0.53500 42.48500
C  4.67200 0.64200 42.46500
C  4.98200 1.92400 41.77000
C  3.66300 2.81900 41.81500
C  2.68300 1.66400 42.02700
C  3.66100 3.90000 42.86600
C  5.40500 1.66300 40.24400
C  6.78500 2.19400 39.76700
H  6.85100 2.76000 38.31700
N  0.25100 -0.09500 42.75500
C  0.14300 1.10800 42.06800
C  -1.24400 1.38600 41.72400
C  -1.95400 0.27300 42.14100
C  -0.97500 -0.67700 42.75900
C  -1.71300 2.76400 41.13700
C  -3.43400 0.13200 41.78900
O  -4.14400 1.05900 41.49700
C  -4.19600 -1.18600 41.89600
N  1.02100 -2.76200 43.93300
C  -0.32600 -2.91800 43.72300
C  -0.80700 -4.30500 44.21600
C  0.44600 -4.95100 44.80400
C  1.60600 -3.86700 44.49100
C  -2.01200 -4.25200 45.19600
C  0.80000 -6.37900 44.39900
C  1.14100 -7.38300 45.50100
N  3.84100 -1.96800 43.99100
C  4.00800 -3.22600 44.56200
C  5.44400 -3.40600 44.67400
C  6.02400 -2.29800 44.11500
C  4.99000 -1.44300 43.73700
C  6.09700 -4.63600 45.16100
C  7.28500 -1.66800 43.69500
O  8.39200 -2.15300 43.80800
C  6.91200 -0.34300 43.04800
C  7.48000 0.72000 43.82700
O  6.89000 1.33700 44.74300
O  8.66800 1.13400 43.21600
C  9.17000 2.44200 43.83400
H  1.07800 2.91100 41.51500
H  -2.27700 -2.22900 43.08300
H  3.28900 -5.07300 45.20900
H  5.76100 2.44100 42.33100
H  3.53500 3.30900 40.85000
H  3.63100 4.89100 42.41300
H  4.48600 3.79500 43.57000
H  2.70200 4.01300 43.37100
H  4.73300 2.09800 39.50400
H  5.32800 0.59200 40.05700
H  7.54000 1.42000 39.90100
H  6.96300 3.01000 40.46900
H  -2.48800 2.57200 40.39500
H  -0.90400 3.40100 40.77900
H  -2.08000 3.40500 41.93800
H  -5.09800 -1.03800 41.30300
H  -4.36300 -1.44000 42.94300
H  -3.62200 -2.03100 41.51600
H  -1.17800 -4.83600 43.33900
H  0.32600 -5.01200 45.88500
H  -2.94400 -4.59000 44.74500
H  -2.13700 -3.23500 45.56600
H  -1.76100 -4.90300 46.03400
H  1.57000 -6.43200 43.63000
H  -0.06600 -6.85900 43.94300
H  0.44200 -8.21600 45.58000
H  1.28300 -6.93700 46.48500
H  2.08500 -7.83300 45.19500
H  7.11700 -4.41200 45.47500
H  6.24000 -5.31700 44.32300
H  5.59200 -5.27300 45.88700
H  7.39000 -0.36800 42.06900
H  9.43800 2.30400 44.88200
H  8.61000 3.36700 43.69600
H  10.06700 2.66200 43.25500
Mg 8.98900 2.95200 27.60300
C  10.21400 1.39100 30.37400
C  7.05300 4.97000 29.56200
C  7.94400 4.20500 24.77900
C  10.68800 0.43900 25.64500
N  8.61700 3.08500 29.77500
C  9.37100 2.48100 30.71400
C  9.06000 3.04700 32.06700
C  7.90500 4.05100 31.79000
C  7.72800 3.98000 30.28000
C  6.59800 3.84700 32.59200
C  10.30200 3.50700 32.93800
C  10.09800 4.55900 34.14200
H  10.85300 4.30700 35.51700
N  7.64400 4.39100 27.23700
C  6.93500 5.12700 28.14400
C  6.22100 6.11000 27.49800
C  6.50000 5.98800 26.08400
C  7.37300 4.81100 25.97000
C  5.45300 7.24500 28.16400
C  6.03900 6.80700 24.91800
O  6.62800 6.84100 23.82600
C  4.96000 7.93200 25.10000
N  9.44100 2.53500 25.47000
C  8.79200 3.15900 24.49900
C  8.96300 2.42100 23.12500
C  10.09200 1.44500 23.44100
C  10.05500 1.43400 24.96400
C  7.67900 1.82800 22.64000
C  11.55300 1.92200 22.97700
C  12.15600 1.06500 21.81600
N  10.25900 1.31700 27.86200
C  10.87000 0.43400 27.01300
C  11.67300 -0.51200 27.66000
C  11.50900 -0.12600 29.01900
C  10.58300 0.95100 29.05900
C  12.45200 -1.56100 27.06100
C  11.92700 -0.36200 30.38400
O  12.70700 -1.15100 30.84200
C  11.09800 0.57900 31.30500
C  10.59600 -0.14300 32.39500
O  9.51400 -0.70400 32.37900
O  11.41600 -0.05000 33.45700
C  10.82500 -0.44700 34.76000
H  6.49100 5.63100 30.22500
H  7.61600 4.64600 23.83600
H  11.19700 -0.35400 25.09300
H  8.68500 2.17500 32.60300
H  8.17300 5.09400 31.95500
H  6.86300 3.17400 33.40700
H  5.79000 3.39200 32.01800
H  6.13800 4.76200 32.96500
H  11.07400 4.05500 32.39700
H  10.72100 2.59600 33.36400
H  9.04000 4.66000 34.38200
H  10.24900 5.59400 33.83600
H  5.90800 8.22100 27.99800
H  5.41400 7.09600 29.24300
H  4.45300 7.27500 27.73100
H  3.98300 7.45900 25.19700
H  5.00500 8.68300 24.31200
H  5.12300 8.60000 25.94500
H  9.21300 3.10600 22.31500
H  9.77200 0.46300 23.09400
H  7.40400 2.39000 21.74700
H  6.83400 1.83300 23.32900
H  7.94200 0.85300 22.22900
H  12.23200 1.83500 23.82500
H  11.53500 2.98300 22.73100
H  13.12400 0.71100 22.17000
H  12.30400 1.68100 20.92900
H  11.50700 0.28700 21.41500
H  13.05000 -1.03100 26.31900
H  11.74000 -2.22200 26.56700
H  13.08600 -2.06900 27.78600
H  11.78900 1.30600 31.73200
H  10.25200 -1.34800 34.54100
H  10.15100 0.24600 35.26300
H  11.62500 -0.86500 35.37100

