158

Mg 8.09100 3.39200 27.19700
C  9.26300 1.93800 30.20200
C  5.89200 5.24400 29.06000
C  6.81300 4.34500 24.38800
C  9.75000 0.79400 25.42600
N  7.73500 3.66600 29.39900
C  8.38400 3.03400 30.45300
C  7.91600 3.71900 31.74800
C  6.76800 4.68000 31.36600
C  6.80300 4.56900 29.86800
C  5.42600 4.26800 31.96000
C  9.13900 4.31200 32.52900
C  9.51700 3.71400 33.90900
H  9.59400 4.68200 35.09600
N  6.71700 4.71900 26.75900
C  5.91500 5.43900 27.65000
C  5.15000 6.40500 26.92700
C  5.41800 6.16300 25.54500
C  6.35200 5.04900 25.52800
C  4.19000 7.34800 27.75300
C  4.85900 6.83900 24.22400
O  5.03300 6.45500 23.07500
C  3.83700 7.91800 24.40100
N  8.12600 2.50900 25.19700
C  7.61300 3.22600 24.14400
C  7.94600 2.69500 22.76800
C  8.90600 1.51700 23.07900
C  8.92900 1.53800 24.61900
C  6.77300 2.24000 21.94700
C  10.39000 1.72500 22.60400
C  10.88200 0.77800 21.54400
N  9.31100 1.79300 27.69600
C  9.98000 0.88100 26.85700
C  10.74100 -0.07600 27.62800
C  10.52100 0.36600 28.98400
C  9.58400 1.42800 28.93200
C  11.52200 -1.26900 27.07400
C  10.87700 0.09600 30.37500
O  11.66200 -0.68900 30.84800
C  10.10700 1.09300 31.25000
C  9.21800 0.43200 32.28700
O  8.27500 -0.23500 32.06000
O  9.78000 0.57800 33.53600
C  8.91600 0.04100 34.65300
H  5.27600 5.95500 29.61400
H  6.47300 4.68300 23.40700
H  10.28900 0.05100 24.83400
H  7.56400 2.84200 32.29100
H  7.03700 5.71900 31.55600
H  4.65000 4.15000 31.20400
H  5.08600 5.06100 32.62600
H  5.58300 3.39700 32.59700
H  8.92700 5.37300 32.66700
H  10.03800 4.33400 31.91400
H  10.48100 3.21600 33.80300
H  8.74200 2.97200 34.10200
H  4.74100 7.79900 28.57900
H  3.31500 6.79600 28.09500
H  3.87900 8.08400 27.01100
H  3.40700 8.08500 23.41300
H  4.34400 8.76200 24.86800
H  3.00100 7.58000 25.01300
H  8.40500 3.50100 22.19500
H  8.51700 0.53300 22.82100
H  6.73600 1.18200 21.68900
H  6.83600 2.74800 20.98400
H  5.87700 2.58200 22.46400
H  11.17700 1.62600 23.35100
H  10.42400 2.72800 22.18100
H  11.73100 1.25600 21.05600
H  10.18000 0.46400 20.77200
H  11.16400 -0.09100 22.13700
H  11.93000 -0.86600 26.14600
H  10.90700 -2.16000 26.95100
H  12.28700 -1.39000 27.84100
H  10.79200 1.80400 31.71200
H  8.15800 -0.67200 34.32900
H  8.38300 0.90100 35.05800
H  9.56000 -0.18500 35.50400
Mg 30.46900 57.86500 40.56000
C  27.47100 56.30300 39.69600
C  32.18300 55.37800 38.95800
C  33.11600 59.89600 40.51900
C  28.43900 60.70000 41.47800
N  29.82300 56.08700 39.45300
C  28.57400 55.49400 39.35300
C  28.68300 54.15800 38.65400
C  30.18000 53.84200 38.68200
C  30.83000 55.18300 39.07000
C  30.54600 52.60600 39.54200
C  28.13600 53.99200 37.24600
C  28.15900 55.20100 36.34700
H  28.23600 54.88600 34.81500
N  32.43500 57.55400 39.98400
C  33.01300 56.49900 39.35000
C  34.41000 56.74900 39.17100
C  34.74500 58.05800 39.60800
C  33.41000 58.54900 40.07700
C  35.30400 55.70400 38.39600
C  36.15000 58.69100 39.54300
O  37.09000 58.01400 39.08200
C  36.41700 60.07500 40.10100
N  30.78800 59.98000 41.00600
C  32.00400 60.45200 41.03200
C  31.95500 61.96000 41.47000
C  30.46800 62.19900 41.88300
C  29.84900 60.86500 41.46100
C  33.04200 62.39100 42.56000
C  29.75500 63.41000 41.19900
C  30.50000 64.70300 40.81800
N  28.32500 58.48700 40.58000
C  27.68500 59.56000 41.06000
C  26.27400 59.34600 40.83800
C  26.19400 58.03900 40.37200
C  27.44300 57.57000 40.19700
C  25.24700 60.37300 41.03200
C  25.22500 57.10500 39.88600
O  24.02300 57.23100 39.73400
C  26.08800 55.90400 39.31100
C  25.52700 54.69300 39.97900
O  25.25400 54.55600 41.16700
O  25.28000 53.73100 39.02300
C  24.44800 52.58800 39.50500
H  32.74300 54.48500 38.67200
H  33.88000 60.66100 40.36100
H  27.84400 61.54500 41.83300
H  28.00000 53.56400 39.26100
H  30.41100 53.80800 37.61800
H  30.47800 51.80000 38.81100
H  29.68200 52.37200 40.16500
H  31.47400 52.70900 40.10400
H  27.09300 53.74000 37.43700
H  28.47200 53.06000 36.79300
H  28.86300 55.99600 36.59500
H  27.16600 55.64500 36.42100
H  36.19100 56.08600 37.89100
H  34.68500 55.09700 37.73600
H  35.76800 55.12100 39.19200
H  36.36200 59.95300 41.18200
H  35.76000 60.89000 39.79700
H  37.39500 60.48500 39.84600
H  32.08600 62.46400 40.51300
H  30.27700 62.25200 42.95500
H  32.62000 62.94800 43.39600
H  33.78400 63.08000 42.15600
H  33.53500 61.44900 42.80200
H  29.01400 63.76700 41.91500
H  29.30000 63.09500 40.26000
H  30.11800 64.83000 39.80500
H  31.57600 64.56900 40.92600
H  30.11700 65.53700 41.40600
H  24.92900 60.74400 40.05700
H  25.69700 61.14500 41.65600
H  24.42200 59.81200 41.47100
H  25.82300 55.82200 38.25700
H  24.94500 51.81500 40.09100
H  24.23600 52.02300 38.59800
H  23.55800 52.96900 40.00600

