158

Mg 47.59800 15.48200 27.67600
C  45.36200 14.90500 30.23000
C  49.10500 17.86900 29.80900
C  49.58100 16.34200 25.19300
C  45.40800 13.77900 25.48200
N  47.31900 16.19000 29.85500
C  46.43000 15.63700 30.70600
C  46.74700 16.11800 32.10600
C  47.76700 17.31000 31.93900
C  48.05900 17.14100 30.43100
C  47.23300 18.66900 32.44900
C  47.23000 14.98600 33.03400
C  47.08100 15.45900 34.48800
H  48.31000 15.22200 35.40000
N  49.32000 16.69400 27.59600
C  49.72600 17.63400 28.53400
C  50.92200 18.21800 27.96300
C  51.13500 17.72400 26.67300
C  49.97000 16.85900 26.44700
C  51.78100 19.31700 28.73300
C  52.27100 18.05000 25.74500
O  52.43000 17.52100 24.66600
C  53.26500 19.09500 26.15800
N  47.55900 14.98400 25.56000
C  48.52900 15.51700 24.73800
C  48.10900 15.24900 23.22300
C  46.91100 14.24100 23.34400
C  46.56300 14.32400 24.85700
C  47.80200 16.52700 22.40200
C  47.23900 12.76800 22.94100
C  47.97000 11.79400 23.94500
N  45.77700 14.52000 27.74600
C  45.01400 13.85200 26.85100
C  43.73300 13.50200 27.44600
C  43.84900 13.80000 28.78600
C  45.09600 14.47900 28.95100
C  42.60700 12.88700 26.59000
C  43.10400 13.82100 30.06300
O  41.92600 13.56400 30.34000
C  44.13000 14.45900 31.03900
C  43.47900 15.53100 31.84000
O  42.87800 16.50300 31.41200
O  43.49100 15.24800 33.19500
C  42.92600 16.31400 34.00900
H  49.45400 18.66700 30.46900
H  50.12800 16.73200 24.33200
H  44.69800 13.26100 24.83400
H  45.83300 16.49600 32.56500
H  48.68700 17.17400 32.50700
H  47.61500 19.44800 31.78900
H  47.73500 18.95000 33.37500
H  46.14700 18.75700 32.44100
H  48.26000 14.76600 32.75400
H  46.72600 14.02700 32.92000
H  46.27900 14.83000 34.87300
H  46.64300 16.44100 34.66300
H  51.26900 19.60800 29.65000
H  51.81700 20.17600 28.06300
H  52.80000 19.05700 29.01900
H  54.04400 19.02200 25.39800
H  53.79400 18.92700 27.09600
H  52.89100 20.11900 26.14900
H  48.94800 14.70900 22.78500
H  46.05000 14.55400 22.75400
H  48.70500 16.74600 21.83300
H  47.45100 17.37500 22.99000
H  47.02700 16.27000 21.68000
H  47.93000 12.67800 22.10300
H  46.28700 12.29600 22.69700
H  48.86800 11.33200 23.53400
H  47.23600 11.04200 24.23400
H  48.14100 12.16300 24.95600
H  41.65500 13.09700 27.07700
H  42.79700 11.81700 26.50400
H  42.59400 13.29400 25.57800
H  44.34400 13.64800 31.73600
H  43.33000 17.28700 33.72800
H  43.04200 15.91800 35.01700
H  41.86900 16.35800 33.74600
Mg -5.17300 24.72800 26.70200
C  -3.59600 26.61500 29.19700
C  -6.25300 22.66700 29.36000
C  -6.62400 22.79600 24.60100
C  -3.79900 26.70900 24.33900
N  -4.94200 24.68300 29.07200
C  -4.37500 25.62900 29.85900
C  -4.64100 25.42800 31.34000
C  -5.28900 24.03600 31.38000
C  -5.58000 23.81100 29.83400
C  -4.47800 22.74200 31.96800
C  -5.45000 26.52600 31.92700
C  -4.96500 27.04100 33.30500
H  -5.87500 26.56800 34.48900
N  -6.17300 22.87900 26.94300
C  -6.59900 22.25900 28.07300
C  -7.26600 21.01800 27.71500
C  -7.44400 20.94400 26.33400
C  -6.80200 22.30100 25.89700
C  -7.75600 20.04700 28.77500
C  -8.16000 19.95900 25.47100
O  -8.25100 19.99700 24.23200
C  -8.55100 18.66000 26.17500
N  -5.16300 24.73200 24.67700
C  -5.89300 23.80200 24.02200
C  -5.92900 24.09400 22.50200
C  -4.94700 25.32700 22.42500
C  -4.61200 25.62300 23.87400
C  -5.60000 22.81500 21.60300
C  -5.53700 26.44800 21.48100
C  -4.64300 27.16100 20.44400
N  -4.01500 26.41300 26.67800
C  -3.52400 27.06500 25.62600
C  -2.64600 28.12000 26.15000
C  -2.64800 27.94400 27.52100
C  -3.51200 26.91900 27.85100
C  -2.15400 29.18900 25.25900
C  -2.14400 28.53100 28.75300
O  -1.48100 29.52100 28.97700
C  -2.73200 27.67400 29.90800
C  -1.68900 27.15200 30.78400
O  -0.73100 26.39500 30.47900
O  -1.79800 27.85000 32.00500
C  -0.73500 27.70000 32.96500
H  -6.57800 22.00000 30.16100
H  -7.06400 22.04000 23.94700
H  -3.30800 27.34000 23.59500
H  -3.74000 25.37700 31.95000
H  -6.18900 24.06800 31.99500
H  -3.65600 23.16400 32.54700
H  -4.05400 22.16500 31.14600
H  -5.08000 22.21200 32.70600
H  -6.46700 26.19800 32.14000
H  -5.20200 27.44700 31.40000
H  -4.87200 28.12600 33.27700
H  -4.00100 26.64300 33.62200
H  -8.81800 19.81700 28.68800
H  -7.38500 20.18600 29.79000
H  -7.23100 19.12400 28.52900
H  -7.68100 18.17100 26.61400
H  -8.84600 17.98800 25.36900
H  -9.38500 18.68600 26.87600
H  -6.92100 24.45500 22.22900
H  -3.97600 25.09700 21.98600
H  -4.76000 23.02300 20.94000
H  -6.39500 22.33500 21.03300
H  -5.08300 22.14700 22.29300
H  -6.18500 27.20400 21.92400
H  -6.21600 25.86400 20.85900
H  -4.86800 26.91800 19.40600
H  -3.61700 26.90400 20.70900
H  -4.78000 28.23500 20.57200
H  -1.57700 29.88400 25.86900
H  -3.00100 29.69500 24.79700
H  -1.50000 28.77500 24.49100
H  -3.41400 28.32700 30.45200
H  -0.42100 28.65900 33.37500
H  0.15000 27.11500 32.71500
H  -1.17300 27.10000 33.76300

