158

Mg 6.13100 54.98400 41.52000
C  5.76500 51.39000 41.42800
C  9.28400 54.64600 40.43000
C  6.14400 58.40500 41.12200
C  2.71200 55.14100 42.67100
N  7.30000 53.21900 40.92300
C  6.98300 51.89900 40.95900
C  8.19200 51.07100 40.61400
C  9.37900 52.13600 40.52500
C  8.59900 53.45900 40.73400
C  10.56700 51.96000 41.53200
C  8.00600 50.17800 39.31100
C  7.48700 50.87400 37.99600
H  6.44100 50.12100 37.18500
N  7.51300 56.31900 40.94000
C  8.76100 55.97900 40.52100
C  9.50800 57.19800 40.34400
C  8.60400 58.34800 40.43500
C  7.34000 57.70500 40.85900
C  11.02200 57.18900 39.94200
C  8.91700 59.80800 40.12900
O  10.04000 60.19400 39.85100
C  7.87200 60.90500 40.24800
N  4.59400 56.53500 41.66900
C  4.88700 57.88100 41.46200
C  3.72300 58.73500 41.83600
C  2.54500 57.70000 42.25800
C  3.41300 56.39100 42.34100
C  3.95200 59.80100 43.02600
C  1.41800 57.66800 41.19000
C  0.25300 58.70300 41.29600
N  4.53200 53.61600 41.92100
C  3.23000 53.83000 42.42900
C  2.59400 52.56500 42.68400
C  3.60600 51.60300 42.38600
C  4.70500 52.31600 41.85800
C  1.19100 52.19900 43.26200
C  3.90300 50.19400 42.39200
O  3.26300 49.23700 42.77600
C  5.30400 50.00500 41.78500
C  5.08000 49.10000 40.67400
O  4.60500 49.33200 39.55100
O  5.44200 47.85400 41.00000
C  5.19600 46.86000 39.98100
H  10.32500 54.45300 40.16200
H  6.17600 59.49600 41.10700
H  1.71300 55.24200 43.10100
H  8.25300 50.30700 41.38900
H  9.88700 52.17000 39.56100
H  10.72200 52.62800 42.37900
H  11.48800 52.07800 40.96200
H  10.66900 50.95000 41.93000
H  7.42500 49.30100 39.59600
H  9.05300 49.90600 39.18200
H  8.33400 50.90100 37.31100
H  7.13000 51.86700 38.26800
H  11.16500 56.26800 39.37800
H  11.75100 57.07700 40.74500
H  11.38500 57.95300 39.25500
H  7.05100 60.59800 39.60000
H  8.33900 61.78400 39.80400
H  7.58000 61.08900 41.28100
H  3.39200 59.19100 40.90200
H  2.24100 58.01300 43.25700
H  3.77200 59.29300 43.97400
H  3.44300 60.73100 42.77400
H  5.02900 59.95800 43.08500
H  0.78500 56.80300 41.38400
H  1.75400 57.79500 40.16100
H  0.52000 59.28600 42.17800
H  -0.66800 58.20800 41.60300
H  0.11900 59.39500 40.46400
H  0.46100 53.00800 43.26900
H  1.38800 52.05300 44.32400
H  0.75000 51.28700 42.85700
H  6.02900 49.49000 42.41500
H  5.85200 47.11400 39.14900
H  4.22400 46.80800 39.49100
H  5.48500 45.85000 40.27000
Mg -2.33800 34.80000 26.34100
C  -3.63200 32.86300 29.16000
C  -1.09500 37.11100 28.57300
C  -1.79800 36.69000 23.77800
C  -4.08200 32.30900 24.28700
N  -2.38600 34.95500 28.65500
C  -2.80400 34.02200 29.49600
C  -2.46000 34.45300 30.92300
C  -1.64000 35.80900 30.72700
C  -1.62800 35.94000 29.25100
C  -1.94200 36.96700 31.67800
C  -1.83300 33.33300 31.82300
C  -2.57100 33.15000 33.20600
H  -1.66600 32.81500 34.38900
N  -1.41700 36.56800 26.17800
C  -0.92800 37.36200 27.16600
C  -0.16000 38.48600 26.60600
C  -0.25400 38.29500 25.17200
C  -1.17200 37.17300 24.95500
C  0.67100 39.53900 27.39100
C  0.38900 39.06500 24.07100
O  0.13200 38.81500 22.86600
C  1.21500 40.29300 24.32600
N  -2.95500 34.55900 24.32400
C  -2.56100 35.52200 23.42100
C  -2.90500 35.05000 21.95100
C  -3.45400 33.57200 22.18000
C  -3.46000 33.46800 23.70000
C  -3.69100 35.95900 20.98700
C  -2.73900 32.35600 21.48000
C  -1.33000 31.93000 21.99100
N  -3.68100 32.98800 26.58700
C  -4.23900 32.11400 25.65900
C  -4.91600 31.11300 26.38400
C  -4.73200 31.34800 27.70800
C  -3.94700 32.46500 27.82500
C  -5.61200 29.89600 25.73700
C  -5.04200 30.90300 29.04800
O  -5.61800 29.95000 29.46000
C  -4.39400 31.92800 30.05300
C  -5.41700 32.73700 30.84100
O  -5.82400 33.84200 30.49400
O  -5.67900 32.15400 32.01400
C  -6.66700 32.88100 32.82900
H  -0.81800 37.83200 29.34500
H  -1.59400 37.26600 22.87300
H  -4.59700 31.68400 23.55400
H  -3.50600 34.59700 31.19300
H  -0.61300 35.58700 31.01800
H  -1.07300 37.18500 32.29800
H  -2.63500 36.60600 32.43900
H  -2.32200 37.91700 31.30300
H  -0.86300 33.64300 32.21400
H  -1.76800 32.37600 31.30400
H  -3.21800 32.27500 33.13900
H  -3.05500 34.11100 33.38000
H  1.71900 39.59700 27.09600
H  0.67300 39.43500 28.47600
H  0.26400 40.52700 27.17600
H  1.57100 40.77200 23.41400
H  2.04600 39.91900 24.92500
H  0.63700 41.06700 24.83300
H  -1.99700 34.82100 21.39400
H  -4.51300 33.54200 21.92400
H  -3.12700 36.16200 20.07700
H  -3.76000 36.94000 21.45800
H  -4.69100 35.55100 20.84300
H  -2.66600 32.61100 20.42300
H  -3.41800 31.50300 21.50000
H  -1.40300 30.87000 22.23200
H  -1.13300 32.50700 22.89400
H  -0.62100 32.14200 21.19000
H  -5.12600 29.02300 26.17200
H  -5.66700 29.98500 24.65200
H  -6.63200 29.76800 26.09900
H  -3.79900 31.38800 30.79000
H  -6.22600 33.60500 33.51400
H  -7.29800 32.19500 33.39400
H  -7.32500 33.48500 32.20400

