158

Mg 47.08200 35.55800 28.45200
C  45.47300 33.70500 30.92400
C  47.30500 38.13100 30.73200
C  48.00600 37.59700 25.99500
C  46.32800 33.02100 26.15400
N  46.55400 35.83800 30.56400
C  45.97100 34.90300 31.41200
C  46.03800 35.42800 32.88500
C  46.12800 36.94800 32.71700
C  46.65000 36.99600 31.25700
C  44.84500 37.76700 33.01600
C  47.32100 34.80400 33.58200
C  46.99700 34.40700 35.03700
H  47.45500 35.47600 36.09300
N  47.80300 37.50800 28.45100
C  47.86800 38.37500 29.49600
C  48.50000 39.59900 28.92900
C  48.74200 39.39600 27.52600
C  48.18900 38.14000 27.27300
C  48.77400 40.73700 29.82100
C  49.45400 40.33300 26.50600
O  49.79600 40.04200 25.35600
C  49.79300 41.68300 26.89600
N  47.20500 35.38700 26.41700
C  47.55700 36.37300 25.57200
C  47.46300 35.82000 24.08600
C  47.00500 34.37800 24.18500
C  46.73800 34.25100 25.71400
C  46.69700 36.79800 23.08100
C  47.97100 33.36000 23.55600
C  47.35900 32.44600 22.54000
N  46.15500 33.68200 28.47200
C  46.01000 32.65800 27.51800
C  45.53000 31.44900 28.08800
C  45.24700 31.83700 29.40300
C  45.66500 33.19100 29.58000
C  45.20600 30.13600 27.42500
C  44.64200 31.37900 30.65600
O  44.16900 30.23900 30.92300
C  44.59700 32.66200 31.56800
C  45.03800 32.29500 32.98700
O  46.17900 31.82800 33.22300
O  43.92700 32.50200 33.81600
C  43.96800 31.90100 35.11800
H  47.39600 38.93500 31.46600
H  48.38100 38.23800 25.19300
H  46.23100 32.17400 25.47200
H  45.10800 35.15800 33.38500
H  46.79100 37.31400 33.50100
H  44.73400 38.51500 32.23100
H  44.97600 38.28100 33.96800
H  43.98300 37.10700 33.11700
H  48.00200 35.65200 33.50600
H  47.78400 33.96700 33.06000
H  47.56000 33.50300 35.26800
H  45.95000 34.14400 35.18900
H  49.86200 40.67900 29.85000
H  48.41500 40.59400 30.84000
H  48.56800 41.70000 29.35400
H  48.91600 42.14000 27.35500
H  50.11400 42.25700 26.02700
H  50.66200 41.73400 27.55100
H  48.47800 35.66200 23.72000
H  46.03700 34.26900 23.69700
H  46.08500 37.57300 23.54200
H  45.97400 36.23100 22.49400
H  47.40300 37.28900 22.41200
H  48.45600 32.75000 24.31800
H  48.75200 33.83500 22.96200
H  48.18000 32.25200 21.85000
H  46.45200 32.80300 22.05100
H  47.01900 31.53400 23.03000
H  44.33100 30.36400 26.81600
H  45.14500 29.35300 28.18000
H  46.04100 29.98600 26.74100
H  43.57200 33.00900 31.70400
H  43.68700 32.66500 35.84400
H  44.94500 31.46300 35.31900
H  43.18700 31.14100 35.10200
Mg 16.17400 51.34300 25.43300
C  17.93600 50.53600 28.27800
C  13.42500 52.10700 27.17000
C  14.58200 51.83900 22.50400
C  18.92800 49.92400 23.67400
N  15.76000 51.17900 27.45500
C  16.68100 51.07500 28.48400
C  16.03800 51.60300 29.84100
C  14.49200 51.66000 29.56400
C  14.51000 51.68800 27.94600
C  13.74600 50.49600 30.10200
C  16.73300 52.89100 30.35700
C  16.53100 53.31000 31.80300
H  15.89000 52.40100 32.82000
N  14.17300 51.85000 24.88300
C  13.15200 52.22400 25.76400
C  11.94200 52.61900 25.03400
C  12.20500 52.28800 23.62300
C  13.71400 52.00100 23.61200
C  10.62300 52.80300 25.75800
C  11.20200 52.09700 22.43800
O  11.58200 51.71700 21.33400
C  9.73900 52.22800 22.66300
N  16.64100 51.02600 23.36700
C  15.87800 51.33300 22.37200
C  16.51600 51.16100 20.99700
C  17.91600 50.61800 21.39400
C  17.84000 50.55000 22.93600
C  15.58100 50.30900 20.05300
C  19.05000 51.58100 20.90700
C  20.22800 50.91200 20.12600
N  18.07600 50.50700 25.83400
C  19.10100 50.01600 25.05700
C  20.29700 49.68800 25.76100
C  19.85400 49.87300 27.13100
C  18.55400 50.38200 27.06600
C  21.57200 49.11500 25.13100
C  20.26100 49.81800 28.50000
O  21.36100 49.61900 28.95200
C  18.98600 50.22300 29.30300
C  18.52900 49.22100 30.30100
O  17.93800 48.19100 30.00600
O  18.84900 49.70500 31.56200
C  18.41400 48.98300 32.74000
H  12.64200 52.50900 27.81700
H  14.03100 52.06500 21.58900
H  19.65800 49.43900 23.02100
H  16.23500 50.82300 30.57700
H  14.03600 52.58500 29.91700
H  14.15200 49.89000 30.91200
H  13.31900 49.93400 29.27100
H  12.95000 50.98500 30.66400
H  16.27400 53.66800 29.74600
H  17.79100 52.83800 30.10100
H  15.95100 54.22800 31.70600
H  17.53300 53.49000 32.19200
H  10.69400 53.24700 26.75200
H  10.13800 51.83100 25.84700
H  10.03500 53.57000 25.25400
H  9.54300 53.24400 23.00700
H  9.49100 51.49600 23.43200
H  9.23500 52.08100 21.70800
H  16.52600 52.17800 20.60300
H  18.07300 49.61900 20.98700
H  16.16300 49.53600 19.55100
H  15.19500 50.93400 19.24700
H  14.72600 49.80200 20.50000
H  19.46100 52.00000 21.82500
H  18.66800 52.40700 20.30700
H  20.08900 49.83700 20.01300
H  21.21600 51.12200 20.53800
H  20.27200 51.27700 19.10000
H  21.67900 49.45900 24.10300
H  21.57300 48.02500 25.15800
H  22.40800 49.53600 25.69100
H  19.24000 51.19700 29.72200
H  19.02400 49.32200 33.57700
H  18.71000 47.93800 32.64000
H  17.37200 49.14200 33.01700

