158

Mg 25.26500 1.31100 29.68400
C  27.26100 1.00700 32.54500
C  22.58000 1.62400 31.66200
C  23.47500 1.23200 26.80700
C  28.10600 0.11800 27.84100
N  24.96300 1.40400 31.88500
C  25.91500 1.27400 32.84600
C  25.25800 1.33000 34.30700
C  23.71900 1.28100 33.98600
C  23.72700 1.46600 32.43800
C  23.02500 -0.08100 34.38000
C  25.81600 2.51000 35.17000
C  26.62600 2.18300 36.42900
H  26.45800 3.18400 37.54800
N  23.28200 1.55300 29.30100
C  22.29900 1.71700 30.28200
C  21.01500 1.90600 29.59300
C  21.28500 1.68600 28.15600
C  22.74200 1.54000 28.06500
C  19.69000 1.99100 30.36300
C  20.32300 1.65500 26.93900
O  20.62700 1.40900 25.77500
C  18.89100 1.88400 27.29100
N  25.70900 0.61200 27.69000
C  24.80100 0.86400 26.69900
C  25.45700 0.91800 25.29400
C  26.90100 0.69200 25.60200
C  26.98900 0.49900 27.16300
C  24.97400 -0.19200 24.35600
C  27.85800 1.77300 25.09300
C  27.92100 3.01000 25.93900
N  27.28400 0.68000 30.10100
C  28.27000 0.13900 29.27000
C  29.48300 -0.03600 30.07600
C  29.13900 0.37100 31.36900
C  27.82300 0.71300 31.29300
C  30.75700 -0.61400 29.53700
C  29.66600 0.57900 32.70700
O  30.78200 0.37400 33.19100
C  28.41400 0.94600 33.54100
C  28.26000 -0.11100 34.60300
O  27.64400 -1.14100 34.46300
O  29.00500 0.14600 35.73100
C  28.72100 -0.70600 36.88000
H  21.65500 1.61300 32.24300
H  22.93000 1.29200 25.86300
H  29.01600 -0.14700 27.29800
H  25.38800 0.35800 34.78200
H  23.16000 2.13800 34.36200
H  23.67900 -0.47100 35.16000
H  22.94100 -0.77600 33.54400
H  22.07700 0.17400 34.85400
H  24.90800 2.97500 35.55500
H  26.38000 3.31200 34.69500
H  27.67900 2.19000 36.14800
H  26.34300 1.19300 36.78500
H  19.27200 2.96000 30.08900
H  19.69900 1.73600 31.42300
H  18.98400 1.24400 30.00100
H  18.53900 0.98500 27.79900
H  18.25600 2.02700 26.41700
H  18.87500 2.79900 27.88200
H  25.31900 1.93200 24.91800
H  27.29800 -0.24800 25.21800
H  24.09800 0.26800 23.89900
H  24.73900 -1.17900 24.75300
H  25.67100 -0.41200 23.54800
H  27.52400 2.14100 24.12300
H  28.85000 1.32200 25.07500
H  27.27100 3.00400 26.81400
H  27.51700 3.84000 25.36100
H  28.92900 3.30000 26.23700
H  31.37800 0.24500 29.28200
H  30.63100 -1.26900 28.67500
H  31.14400 -1.29800 30.29200
H  28.81700 1.84800 34.00200
H  28.91100 -1.76600 36.71100
H  27.72100 -0.68600 37.31400
H  29.31700 -0.36100 37.72500
Mg 49.10400 47.35900 43.22200
C  45.72800 47.58200 42.00600
C  49.31600 44.35200 41.45600
C  52.38700 47.35900 43.85300
C  48.93200 50.76200 43.88700
N  47.74400 46.20600 41.67000
C  46.37200 46.46400 41.52400
C  45.63000 45.40100 40.76900
C  46.79000 44.30700 40.56400
C  48.04400 44.97300 41.28200
C  46.46200 42.84100 40.95600
C  44.94900 45.89100 39.47400
C  43.49000 45.61800 39.20400
H  43.06400 45.30800 37.76900
N  50.57200 45.96000 42.90000
C  50.47100 44.85100 42.07800
C  51.79500 44.28400 41.98500
C  52.65800 45.02100 42.86200
C  51.91500 46.18700 43.24100
C  52.05000 43.07900 41.06800
C  54.11200 44.71500 43.11600
O  54.60500 43.70600 42.63000
C  54.95500 45.64300 43.94300
N  50.46000 48.82200 43.80300
C  51.73600 48.54800 44.11100
C  52.43900 49.76600 44.77800
C  51.44300 50.92200 44.35000
C  50.19400 50.14000 43.94000
C  52.58600 49.56600 46.34800
C  51.94600 51.69600 43.05600
C  51.68400 53.23200 43.12500
N  47.63200 48.90300 43.24100
C  47.71900 50.23100 43.52400
C  46.49300 50.88100 43.32200
C  45.64900 49.84000 42.87200
C  46.36400 48.63300 42.70600
C  46.25300 52.37900 43.42000
C  44.27400 49.49600 42.48800
O  43.21100 50.11800 42.53700
C  44.29700 48.01500 41.94200
C  43.27800 47.18800 42.67200
O  43.39400 46.79000 43.80600
O  42.25000 46.81900 41.89500
C  41.28600 45.90500 42.50200
H  49.26300 43.31300 41.12400
H  53.37600 47.49800 44.29500
H  48.92200 51.80500 44.20900
H  44.89700 44.93900 41.43100
H  47.10200 44.27600 39.52000
H  45.41400 42.54500 40.91100
H  46.90300 42.69500 41.94200
H  47.03900 42.10300 40.39900
H  45.59600 45.62300 38.63900
H  45.21500 46.94300 39.37000
H  43.05200 46.60200 39.37100
H  43.09300 44.85000 39.86800
H  51.31400 42.89100 40.28600
H  52.11800 42.19200 41.69900
H  52.95200 43.31100 40.50100
H  55.13300 46.56200 43.38500
H  55.91000 45.14300 44.10800
H  54.39300 45.75800 44.87000
H  53.37900 49.75200 44.22600
H  51.30900 51.56000 45.22400
H  52.43800 48.52500 46.63600
H  51.81900 50.10600 46.90400
H  53.52800 49.97800 46.71100
H  51.48300 51.31100 42.14700
H  53.02200 51.73200 42.88800
H  50.97500 53.48400 42.33600
H  52.66200 53.71100 43.15300
H  51.21300 53.51900 44.06500
H  45.19900 52.65200 43.48200
H  46.62100 52.90900 42.54100
H  46.77900 52.81800 44.26800
H  43.89700 48.25300 40.95600
H  41.88700 45.06000 42.83900
H  40.63400 45.38700 41.80000
H  40.59300 46.42900 43.16000

