158

Mg 53.04800 23.98600 44.42600
C  50.59100 26.36300 43.91300
C  50.96000 21.56700 43.18400
C  55.67600 21.92900 44.00400
C  55.25900 26.58000 45.30800
N  51.06000 23.99300 43.64900
C  50.17800 25.06500 43.58700
C  48.92800 24.61700 42.70600
C  48.88300 23.15400 43.23800
C  50.38900 22.82600 43.31400
C  48.07100 22.90400 44.50100
C  48.94600 24.67500 41.12000
C  50.31400 25.04400 40.49500
H  50.29500 25.73200 39.08300
N  53.24900 21.87200 43.87700
C  52.25700 21.12800 43.29700
C  52.71100 19.83900 43.05900
C  54.13700 19.82800 43.36900
C  54.41200 21.24100 43.74500
C  51.84600 18.67900 42.46300
C  55.06100 18.64100 43.05500
O  54.64700 17.60700 42.50200
C  56.52500 18.76200 43.35600
N  55.11100 24.24100 44.58800
C  55.96500 23.25700 44.34800
C  57.44200 23.59800 44.83200
C  57.33400 25.12500 44.83400
C  55.87300 25.32600 44.98600
C  57.73400 23.00100 46.23600
C  58.00500 25.89300 43.59900
C  58.99200 26.96400 43.98800
N  52.96600 26.01400 44.66200
C  53.89900 26.89800 45.15800
C  53.23700 28.22000 45.17200
C  51.94900 28.12800 44.67200
C  51.84700 26.70100 44.39900
C  53.78800 29.53500 45.57800
C  50.66100 28.78400 44.36200
O  50.34000 29.95800 44.44600
C  49.80000 27.61000 43.82600
C  49.59300 28.02400 42.37000
O  50.53800 28.29600 41.63300
O  48.28800 28.22800 42.10900
C  47.90900 28.85700 40.82500
H  50.29800 20.74700 42.89700
H  56.62100 21.38200 44.00600
H  55.78300 27.42300 45.76200
H  48.05200 25.20500 42.98000
H  48.43000 22.55300 42.44900
H  47.26900 22.17700 44.36900
H  47.74800 23.89400 44.82400
H  48.81800 22.53200 45.20200
H  48.14400 25.30000 40.72700
H  48.71800 23.68200 40.73300
H  50.96900 24.17300 40.45900
H  50.64800 25.82800 41.17400
H  50.78300 18.91700 42.42900
H  52.01800 17.71800 42.94800
H  52.12800 18.69300 41.41000
H  57.08500 17.90400 42.98300
H  56.60700 18.93900 44.42800
H  56.89000 19.61700 42.78600
H  58.23700 23.26300 44.16500
H  57.83600 25.48000 45.73300
H  58.06100 21.96300 46.18700
H  56.82800 23.18100 46.81500
H  58.52000 23.61900 46.67100
H  57.15600 26.33700 43.08000
H  58.57400 25.20600 42.97400
H  59.02100 27.02000 45.07600
H  58.72500 27.92600 43.55200
H  59.98200 26.66200 43.64400
H  53.32500 29.95200 46.47200
H  53.69200 30.27100 44.78000
H  54.81300 29.40300 45.92400
H  48.83300 27.68800 44.32200
H  48.39300 29.83200 40.77200
H  46.83700 29.02900 40.72900
H  48.14600 28.26900 39.93800
Mg 0.91600 43.03900 26.42000
C  2.97300 43.22800 29.11700
C  -1.77600 42.57400 28.82700
C  -1.38000 42.42600 23.95800
C  3.47600 43.35300 24.20500
N  0.65500 42.70800 28.70800
C  1.70900 42.91000 29.61300
C  1.26500 42.71700 31.00500
C  -0.20900 42.24500 30.78400
C  -0.51000 42.52200 29.30900
C  -0.51600 40.75900 31.21900
C  1.33100 44.10000 31.71200
C  1.14200 44.25300 33.19700
H  0.91900 42.93600 34.01200
N  -1.33000 42.61300 26.37400
C  -2.19100 42.57500 27.45800
C  -3.55300 42.27800 26.99700
C  -3.42000 42.17900 25.54900
C  -1.97500 42.44000 25.21600
C  -4.75600 42.12400 27.94000
C  -4.44800 41.69700 24.61500
O  -4.19700 41.39900 23.46800
C  -5.84400 41.59000 25.14200
N  1.06500 42.67700 24.48400
C  -0.00500 42.46700 23.64800
C  0.44200 42.50800 22.16600
C  1.89800 43.03100 22.21000
C  2.18300 43.07100 23.70300
C  0.30700 41.13100 21.44700
C  2.03100 44.41900 21.52500
C  1.94800 45.68800 22.39900
N  2.81700 43.29600 26.54200
C  3.82500 43.48300 25.61600
C  5.13600 43.71000 26.27500
C  4.82000 43.63900 27.60000
C  3.41300 43.36900 27.74700
C  6.58100 43.77600 25.69700
C  5.33500 43.79600 28.96300
O  6.43900 44.12300 29.33300
C  4.23900 43.45000 29.90900
C  4.64100 42.18600 30.54600
O  4.63700 41.10200 30.11100
O  5.00300 42.52000 31.81700
C  5.71800 41.54900 32.68300
H  -2.63500 42.36600 29.46900
H  -2.05800 42.37500 23.10300
H  4.39600 43.61400 23.67900
H  1.89900 41.95600 31.46000
H  -0.87400 42.86100 31.38900
H  -1.10700 40.28900 30.43300
H  -0.96700 40.75000 32.21100
H  0.36100 40.18000 31.50800
H  0.50700 44.71600 31.34900
H  2.28200 44.55600 31.43900
H  0.33900 44.92000 33.51000
H  2.11100 44.58200 33.57300
H  -5.45000 42.91000 27.63900
H  -4.48000 42.26500 28.98500
H  -5.18500 41.12800 27.82900
H  -5.98000 40.65500 25.68500
H  -6.46300 41.55000 24.24600
H  -6.16000 42.48200 25.68300
H  -0.34300 43.15100 21.76800
H  2.52400 42.27400 21.73800
H  1.24700 40.62000 21.23800
H  -0.27200 41.13800 20.52300
H  -0.29300 40.40400 21.99400
H  1.25400 44.45600 20.76100
H  2.95200 44.33400 20.94900
H  1.27100 46.37200 21.88700
H  2.95700 46.08800 22.49400
H  1.67000 45.63200 23.45100
H  7.18000 43.16400 26.37100
H  6.89800 44.81800 25.75100
H  6.58100 43.37100 24.68600
H  4.10700 44.31300 30.56200
H  6.60400 42.02300 33.10500
H  6.11300 40.71500 32.10300
H  5.11300 41.05000 33.44100

