158

Mg -2.41300 17.05200 26.07700
C  -2.90200 14.76500 28.83900
C  -2.90300 19.57500 28.26800
C  -2.48700 18.92200 23.41400
C  -2.65600 14.06200 23.98900
N  -2.97600 17.14700 28.30600
C  -2.97300 16.15300 29.25200
C  -3.13900 16.73600 30.66600
C  -3.18000 18.27100 30.45000
C  -3.01800 18.38100 28.89700
C  -4.55400 18.87800 30.87600
C  -1.96800 16.45800 31.68300
C  -1.81000 17.24000 33.01100
H  -2.00100 16.49500 34.26000
N  -2.55900 18.97900 25.89400
C  -2.67600 19.88500 26.87800
C  -2.53800 21.22400 26.29100
C  -2.44800 21.06200 24.92800
C  -2.45300 19.59700 24.68300
C  -2.52600 22.51500 27.16200
C  -2.21500 22.09600 23.75000
O  -2.19900 21.93200 22.56400
C  -2.08400 23.47300 24.21800
N  -2.44000 16.58100 23.97200
C  -2.38900 17.55300 23.07500
C  -2.32500 16.95900 21.67800
C  -2.20900 15.47700 21.92400
C  -2.42700 15.33900 23.42500
C  -3.57900 17.35400 20.79600
C  -0.89800 14.84400 21.38300
C  0.33700 14.98900 22.26200
N  -2.73700 14.80100 26.22800
C  -2.87400 13.80300 25.29600
C  -2.99600 12.52000 26.04200
C  -3.02400 12.80900 27.40100
C  -2.82300 14.20700 27.48900
C  -2.98900 11.10600 25.39800
C  -3.12900 12.25000 28.72600
O  -3.19700 11.10500 29.10600
C  -3.03800 13.51100 29.72800
C  -1.86900 13.26900 30.61900
O  -0.76700 13.77200 30.37700
O  -2.28800 12.49800 31.65100
C  -1.33700 12.11500 32.68700
H  -3.05500 20.46400 28.88500
H  -2.48200 19.48100 22.47600
H  -2.77200 13.19400 23.33700
H  -4.12500 16.47600 31.05000
H  -2.32200 18.80700 30.85400
H  -4.23300 19.71900 31.49000
H  -5.22300 18.26200 31.47700
H  -5.20300 19.28000 30.09800
H  -1.05200 16.64000 31.12200
H  -2.08300 15.41400 31.97600
H  -2.52400 18.06200 32.96500
H  -0.82700 17.69800 32.90600
H  -2.41700 22.26200 28.21700
H  -3.42300 23.08000 26.91200
H  -1.62000 23.08800 26.96400
H  -2.89000 23.75400 24.89600
H  -2.16300 24.13100 23.35200
H  -1.11600 23.54300 24.71300
H  -1.44400 17.33900 21.16200
H  -3.00100 14.87800 21.47400
H  -4.16900 18.20800 21.12900
H  -4.40400 16.64900 20.89800
H  -3.16900 17.35400 19.78600
H  -0.59400 15.31600 20.44900
H  -1.10400 13.78200 21.25100
H  0.00200 15.30700 23.24900
H  1.02700 15.74500 21.88700
H  0.84300 14.03300 22.39000
H  -4.01800 10.88500 25.11500
H  -2.63600 10.40100 26.15000
H  -2.21300 11.08100 24.63300
H  -3.94000 13.54300 30.33800
H  -1.66700 11.24500 33.25300
H  -1.11900 12.92000 33.38900
H  -0.35200 11.80100 32.34100
Mg 6.41400 53.86600 40.86500
C  5.95400 50.47500 40.88200
C  9.54200 53.47400 39.61600
C  6.63100 57.42000 40.56700
C  3.04500 54.32500 41.76500
N  7.48100 52.06800 39.93400
C  7.18000 50.76900 40.22500
C  8.31700 49.79600 39.79000
C  9.57200 50.80600 39.75600
C  8.84800 52.22700 39.84800
C  10.71400 50.61400 40.81600
C  8.11700 49.08000 38.46400
C  7.51600 49.87200 37.30800
H  6.77600 49.08400 36.10300
N  7.83900 55.21300 40.18700
C  9.07100 54.83700 39.76200
C  9.92000 55.99400 39.58000
C  9.12900 57.12500 39.98300
C  7.79000 56.58500 40.27400
C  11.31900 55.91600 39.13400
C  9.66500 58.57000 39.99400
O  10.80000 58.80500 39.63600
C  8.90600 59.76000 40.48000
N  5.04700 55.69800 41.18800
C  5.34800 57.00400 40.94700
C  4.11800 57.92200 41.05600
C  2.99000 56.86000 41.28500
C  3.71600 55.55300 41.56600
C  4.27500 59.12600 42.11600
C  2.00600 56.83400 40.05000
C  1.27800 58.20000 39.73100
N  4.87200 52.70800 41.33100
C  3.57800 53.01100 41.74900
C  2.88700 51.80700 42.07100
C  3.85400 50.79600 41.85300
C  5.03300 51.34700 41.35700
C  1.50200 51.60900 42.69400
C  4.07600 49.36400 41.95500
O  3.38700 48.48400 42.41500
C  5.42600 49.15500 41.23300
C  5.12500 48.22000 40.09400
O  4.62200 48.63200 39.05500
O  5.30100 46.88100 40.48200
C  4.98700 46.07800 39.33200
H  10.62300 53.34400 39.53500
H  6.67400 58.47700 40.30000
H  2.01300 54.39800 42.11300
H  8.30600 49.07100 40.60400
H  10.14200 50.62800 38.84400
H  11.62000 50.33700 40.27800
H  10.30100 49.82000 41.43800
H  11.02200 51.42300 41.47900
H  7.37500 48.31700 38.69700
H  9.12000 48.79400 38.14500
H  8.27200 50.49100 36.82500
H  6.74500 50.50700 37.74400
H  11.30300 56.49300 38.21000
H  11.79300 54.97300 38.86400
H  11.97600 56.51600 39.76500
H  8.42700 59.49800 41.42400
H  8.22500 59.81800 39.63100
H  9.56800 60.61400 40.62400
H  3.97700 58.40400 40.08900
H  2.48600 57.18100 42.19600
H  5.25700 59.59700 42.07300
H  4.13900 58.71600 43.11700
H  3.64400 59.98800 41.90000
H  1.18400 56.17300 40.32100
H  2.57200 56.40300 39.22400
H  1.46200 58.43200 38.68200
H  1.53700 59.04200 40.37300
H  0.21100 58.04300 39.88200
H  0.97300 52.55600 42.78900
H  1.56500 51.15600 43.68400
H  0.92100 50.93400 42.06500
H  6.00400 48.61200 41.98000
H  5.50700 46.43100 38.44100
H  3.90700 45.94900 39.25800
H  5.50100 45.14700 39.57200

