158

Mg 41.90100 40.55200 25.95700
C  41.05700 43.01400 28.42200
C  42.29200 38.28200 28.38900
C  42.87900 38.39500 23.61000
C  41.46100 42.96800 23.57200
N  41.74400 40.75500 28.15900
C  41.33200 41.75300 28.97200
C  41.31600 41.31200 30.52600
C  41.54300 39.71400 30.42100
C  41.82100 39.55500 28.89900
C  42.59000 39.12600 31.37400
C  39.95200 41.72800 31.24200
C  39.57600 41.08300 32.51000
H  39.19800 42.01000 33.63400
N  42.48600 38.54400 25.93500
C  42.59400 37.81600 27.05600
C  43.05400 36.47900 26.77800
C  43.14300 36.37900 25.36000
C  42.87000 37.83200 24.86800
C  43.27900 35.43100 27.84400
C  43.50200 35.22900 24.39000
O  43.51000 35.31500 23.16700
C  43.64700 33.83800 24.97600
N  42.28700 40.69900 23.87400
C  42.66000 39.67300 23.11800
C  42.53800 39.97300 21.61300
C  41.64200 41.28200 21.70800
C  41.82800 41.66000 23.17000
C  43.93500 40.16200 20.97600
C  40.25800 41.22100 21.08300
C  39.32800 40.14900 21.58800
N  41.42600 42.58800 25.89900
C  41.29700 43.47700 24.84700
C  40.96900 44.81900 25.34600
C  40.87700 44.65500 26.70700
C  41.17900 43.30700 27.03200
C  40.70100 46.05000 24.52700
C  40.40600 45.34500 27.93300
O  39.90800 46.45100 28.10300
C  40.60800 44.30500 29.07400
C  41.59500 44.94600 30.00400
O  42.81200 44.73300 30.10300
O  40.91900 45.83000 30.86700
C  41.52700 46.17300 32.11600
H  42.27000 37.51400 29.16500
H  43.02800 37.65100 22.82500
H  41.16300 43.67700 22.79700
H  42.08100 41.90000 31.03400
H  40.62000 39.19200 30.67500
H  42.21000 38.32500 32.00700
H  42.83100 39.85200 32.15000
H  43.45900 38.82300 30.78900
H  39.10000 41.66100 30.56500
H  40.04100 42.76600 31.56200
H  40.38900 40.41100 32.78500
H  38.62900 40.57700 32.32600
H  42.27700 35.10600 28.12600
H  43.68100 35.85700 28.76300
H  43.84400 34.55800 27.51700
H  43.56500 33.16100 24.12600
H  42.82100 33.69800 25.67400
H  44.61400 33.89500 25.47700
H  42.08300 39.13600 21.08300
H  42.08000 42.07100 21.09600
H  44.50600 39.43500 21.55400
H  44.28900 41.18300 20.83700
H  43.87900 39.73100 19.97600
H  40.31200 41.09700 20.00100
H  39.96100 42.25700 21.24500
H  38.83500 39.63600 20.76300
H  38.58500 40.45700 22.32300
H  39.93900 39.49300 22.20700
H  39.66500 46.14300 24.20000
H  41.22800 45.99400 23.57500
H  41.14400 46.94200 24.96900
H  39.62600 44.21800 29.53700
H  42.58500 46.35900 31.93300
H  41.47500 45.33700 32.81300
H  40.94600 47.01400 32.49400
Mg 30.08600 58.91100 40.13100
C  27.45000 57.00700 39.11300
C  32.29700 56.44100 38.89200
C  32.89400 61.10200 40.23800
C  27.99500 61.57700 40.93900
N  29.89400 56.97600 39.00200
C  28.66000 56.37500 38.77300
C  28.88100 55.08600 37.98300
C  30.37200 54.76900 38.39800
C  30.93100 56.19000 38.66000
C  30.51500 53.88100 39.67800
C  28.67900 55.38100 36.47900
C  27.55200 54.56800 35.84000
H  26.89300 55.16300 34.62300
N  32.28500 58.75900 39.76700
C  32.90400 57.60600 39.27700
C  34.27000 57.80200 39.28100
C  34.56600 59.13400 39.65000
C  33.22800 59.75800 39.91500
C  35.27200 56.78100 38.87000
C  35.99900 59.67500 39.83800
O  36.96800 59.05000 39.61400
C  36.11900 61.05100 40.50800
N  30.41500 61.09300 40.37000
C  31.65300 61.69100 40.50500
C  31.50600 63.21500 41.04900
C  29.90200 63.27200 41.25800
C  29.39600 61.87000 40.84900
C  32.34500 63.58600 42.33400
C  29.12200 64.42700 40.41300
C  28.27000 65.43800 41.27500
N  28.12300 59.28400 40.12700
C  27.34000 60.38500 40.50600
C  25.95500 60.10800 40.35600
C  25.93000 58.76000 39.81900
C  27.23300 58.29900 39.66900
C  24.81200 61.05100 40.60800
C  25.07900 57.66500 39.39500
O  23.86100 57.64800 39.38800
C  25.99300 56.49700 38.94500
C  25.75500 55.43700 39.86300
O  26.21300 55.35100 40.97200
O  24.99000 54.59600 39.17800
C  24.26300 53.43800 39.86700
H  32.83700 55.52800 38.63400
H  33.79700 61.71500 40.20200
H  27.25900 62.32800 41.23400
H  28.20100 54.28700 38.27600
H  30.92800 54.28800 37.59200
H  31.01100 54.47300 40.44600
H  31.14000 52.98800 39.64900
H  29.48400 53.64900 39.94700
H  29.60400 55.11500 35.96600
H  28.48200 56.43600 36.29000
H  26.82100 54.33700 36.61600
H  28.05500 53.71200 35.38900
H  35.68100 57.11200 37.91500
H  34.87400 55.83900 38.49400
H  36.07500 56.77800 39.60600
H  35.55600 61.33200 41.39800
H  35.78000 61.86600 39.86800
H  37.18300 61.11700 40.73400
H  31.80400 63.99300 40.34500
H  29.57800 63.37500 42.29300
H  33.29500 63.05800 42.41900
H  31.75400 63.35600 43.22100
H  32.62000 64.64100 42.32400
H  28.36300 63.95400 39.79000
H  29.72000 64.97800 39.68700
H  27.20300 65.23200 41.18500
H  28.41600 66.44200 40.87700
H  28.64400 65.30100 42.28900
H  25.07400 61.98600 40.11400
H  24.73900 61.27900 41.67100
H  23.90500 60.57800 40.23100
H  25.83600 56.25000 37.89500
H  24.76400 53.31900 40.82700
H  24.47500 52.56600 39.24800
H  23.17900 53.53500 39.93000

