158

Mg 0.99500 7.75500 25.90100
C  1.83500 9.84300 28.52200
C  1.52400 5.01800 28.12100
C  1.21700 5.61100 23.31700
C  1.16600 10.46300 23.77000
N  1.55200 7.50900 28.06500
C  1.85000 8.54700 28.97600
C  1.89400 7.99000 30.35200
C  2.12400 6.44600 30.11900
C  1.70400 6.30000 28.67900
C  3.60000 6.04400 30.46200
C  0.61900 8.37900 31.08500
C  0.87800 8.81300 32.56600
H  2.09400 8.14600 33.17400
N  1.11400 5.68400 25.75500
C  1.24000 4.72000 26.74400
C  1.26900 3.31500 26.18600
C  1.30600 3.46600 24.71700
C  1.21200 4.93600 24.53400
C  1.40400 2.01700 26.96700
C  1.49600 2.41600 23.67800
O  1.48500 2.63700 22.47600
C  1.46200 0.99800 23.99800
N  1.08400 8.00300 23.89600
C  1.15500 6.97300 23.03900
C  1.09300 7.53000 21.51400
C  0.80200 8.99300 21.76800
C  0.96100 9.22500 23.24300
C  2.46600 7.30600 20.84700
C  -0.66400 9.49300 21.29100
C  -0.62100 10.92900 20.77100
N  1.23200 9.79900 26.08500
C  1.35500 10.75100 25.11500
C  1.53300 12.05600 25.78800
C  1.72700 11.72800 27.16000
C  1.61700 10.35600 27.24800
C  1.69100 13.46300 25.16100
C  2.06200 12.30300 28.44300
O  2.39300 13.44500 28.81800
C  1.92400 11.14100 29.41200
C  3.04300 11.12800 30.38700
O  4.16600 10.65900 30.22700
O  2.66800 11.93100 31.42800
C  3.72700 12.00400 32.49200
H  1.63400 4.15800 28.78600
H  1.26800 5.03200 22.39200
H  1.11600 11.36300 23.15400
H  2.82900 8.39600 30.73800
H  1.51900 5.87000 30.82000
H  4.17400 6.89000 30.83900
H  4.06800 5.73100 29.52800
H  3.52500 5.16300 31.09900
H  -0.08600 7.55600 31.20300
H  0.12600 9.14500 30.48600
H  0.03800 8.59500 33.22700
H  1.15200 9.86300 32.47400
H  0.70700 1.23000 26.68000
H  1.02800 2.27200 27.95800
H  2.47800 1.83800 27.00900
H  2.31600 0.79200 24.64400
H  1.43600 0.32200 23.14300
H  0.50000 0.68200 24.40100
H  0.31900 6.97000 20.98900
H  1.54400 9.61600 21.26800
H  2.51400 6.29700 20.43800
H  3.38900 7.47300 21.40200
H  2.50800 8.00500 20.01100
H  -1.39400 9.44900 22.09900
H  -0.94300 8.73000 20.56600
H  0.38600 11.33400 20.87500
H  -1.28000 11.61300 21.30500
H  -0.89600 10.92600 19.71600
H  1.16400 13.45100 24.20700
H  2.71800 13.82800 25.18600
H  1.12800 14.21300 25.71700
H  1.01900 11.33100 29.99000
H  3.15900 12.38800 33.33900
H  4.57800 12.66900 32.34800
H  4.11200 11.03100 32.79800
Mg 29.21900 58.71700 41.57100
C  26.26200 57.07600 40.84600
C  30.88200 56.07700 39.96800
C  31.79000 60.69800 41.36200
C  27.15300 61.48700 42.61500
N  28.63000 56.79600 40.58000
C  27.39500 56.40300 40.30600
C  27.30700 55.15600 39.53900
C  28.79400 54.67500 39.57600
C  29.51200 55.91600 40.04300
C  28.99800 53.53100 40.60500
C  26.73700 55.43300 38.03400
C  26.28300 54.25100 37.21500
H  25.73000 54.60800 35.79500
N  31.15100 58.37100 40.97400
C  31.68200 57.23000 40.34000
C  33.07400 57.38600 40.13600
C  33.33300 58.74700 40.35000
C  32.04100 59.41500 40.91200
C  34.02500 56.31900 39.68100
C  34.59700 59.45600 40.06600
O  35.57400 58.82100 39.66200
C  34.76200 60.91600 40.07900
N  29.40700 60.89500 41.85800
C  30.65300 61.40200 41.86500
C  30.61300 62.84100 42.35100
C  29.18700 63.06900 42.87600
C  28.47400 61.77500 42.32500
C  31.68800 63.33600 43.28400
C  28.56500 64.47600 42.42600
C  28.07600 65.45900 43.54500
N  27.07500 59.19000 41.84600
C  26.43100 60.30900 42.32300
C  25.01900 60.06800 42.36500
C  24.89300 58.84200 41.75400
C  26.19300 58.36900 41.51800
C  23.97700 60.91700 42.99500
C  23.95700 57.77000 41.45600
O  22.71800 57.75500 41.47500
C  24.83500 56.60600 40.76900
C  24.54100 55.39700 41.52600
O  24.57600 55.27900 42.72600
O  23.94100 54.38100 40.76500
C  23.55100 53.12600 41.54800
H  31.34600 55.21100 39.49200
H  32.65400 61.35800 41.26000
H  26.62400 62.28000 43.14900
H  26.64300 54.42400 39.99900
H  29.13600 54.32400 38.60300
H  28.22300 53.71200 41.35000
H  29.98000 53.66900 41.05700
H  29.09100 52.51500 40.22100
H  27.57700 55.83000 37.46400
H  25.97200 56.20900 38.06600
H  25.43900 53.87100 37.79000
H  27.06800 53.49800 37.15100
H  33.39100 55.43200 39.68100
H  34.68800 56.18800 40.53600
H  34.45400 56.46900 38.69000
H  34.04700 61.39300 39.40800
H  35.70800 61.34400 39.74600
H  34.73700 61.32900 41.08800
H  30.81700 63.47000 41.48500
H  29.22600 63.09400 43.96500
H  32.56300 62.68700 43.31500
H  31.43600 63.33200 44.34400
H  32.02400 64.32000 42.95500
H  27.77000 64.37800 41.68700
H  29.33400 64.96300 41.82700
H  27.01400 65.65600 43.39400
H  28.62100 66.40200 43.54100
H  28.17000 64.93800 44.49800
H  24.13300 61.99300 42.92100
H  23.98100 60.82300 44.08100
H  23.03900 60.57500 42.55900
H  24.55700 56.49600 39.72100
H  24.08700 53.01400 42.49100
H  23.71900 52.26800 40.89700
H  22.48400 53.27600 41.70900

