158

Mg 35.66700 0.62500 29.68500
C  33.35700 1.86700 32.17400
C  38.14000 0.72600 32.06000
C  37.94500 -0.01600 27.30400
C  33.22300 1.36000 27.27200
N  35.69300 1.29900 31.82900
C  34.62800 1.53100 32.69900
C  35.12800 1.68200 34.10400
C  36.70400 1.46400 34.02200
C  36.87600 1.15900 32.57500
C  37.60400 2.57000 34.56000
C  34.33000 0.89000 35.23700
C  34.02000 1.65000 36.46700
H  35.15500 2.52200 36.93500
N  37.71700 0.50700 29.65800
C  38.58400 0.42300 30.75900
C  39.91900 -0.03600 30.38700
C  39.90100 -0.27200 28.99100
C  38.49500 0.03900 28.56500
C  41.02500 -0.16400 31.46200
C  41.08900 -0.66000 27.99400
O  40.86800 -0.70200 26.77200
C  42.46200 -0.75700 28.59500
N  35.59600 0.69900 27.60400
C  36.70300 0.39900 26.82200
C  36.36700 0.61700 25.30900
C  34.82700 0.97000 25.39400
C  34.49400 0.95500 26.85200
C  37.31200 1.56700 24.50700
C  33.82300 0.31600 24.42100
C  33.25200 -1.03700 24.88900
N  33.75500 1.33900 29.65700
C  32.81600 1.55300 28.57700
C  31.53000 1.93500 29.08200
C  31.69500 2.06700 30.47300
C  33.00700 1.76300 30.77600
C  30.35000 2.31400 28.19600
C  31.06300 2.40000 31.71900
O  29.90800 2.71800 31.97800
C  32.03100 2.21600 32.95000
C  32.14700 3.42200 33.79200
O  33.03100 4.21400 33.64800
O  31.27500 3.42800 34.91100
C  31.51500 4.73800 35.67900
H  38.74400 0.51200 32.94400
H  38.68900 -0.31000 26.56100
H  32.37300 1.58700 26.62500
H  35.00000 2.73800 34.34100
H  36.86300 0.54800 34.59300
H  37.25700 3.26200 35.32800
H  38.25700 3.06800 33.84300
H  38.18600 1.88700 35.17900
H  34.94000 0.05300 35.57500
H  33.41600 0.52100 34.77100
H  33.74800 1.00200 37.30000
H  33.18700 2.31800 36.24700
H  41.67600 0.69500 31.62300
H  41.67700 -1.00400 31.22100
H  40.58000 -0.37300 32.43500
H  42.44400 -1.66500 29.19800
H  42.76000 0.13500 29.14600
H  43.17200 -0.88800 27.77800
H  36.55600 -0.34800 24.83900
H  34.82700 1.99900 25.03600
H  38.08400 1.83400 25.22900
H  36.80700 2.41700 24.04800
H  37.80500 1.04300 23.68800
H  34.30200 0.13300 23.45900
H  33.01800 1.03100 24.24900
H  33.54800 -1.67400 24.05600
H  32.17600 -1.00900 25.06300
H  33.76100 -1.30800 25.81400
H  30.65900 2.65700 27.20800
H  29.79800 3.00700 28.83100
H  29.75600 1.43800 27.93700
H  31.60400 1.34000 33.43700
H  31.33000 5.63300 35.08500
H  32.56100 4.64300 35.97000
H  30.89300 4.67200 36.57200
Mg 52.85800 23.54600 43.54200
C  50.02700 25.76700 43.27000
C  50.89200 20.93600 43.23400
C  55.66800 21.79800 43.30900
C  54.80600 26.63700 43.89100
N  50.69000 23.36800 42.97900
C  49.69400 24.39200 43.14300
C  48.33800 23.69400 43.18300
C  48.69500 22.28100 43.74400
C  50.14900 22.17800 43.24200
C  48.58600 22.07300 45.27900
C  47.44300 23.74900 41.93800
C  48.18600 23.96000 40.65500
H  47.54800 23.31200 39.37400
N  53.25800 21.63400 43.08000
C  52.30500 20.65500 43.06300
C  52.93100 19.43700 42.82400
C  54.33000 19.65400 42.93400
C  54.45300 21.10300 43.13800
C  52.18000 18.07200 42.93300
C  55.46700 18.61300 42.83200
O  55.13500 17.43500 42.63600
C  56.97300 18.86200 43.00500
N  54.94600 24.15100 43.42000
C  55.90300 23.19300 43.49600
C  57.25500 23.80800 43.75500
C  57.01200 25.35800 43.64500
C  55.45600 25.38800 43.65600
C  57.84200 23.34400 45.05500
C  57.49700 25.88300 42.27600
C  58.86000 26.62100 42.46500
N  52.48100 25.75800 43.75000
C  53.35800 26.79200 43.91200
C  52.61600 28.01000 44.20100
C  51.30900 27.67900 43.89600
C  51.25900 26.28300 43.51300
C  53.16600 29.32200 44.73600
C  49.94700 28.17000 43.81000
O  49.39900 29.23800 44.02900
C  49.13400 27.00200 43.21900
C  48.78500 27.37500 41.84100
O  49.46800 27.21500 40.85900
O  47.51100 27.90100 41.75000
C  46.96500 28.05400 40.37300
H  50.21900 20.11100 43.47700
H  56.60400 21.23500 43.29300
H  55.33400 27.58400 44.02200
H  47.79000 24.29200 43.91100
H  48.15000 21.49800 43.21700
H  48.33300 23.04400 45.70400
H  49.54800 21.77100 45.69500
H  47.76400 21.40300 45.53100
H  46.71800 24.54800 42.09500
H  46.91600 22.80300 41.82000
H  49.23300 23.65900 40.64600
H  48.17700 25.01900 40.39800
H  51.14900 18.03500 42.58000
H  52.05700 17.78800 43.97800
H  52.69900 17.34700 42.30500
H  57.58800 17.98300 42.81000
H  57.29300 19.35700 43.92100
H  57.21400 19.51100 42.16300
H  57.96800 23.40100 43.03800
H  57.43400 25.85100 44.52200
H  58.41500 22.43200 44.88200
H  57.04200 23.30100 45.79400
H  58.52700 24.08400 45.47000
H  56.74000 26.52400 41.82500
H  57.60400 24.98700 41.66500
H  58.95900 27.21000 43.37700
H  58.95100 27.40000 41.70800
H  59.75900 26.00800 42.40600
H  52.48900 29.65400 45.52400
H  53.09100 30.09900 43.97500
H  54.10200 29.24500 45.29000
H  48.25400 26.89300 43.85200
H  46.27600 27.21100 40.32400
H  47.64900 27.92300 39.53400
H  46.24900 28.86500 40.24100

