158

Mg 48.02200 15.98200 28.51700
C  46.06800 15.53300 31.48300
C  49.94200 18.10900 30.43800
C  49.47200 16.85100 25.77600
C  45.34600 14.47000 26.75100
N  47.92600 16.73800 30.67100
C  47.07700 16.44800 31.67600
C  47.58100 16.89300 33.07500
C  48.70400 17.85400 32.65500
C  48.85800 17.55400 31.15600
C  48.44000 19.36900 33.06200
C  48.05600 15.66900 33.91900
C  48.17000 15.85300 35.44200
H  47.58400 17.11900 36.11500
N  49.58700 17.13800 28.18900
C  50.26500 17.95000 29.06700
C  51.41300 18.56900 28.41200
C  51.36200 18.11500 27.08200
C  50.08800 17.35900 26.96600
C  52.38300 19.44100 29.09800
C  52.37800 18.27700 25.93600
O  52.32700 17.55800 24.99200
C  53.58800 19.11100 26.18800
N  47.42600 15.76300 26.48500
C  48.26000 16.21200 25.52700
C  47.83400 15.79900 24.15300
C  46.53600 14.92300 24.47400
C  46.36400 15.10700 25.96200
C  47.67700 17.04500 23.17300
C  46.43000 13.44800 24.02900
C  47.00700 12.31600 24.93000
N  46.14600 15.06300 28.99000
C  45.20800 14.53300 28.19400
C  44.12800 13.98700 28.94500
C  44.49700 14.31100 30.26900
C  45.72300 15.01300 30.26500
C  42.83300 13.31000 28.52100
C  44.14600 14.10000 31.58000
O  43.24400 13.41900 32.11500
C  45.07000 14.96700 32.45100
C  44.35000 16.03700 33.17500
O  43.92400 17.09500 32.71400
O  44.16100 15.64400 34.44700
C  43.33600 16.48600 35.32400
H  50.50800 18.80800 31.05700
H  49.99600 17.32600 24.94400
H  44.48700 13.94300 26.32900
H  46.76800 17.31400 33.66700
H  49.58500 17.53400 33.21200
H  48.35800 20.01100 32.18500
H  49.35300 19.65700 33.58300
H  47.58100 19.46700 33.72500
H  49.07800 15.43900 33.61500
H  47.51500 14.77300 33.61400
H  49.22200 15.95900 35.70700
H  47.88400 14.93000 35.94700
H  52.75000 20.20700 28.41500
H  53.19900 18.87000 29.54000
H  52.03900 20.07500 29.91600
H  53.96400 18.81500 27.16800
H  53.28400 20.15500 26.25900
H  54.33400 18.95000 25.41000
H  48.58600 15.10800 23.77100
H  45.67400 15.39300 24.00000
H  46.64300 17.15700 22.84700
H  48.44800 16.72800 22.47000
H  48.05200 17.92000 23.70300
H  46.84100 13.23400 23.04200
H  45.34800 13.32300 23.99200
H  47.73100 12.56700 25.70500
H  47.57300 11.63100 24.29900
H  46.13600 11.89600 25.43400
H  42.05700 13.31400 29.28600
H  42.97100 12.26700 28.23500
H  42.42200 13.81000 27.64400
H  45.63700 14.38500 33.17800
H  42.69900 15.89500 35.98200
H  42.56800 17.09400 34.84600
H  43.99200 17.08700 35.95400
Mg 16.51100 51.55500 26.79900
C  18.31000 50.39300 29.63200
C  13.98800 52.43900 28.91000
C  14.65300 52.70100 24.07500
C  18.88700 50.14300 24.86000
N  16.13200 51.09300 29.06000
C  17.03600 50.77100 30.00900
C  16.44600 51.05000 31.44900
C  14.94100 51.53800 31.11800
C  14.99100 51.77200 29.62100
C  13.95400 50.38400 31.50000
C  17.27900 52.17000 32.19600
C  17.83100 51.89900 33.63700
H  16.92200 52.48100 34.72500
N  14.59400 52.38700 26.49000
C  13.74700 52.68900 27.53900
C  12.65100 53.51600 27.05900
C  12.80200 53.60200 25.69300
C  14.11100 52.96000 25.33900
C  11.46300 53.98400 27.92200
C  11.87300 54.17300 24.64200
O  12.27000 54.31600 23.48200
C  10.44400 54.74300 24.95300
N  16.71400 51.41800 24.76500
C  15.77800 51.90600 23.78200
C  16.41900 51.84300 22.41300
C  17.91900 51.09600 22.68100
C  17.88300 50.82700 24.17800
C  15.49300 51.23500 21.34400
C  19.12200 51.97700 22.24400
C  19.35800 53.35100 22.93700
N  18.20200 50.57200 27.10800
C  19.06100 49.97700 26.22800
C  20.25800 49.36700 26.87100
C  19.93800 49.53000 28.20700
C  18.72300 50.23300 28.32500
C  21.39300 48.63100 26.28200
C  20.37900 49.24400 29.54300
O  21.36900 48.62600 29.86100
C  19.46300 49.87200 30.51800
C  19.09300 48.85600 31.54300
O  18.31800 47.88500 31.49100
O  19.68500 49.21000 32.72900
C  19.44900 48.36200 33.93500
H  13.23600 52.79800 29.61400
H  14.15000 52.93800 23.13500
H  19.58700 49.77600 24.10800
H  16.39300 50.12300 32.01900
H  14.66100 52.47000 31.60900
H  13.08300 50.80100 32.00600
H  14.33800 49.72700 32.28100
H  13.75600 49.76700 30.62400
H  16.63900 53.03200 32.38400
H  18.03600 52.46500 31.46900
H  18.83400 52.32300 33.69600
H  17.90400 50.82200 33.78300
H  11.47100 55.06400 27.77700
H  11.49200 53.81400 28.99800
H  10.52500 53.49900 27.64900
H  9.65700 54.00100 24.81900
H  10.29300 55.48500 24.17000
H  10.45700 55.23900 25.92400
H  16.62000 52.88700 22.17300
H  18.04900 50.20500 22.06800
H  14.48700 51.26300 21.76300
H  15.81500 50.20600 21.18500
H  15.36000 51.84800 20.45200
H  18.77000 52.23800 21.24600
H  20.01500 51.35300 22.19800
H  18.74300 53.53800 23.81800
H  19.02400 54.15300 22.27700
H  20.43000 53.43000 23.11400
H  21.80600 47.90200 26.97900
H  22.15400 49.32900 25.93400
H  21.10900 48.13100 25.35600
H  19.87300 50.71600 31.07300
H  19.60500 47.31400 33.67700
H  18.44900 48.45200 34.36000
H  20.16100 48.64600 34.71000

