158

Mg 26.51300 50.05900 26.11800
C  24.58400 51.35300 28.73700
C  28.99900 49.42800 28.24500
C  28.31000 48.82700 23.45900
C  24.14000 51.36200 23.88900
N  26.79100 50.62100 28.22300
C  25.81300 50.96000 29.15100
C  26.24300 50.65300 30.61200
C  27.77100 50.32600 30.37900
C  27.88300 50.07700 28.81700
C  28.52400 51.63500 30.75000
C  25.52600 49.42500 31.25300
C  25.23700 49.37300 32.75600
H  26.04500 50.16400 33.71400
N  28.35200 49.27500 25.85100
C  29.24600 49.06700 26.90200
C  30.42300 48.42800 26.45200
C  30.18800 48.11100 25.06000
C  28.96000 48.80300 24.69600
C  31.58300 48.16800 27.38100
C  31.03400 47.38700 24.14300
O  30.82500 47.40300 22.98400
C  32.24400 46.66200 24.55000
N  26.31500 50.15100 23.92200
C  27.06400 49.34000 23.09500
C  26.49800 49.41600 21.65800
C  25.07700 50.02000 21.87000
C  25.15800 50.51000 23.31900
C  27.37400 50.34800 20.74500
C  23.81500 49.19400 21.55500
C  24.00200 47.70300 21.91700
N  24.67900 51.01000 26.21400
C  23.85200 51.50200 25.22300
C  22.76600 52.21200 25.88200
C  22.91600 52.02000 27.23800
C  24.14100 51.43900 27.37000
C  21.69400 52.97200 25.23300
C  22.35200 52.27100 28.53400
O  21.25800 52.77200 28.75500
C  23.35500 51.75200 29.64000
C  23.58100 52.82900 30.56600
O  24.33600 53.74000 30.35400
O  22.76100 52.76800 31.65700
C  23.04100 53.71200 32.73300
H  29.64500 49.07900 29.05300
H  28.69900 48.42000 22.52300
H  23.40800 51.84600 23.23900
H  25.91800 51.51500 31.19500
H  28.08900 49.48300 30.99200
H  28.87700 52.08900 29.82300
H  29.47500 51.49800 31.26500
H  27.91600 52.37200 31.27500
H  26.14600 48.58500 30.93900
H  24.53200 49.24800 30.84200
H  25.46800 48.36200 33.09200
H  24.16700 49.54000 32.87500
H  32.60700 48.12700 27.01200
H  31.31100 47.28300 27.95500
H  31.68100 48.93800 28.14600
H  32.70900 46.13400 23.71700
H  31.84900 45.89200 25.21300
H  32.96700 47.30200 25.05600
H  26.54900 48.45200 21.15100
H  25.01400 50.86200 21.18100
H  26.86300 51.09400 20.13700
H  28.18700 49.86400 20.20300
H  27.91300 50.94800 21.47900
H  23.61800 49.18600 20.48300
H  22.90200 49.61200 21.97800
H  24.21800 47.10500 21.03200
H  23.08800 47.28800 22.34200
H  24.79300 47.62000 22.66200
H  21.58900 52.74500 24.17200
H  21.85700 54.03600 25.40600
H  20.80100 52.62900 25.75500
H  22.95900 50.89300 30.18200
H  22.09400 53.69100 33.27300
H  23.30800 54.73000 32.45300
H  23.88700 53.48400 33.38100
Mg 5.58900 55.32300 40.50000
C  5.04100 51.79400 40.47100
C  8.92100 54.62000 39.52100
C  6.03900 58.57600 39.93300
C  2.20800 55.80100 41.15900
N  6.72700 53.38500 39.96700
C  6.33300 52.11500 39.90700
C  7.36200 51.20200 39.42500
C  8.66900 52.05200 39.52000
C  8.09800 53.49800 39.64900
C  9.63400 51.69800 40.70000
C  7.09500 50.61300 37.96300
C  5.98000 51.15500 37.05400
H  6.39700 52.04400 35.84700
N  7.33000 56.48800 39.89000
C  8.55900 56.02000 39.65100
C  9.45400 57.19900 39.36500
C  8.68300 58.36500 39.54800
C  7.27700 57.86800 39.79100
C  10.90200 56.97400 38.96300
C  9.14500 59.81700 39.48000
O  10.35100 60.06300 39.41400
C  8.18400 61.01200 39.54800
N  4.23200 56.85200 40.31100
C  4.75100 58.14800 40.24500
C  3.62700 59.22300 40.41800
C  2.36000 58.30200 40.70800
C  2.94200 56.89300 40.77900
C  3.87100 60.21900 41.51600
C  1.22200 58.30200 39.55200
C  -0.25800 58.44200 39.99600
N  3.93400 54.06000 40.83100
C  2.64300 54.38000 41.19900
C  1.92300 53.23100 41.67600
C  2.84900 52.18500 41.33900
C  4.01600 52.67900 40.75700
C  0.52500 53.14600 42.11000
C  2.95700 50.81100 41.38200
O  2.13300 49.98000 41.68100
C  4.41500 50.45800 40.75600
C  4.28000 49.52900 39.65600
O  3.91500 49.86100 38.56500
O  4.67100 48.26000 39.98200
C  4.65400 47.31900 38.86000
H  9.97300 54.40000 39.32600
H  5.97800 59.66400 39.85700
H  1.26400 56.21100 41.52300
H  7.35000 50.32800 40.07700
H  9.28200 52.11900 38.62100
H  9.74000 50.61300 40.67600
H  9.27300 52.19600 41.59900
H  10.61500 52.15800 40.58100
H  6.90000 49.54900 38.10200
H  8.08800 50.45800 37.54100
H  5.23900 51.63300 37.69500
H  5.39900 50.31900 36.66500
H  11.52300 57.86900 38.91800
H  10.87400 56.46500 38.00000
H  11.43500 56.22600 39.55000
H  8.70900 61.96500 39.60600
H  7.62300 61.03500 40.48300
H  7.44900 60.94200 38.74600
H  3.61100 59.72500 39.45100
H  1.92300 58.61800 41.65600
H  2.90000 60.52200 41.90800
H  4.41900 61.04500 41.06500
H  4.43200 59.64000 42.25000
H  1.21000 57.44000 38.88500
H  1.53000 59.11200 38.89100
H  -0.36000 59.03800 40.90300
H  -0.69200 57.45400 40.15100
H  -0.83600 58.86400 39.17400
H  0.52900 52.94700 43.18100
H  0.06400 52.34100 41.53800
H  0.06500 54.12800 41.99500
H  5.01700 49.94300 41.50400
H  4.06600 46.46100 39.18500
H  5.60300 46.79500 38.74500
H  4.15900 47.55300 37.91700

