158

Mg 35.47000 1.20300 30.02000
C  33.17500 2.16700 32.42000
C  37.91700 1.06800 32.58600
C  37.92900 0.95300 27.78700
C  33.15200 1.94400 27.55600
N  35.50200 1.60900 32.27000
C  34.39400 1.89100 33.03200
C  34.75500 2.01600 34.48200
C  36.32400 1.91900 34.51200
C  36.60900 1.50700 33.07600
C  37.11700 3.21400 34.73700
C  34.02800 0.87100 35.29900
C  33.66300 1.25100 36.77500
H  34.81000 1.72600 37.71300
N  37.63600 0.88800 30.13500
C  38.40300 0.83700 31.25900
C  39.80400 0.43300 30.89300
C  39.81400 0.39900 29.46600
C  38.42700 0.85700 29.10200
C  40.96600 0.32500 31.88700
C  40.94600 0.04900 28.48600
O  40.73800 -0.07800 27.28600
C  42.36000 -0.32600 28.95000
N  35.55100 1.52300 27.98600
C  36.68700 1.19900 27.23100
C  36.31300 1.12700 25.68400
C  34.86400 1.66600 25.61500
C  34.44700 1.65800 27.13600
C  37.35000 1.84700 24.81100
C  33.88100 0.88300 24.60000
C  33.62400 1.41700 23.15800
N  33.46800 1.78500 29.97000
C  32.68500 2.07800 28.88100
C  31.37900 2.37800 29.36900
C  31.56300 2.51200 30.74400
C  32.84300 2.13200 31.06300
C  30.13000 2.70900 28.54000
C  30.85800 2.89900 31.99100
O  29.68000 3.30300 32.16700
C  31.98900 2.70600 33.16900
C  32.23400 4.00200 33.76000
O  32.70100 4.97600 33.15700
O  31.89300 4.12600 35.08100
C  32.43200 5.25100 35.82800
H  38.71300 0.93200 33.32100
H  38.60400 0.61500 26.99800
H  32.52800 2.13800 26.68000
H  34.51000 3.02900 34.80000
H  36.77000 1.11100 35.09100
H  37.56100 3.68000 33.85800
H  37.95400 3.08200 35.42200
H  36.60200 4.01100 35.27300
H  34.60200 -0.05500 35.34000
H  33.11900 0.54800 34.79000
H  33.10000 0.49700 37.32500
H  32.97200 2.08300 36.64300
H  40.65600 -0.13700 32.82400
H  41.40300 1.32200 31.94000
H  41.82700 -0.26700 31.57500
H  42.56300 0.34700 29.78300
H  43.17600 -0.26800 28.22900
H  42.24100 -1.34100 29.33000
H  36.27100 0.07900 25.38800
H  34.96500 2.64500 25.14600
H  38.02100 2.47600 25.39600
H  36.92500 2.57400 24.11900
H  37.93400 1.18200 24.17500
H  32.86800 0.87200 25.00200
H  34.25400 -0.14000 24.53900
H  33.68900 2.50300 23.09300
H  32.61100 1.11400 22.89600
H  34.42300 0.99500 22.54800
H  30.32000 2.49100 27.48900
H  29.94300 3.78000 28.61900
H  29.26600 2.23400 29.00500
H  31.60600 2.02600 33.92900
H  32.36800 6.18900 35.27600
H  33.44600 5.00200 36.14100
H  31.62900 5.33300 36.56200
Mg 26.92600 51.13600 27.14900
C  24.52600 52.12900 29.45600
C  28.95200 50.22800 29.53500
C  29.12000 50.60700 24.78300
C  24.57300 52.24600 24.63500
N  26.73300 51.27500 29.33500
C  25.64100 51.51200 30.06000
C  25.84200 51.23400 31.50700
C  27.33400 50.56000 31.52900
C  27.69600 50.66800 30.04700
C  28.18900 51.31500 32.54500
C  24.76100 50.29800 32.07700
C  24.04400 50.72400 33.41000
H  24.19000 49.76500 34.58700
N  28.83000 50.56000 27.18200
C  29.53400 50.26700 28.26500
C  30.89700 49.93600 27.90200
C  30.96200 50.17300 26.47500
C  29.59500 50.46400 26.06300
C  31.96500 49.58000 28.81400
C  32.12100 50.08800 25.56200
O  32.14000 50.40300 24.34600
C  33.46700 49.60700 26.07600
N  26.78900 51.36700 25.01500
C  27.86400 51.00700 24.26700
C  27.69500 51.02100 22.82300
C  26.13200 51.31900 22.74900
C  25.73000 51.64800 24.23000
C  28.57100 52.05000 22.05200
C  25.16400 50.22000 22.19600
C  23.81200 50.75300 21.64700
N  24.95700 52.01700 27.02400
C  24.21400 52.45700 25.98300
C  23.01700 53.05300 26.41700
C  23.07100 52.91200 27.81700
C  24.26700 52.25500 28.10700
C  22.04200 53.74700 25.51400
C  22.38200 53.24400 29.05500
O  21.31500 53.77400 29.28500
C  23.24900 52.57200 30.12600
C  23.59800 53.62000 31.14600
O  24.42200 54.51200 31.08300
O  22.75000 53.45900 32.21400
C  23.00900 54.44000 33.31500
H  29.61500 49.89000 30.33400
H  29.79100 50.21700 24.01400
H  23.76100 52.33800 23.91100
H  25.81700 52.17500 32.05600
H  27.41000 49.50000 31.77300
H  29.14400 50.79600 32.63700
H  27.89600 51.28500 33.59500
H  28.38200 52.34500 32.24700
H  25.26500 49.36300 32.32000
H  23.90600 50.05300 31.44700
H  22.98900 50.87600 33.18100
H  24.37800 51.66800 33.84000
H  31.60400 49.74900 29.82800
H  32.88900 50.15200 28.72900
H  32.22100 48.54600 28.58100
H  34.14600 49.51500 25.22800
H  33.42000 48.62200 26.54000
H  33.82800 50.36000 26.77600
H  27.93500 50.02500 22.45300
H  26.00600 52.18900 22.10400
H  29.54200 52.03900 22.54700
H  28.15500 53.05600 22.10100
H  28.67000 51.74500 21.01000
H  24.88000 49.64900 23.08000
H  25.66100 49.52000 21.52400
H  23.67100 50.56600 20.58300
H  23.69500 51.79500 21.94600
H  22.99100 50.26300 22.17000
H  21.07500 53.74100 26.01800
H  21.79300 53.05800 24.70700
H  22.40100 54.75200 25.29500
H  22.64200 51.78100 30.56700
H  23.99700 54.39000 33.77300
H  22.30600 54.34700 34.14300
H  22.85100 55.47400 33.00700

