158

Mg 56.36100 24.13300 44.84100
C  54.35400 26.88800 44.11900
C  53.73500 22.03800 44.33000
C  58.55900 21.54500 45.16000
C  58.93300 26.36600 45.50500
N  54.36800 24.40200 44.02300
C  53.76700 25.64200 43.86900
C  52.32600 25.37700 43.40100
C  52.07700 23.95600 43.90100
C  53.42400 23.38200 44.07000
C  51.21300 23.82500 45.19700
C  52.16300 25.56300 41.84800
C  50.86200 26.06800 41.35000
H  50.34900 25.38400 40.04200
N  56.20300 22.04500 44.61600
C  54.99900 21.37800 44.46100
C  55.24700 19.97400 44.47700
C  56.65200 19.80100 44.64300
C  57.23400 21.17400 44.80000
C  54.12900 18.85900 44.31000
C  57.35100 18.33200 44.57800
O  56.69600 17.35900 44.24100
C  58.85200 18.25000 44.70000
N  58.55400 24.03300 44.95800
C  59.15700 22.83900 45.29600
C  60.55100 23.04900 45.88100
C  60.75800 24.57500 45.94000
C  59.35600 25.08700 45.40700
C  60.72200 22.34000 47.21900
C  61.92100 25.14300 45.12500
C  63.14900 25.63600 45.95700
N  56.71300 26.19600 44.77800
C  57.72400 26.91400 45.23400
C  57.36800 28.34400 45.23900
C  56.02900 28.34100 44.82500
C  55.67900 27.02500 44.54000
C  58.12600 29.56500 45.61600
C  54.86400 29.20100 44.48400
O  54.77200 30.42400 44.57900
C  53.73500 28.25700 43.85900
C  53.76900 28.50300 42.38100
O  54.69800 28.20400 41.58400
O  52.62400 29.12200 41.98300
C  52.47500 29.27700 40.51200
H  52.90100 21.35100 44.16800
H  59.27000 20.72400 45.27300
H  59.74100 27.01200 45.85600
H  51.60300 26.04900 43.86300
H  51.62600 23.37400 43.09700
H  50.38000 23.12800 45.11400
H  50.69100 24.76500 45.37700
H  51.83100 23.64100 46.07600
H  52.12300 24.56900 41.40300
H  52.96300 26.10400 41.34200
H  50.97900 27.14500 41.23400
H  50.03600 25.91200 42.04400
H  54.44800 18.34100 43.40600
H  53.13700 19.30600 44.37600
H  54.20000 18.10800 45.09600
H  59.16100 19.03300 44.00800
H  59.20100 17.31800 44.25600
H  59.23400 18.41600 45.70800
H  61.24600 22.63900 45.14800
H  60.78200 24.95900 46.96000
H  59.77200 21.85900 47.45600
H  60.99100 22.97200 48.06600
H  61.43400 21.51600 47.16200
H  61.65200 26.03300 44.55600
H  62.27500 24.34100 44.47700
H  63.05700 25.32500 46.99700
H  63.10800 26.72500 45.94500
H  64.08000 25.23900 45.55200
H  58.11700 30.13500 44.68700
H  59.13000 29.41200 46.01300
H  57.59100 30.12600 46.38300
H  52.78700 28.44700 44.36200
H  52.85000 28.38400 40.01100
H  53.13600 30.08000 40.18800
H  51.40500 29.34700 40.31500
Mg -5.52200 25.58200 26.29100
C  -4.53300 27.42900 29.32300
C  -7.35700 23.59500 28.54500
C  -6.31700 23.72400 23.80100
C  -3.30000 27.53000 24.60300
N  -5.94700 25.59600 28.71600
C  -5.34900 26.36600 29.70600
C  -5.80600 25.85000 31.11900
C  -6.68100 24.57000 30.83700
C  -6.71700 24.59600 29.30300
C  -6.04100 23.21500 31.48000
C  -6.60400 26.89700 31.88800
C  -6.42000 27.01900 33.41800
H  -5.84400 25.93500 34.23800
N  -6.72000 23.98000 26.16900
C  -7.35000 23.27900 27.17500
C  -8.21600 22.22900 26.55400
C  -7.90400 22.26900 25.15900
C  -6.96900 23.34500 25.02700
C  -9.15700 21.36600 27.36900
C  -8.42400 21.39100 24.06100
O  -7.98800 21.38000 22.92300
C  -9.54400 20.37900 24.34600
N  -4.93800 25.66400 24.49000
C  -5.39200 24.71000 23.56800
C  -4.72300 24.88700 22.14700
C  -3.86900 26.26000 22.38000
C  -4.03100 26.45200 23.91200
C  -3.90200 23.60200 21.68600
C  -4.38300 27.65100 21.74100
C  -4.10700 27.82200 20.28900
N  -4.25100 27.18300 26.72700
C  -3.38600 27.83800 25.93100
C  -2.72600 28.87100 26.64800
C  -3.15600 28.78300 27.94200
C  -4.12900 27.75800 27.98000
C  -1.84100 29.85800 25.98000
C  -3.04000 29.32700 29.26300
O  -2.25900 30.20000 29.64900
C  -3.83200 28.47800 30.19400
C  -2.83600 27.79100 31.05300
O  -2.19400 26.80900 30.66300
O  -2.69300 28.35000 32.27500
C  -1.97300 27.50700 33.27700
H  -7.78500 22.84200 29.21000
H  -6.50200 23.14800 22.89200
H  -2.66700 28.24000 24.06700
H  -4.91500 25.59200 31.69100
H  -7.73000 24.70100 31.10300
H  -6.78900 22.65100 32.03600
H  -5.24800 23.54000 32.15300
H  -5.64400 22.56300 30.70100
H  -7.61000 26.93900 31.47000
H  -6.18400 27.77300 31.39400
H  -7.44300 27.03400 33.79200
H  -5.84400 27.94000 33.50900
H  -10.10600 21.11900 26.89400
H  -9.34100 21.74900 28.37300
H  -8.63000 20.42700 27.53800
H  -9.38100 19.67400 25.16100
H  -9.63700 19.76100 23.45200
H  -10.48600 20.91500 24.46100
H  -5.34000 24.99800 21.25600
H  -2.82100 26.11800 22.11600
H  -2.86400 23.77100 21.39900
H  -4.27300 23.23600 20.72900
H  -4.02200 22.71400 22.30700
H  -4.11100 28.51400 22.34800
H  -5.46700 27.54900 21.77900
H  -3.91100 26.82800 19.88700
H  -3.17600 28.38900 20.30000
H  -4.86000 28.40100 19.75500
H  -2.35900 30.34500 25.15400
H  -1.05600 29.34400 25.42600
H  -1.34800 30.56400 26.64900
H  -4.54900 29.04300 30.78900
H  -2.06200 26.42900 33.14000
H  -2.32700 27.82100 34.25800
H  -0.89900 27.69000 33.24200

