158

Mg 35.82000 2.06900 29.69400
C  33.43700 3.13500 32.19200
C  38.10800 2.23400 32.27100
C  38.19600 1.75400 27.38900
C  33.25700 2.16600 27.30100
N  35.73000 2.40100 31.92100
C  34.60100 2.67700 32.75600
C  35.04000 2.79700 34.22400
C  36.57400 2.86700 34.13000
C  36.83600 2.42700 32.74200
C  37.29100 4.19600 34.52600
C  34.42500 1.61300 34.99700
C  34.29200 1.58200 36.52200
H  34.70700 2.86100 37.30700
N  37.91700 1.88700 29.82200
C  38.67600 2.01600 30.97200
C  40.03900 1.74200 30.69000
C  40.13000 1.70600 29.22700
C  38.71500 1.82900 28.71300
C  41.17400 1.58700 31.69300
C  41.39900 1.52900 28.34700
O  41.35000 1.45700 27.11300
C  42.78200 1.32400 29.04500
N  35.72900 1.89600 27.67100
C  36.85600 1.72800 26.94600
C  36.51800 1.45500 25.45600
C  34.99500 1.28700 25.52100
C  34.55000 1.73300 26.93200
C  37.00700 2.51300 24.32700
C  34.42700 -0.13500 25.19200
C  33.91500 -0.45100 23.79400
N  33.77200 2.59300 29.61500
C  32.85600 2.60400 28.60500
C  31.56500 3.16800 29.12400
C  31.75000 3.40000 30.44900
C  33.10100 2.97100 30.75300
C  30.38600 3.50100 28.31100
C  31.18200 3.82600 31.70800
O  30.00700 4.18700 31.91700
C  32.18400 3.75300 32.86400
C  32.44400 5.08500 33.42300
O  33.16500 5.92400 32.92200
O  31.73100 5.23000 34.64400
C  31.66100 6.49200 35.38600
H  38.91000 2.26400 33.01200
H  38.85000 1.47400 26.56100
H  32.45100 2.10800 26.56600
H  34.63000 3.75100 34.55700
H  36.91000 2.07600 34.80100
H  37.08900 5.01500 33.83600
H  38.34000 3.90900 34.58700
H  37.03200 4.65800 35.47900
H  34.79600 0.69600 34.54000
H  33.35200 1.52700 34.82700
H  34.87800 0.74200 36.89500
H  33.28900 1.24000 36.77700
H  41.75400 2.48500 31.48100
H  41.79600 0.70900 31.51800
H  40.70700 1.52800 32.67600
H  43.62800 1.37500 28.35900
H  42.83700 0.46900 29.71800
H  42.79800 2.20700 29.68400
H  36.92600 0.49800 25.13300
H  34.46200 2.00900 24.90200
H  37.68500 3.23700 24.77900
H  36.14800 3.04400 23.91800
H  37.67100 2.04700 23.59900
H  33.66400 -0.27900 25.95600
H  35.15100 -0.84200 25.59600
H  33.90500 0.49500 23.25400
H  32.91400 -0.87800 23.72500
H  34.57300 -1.09800 23.21400
H  30.68300 3.37400 27.27000
H  30.02100 4.50900 28.50800
H  29.51400 2.87700 28.50800
H  31.79900 3.05300 33.60500
H  30.68500 6.81200 35.75000
H  31.96200 7.30500 34.72600
H  32.26400 6.38400 36.28800
Mg 35.92000 49.35100 25.01200
C  36.36700 47.43200 27.90200
C  34.69900 51.83400 26.86000
C  35.54600 51.06100 22.07500
C  37.01100 46.53800 23.19700
N  35.50700 49.58600 27.20300
C  35.82900 48.68100 28.21600
C  35.52800 49.32300 29.53200
C  34.92600 50.72900 29.14600
C  35.00200 50.67800 27.65900
C  33.45800 51.12100 29.70200
C  36.78200 49.41700 30.47400
C  36.77600 48.87600 31.89500
H  35.58000 49.16900 32.79900
N  35.13400 51.19100 24.51300
C  34.68900 52.12300 25.48100
C  34.29900 53.29900 24.83200
C  34.54100 53.12300 23.43100
C  35.16600 51.78100 23.28200
C  33.79800 54.49400 25.62000
C  34.46100 54.08200 22.32100
O  35.02900 53.80100 21.27400
C  33.89600 55.57900 22.46400
N  36.30700 48.89300 22.98000
C  36.05700 49.74200 21.94500
C  36.26400 49.08000 20.53700
C  36.82800 47.62300 20.91700
C  36.75800 47.70200 22.46800
C  35.05600 49.07200 19.61300
C  38.30000 47.33900 20.31700
C  39.43900 48.19000 20.80200
N  36.55100 47.36400 25.38900
C  36.87100 46.33700 24.51000
C  37.26300 45.15900 25.27300
C  37.09500 45.57400 26.60500
C  36.61200 46.91300 26.59000
C  37.68400 43.79200 24.81300
C  37.28500 45.18100 28.00000
O  37.70200 44.11400 28.47100
C  36.82700 46.40000 28.91500
C  35.74000 45.78000 29.75500
O  34.57800 45.55800 29.47700
O  36.22500 45.59200 31.01500
C  35.32100 44.97000 31.99000
H  34.33900 52.65900 27.47800
H  35.35700 51.50300 21.09500
H  37.24900 45.57200 22.74700
H  34.83400 48.75800 30.15400
H  35.46600 51.51200 29.67800
H  33.15200 50.43200 30.48900
H  32.64800 51.08100 28.97400
H  33.43100 52.04000 30.28700
H  37.06100 50.47100 30.47500
H  37.64600 48.94700 30.00500
H  37.68100 49.28400 32.34600
H  36.89900 47.80500 31.73500
H  32.96600 55.00500 25.13600
H  34.65000 55.16900 25.69900
H  33.42200 54.38200 26.63700
H  34.15600 56.08900 23.39200
H  32.80700 55.61000 22.45200
H  34.27600 56.25800 21.70000
H  37.02100 49.62700 19.97600
H  36.05000 46.95000 20.55600
H  34.51900 48.12600 19.54500
H  35.28100 49.39000 18.59500
H  34.34500 49.80400 19.99600
H  38.15000 47.58300 19.26500
H  38.44900 46.26400 20.41500
H  39.98900 48.52400 19.92200
H  40.16000 47.69600 21.45300
H  39.00600 49.12700 21.15000
H  38.19400 43.91200 23.85700
H  36.81100 43.17100 24.61200
H  38.28400 43.34600 25.60600
H  37.60600 46.67700 29.62500
H  34.38300 45.48200 32.20800
H  35.95800 44.80000 32.85800
H  35.17400 43.97800 31.56400

