158

Mg 47.76200 35.16200 27.69600
C  45.90000 33.45600 30.16000
C  47.78000 37.92500 29.87700
C  49.15700 36.79500 25.38900
C  46.98800 32.51900 25.52600
N  47.05700 35.55100 29.78400
C  46.56600 34.58800 30.63500
C  46.70900 35.07000 32.09900
C  46.79400 36.60500 31.95100
C  47.24000 36.72500 30.45200
C  45.42300 37.31800 32.21300
C  47.96000 34.42600 32.85300
C  48.07500 34.56800 34.37100
H  47.35000 35.78100 35.06500
N  48.46400 37.12700 27.74100
C  48.43300 38.06700 28.66100
C  49.30900 39.16900 28.22100
C  49.83200 38.77400 26.97000
C  49.12700 37.53400 26.67000
C  49.61900 40.45900 28.99300
C  50.86100 39.46100 26.04500
O  51.26700 38.88600 25.05300
C  51.57600 40.69400 26.38000
N  48.06400 34.68600 25.70200
C  48.67800 35.55900 24.88600
C  48.59900 35.13600 23.41000
C  48.04600 33.71100 23.56400
C  47.69700 33.64500 25.05400
C  47.83100 36.08700 22.41800
C  49.13800 32.68200 23.12700
C  48.65400 31.54300 22.23600
N  46.83500 33.28000 27.78900
C  46.49400 32.33600 26.80900
C  45.78900 31.20100 27.42200
C  45.48300 31.67500 28.69200
C  46.12500 32.92800 28.87800
C  45.34500 29.92400 26.78800
C  44.77400 31.38700 29.88400
O  44.10200 30.43700 30.10700
C  44.87800 32.59500 30.82800
C  45.08500 32.20700 32.30200
O  46.06200 31.63900 32.75200
O  44.07500 32.71500 33.15000
C  44.45800 32.56500 34.59300
H  47.73900 38.83800 30.47500
H  49.66000 37.38000 24.61600
H  46.64900 31.80800 24.77100
H  45.79400 34.77600 32.61400
H  47.56100 36.91200 32.66200
H  45.40500 37.85300 33.16300
H  44.58300 36.63300 32.10400
H  45.25300 38.05800 31.43100
H  48.86900 34.70000 32.31600
H  47.85500 33.36900 32.60900
H  49.06800 34.62300 34.81600
H  47.70200 33.64800 34.82200
H  50.70300 40.51000 29.09700
H  49.27200 40.35000 30.02100
H  49.30600 41.42400 28.59500
H  52.14900 40.59400 27.30200
H  50.83300 41.47000 26.56400
H  52.27400 40.97000 25.58900
H  49.61600 35.03200 23.03100
H  47.15400 33.76400 22.94100
H  48.53900 36.80600 22.00600
H  47.33900 36.75800 23.12200
H  47.04600 35.61500 21.82600
H  49.45900 32.19700 24.04900
H  50.11000 33.11600 22.89100
H  47.89000 30.92900 22.71300
H  49.54500 30.94600 22.04400
H  48.31600 31.97600 21.29400
H  45.77400 29.88900 25.78700
H  44.25600 29.90500 26.76400
H  45.62700 29.02800 27.34200
H  43.88500 33.04500 30.81500
H  45.37700 33.09100 34.85100
H  44.57800 31.52700 34.90300
H  43.79100 33.11400 35.25700
Mg 42.47800 41.63200 25.61900
C  41.65800 44.17900 27.92500
C  43.80500 39.85600 28.22800
C  43.20900 39.25200 23.44600
C  41.60400 43.76800 23.14300
N  42.85700 42.11900 27.88300
C  42.20400 43.06600 28.54600
C  42.14400 42.66600 30.07700
C  42.97400 41.40900 30.21300
C  43.22900 41.07700 28.68400
C  44.32700 41.51700 31.04200
C  40.74600 42.52400 30.74400
C  40.47400 43.10400 32.18100
H  41.41800 43.12300 33.34900
N  43.23000 39.76400 25.83900
C  43.68300 39.16400 26.98700
C  44.10900 37.76300 26.68400
C  43.92800 37.60200 25.33500
C  43.54500 38.91500 24.80700
C  44.68600 36.83200 27.70500
C  44.05200 36.34400 24.39600
O  43.92900 36.44700 23.20900
C  44.54600 35.08200 24.92700
N  42.40900 41.51600 23.64500
C  42.68400 40.41700 22.93000
C  42.51200 40.65500 21.36700
C  41.79500 42.01000 21.29400
C  41.89200 42.45000 22.77000
C  43.89700 40.66900 20.62400
C  40.26600 42.02800 20.76600
C  39.14200 41.48600 21.66100
N  41.96100 43.67900 25.45000
C  41.71700 44.44600 24.39700
C  41.33300 45.77500 24.79700
C  41.21200 45.68700 26.20200
C  41.61700 44.38600 26.58700
C  40.91900 46.97400 24.00700
C  40.80700 46.37000 27.43200
O  40.20100 47.43000 27.63200
C  41.08700 45.34900 28.61100
C  41.86700 46.05100 29.74500
O  43.03300 46.44000 29.59400
O  41.18700 46.09700 30.96000
C  41.99900 46.52100 32.10300
H  44.16700 39.27400 29.07800
H  43.28600 38.53500 22.62600
H  41.38900 44.28700 22.20700
H  42.72300 43.42000 30.61000
H  42.34400 40.60500 30.59600
H  44.33900 42.41300 31.66200
H  45.20200 41.54300 30.39200
H  44.40100 40.67500 31.72900
H  40.61500 41.44400 30.80900
H  39.94100 42.84500 30.08300
H  39.50800 42.61300 32.30100
H  40.23700 44.14800 31.97600
H  44.84300 37.32800 28.66300
H  45.68100 36.45800 27.46600
H  44.03600 36.01100 28.00800
H  43.83100 34.70700 25.65900
H  45.42800 35.29600 25.53000
H  44.90300 34.36700 24.18600
H  41.82600 39.91700 20.94900
H  42.38100 42.72000 20.70900
H  44.11500 41.60200 20.10400
H  43.93300 39.84900 19.90700
H  44.73700 40.52200 21.30400
H  40.25000 41.55900 19.78200
H  40.17000 43.11200 20.69700
H  39.70500 41.18300 22.54400
H  38.63000 40.65600 21.17500
H  38.31200 42.10100 22.00800
H  40.24700 47.59800 24.59700
H  40.48600 46.59000 23.08400
H  41.76000 47.63000 23.78500
H  40.12400 44.99100 28.97600
H  42.56200 47.44100 31.94800
H  42.71400 45.70900 32.23800
H  41.54900 46.47800 33.09500

