158

Mg 2.08400 -2.00200 44.93300
C  5.30900 -1.22300 44.10200
C  0.96200 0.47900 42.72900
C  -1.00800 -3.22700 45.08700
C  3.38300 -5.17100 46.06000
N  3.02800 -0.62200 43.51100
C  4.36900 -0.43500 43.41200
C  4.77500 0.74700 42.56600
C  3.42400 1.40200 42.16800
C  2.38500 0.45100 42.85700
C  3.25700 2.84700 42.57800
C  5.70400 0.35800 41.27700
C  6.97700 1.15200 41.13200
H  7.54400 1.22500 39.65100
N  0.24700 -1.38300 44.16700
C  0.02300 -0.36800 43.30900
C  -1.34400 -0.20300 43.11600
C  -2.06400 -1.22100 43.82900
C  -0.94000 -1.97800 44.39600
C  -1.84300 0.82600 42.18200
C  -3.54600 -1.56100 43.87500
O  -4.27600 -0.89400 43.21800
C  -4.19300 -2.68400 44.69600
N  1.32100 -3.96600 45.26900
C  0.00600 -4.11400 45.45400
C  -0.34100 -5.50000 46.13700
C  1.03900 -6.13000 46.28700
C  2.04300 -5.00800 45.86700
C  -1.25400 -5.33900 47.36500
C  1.20200 -7.48100 45.54000
C  1.58000 -8.73900 46.25100
N  3.98200 -2.98000 45.38000
C  4.36700 -4.22400 45.84400
C  5.79700 -4.32400 45.90000
C  6.14400 -3.06700 45.35200
C  5.05800 -2.34700 45.00000
C  6.63400 -5.46600 46.49100
C  7.34700 -2.26000 44.98300
O  8.51900 -2.55600 45.23100
C  6.82700 -1.01600 44.22500
C  7.32500 0.22600 44.95200
O  6.97600 0.64000 46.04200
O  8.23900 0.87400 44.14800
C  8.59800 2.15600 44.63100
H  0.70200 1.39000 42.18400
H  -1.97500 -3.71300 45.23100
H  3.63300 -6.13600 46.50400
H  5.37700 1.33600 43.25900
H  3.32000 1.41800 41.08300
H  2.72500 2.92400 43.52600
H  2.78000 3.36700 41.74700
H  4.20700 3.37500 42.65700
H  5.25900 0.32100 40.28200
H  6.13800 -0.62600 41.45300
H  7.70600 0.66200 41.77800
H  6.77500 2.09400 41.64100
H  -1.80800 0.41600 41.17200
H  -1.28700 1.76000 42.25600
H  -2.87200 1.11400 42.39600
H  -3.80800 -3.64300 44.34800
H  -5.27600 -2.73800 44.58900
H  -3.93300 -2.55000 45.74500
H  -0.87500 -6.18800 45.48300
H  1.32600 -6.23400 47.33400
H  -0.64400 -5.70800 48.18900
H  -2.21200 -5.85700 47.31300
H  -1.39400 -4.28000 47.58200
H  2.12300 -7.39300 44.96400
H  0.43600 -7.52200 44.76600
H  1.84800 -8.65200 47.30400
H  2.48200 -9.16000 45.80800
H  0.88400 -9.54100 46.00300
H  7.52100 -5.29400 45.88200
H  6.20800 -6.42600 46.20000
H  6.69100 -5.36800 47.57500
H  7.22300 -1.04400 43.21000
H  9.17300 2.68600 43.87100
H  9.19000 2.07300 45.54200
H  7.67400 2.67700 44.87900
Mg 48.51100 35.96200 27.77800
C  46.59500 34.41900 30.12200
C  49.04000 38.54200 30.06100
C  50.31300 37.64300 25.40100
C  47.76200 33.52500 25.46000
N  48.12700 36.33500 29.85600
C  47.35000 35.47500 30.63500
C  47.40100 35.84600 32.14900
C  47.61900 37.41500 31.93700
C  48.35800 37.41100 30.56500
C  46.31600 38.36900 31.91400
C  48.73100 35.30400 32.86600
C  48.61000 34.86300 34.33400
H  47.93000 35.85500 35.23000
N  49.47600 37.75800 27.78600
C  49.53600 38.75400 28.75400
C  50.27100 39.87400 28.30900
C  50.67000 39.66100 26.99600
C  50.09600 38.28300 26.68200
C  50.41100 41.08000 29.11900
C  51.48900 40.47600 26.00000
O  51.79900 40.11100 24.85800
C  52.04900 41.81400 26.39400
N  48.94600 35.71200 25.68400
C  49.79100 36.44700 24.93300
C  50.12400 35.75700 23.63200
C  49.41100 34.32800 23.73400
C  48.69000 34.48100 25.05800
C  49.62500 36.63000 22.41700
C  50.19300 33.03600 23.53000
C  50.21100 32.36100 22.05600
N  47.37600 34.27400 27.71400
C  47.16000 33.33700 26.77800
C  46.32300 32.35500 27.27500
C  46.05100 32.74500 28.62000
C  46.69000 33.94300 28.82200
C  45.87600 31.07600 26.56300
C  45.35200 32.40900 29.86200
O  44.57000 31.47900 30.10200
C  45.52500 33.60100 30.78700
C  45.73500 33.19600 32.22500
O  46.64100 32.69300 32.85300
O  44.53000 33.41600 32.85800
C  44.52900 33.21000 34.30000
H  49.02100 39.34700 30.79900
H  51.02700 38.08200 24.70100
H  47.62200 32.59600 24.90300
H  46.50000 35.55100 32.68600
H  48.36800 37.76500 32.64700
H  46.32500 39.01500 32.79200
H  45.36700 37.84100 31.82000
H  46.38700 39.00400 31.03100
H  49.56600 35.99900 32.77800
H  48.98200 34.42800 32.26900
H  49.59400 34.71200 34.77600
H  48.13400 33.89100 34.46300
H  49.83600 41.86200 28.62200
H  51.48200 41.28300 29.10300
H  50.17300 40.98100 30.17800
H  51.31300 42.38900 26.95500
H  52.34500 42.31600 25.47300
H  52.97300 41.78900 26.97200
H  51.20400 35.76800 23.48600
H  48.59400 34.19400 23.02500
H  49.32300 35.96600 21.60700
H  50.45700 37.22900 22.04900
H  48.75200 37.24900 22.62500
H  49.76500 32.38600 24.29300
H  51.21200 33.28900 23.82200
H  49.26600 32.66500 21.60600
H  50.25100 31.27800 22.17900
H  51.08600 32.57300 21.44300
H  46.05400 31.21700 25.49700
H  44.79500 30.93900 26.53700
H  46.34700 30.13700 26.85300
H  44.57300 34.12300 30.68800
H  43.49500 33.43600 34.55900
H  45.24400 33.92300 34.71100
H  44.68700 32.18600 34.63600

