158

Mg 47.53500 15.18800 28.62100
C  45.33000 15.18500 31.33200
C  49.73100 17.03500 30.31200
C  49.26800 15.13500 25.84000
C  45.03400 13.25600 26.81500
N  47.42100 16.17400 30.55200
C  46.55700 15.91200 31.56500
C  46.99400 16.51800 32.87100
C  48.32200 17.22800 32.49700
C  48.50900 16.87800 31.03000
C  48.49200 18.77300 32.73600
C  47.20700 15.50700 33.95300
C  46.86500 16.05600 35.38800
H  46.99600 17.50200 35.69100
N  49.25900 16.00600 28.12600
C  50.05400 16.80400 28.94100
C  51.27700 17.20500 28.19500
C  51.11400 16.66700 26.87700
C  49.86000 15.87400 26.88800
C  52.40400 17.92000 28.90600
C  52.03400 16.94200 25.66700
O  51.80400 16.36300 24.58000
C  53.22400 17.86400 25.81300
N  47.11900 14.40500 26.53600
C  48.09900 14.43800 25.66800
C  47.75500 13.77400 24.33100
C  46.32700 13.17000 24.66800
C  46.11700 13.57800 26.09700
C  47.75400 14.62800 23.03300
C  46.30900 11.66300 24.38500
C  47.11700 10.79300 25.33400
N  45.67200 14.48300 28.91900
C  44.80200 13.81000 28.11500
C  43.61500 13.39400 28.81600
C  43.77200 13.95700 30.07300
C  45.01900 14.59100 30.11400
C  42.39000 12.76200 28.24500
C  43.12300 14.07300 31.35700
O  41.99200 13.68800 31.74000
C  44.16300 14.77200 32.22100
C  43.52600 15.93500 32.76900
O  43.23200 16.94000 32.10700
O  43.13200 15.70000 34.06100
C  42.26600 16.76000 34.61200
H  50.42600 17.68600 30.84700
H  49.89300 15.05000 24.94800
H  44.26100 12.68200 26.30100
H  46.18200 17.18500 33.16100
H  49.15400 16.84700 33.08900
H  48.61900 19.25300 31.76500
H  49.42400 19.10600 33.19200
H  47.64100 19.22600 33.24500
H  48.22800 15.12700 33.99100
H  46.61000 14.66600 33.60200
H  47.63200 15.59200 36.00800
H  45.88500 15.64200 35.62600
H  52.29900 17.82600 29.98700
H  52.40100 18.97700 28.64100
H  53.39500 17.53800 28.66000
H  53.69900 18.17700 24.88300
H  53.89900 17.24600 26.40400
H  52.96500 18.73600 26.41300
H  48.45900 12.94700 24.23900
H  45.55300 13.75300 24.16800
H  48.24800 15.57400 23.25700
H  46.73800 14.88700 22.73600
H  48.20200 13.98900 22.27200
H  46.61200 11.51200 23.34800
H  45.27600 11.33000 24.48900
H  46.32300 10.26100 25.85600
H  47.67200 11.26200 26.14600
H  47.84200 10.24600 24.73100
H  42.33200 13.15500 27.23000
H  41.51600 12.93300 28.87300
H  42.63600 11.70100 28.27900
H  44.48300 14.07000 32.99100
H  41.30900 16.88500 34.10500
H  42.81400 17.69200 34.74500
H  42.04200 16.50500 35.64800
Mg 7.07400 54.22500 40.81200
C  6.66300 50.63600 40.62400
C  10.26100 53.76300 39.79800
C  7.19800 57.43000 40.18500
C  3.63900 54.31400 41.59600
N  8.21500 52.46500 40.31700
C  7.86600 51.12700 40.21300
C  9.08000 50.30000 39.84700
C  10.31000 51.26600 40.05200
C  9.55700 52.58700 40.14400
C  11.11500 50.96300 41.35300
C  8.89200 49.74500 38.41000
C  8.45800 50.84200 37.29300
H  7.18200 50.55000 36.54700
N  8.57200 55.49400 40.02100
C  9.83100 55.09600 39.65700
C  10.52500 56.33200 39.28700
C  9.66700 57.41300 39.33300
C  8.42300 56.82000 39.86400
C  11.95100 56.32300 38.76000
C  9.88600 58.85900 38.90200
O  11.03300 59.21700 38.65000
C  8.85700 59.94600 38.93400
N  5.55800 55.58600 40.60600
C  5.93600 56.91600 40.49000
C  4.65800 57.74100 40.53200
C  3.60300 56.81700 41.03500
C  4.28900 55.46000 41.11200
C  4.73700 59.09200 41.41600
C  2.37700 56.82600 40.13000
C  1.07900 57.31700 40.86800
N  5.51700 52.81000 41.35200
C  4.21600 53.04100 41.75000
C  3.67500 51.77000 42.17100
C  4.57400 50.80200 41.72100
C  5.64700 51.47100 41.18800
C  2.28900 51.38600 42.68100
C  4.76700 49.37200 41.61600
O  4.15000 48.38500 41.89400
C  6.18300 49.26000 40.76300
C  5.87600 48.48300 39.50000
O  5.21000 48.86600 38.53200
O  6.52700 47.25200 39.56900
C  6.36500 46.47400 38.30400
H  11.33000 53.59500 39.65200
H  7.22000 58.51000 40.03000
H  2.59700 54.48400 41.87400
H  9.18100 49.42200 40.48400
H  10.97600 51.18500 39.19200
H  10.49700 50.46900 42.10200
H  11.50700 51.87800 41.79800
H  11.91800 50.24200 41.19900
H  8.34800 48.80400 38.33000
H  9.94200 49.45600 38.35800
H  9.27900 50.72900 36.58500
H  8.47200 51.87100 37.65400
H  12.47100 57.03200 39.40400
H  11.93800 56.65500 37.72200
H  12.44500 55.35800 38.87800
H  7.97300 59.76500 38.32300
H  9.29300 60.77300 38.37300
H  8.70500 60.36300 39.93000
H  4.34300 57.99400 39.51900
H  3.35400 56.87000 42.09500
H  5.51600 59.01800 42.17400
H  3.79500 59.20400 41.95400
H  4.94900 59.95600 40.78600
H  2.11300 55.86300 39.69300
H  2.52200 57.48600 39.27400
H  0.67000 58.21400 40.40400
H  1.14400 57.54600 41.93200
H  0.29700 56.58000 40.68600
H  1.66500 52.19500 43.06100
H  2.52900 50.74700 43.53100
H  1.86000 50.70400 41.94800
H  6.87000 48.63500 41.33400
H  7.01700 45.60200 38.35600
H  6.64900 46.97500 37.37800
H  5.31100 46.20800 38.22800

