158

Mg 5.83200 54.51500 41.88800
C  5.31900 51.02700 41.57400
C  8.75200 54.13900 40.37500
C  5.79600 57.84300 41.49500
C  2.44500 54.60500 42.90600
N  6.82600 52.80500 40.93900
C  6.47900 51.46200 40.95400
C  7.52600 50.56800 40.17100
C  8.67900 51.59000 40.15800
C  8.07500 52.92500 40.49700
C  9.66200 51.28600 41.31800
C  7.15400 49.99600 38.71400
C  6.13400 50.68200 37.87000
H  6.68900 51.47600 36.68800
N  7.19100 55.88800 41.12000
C  8.40800 55.46600 40.65700
C  9.21000 56.69600 40.43100
C  8.31400 57.80700 40.64800
C  7.02800 57.24500 41.09600
C  10.70200 56.71100 39.99100
C  8.62300 59.25000 40.52200
O  9.79500 59.53700 40.17800
C  7.69100 60.30500 40.93000
N  4.28300 55.92700 42.05400
C  4.54700 57.29800 41.85100
C  3.35900 58.18300 42.22900
C  2.28800 57.07700 42.59200
C  3.05600 55.77100 42.46100
C  3.66800 59.13800 43.41200
C  0.98700 57.11500 41.73500
C  -0.32400 57.29100 42.56900
N  4.22200 53.08600 42.25300
C  2.99900 53.32200 42.78800
C  2.31200 52.08400 43.03300
C  3.26000 51.18600 42.61000
C  4.37400 51.85600 42.17100
C  1.00900 51.83800 43.56700
C  3.47400 49.75400 42.43700
O  2.79600 48.78000 42.74200
C  4.92500 49.61400 41.89300
C  4.80500 48.77900 40.74900
O  4.37600 49.19800 39.68000
O  5.11500 47.50700 41.08600
C  4.99700 46.55000 39.92900
H  9.76700 54.07600 39.97800
H  5.85200 58.93300 41.48900
H  1.39800 54.67000 43.21100
H  7.66000 49.67600 40.78200
H  9.13000 51.68600 39.17100
H  9.30400 50.54900 42.03700
H  9.95300 52.19100 41.85100
H  10.58900 50.87700 40.91600
H  6.79500 48.97700 38.86200
H  8.12600 49.86900 38.23900
H  5.66900 51.43000 38.51300
H  5.38100 50.01100 37.45800
H  10.83100 57.10200 38.98100
H  10.97900 55.65800 39.94100
H  11.29300 57.22900 40.74600
H  6.86900 60.18600 40.22300
H  8.18700 61.23000 40.63600
H  7.37900 60.24400 41.97200
H  3.17100 58.74700 41.31500
H  1.96300 57.08600 43.63200
H  3.07000 59.07600 44.32100
H  3.53700 60.12400 42.96600
H  4.69100 59.12500 43.78700
H  0.88800 56.25000 41.07800
H  1.13900 57.97700 41.08500
H  -0.68200 56.26800 42.68300
H  -1.03400 57.87500 41.98300
H  -0.01700 57.74800 43.50900
H  0.20200 52.38600 43.08000
H  0.95300 52.25600 44.57300
H  0.76900 50.78000 43.66500
H  5.67600 49.11500 42.50600
H  5.56500 45.63100 40.07100
H  5.35500 47.05800 39.03300
H  3.96800 46.34500 39.63400
Mg 8.94900 48.36400 25.65500
C  6.57800 48.91500 28.23600
C  11.35600 49.13800 27.78200
C  11.01600 48.21500 23.04100
C  6.23600 48.31700 23.42600
N  8.94400 48.97100 27.74600
C  7.88400 48.99600 28.66800
C  8.45500 49.00800 30.13000
C  9.89400 49.50500 29.86000
C  10.12700 49.21100 28.41400
C  10.17500 50.95200 30.36300
C  8.41900 47.62800 30.79800
C  9.21300 47.41100 32.09800
H  8.56700 46.81600 33.35100
N  10.91800 48.54200 25.46100
C  11.73600 48.84200 26.44900
C  13.13600 48.76700 25.94000
C  13.11600 48.59700 24.55900
C  11.61600 48.51600 24.30400
C  14.41900 49.02000 26.84000
C  14.20900 48.56900 23.50300
O  13.95800 48.45800 22.27900
C  15.66000 48.53400 23.88300
N  8.74400 48.28000 23.62200
C  9.70600 48.21100 22.68500
C  9.26900 47.81800 21.31800
C  7.71900 48.03000 21.40900
C  7.54900 48.18400 22.93400
C  9.95600 48.50700 20.15500
C  6.86800 46.78500 20.87600
C  5.43900 47.12400 20.44200
N  6.81700 48.33400 25.75600
C  5.90000 48.33100 24.78100
C  4.58500 48.51900 25.32900
C  4.82300 48.64000 26.71200
C  6.19900 48.66800 26.89400
C  3.41400 48.69800 24.35600
C  4.09700 48.81400 27.90700
O  2.90100 48.90800 28.17600
C  5.30800 49.05800 28.96600
C  5.03700 48.09300 30.18400
O  4.87500 46.88200 30.15600
O  4.98500 48.86000 31.32600
C  4.80300 48.15800 32.61000
H  12.17000 49.28500 28.49600
H  11.71100 47.98100 22.23200
H  5.47100 48.35600 22.64700
H  7.96900 49.81800 30.67300
H  10.69700 48.92800 30.31800
H  9.34500 51.32900 30.96200
H  10.41200 51.56300 29.49300
H  10.93200 50.91800 31.14700
H  8.64300 46.93200 29.98900
H  7.36100 47.55600 31.05100
H  9.57700 48.37800 32.44400
H  10.11600 46.85600 31.84400
H  14.82800 50.00700 26.62700
H  15.10200 48.21900 26.55500
H  14.21000 48.98100 27.90900
H  16.16500 48.82300 22.96100
H  15.93800 47.58100 24.33100
H  15.88000 49.34500 24.57800
H  9.63700 46.79800 21.20700
H  7.41800 48.98100 20.96800
H  9.31000 48.61200 19.28300
H  10.83500 47.94300 19.84300
H  10.26300 49.51900 20.41900
H  6.87000 46.01900 21.65100
H  7.45200 46.32800 20.07700
H  4.74100 46.54300 21.04400
H  5.25300 46.87200 19.39800
H  5.20600 48.18900 20.44200
H  3.64100 49.38900 23.54400
H  2.44000 48.84000 24.82300
H  3.25700 47.78700 23.77800
H  5.23200 50.09600 29.28900
H  4.73500 48.83600 33.46000
H  5.62700 47.46800 32.79500
H  3.89200 47.56000 32.60700

