158

Mg 42.80300 41.23900 25.99900
C  41.91700 43.62500 28.48600
C  44.04900 39.35700 28.61300
C  43.65500 39.09400 23.77600
C  41.86400 43.57500 23.64200
N  42.85500 41.43400 28.40400
C  42.46100 42.46000 29.11700
C  42.49300 42.00200 30.62200
C  43.69900 40.99600 30.57800
C  43.53800 40.52300 29.11100
C  45.08200 41.71100 30.75800
C  41.01700 41.65100 31.12000
C  40.70100 42.19500 32.53300
H  41.69300 41.91800 33.69200
N  43.61700 39.43300 26.16000
C  44.03600 38.81200 27.33500
C  44.53700 37.47100 26.94100
C  44.36400 37.34300 25.52700
C  43.87300 38.60000 25.04800
C  45.02200 36.55600 27.90400
C  44.65200 36.10100 24.67600
O  44.68500 36.10700 23.43800
C  44.80700 34.73300 25.42600
N  42.84200 41.25300 23.98100
C  43.22800 40.30800 23.20800
C  43.02100 40.56300 21.76500
C  42.36600 41.99800 21.76000
C  42.35100 42.32400 23.20700
C  44.32700 40.45100 20.87000
C  40.97500 42.11400 21.13900
C  39.84800 41.38800 21.86300
N  42.08600 43.24400 25.95500
C  41.80300 44.09900 24.89700
C  41.30900 45.37400 25.36000
C  41.33600 45.16700 26.76500
C  41.82400 43.86700 27.08900
C  41.10000 46.62900 24.59200
C  41.00100 45.84300 27.93100
O  40.62700 47.01900 28.15600
C  41.28500 44.85700 29.12700
C  42.15500 45.50700 30.13400
O  43.27500 45.88700 29.89400
O  41.54800 45.31600 31.31400
C  42.48700 45.45900 32.44600
H  44.50500 38.73100 29.38300
H  43.68500 38.33000 22.99700
H  41.40100 44.23000 22.90100
H  42.65700 42.94400 31.14600
H  43.55800 40.09000 31.16700
H  45.52200 41.41600 31.71100
H  44.95000 42.79200 30.75300
H  45.73900 41.53800 29.90600
H  41.03900 40.56500 31.20500
H  40.21800 41.85400 30.40800
H  39.73500 41.76300 32.79600
H  40.46400 43.25900 32.52300
H  44.97000 36.95600 28.91700
H  46.05400 36.42100 27.57800
H  44.45100 35.62900 27.94600
H  43.91700 34.46400 25.99400
H  45.64800 34.83100 26.11300
H  45.10500 33.93000 24.75200
H  42.19000 39.94500 21.42500
H  42.98000 42.71900 21.21900
H  44.14100 39.72200 20.08100
H  45.15100 40.23300 21.55000
H  44.52000 41.41900 20.40900
H  41.13900 41.72200 20.13500
H  40.75200 43.17600 21.03300
H  39.14500 42.15200 22.19500
H  40.12100 40.86700 22.78100
H  39.41500 40.70300 21.13400
H  41.35600 47.40900 25.30900
H  40.02200 46.74600 24.48700
H  41.75000 46.85500 23.74600
H  40.27500 44.74800 29.52000
H  41.98100 45.20700 33.37900
H  42.58900 46.54400 32.48400
H  43.40700 44.87600 32.41400
Mg 26.80500 49.94900 26.53700
C  24.51000 51.06400 29.02500
C  28.95300 48.93700 29.08100
C  29.10000 49.25700 24.27600
C  24.60800 51.26700 24.13700
N  26.73200 49.97500 28.81400
C  25.61700 50.34800 29.53500
C  26.00300 50.24100 31.01600
C  27.56300 49.82500 31.00300
C  27.74200 49.47400 29.52200
C  28.50000 50.94800 31.55900
C  25.04200 49.41300 31.84000
C  24.47100 49.99000 33.12000
H  24.52000 49.12900 34.43000
N  28.67800 49.14500 26.68500
C  29.38900 48.76900 27.79600
C  30.63000 48.12900 27.39200
C  30.69200 48.19300 25.95000
C  29.41100 48.80600 25.56000
C  31.60200 47.57100 28.33800
C  31.81000 47.80000 25.06800
O  31.82000 48.00400 23.85100
C  33.03000 47.21100 25.53800
N  26.84100 50.11300 24.60700
C  27.92800 49.80200 23.83800
C  27.62600 49.83100 22.35700
C  26.15700 50.28900 22.37800
C  25.83200 50.62100 23.80300
C  28.50400 50.78600 21.57200
C  25.26500 49.16900 21.75600
C  24.70100 49.66000 20.40700
N  24.92400 50.99200 26.56800
C  24.21200 51.44200 25.48100
C  23.04500 52.07100 25.98000
C  23.14800 52.02500 27.38300
C  24.31900 51.29500 27.63200
C  21.93800 52.76900 25.17100
C  22.50800 52.36000 28.49500
O  21.39600 52.82700 28.57400
C  23.35500 51.71900 29.64300
C  23.78600 52.86500 30.44400
O  24.69800 53.70600 30.17100
O  22.88100 52.86600 31.50200
C  22.99800 53.96700 32.42100
H  29.50500 48.57900 29.95200
H  29.74400 48.96900 23.44200
H  23.90200 51.62200 23.38400
H  25.87500 51.21400 31.49100
H  27.69200 48.98400 31.68500
H  28.89000 51.43100 30.66300
H  29.23400 50.40000 32.15000
H  27.95100 51.72900 32.08500
H  25.54600 48.46600 32.03400
H  24.28100 49.11400 31.11900
H  23.38500 50.05500 33.04900
H  24.92200 50.95900 33.33300
H  32.53500 47.99500 27.96600
H  31.59000 46.48600 28.23100
H  31.42100 47.80300 29.38800
H  32.80700 46.35800 26.17900
H  33.50700 48.03400 26.06900
H  33.75500 46.98700 24.75600
H  27.76100 48.82000 21.97200
H  25.99500 51.21400 21.82400
H  29.32000 51.15200 22.19500
H  27.86700 51.53700 21.10400
H  29.09000 50.30600 20.78800
H  24.37900 48.90000 22.33200
H  25.74900 48.19900 21.64000
H  23.64700 49.88200 20.57400
H  24.83300 48.84400 19.69600
H  25.27900 50.48000 19.97900
H  22.38900 52.95300 24.19500
H  21.70900 53.76300 25.55700
H  21.07800 52.10100 25.14600
H  22.79300 51.04600 30.29100
H  23.35400 54.89200 31.96600
H  23.74200 53.72400 33.18000
H  22.07400 54.08300 32.98700

