158

Mg 0.94400 43.71500 26.02100
C  3.01800 43.63100 28.81300
C  -1.59700 42.75900 28.17500
C  -1.26100 43.71800 23.36800
C  3.47300 44.55900 23.97700
N  0.72900 43.35000 28.24400
C  1.68400 43.42000 29.15800
C  1.05100 43.33900 30.61700
C  -0.35600 42.77600 30.33500
C  -0.40800 42.91500 28.80100
C  -0.78400 41.40800 30.90100
C  1.15600 44.66800 31.47800
C  0.79100 44.62000 32.97900
H  0.71800 43.28700 33.60800
N  -0.99400 43.20600 25.77400
C  -1.89600 42.80400 26.78200
C  -3.16400 42.50800 26.22500
C  -3.20600 43.00800 24.86100
C  -1.76000 43.33200 24.62400
C  -4.26900 41.77200 27.00300
C  -4.25700 43.07100 23.80900
O  -4.09400 43.35900 22.62400
C  -5.67900 42.64000 24.14700
N  1.11600 43.84500 23.86000
C  0.08900 43.95600 23.08400
C  0.52400 44.53800 21.69400
C  1.99300 45.00800 21.95800
C  2.19100 44.52000 23.34100
C  0.38000 43.65400 20.45100
C  2.25700 46.47700 21.82900
C  2.20300 47.14100 20.41300
N  2.84800 43.96700 26.26300
C  3.83700 44.27200 25.31600
C  5.13600 44.33700 25.98500
C  4.85300 44.00000 27.30900
C  3.44200 43.96700 27.44700
C  6.45800 44.77900 25.35900
C  5.35600 43.69700 28.64400
O  6.51800 43.67100 29.05300
C  4.19000 43.71100 29.68500
C  4.28500 42.43700 30.50500
O  3.99700 41.31800 30.15600
O  4.63100 42.79900 31.79200
C  4.94000 41.61200 32.63300
H  -2.31500 42.41700 28.92300
H  -1.86100 43.95700 22.48700
H  4.30700 44.94100 23.38600
H  1.63400 42.63500 31.21200
H  -1.13500 43.44900 30.69300
H  -0.04800 40.88900 31.51600
H  -1.14000 40.70800 30.14500
H  -1.66300 41.51000 31.53800
H  0.43200 45.36100 31.05100
H  2.17700 45.02700 31.34800
H  -0.15900 45.10800 33.19800
H  1.47800 45.18500 33.61000
H  -3.95500 41.07200 27.77700
H  -4.90900 41.17300 26.35500
H  -4.72300 42.53600 27.63400
H  -5.85500 43.21000 25.06000
H  -5.77900 41.58000 24.37800
H  -6.39400 42.89800 23.36600
H  -0.15700 45.37000 21.51600
H  2.75500 44.47300 21.39200
H  -0.25400 42.82800 20.77400
H  1.38100 43.29500 20.21400
H  -0.01800 44.23900 19.62100
H  3.20600 46.80400 22.25400
H  1.54100 46.96700 22.48900
H  2.33500 46.34900 19.67700
H  3.00100 47.85000 20.19200
H  1.29400 47.68000 20.14600
H  6.87400 45.49900 26.06400
H  6.26000 45.19600 24.37200
H  7.13700 43.92800 25.31500
H  4.25200 44.58100 30.33900
H  4.15100 40.89700 32.86800
H  5.33600 42.05600 33.54700
H  5.74800 41.00900 32.21900
Mg -5.91300 25.41700 26.32900
C  -3.93000 26.91600 29.00500
C  -7.04900 23.20600 28.60200
C  -7.25000 23.93300 23.64000
C  -4.03900 27.62900 24.12900
N  -5.45500 25.07900 28.57400
C  -4.67400 25.80600 29.43300
C  -5.12900 25.49800 30.88300
C  -5.85800 24.17800 30.70400
C  -6.18600 24.06800 29.20100
C  -4.95000 22.95400 31.14400
C  -6.04800 26.61000 31.55200
C  -5.93900 26.89400 33.04100
H  -5.57700 25.83800 34.02400
N  -7.08500 23.89600 26.11900
C  -7.52900 23.09900 27.20400
C  -8.47000 22.17000 26.61600
C  -8.43700 22.30600 25.13600
C  -7.56000 23.45400 24.87700
C  -9.43800 21.36700 27.56000
C  -9.15800 21.54800 24.12200
O  -9.04500 21.79700 22.91100
C  -10.04900 20.40400 24.54500
N  -5.57200 25.73500 24.19700
C  -6.25500 24.92300 23.33500
C  -5.98400 25.28000 21.90200
C  -5.09800 26.61600 22.02600
C  -4.86000 26.68200 23.54300
C  -5.44900 24.16600 21.01300
C  -5.68300 27.94300 21.43000
C  -5.80500 28.07400 19.88500
N  -4.32900 26.92500 26.45400
C  -3.75000 27.76300 25.51700
C  -2.81700 28.67300 26.09700
C  -2.87400 28.31200 27.41500
C  -3.80300 27.28700 27.65100
C  -1.92700 29.71100 25.47400
C  -2.29000 28.73600 28.63600
O  -1.41900 29.57400 28.85100
C  -3.09300 27.85900 29.78200
C  -2.09000 27.05900 30.58600
O  -1.23200 26.30300 30.14500
O  -2.30300 27.26200 31.90700
C  -1.39200 26.57400 32.88300
H  -7.50600 22.56100 29.35600
H  -7.65700 23.54000 22.70600
H  -3.52000 28.25500 23.40100
H  -4.31500 25.20300 31.54500
H  -6.81500 24.07500 31.21600
H  -5.56200 22.05500 31.22200
H  -4.42500 23.29400 32.03700
H  -4.06200 22.77700 30.53600
H  -7.05400 26.22400 31.39000
H  -5.92100 27.56700 31.04600
H  -6.94400 27.23600 33.28800
H  -5.17900 27.66000 33.19400
H  -8.98600 20.41600 27.84100
H  -10.45900 21.28700 27.18700
H  -9.40300 21.97700 28.46300
H  -9.35200 19.75700 25.07900
H  -10.43700 19.86600 23.68000
H  -10.91200 20.79500 25.08400
H  -6.92000 25.63800 21.47300
H  -4.18200 26.48500 21.44900
H  -6.08600 24.14200 20.12900
H  -5.51000 23.21000 21.53400
H  -4.41600 24.33000 20.70800
H  -5.06400 28.70900 21.89700
H  -6.69900 27.99400 21.82100
H  -6.70900 28.64100 19.66400
H  -5.70000 27.08300 19.44400
H  -4.89800 28.60000 19.58600
H  -0.92600 29.28200 25.52900
H  -1.94800 30.62400 26.06900
H  -2.16700 29.89800 24.42800
H  -3.70100 28.41300 30.49800
H  -1.71800 26.57700 33.92300
H  -0.41500 27.05900 32.88400
H  -1.17300 25.62500 32.39400

