158

Mg 26.58800 49.79500 26.68000
C  24.34600 50.86700 29.13500
C  28.63600 48.72200 29.15900
C  28.72300 48.91200 24.34100
C  24.54400 51.41500 24.33300
N  26.28900 49.45300 28.90500
C  25.35700 50.03800 29.68000
C  25.54000 49.68100 31.17300
C  26.99900 49.05000 31.23000
C  27.37200 49.02200 29.70000
C  28.07400 49.77900 32.03100
C  24.41900 48.74000 31.71200
C  23.79900 49.27700 33.11200
H  24.82400 49.89100 34.18000
N  28.38400 48.90200 26.76600
C  29.08400 48.54200 27.83200
C  30.32800 47.87500 27.47200
C  30.44800 47.94800 26.04100
C  29.15500 48.66700 25.63600
C  31.37300 47.29400 28.38500
C  31.61800 47.48000 25.07300
O  31.55000 47.78500 23.86600
C  32.86900 46.82100 25.60000
N  26.63300 50.15400 24.62300
C  27.61400 49.57000 23.89400
C  27.25600 49.61900 22.42000
C  25.85400 50.34000 22.35100
C  25.60800 50.63600 23.83700
C  28.27900 50.23600 21.42400
C  24.69000 49.55100 21.60200
C  23.61000 50.54400 21.07000
N  24.76000 50.85400 26.63700
C  24.20500 51.61500 25.67000
C  23.07100 52.27200 26.16900
C  23.10000 52.06500 27.53000
C  24.17900 51.25700 27.77300
C  22.10200 53.17700 25.48300
C  22.44000 52.41900 28.77400
O  21.42100 53.09700 28.99900
C  23.33200 51.70800 29.82800
C  23.89600 52.85100 30.61400
O  24.91800 53.44900 30.30100
O  23.08300 53.07300 31.75900
C  23.50900 54.24000 32.43000
H  29.28900 48.28200 29.91600
H  29.45200 48.65500 23.56900
H  23.89300 51.89500 23.59900
H  25.55300 50.66900 31.63300
H  26.92100 47.98600 31.45400
H  28.60800 50.58200 31.52200
H  28.80300 48.99400 32.23500
H  27.65400 50.13600 32.97100
H  24.86900 47.75600 31.84900
H  23.66100 48.62500 30.93800
H  23.39500 48.32700 33.46000
H  22.99600 49.95600 32.82400
H  31.58200 46.25800 28.11800
H  31.07700 47.18900 29.42900
H  32.24100 47.94200 28.26400
H  33.26200 47.51300 26.34400
H  33.62800 46.63400 24.84000
H  32.30200 45.97700 25.99300
H  27.09900 48.65300 21.94000
H  25.98500 51.37100 22.02100
H  28.01000 51.28300 21.28300
H  28.19800 49.77000 20.44200
H  29.29100 50.19600 21.82800
H  24.24400 49.03100 22.45000
H  25.05300 48.71700 21.00100
H  24.04200 51.53000 20.89800
H  22.73700 50.65300 21.71400
H  23.17500 50.16600 20.14600
H  22.68300 53.56000 24.64500
H  21.76500 54.01500 26.09300
H  21.32000 52.52200 25.09800
H  22.79200 51.06400 30.52300
H  22.67500 54.56300 33.05400
H  23.84300 54.98800 31.71100
H  24.39800 53.90700 32.96600
Mg -11.74500 16.36300 41.69600
C  -8.78100 14.48700 41.49600
C  -10.20700 18.90300 39.95800
C  -14.87100 17.82500 41.26600
C  -13.32300 13.50100 42.86100
N  -9.74700 16.63600 40.78600
C  -8.70600 15.64900 40.75100
C  -7.53800 16.23900 39.97500
C  -7.92000 17.66400 39.65700
C  -9.32500 17.79500 40.23600
C  -7.01500 18.75500 40.31000
C  -7.14200 15.40700 38.70200
C  -5.63500 15.17100 38.50900
H  -5.02000 15.55000 37.07700
N  -12.39000 18.18600 40.90600
C  -11.59200 19.14100 40.28200
C  -12.40100 20.29500 39.95900
C  -13.74100 20.05700 40.44400
C  -13.72900 18.60500 40.90700
C  -11.91300 21.61600 39.35700
C  -14.81600 21.09800 40.48100
O  -14.48900 22.23000 40.10400
C  -16.24100 20.80800 40.90400
N  -13.87300 15.74900 42.09700
C  -14.96600 16.55600 41.87800
C  -16.22000 15.80100 42.17700
C  -15.71500 14.43000 42.76700
C  -14.19000 14.52300 42.57200
C  -17.29100 16.48400 43.10500
C  -16.34200 13.09700 42.29300
C  -16.98600 12.15800 43.34400
N  -11.20400 14.40900 42.30800
C  -11.93700 13.40300 42.74900
C  -11.13700 12.31200 43.11600
C  -9.81400 12.69600 42.77400
C  -9.90300 14.01600 42.19700
C  -11.67100 10.99100 43.54000
C  -8.45800 12.29800 42.72800
O  -7.83900 11.32800 43.21500
C  -7.72600 13.43600 41.89000
C  -6.79100 14.02900 42.80500
O  -6.80200 14.20300 44.02000
O  -5.67600 14.40500 42.07000
C  -4.65700 15.04400 42.86700
H  -9.81000 19.66300 39.28300
H  -15.84500 18.28100 41.07800
H  -13.87900 12.72600 43.39100
H  -6.78300 16.21600 40.76100
H  -7.95800 17.85900 38.58500
H  -6.46500 18.22700 41.08900
H  -7.64600 19.46100 40.84900
H  -6.42800 19.24900 39.53500
H  -7.38800 15.93600 37.78200
H  -7.66000 14.44900 38.66300
H  -5.58700 14.08700 38.61100
H  -4.98400 15.57800 39.28300
H  -12.54000 21.95900 38.53400
H  -10.90200 21.51200 38.96400
H  -11.87000 22.36000 40.15300
H  -16.20500 20.31600 41.87600
H  -16.54000 20.13700 40.09900
H  -16.93800 21.62800 40.73000
H  -16.56800 15.61700 41.16100
H  -15.68100 14.51800 43.85300
H  -18.25100 16.43200 42.59100
H  -17.07700 17.53600 43.29400
H  -17.37800 15.97500 44.06500
H  -15.52200 12.47700 41.93000
H  -17.16800 13.19900 41.59100
H  -17.18200 12.75100 44.23800
H  -16.40200 11.26800 43.57800
H  -17.99000 11.79500 43.12100
H  -12.18500 10.52700 42.69800
H  -12.29900 11.12300 44.42100
H  -10.84300 10.35400 43.85100
H  -7.30000 12.99900 40.98700
H  -4.85300 16.11100 42.75400
H  -3.72500 14.65300 42.45800
H  -4.57600 14.81400 43.92900

