158

Mg 8.94600 2.85300 27.91100
C  10.17800 1.14300 30.71100
C  7.15400 4.78200 29.95800
C  7.82700 4.43600 25.16500
C  10.44200 0.48500 25.87300
N  8.64200 2.84700 30.14900
C  9.26800 2.14200 31.09000
C  8.95500 2.73000 32.49200
C  8.07000 3.89100 32.17600
C  7.83500 3.81700 30.67000
C  6.81400 4.03300 33.02300
C  10.31400 3.24100 33.11600
C  10.17500 4.05900 34.46100
H  10.96300 3.69300 35.68200
N  7.55100 4.33200 27.57900
C  6.93800 5.02700 28.56800
C  6.28200 6.21000 28.03500
C  6.58100 6.19600 26.65800
C  7.33800 4.93600 26.40100
C  5.45300 7.21700 28.86900
C  6.12700 7.26700 25.60000
O  6.35300 7.04200 24.40300
C  5.29800 8.39300 26.04500
N  9.15300 2.52500 25.82900
C  8.57100 3.28300 24.91900
C  8.75000 2.85400 23.44200
C  9.67800 1.64000 23.60700
C  9.79300 1.51900 25.19800
C  7.43100 2.74900 22.59700
C  11.06200 1.72700 22.80300
C  11.16100 0.69900 21.66700
N  10.07800 1.15600 28.24200
C  10.62500 0.33400 27.27000
C  11.34200 -0.71100 27.98400
C  11.23200 -0.35700 29.30100
C  10.46800 0.78500 29.39500
C  12.11500 -1.87400 27.43100
C  11.69400 -0.77200 30.57500
O  12.24600 -1.74000 30.97600
C  11.08000 0.30600 31.54000
C  10.49200 -0.34600 32.76400
O  9.38500 -0.89200 32.85700
O  11.44700 -0.28200 33.84500
C  11.08200 -0.82300 35.15700
H  6.63600 5.46400 30.63600
H  7.60100 4.93200 24.21900
H  10.86300 -0.27700 25.21300
H  8.52100 2.06000 33.23500
H  8.58500 4.80000 32.48900
H  6.87500 5.08000 33.31900
H  6.65200 3.28200 33.79600
H  5.91800 3.92100 32.41200
H  10.80700 3.86900 32.37400
H  10.89600 2.37100 33.42200
H  9.12200 3.87500 34.67500
H  10.36200 5.12200 34.30700
H  4.44400 7.45200 28.52900
H  5.98300 8.14700 29.07300
H  5.30400 6.86100 29.88800
H  5.75600 8.83500 26.93000
H  4.32200 7.93700 26.20900
H  5.18600 9.12600 25.24600
H  9.41300 3.60400 23.01100
H  9.10800 0.81300 23.18300
H  7.28600 3.69000 22.06500
H  6.54600 2.68600 23.23000
H  7.48500 1.82200 22.02600
H  11.86000 1.48700 23.50600
H  11.22400 2.75500 22.48000
H  11.69800 1.15000 20.83400
H  10.14900 0.40500 21.38600
H  11.74000 -0.17700 21.96000
H  12.13900 -2.48400 28.33500
H  13.09800 -1.61600 27.03700
H  11.52100 -2.44800 26.72000
H  11.92000 0.90100 31.89800
H  12.03100 -1.20800 35.53000
H  10.32100 -1.60200 35.20200
H  10.80500 -0.03000 35.85300
Mg -1.01400 34.93200 26.77000
C  -2.53900 32.88700 29.32900
C  -0.09500 37.01700 29.19300
C  -0.16700 37.01900 24.35700
C  -2.52300 32.89700 24.42900
N  -1.36000 34.91200 29.04700
C  -1.79700 33.92200 29.84600
C  -1.41400 34.14800 31.37100
C  -0.63700 35.59000 31.25000
C  -0.69200 35.89000 29.75300
C  -1.24900 36.76900 32.11100
C  -0.65800 33.00200 32.08000
C  -1.43200 32.30300 33.21600
H  -0.74800 31.84400 34.53800
N  -0.17700 36.67700 26.80500
C  0.16600 37.43400 27.89600
C  0.87100 38.63200 27.43800
C  0.82700 38.69900 26.06000
C  0.06400 37.45500 25.65500
C  1.28600 39.70400 28.43700
C  1.34400 39.76400 25.15300
O  1.21200 39.75500 23.93500
C  2.23500 40.83900 25.72200
N  -1.45500 35.00500 24.71200
C  -0.92500 35.97000 23.93800
C  -1.04400 35.60500 22.43600
C  -1.58400 34.14700 22.46900
C  -1.91900 34.02800 23.98000
C  -1.86300 36.61200 21.61700
C  -0.57800 33.05000 22.04400
C  0.86400 32.99900 22.61300
N  -2.22600 33.20300 26.76900
C  -2.77400 32.51500 25.75000
C  -3.60400 31.48100 26.26900
C  -3.57800 31.62800 27.67200
C  -2.66500 32.64200 27.93100
C  -4.34300 30.55600 25.43500
C  -4.14500 31.05700 28.83300
O  -4.97300 30.19000 29.07600
C  -3.47700 31.84300 30.01300
C  -4.45000 32.57600 30.83500
O  -4.79100 33.79300 30.71700
O  -4.74300 31.80900 32.01000
C  -5.44400 32.68200 32.98400
H  0.23600 37.80500 29.87300
H  0.31000 37.58200 23.55200
H  -2.81000 32.20300 23.63500
H  -2.42200 34.32300 31.74500
H  0.39700 35.45800 31.57000
H  -0.54100 37.57900 32.28800
H  -1.64300 36.41200 33.06300
H  -2.13800 37.13400 31.59800
H  0.29100 33.39500 32.44400
H  -0.38700 32.31800 31.27500
H  -1.74700 31.33500 32.82700
H  -2.32700 32.91200 33.34400
H  2.32900 39.44200 28.61700
H  0.64500 39.65600 29.31800
H  1.22700 40.71100 28.02600
H  2.93900 40.34700 26.39300
H  1.61100 41.53000 26.28900
H  2.84900 41.31800 24.96000
H  -0.03600 35.68100 22.02800
H  -2.50300 34.04200 21.89200
H  -2.57500 37.25400 22.13600
H  -2.52600 36.05900 20.95200
H  -1.29400 37.26000 20.95000
H  -0.62100 33.31700 20.98900
H  -1.00400 32.05200 22.14800
H  1.03500 32.02600 23.07400
H  1.10000 33.86800 23.22700
H  1.54200 33.13700 21.77000
H  -3.69800 29.77900 25.02600
H  -4.89700 31.11800 24.68300
H  -5.09600 30.13000 26.09800
H  -3.00000 31.08200 30.63100
H  -6.41400 33.09800 32.71000
H  -4.77600 33.38500 33.48200
H  -5.79200 31.96200 33.72400

