158

Mg 35.48100 2.28200 30.17000
C  33.18500 3.09900 32.58900
C  38.01600 2.41400 32.73900
C  37.89200 2.03000 27.86800
C  33.02900 2.71700 27.71300
N  35.56000 2.76000 32.45600
C  34.44900 3.01400 33.14500
C  34.79200 3.11500 34.58600
C  36.37500 3.13700 34.64600
C  36.74500 2.79400 33.20200
C  36.95400 4.50100 35.10100
C  34.18800 1.87000 35.42200
C  34.03500 2.00600 36.98500
H  34.49300 3.32600 37.56100
N  37.59500 1.94900 30.29600
C  38.44900 2.10900 31.39200
C  39.76000 1.67400 31.08000
C  39.81700 1.69600 29.66900
C  38.41700 1.92900 29.20800
C  40.75500 1.35700 32.15200
C  40.93000 1.46000 28.75000
O  40.79300 1.36000 27.54800
C  42.30300 1.32400 29.25500
N  35.49300 2.24300 28.06600
C  36.61500 2.17700 27.37500
C  36.25000 2.22600 25.87100
C  34.72500 2.34100 25.80900
C  34.36800 2.47000 27.27600
C  36.96800 3.43100 25.13900
C  33.96400 1.11000 25.20800
C  33.74600 -0.18700 26.00300
N  33.50300 2.78500 30.09100
C  32.64400 2.85200 29.04700
C  31.32600 3.13900 29.55200
C  31.52000 3.31600 30.91700
C  32.85800 3.04200 31.23400
C  30.12500 3.31300 28.66600
C  30.82900 3.65300 32.13800
O  29.68400 3.91200 32.34600
C  31.83200 3.50400 33.29300
C  31.78900 4.84500 34.07300
O  32.44300 5.82400 33.78800
O  31.00400 4.81700 35.18100
C  31.22700 5.96100 36.12600
H  38.76500 2.52600 33.52500
H  38.62500 1.93600 27.06400
H  32.29300 2.92800 26.93400
H  34.41000 4.08700 34.89900
H  36.87600 2.41700 35.29400
H  36.26400 5.31600 35.32100
H  37.57600 4.81200 34.26200
H  37.53300 4.43100 36.02200
H  34.84900 1.01100 35.31400
H  33.31100 1.44400 34.93400
H  34.54500 1.21000 37.52700
H  32.96600 1.90500 37.17500
H  41.16800 2.32000 32.45100
H  41.62800 0.85000 31.74200
H  40.33600 0.90500 33.05200
H  42.85500 1.10300 28.34200
H  42.40400 0.43300 29.87600
H  42.59600 2.18300 29.85900
H  36.53100 1.27700 25.41500
H  34.28100 3.20300 25.31300
H  36.40500 4.24400 24.68200
H  37.58000 3.04200 24.32400
H  37.63100 3.85900 25.89000
H  34.45500 0.83800 24.27400
H  32.93700 1.33100 24.91700
H  32.71700 -0.54300 26.03200
H  33.97900 0.06900 27.03600
H  34.30300 -1.00200 25.54000
H  30.21500 2.59600 27.85000
H  30.03700 4.35900 28.37300
H  29.20600 2.96000 29.13500
H  31.53500 2.70900 33.97700
H  30.60300 5.71000 36.98300
H  30.86900 6.83500 35.58100
H  32.30400 5.94800 36.29200
Mg 35.79800 49.26300 25.91500
C  35.91300 47.37300 28.68900
C  34.93100 52.15200 27.83500
C  35.40600 51.16800 23.15300
C  36.62400 46.48200 23.98300
N  35.24700 49.61700 28.01200
C  35.51700 48.74200 29.00000
C  35.32100 49.28300 30.39100
C  34.77400 50.77700 30.06100
C  34.98100 50.91000 28.51000
C  33.34200 51.05700 30.46700
C  36.65200 49.24700 31.22700
C  36.72300 48.58600 32.56400
H  36.91600 49.58500 33.77900
N  35.36000 51.38600 25.57700
C  35.08900 52.35100 26.46200
C  35.01100 53.62100 25.84500
C  35.08700 53.40500 24.44900
C  35.24300 51.96800 24.33600
C  34.68400 54.93100 26.51900
C  35.08500 54.41200 23.26400
O  35.22900 54.02600 22.14300
C  34.84500 55.90500 23.47100
N  35.94800 48.86600 23.86800
C  35.63800 49.83400 22.95100
C  35.85700 49.16500 21.49800
C  36.41500 47.77800 21.81400
C  36.34000 47.71000 23.30600
C  34.54500 49.16500 20.62100
C  37.92000 47.61700 21.39300
C  38.20200 46.20200 20.67200
N  36.04900 47.25300 26.21000
C  36.42400 46.27600 25.37800
C  36.70900 45.11800 26.16400
C  36.43000 45.48800 27.46000
C  36.09100 46.78300 27.44800
C  37.21000 43.81700 25.76100
C  36.53700 44.99900 28.77000
O  36.93100 43.96900 29.28400
C  36.19900 46.20400 29.67500
C  35.05500 45.76100 30.56400
O  33.84100 45.73400 30.18300
O  35.49300 45.52400 31.89100
C  34.53600 45.17600 32.96400
H  34.90000 53.01900 28.49700
H  35.23300 51.67400 22.20100
H  36.91400 45.66700 23.31600
H  34.59000 48.78200 31.02600
H  35.31000 51.64000 30.45500
H  33.34300 51.48900 31.46800
H  32.71600 50.17000 30.36800
H  32.94900 51.87000 29.85600
H  36.94300 50.28200 31.41000
H  37.37700 48.84900 30.51700
H  37.46200 47.79700 32.42100
H  35.86000 47.93800 32.71600
H  33.88300 55.40900 25.95500
H  35.51400 55.63700 26.52600
H  34.25900 54.85300 27.52000
H  35.62700 56.41400 24.03500
H  33.87300 55.97800 23.95800
H  34.73900 56.48100 22.55100
H  36.59600 49.83200 21.05600
H  35.80700 47.01100 21.33500
H  33.80300 49.84700 21.03500
H  34.31600 48.15100 20.29400
H  34.82200 49.77400 19.76000
H  38.62000 47.75200 22.21800
H  38.20200 48.36500 20.65200
H  39.19400 45.90500 21.01100
H  38.25000 46.25700 19.58400
H  37.51600 45.43600 21.03300
H  38.02500 44.09800 25.09400
H  36.46800 43.24900 25.20000
H  37.77800 43.31600 26.54500
H  37.07900 46.45200 30.26800
H  33.48500 45.30000 32.70600
H  34.80700 45.80100 33.81500
H  34.76200 44.12000 33.11400

