158

Mg 35.45800 2.80100 29.64500
C  33.16500 3.63600 32.10500
C  38.03700 2.92200 32.12200
C  37.97800 2.07800 27.38100
C  33.13900 3.20400 27.23700
N  35.54900 3.08500 31.87800
C  34.46200 3.40200 32.64700
C  34.85400 3.39100 34.11400
C  36.40200 3.57400 34.05800
C  36.68300 3.15400 32.61400
C  36.87300 4.91900 34.57800
C  34.27500 2.11400 34.77600
C  33.81300 2.30200 36.22100
H  34.45900 3.38900 37.08800
N  37.56500 2.37600 29.76100
C  38.38800 2.52700 30.84300
C  39.73900 2.11000 30.60100
C  39.85600 1.98800 29.17600
C  38.41500 2.17500 28.69400
C  40.80600 2.09000 31.70700
C  41.05000 1.78900 28.30300
O  40.97700 1.51100 27.13400
C  42.51300 1.86800 28.90400
N  35.56100 2.56900 27.60200
C  36.69900 2.23000 26.83700
C  36.44700 2.39700 25.36800
C  34.86500 2.56400 25.38800
C  34.43100 2.82800 26.84100
C  37.25600 3.56300 24.68700
C  34.02800 1.42100 24.75900
C  33.87400 1.43900 23.21300
N  33.49600 3.21900 29.59000
C  32.59200 3.37000 28.59400
C  31.20100 3.57300 29.06600
C  31.37900 3.71500 30.44100
C  32.76800 3.48800 30.73200
C  29.95300 3.83000 28.22500
C  30.70300 3.93600 31.76000
O  29.52600 4.05800 31.98800
C  31.84900 3.93100 32.91300
C  31.84700 5.17600 33.69400
O  32.53200 6.15500 33.49900
O  31.01400 4.93800 34.74700
C  31.08600 5.88400 35.87200
H  38.82300 3.29800 32.78100
H  38.79400 2.16100 26.66000
H  32.45000 3.32600 26.39800
H  34.36700 4.21200 34.64100
H  36.87800 2.86900 34.74000
H  37.43900 5.56400 33.90700
H  37.38100 4.80600 35.53500
H  36.00600 5.51900 34.85500
H  35.11800 1.42400 34.80600
H  33.44100 1.84000 34.13000
H  33.91000 1.33600 36.71600
H  32.74500 2.46700 36.08000
H  40.40300 1.67100 32.62900
H  41.23300 3.07800 31.87900
H  41.58100 1.36300 31.46600
H  43.27800 2.39100 28.33200
H  42.84000 0.83600 29.03200
H  42.41000 2.38100 29.86100
H  36.85100 1.46600 24.97200
H  34.70500 3.46300 24.79300
H  37.45100 4.30800 25.45800
H  36.69700 4.04600 23.88600
H  38.16500 3.05200 24.37000
H  33.03100 1.37200 25.19700
H  34.53200 0.48300 24.99200
H  34.68900 2.06700 22.85200
H  32.94700 1.82300 22.78700
H  34.08700 0.45700 22.79100
H  29.22900 3.09900 28.58600
H  30.09100 3.67300 27.15600
H  29.55300 4.83100 28.38700
H  31.73900 3.15800 33.67300
H  30.25600 5.71100 36.55700
H  31.19200 6.93600 35.60800
H  31.97200 5.55600 36.41700
Mg 9.94000 47.42300 26.76800
C  7.90100 47.47900 29.62100
C  12.33100 49.08900 28.41500
C  11.66300 47.17400 23.97000
C  6.96800 46.61900 24.86400
N  9.99500 48.27400 28.75200
C  9.21300 48.04700 29.82600
C  9.84600 48.44000 31.20400
C  11.05300 49.30100 30.61800
C  11.18900 48.81200 29.18500
C  10.84800 50.83400 30.80300
C  10.30900 47.17200 31.94800
C  9.86300 47.09100 33.38800
H  9.87300 45.81900 34.15300
N  11.77700 47.96900 26.31600
C  12.70300 48.67600 27.12100
C  13.95900 48.68800 26.45200
C  13.81600 47.94000 25.25000
C  12.34300 47.72600 25.13200
C  15.26700 49.12100 27.09100
C  14.81800 47.51900 24.17300
O  14.54600 47.02900 23.08700
C  16.24100 47.78200 24.45600
N  9.32700 47.17100 24.68700
C  10.29200 46.94100 23.77500
C  9.73100 46.44100 22.48900
C  8.17500 46.34200 22.64900
C  8.09600 46.72900 24.20100
C  10.07300 47.28600 21.20200
C  7.63000 44.98200 22.35200
C  6.11400 44.88800 21.90800
N  7.80900 47.14800 27.08300
C  6.76800 46.76500 26.27200
C  5.55900 46.60300 27.03700
C  6.00900 46.71100 28.42400
C  7.34800 47.17800 28.37500
C  4.21900 46.22200 26.47300
C  5.55100 46.64500 29.77800
O  4.42800 46.39600 30.23100
C  6.83200 47.04000 30.64100
C  7.14100 45.81600 31.48200
O  7.99700 44.99700 31.17100
O  6.36100 45.76000 32.62900
C  6.47800 44.64800 33.49900
H  13.03100 49.72200 28.96400
H  12.23700 47.09100 23.04400
H  6.06600 46.45200 24.27300
H  9.18700 49.02400 31.84600
H  12.00700 49.09500 31.10400
H  10.13700 51.20600 31.54100
H  10.66300 51.29700 29.83300
H  11.81300 51.18000 31.17200
H  11.39900 47.20800 31.92300
H  10.04900 46.27600 31.38500
H  8.80600 47.28500 33.20400
H  10.23200 47.97000 33.91600
H  15.69000 48.18000 27.44200
H  14.95500 49.77700 27.90400
H  16.03500 49.68400 26.56100
H  16.78900 47.66000 23.52200
H  16.56900 47.14900 25.28000
H  16.40300 48.81700 24.75700
H  10.16700 45.44600 22.40500
H  7.70400 47.14200 22.07700
H  10.81000 48.02300 21.52100
H  9.23400 47.82000 20.75400
H  10.59700 46.69700 20.44900
H  7.78800 44.43800 23.28300
H  8.31100 44.51200 21.64300
H  5.59500 44.47800 22.77500
H  5.98800 44.18800 21.08300
H  5.59000 45.80800 21.64700
H  3.63300 47.09400 26.18300
H  3.66500 45.77700 27.30000
H  4.36100 45.59900 25.59000
H  6.60800 47.76900 31.42000
H  7.43700 44.13300 33.43800
H  5.72100 43.87400 33.37500
H  6.45000 45.15400 34.46300

