158

Mg 16.95900 51.47700 26.73500
C  18.89800 49.93300 29.23200
C  14.61200 52.06600 29.20100
C  15.15500 53.08200 24.46800
C  19.18700 50.28300 24.31300
N  16.91400 51.15400 28.99100
C  17.82800 50.62600 29.80600
C  17.36000 50.75500 31.21600
C  15.82600 50.89200 31.11800
C  15.74000 51.36100 29.64700
C  15.00600 49.56700 31.39800
C  18.10400 52.01100 31.79400
C  18.43100 51.94200 33.27100
H  17.54300 51.00700 34.19800
N  15.17400 52.62400 26.84700
C  14.39400 52.78700 27.94600
C  13.35400 53.75300 27.61900
C  13.41200 53.90800 26.16500
C  14.63000 53.22000 25.74200
C  12.41900 54.26000 28.63000
C  12.57600 54.80500 25.35900
O  12.74100 55.08800 24.18100
C  11.34400 55.47800 25.96200
N  17.03800 51.42200 24.65300
C  16.22900 52.35700 24.00500
C  16.65900 52.31400 22.51300
C  18.11700 51.74500 22.47400
C  18.06300 51.05200 23.92100
C  15.62000 51.55300 21.54700
C  19.25400 52.75600 22.25200
C  19.10900 53.80400 21.17400
N  18.54400 50.23600 26.73600
C  19.40500 49.79900 25.68300
C  20.47900 48.94400 26.15700
C  20.29400 48.96200 27.51100
C  19.11700 49.71800 27.80900
C  21.54700 48.31200 25.30300
C  20.89900 48.48800 28.70000
O  21.89000 47.82200 28.94700
C  20.00000 49.15200 29.90800
C  19.63200 48.12400 30.89500
O  18.73200 47.33500 30.80100
O  20.44300 48.30600 32.05600
C  19.97200 47.51300 33.21700
H  13.85500 52.35600 29.93300
H  14.61100 53.66100 23.71800
H  20.03300 50.20500 23.62700
H  17.59600 49.83000 31.74200
H  15.38900 51.65400 31.76400
H  15.63500 48.81300 31.87200
H  14.75100 49.14700 30.42600
H  14.14600 49.73800 32.04500
H  17.53900 52.93900 31.69700
H  19.04700 52.06200 31.25000
H  18.36300 52.97800 33.60300
H  19.45700 51.59600 33.39700
H  12.21700 55.32900 28.55900
H  12.82200 54.03000 29.61600
H  11.38200 53.93000 28.56800
H  10.69600 55.93000 25.21100
H  11.79700 56.28200 26.54200
H  10.73000 54.79700 26.55100
H  16.71100 53.33200 22.12600
H  18.16700 50.85100 21.85400
H  15.95000 50.68500 20.97500
H  15.30700 52.31300 20.83100
H  14.86200 51.21900 22.25600
H  20.15700 52.23600 21.93100
H  19.41600 53.18600 23.24000
H  18.98700 54.77800 21.64900
H  18.24200 53.64500 20.53200
H  19.97500 53.94100 20.52600
H  22.21900 48.99700 24.78500
H  20.98700 47.73700 24.56600
H  22.11000 47.65400 25.96500
H  20.54300 49.98300 30.35800
H  19.80800 46.45400 33.02200
H  19.00700 47.86200 33.58400
H  20.64000 47.62200 34.07200
Mg -2.26200 34.62400 26.80500
C  -3.57900 32.81600 29.53100
C  -1.07100 36.90700 28.94600
C  -1.44500 36.42000 24.05000
C  -3.77800 32.29800 24.73000
N  -2.35400 34.80400 29.00400
C  -2.83000 33.92800 29.92700
C  -2.40000 34.27500 31.35600
C  -1.67900 35.63700 31.12400
C  -1.66800 35.82900 29.59900
C  -2.33400 36.83600 31.89900
C  -1.59300 33.15800 32.03000
C  -2.19600 32.46200 33.26900
H  -1.16200 32.33000 34.43800
N  -1.37900 36.39000 26.56400
C  -0.95500 37.21300 27.56000
C  -0.24200 38.35700 27.00800
C  -0.01800 38.03700 25.61100
C  -0.97700 36.88900 25.38400
C  0.34400 39.43800 27.73200
C  0.80600 38.63700 24.61000
O  0.83700 38.20500 23.43400
C  1.63500 39.88100 24.92800
N  -2.71700 34.48500 24.64400
C  -2.25500 35.37200 23.72300
C  -2.55400 35.04900 22.31600
C  -2.88500 33.48600 22.55000
C  -3.11800 33.35900 24.06800
C  -3.69600 35.90800 21.81700
C  -1.78900 32.49300 21.91600
C  -0.54800 32.17800 22.68500
N  -3.47200 32.94600 27.03300
C  -3.99000 32.11800 26.08200
C  -4.83200 31.04000 26.74600
C  -4.61900 31.27000 28.06300
C  -3.82300 32.39500 28.23300
C  -5.56200 30.03200 25.96900
C  -5.02900 30.77000 29.39500
O  -5.74400 29.87700 29.72600
C  -4.29800 31.77300 30.40200
C  -5.43400 32.37500 31.17200
O  -6.24800 33.14600 30.72300
O  -5.39100 31.83700 32.44700
C  -6.57700 32.01900 33.28300
H  -0.66800 37.68200 29.60100
H  -1.07700 36.98700 23.19300
H  -4.25800 31.61700 24.02300
H  -3.33400 34.30300 31.91600
H  -0.63100 35.72200 31.41300
H  -2.87500 37.40800 31.14500
H  -1.55000 37.41700 32.38400
H  -3.05000 36.58000 32.68000
H  -0.60600 33.53000 32.30700
H  -1.43400 32.40100 31.26100
H  -2.35500 31.40800 33.04100
H  -3.17600 32.82700 33.57700
H  1.43300 39.41000 27.78400
H  -0.04900 39.40200 28.74800
H  0.09800 40.39500 27.27300
H  2.22900 39.85200 25.84100
H  0.92600 40.70700 24.87100
H  2.26600 39.94400 24.04100
H  -1.64900 35.14500 21.71600
H  -3.82000 33.20700 22.06500
H  -4.61600 35.42400 21.49100
H  -3.30000 36.63100 21.10400
H  -4.19800 36.43100 22.63100
H  -1.34900 32.91800 21.01300
H  -2.26300 31.55800 21.61700
H  -0.67300 32.56000 23.69800
H  0.40300 32.55700 22.30900
H  -0.45200 31.09200 22.66900
H  -6.51400 30.49700 25.71600
H  -5.70000 29.26200 26.72800
H  -4.90100 29.77300 25.14300
H  -3.66400 31.37500 31.19500
H  -6.81800 31.05200 33.72300
H  -7.38200 32.30800 32.60700
H  -6.35500 32.80400 34.00700

