158

Mg 40.69900 8.15300 30.13300
C  42.42300 9.25800 32.82500
C  38.28900 6.70000 32.33200
C  39.02600 6.83300 27.47900
C  43.19900 9.03600 27.99800
N  40.63000 7.65900 32.35200
C  41.31700 8.52500 33.25100
C  40.79100 8.45800 34.66100
C  39.71000 7.27300 34.52500
C  39.45400 7.23900 32.97400
C  40.23100 5.90800 34.92000
C  40.15000 9.85700 34.98000
C  39.70000 9.92100 36.41700
H  40.09800 11.09700 37.24700
N  38.88300 7.03200 29.87100
C  38.06700 6.64900 30.91200
C  36.82600 6.10200 30.26000
C  37.06600 6.14000 28.86100
C  38.37700 6.63000 28.67200
C  35.76400 5.38500 30.99600
C  36.21700 5.62000 27.74700
O  36.60900 5.41200 26.61100
C  34.80800 5.45900 27.92900
N  41.07100 7.79400 28.06600
C  40.20800 7.35700 27.13800
C  40.64600 7.54200 25.66300
C  42.08100 8.16400 25.90900
C  42.13000 8.32700 27.43100
C  40.59600 6.27700 24.76000
C  42.28100 9.49200 25.10700
C  41.89500 10.89000 25.82900
N  42.47200 8.94900 30.36400
C  43.35000 9.39800 29.36000
C  44.37000 10.24300 30.06100
C  44.04500 10.10700 31.41300
C  42.90900 9.33000 31.55300
C  45.49600 10.99400 29.44600
C  44.51600 10.52200 32.70400
O  45.47500 11.25900 32.90800
C  43.42900 10.07300 33.70900
C  44.17100 9.22900 34.63700
O  44.74800 8.22200 34.31300
O  44.19900 9.82800 35.88700
C  45.10400 9.08800 36.78500
H  37.44600 6.49300 32.99400
H  38.39300 6.54300 26.63800
H  43.96300 9.57700 27.43600
H  41.65400 8.29000 35.30600
H  38.81800 7.40600 35.13800
H  39.63700 5.59200 35.77800
H  41.30000 5.97500 35.11900
H  40.11900 5.20800 34.09200
H  39.29700 9.97400 34.31200
H  40.81500 10.70600 34.82400
H  40.11200 9.03800 36.90500
H  38.62100 9.78100 36.48100
H  35.93900 5.27400 32.06600
H  35.42500 4.40700 30.65700
H  34.88300 6.01900 31.09600
H  34.35300 6.44400 28.02600
H  34.63500 4.82200 28.79700
H  34.33600 5.04400 27.03900
H  40.04600 8.30600 25.16800
H  42.83300 7.43800 25.59800
H  41.58100 6.29700 24.29200
H  39.78100 6.31400 24.03700
H  40.60900 5.37600 25.37200
H  41.59400 9.44800 24.26200
H  43.30300 9.57400 24.73600
H  42.85400 11.31800 26.12200
H  41.40600 10.81200 26.80000
H  41.43800 11.56900 25.10900
H  45.31900 11.10600 28.37700
H  46.41800 10.51000 29.76900
H  45.44300 11.96000 29.94800
H  43.02500 11.03000 34.04000
H  45.12200 7.99800 36.78500
H  44.73100 9.23500 37.79800
H  46.15300 9.33400 36.62200
Mg 46.73000 15.60400 28.72800
C  44.69400 15.19000 31.64000
C  48.78900 17.37400 30.49800
C  48.24500 16.24200 25.82600
C  44.05600 14.12900 26.82800
N  46.70200 16.20600 30.82800
C  45.86800 15.94500 31.82400
C  46.37000 16.43700 33.15300
C  47.52500 17.36300 32.68700
C  47.66600 17.03100 31.21100
C  47.28900 18.84600 32.87400
C  46.80200 15.29400 34.03700
C  46.50700 15.41700 35.52700
H  46.43100 16.81700 36.11600
N  48.35800 16.58800 28.20300
C  49.13000 17.19600 29.13400
C  50.17700 17.90600 28.42800
C  50.09400 17.55300 27.02700
C  48.87500 16.77200 26.96800
C  51.19300 18.72900 29.14000
C  50.91300 17.97800 25.81100
O  50.56400 17.70200 24.67300
C  52.16100 18.71900 25.98800
N  46.21300 15.13400 26.59200
C  47.11700 15.52600 25.58000
C  46.57200 15.04700 24.19300
C  45.17600 14.49100 24.58200
C  45.13800 14.54200 26.07300
C  46.55400 16.16100 23.05800
C  44.91100 13.02400 24.15200
C  45.92500 11.94000 24.57800
N  44.79500 14.78500 29.16600
C  43.85000 14.20300 28.24100
C  42.75500 13.67800 29.06000
C  43.07100 14.04100 30.36900
C  44.31700 14.69500 30.39600
C  41.51000 12.87700 28.65700
C  42.59700 13.93200 31.76400
O  41.53600 13.39800 32.22500
C  43.62800 14.72300 32.64300
C  42.96700 15.95800 33.20700
O  42.32900 16.81400 32.57800
O  42.96800 15.84600 34.59400
C  42.39100 16.88100 35.44000
H  49.45900 18.01100 31.07800
H  48.80400 16.44000 24.90900
H  43.28600 13.54900 26.31400
H  45.59700 17.04200 33.62700
H  48.52200 17.13000 33.06000
H  48.03200 19.17700 33.60000
H  46.34300 19.14000 33.32800
H  47.40900 19.29900 31.89000
H  47.85800 15.08200 33.86900
H  46.24600 14.41500 33.71000
H  47.36000 14.99300 36.05500
H  45.63100 14.82600 35.79700
H  51.27400 19.72300 28.70000
H  52.13100 18.17800 29.06700
H  51.04200 18.87600 30.21000
H  51.81200 19.63900 26.45800
H  52.72100 18.63700 25.05600
H  52.83000 18.21100 26.68300
H  47.27300 14.32200 23.77800
H  44.40000 15.15000 24.19400
H  45.53900 16.47800 22.81600
H  47.13200 15.95000 22.15800
H  46.95300 17.07000 23.50700
H  44.96800 13.08600 23.06500
H  43.88500 12.73800 24.38500
H  45.52900 11.12400 25.18200
H  46.76600 12.31600 25.16100
H  46.45300 11.50600 23.72900
H  41.43000 12.89200 27.57000
H  40.67000 13.34400 29.17200
H  41.73300 11.88800 29.05800
H  44.04600 14.16200 33.47900
H  43.04200 17.75500 35.46000
H  42.27600 16.51300 36.45900
H  41.48300 17.26900 34.97900

