158

Mg 44.32000 3.18200 48.20200
C  42.11300 5.79900 47.37600
C  41.58500 1.05000 47.58400
C  46.42200 0.56700 48.14600
C  47.08400 5.44400 47.67700
N  42.06700 3.45800 47.41300
C  41.37700 4.59500 47.37700
C  39.87800 4.29100 46.99700
C  39.72600 2.81900 47.38500
C  41.22900 2.37900 47.41000
C  38.98500 2.55600 48.78000
C  39.61300 4.63800 45.50900
C  38.68600 5.80600 45.20900
H  39.03100 6.79400 44.01600
N  44.03400 1.04700 48.11600
C  42.84800 0.38100 47.88500
C  43.16200 -1.00700 47.88900
C  44.51500 -1.20100 47.97700
C  45.08600 0.15600 48.09600
C  42.10900 -2.02500 47.70500
C  45.34100 -2.49800 47.94100
O  44.80500 -3.60700 47.80600
C  46.81900 -2.55400 48.16100
N  46.39400 3.09900 48.07300
C  47.03800 1.89000 48.11600
C  48.59600 2.01600 47.87700
C  48.82800 3.54400 47.99300
C  47.37100 4.06100 47.89700
C  49.43000 1.27900 48.94300
C  49.86900 4.17400 47.06300
C  51.05100 3.24300 46.53900
N  44.57400 5.23100 47.70200
C  45.76400 6.06300 47.61000
C  45.27700 7.39400 47.38000
C  43.89200 7.31600 47.26500
C  43.54000 5.96200 47.43600
C  46.33400 8.51400 47.08800
C  42.82000 8.17600 47.04400
O  42.76500 9.42900 46.98100
C  41.57400 7.18900 47.07700
C  40.70000 7.74700 48.16000
O  40.70500 7.29000 49.29400
O  39.88400 8.75200 47.64500
C  38.66800 9.01900 48.47200
H  40.72600 0.40200 47.39900
H  47.28200 -0.10500 48.09400
H  47.89600 6.16100 47.53600
H  39.34100 4.98200 47.64600
H  39.24500 2.10800 46.71400
H  38.67900 3.46000 49.30800
H  39.72500 2.04000 49.39200
H  38.22900 1.77300 48.71800
H  39.20700 3.77300 44.98500
H  40.61300 4.69900 45.08100
H  38.55000 6.41400 46.10300
H  37.75100 5.36400 44.86200
H  41.17400 -1.64300 47.29600
H  41.99500 -2.61400 48.61500
H  42.32100 -2.83400 47.00500
H  47.42900 -2.05300 47.41000
H  47.10100 -3.60700 48.17400
H  47.03500 -2.16000 49.15400
H  48.93100 1.81700 46.85900
H  49.16000 3.75700 49.00900
H  48.81800 1.02800 49.80900
H  50.21500 1.91500 49.35200
H  49.93200 0.45800 48.43200
H  50.32200 4.97800 47.64300
H  49.39100 4.68200 46.22600
H  51.33900 2.59500 47.36700
H  51.95900 3.78700 46.27800
H  50.72000 2.75400 45.62300
H  47.22900 8.19500 46.55400
H  46.59200 9.00300 48.02700
H  45.82300 9.26300 46.48300
H  41.10600 7.33100 46.10200
H  38.53100 8.66800 49.49500
H  37.81500 8.54700 47.98600
H  38.36800 10.06600 48.42400
Mg 47.43300 44.48200 42.87000
C  44.09900 43.38900 42.53300
C  48.41300 41.25500 42.44100
C  50.72500 45.55100 42.38900
C  46.41300 47.75400 42.78700
N  46.40100 42.56800 42.45000
C  45.04200 42.32800 42.50100
C  44.78900 40.77200 42.41700
C  46.15600 40.21800 42.70600
C  47.07700 41.44100 42.57600
C  46.25100 39.46000 44.04000
C  44.04900 40.29800 41.14400
C  44.11600 41.21100 39.82400
H  44.20700 40.54200 38.45300
N  49.26000 43.47000 42.64100
C  49.49600 42.13300 42.55800
C  50.91100 41.86300 42.44600
C  51.59300 43.07500 42.42300
C  50.54000 44.18200 42.47000
C  51.46900 40.50700 42.11200
C  53.11900 43.22700 42.28000
O  53.81600 42.24800 42.03200
C  53.92000 44.49500 42.50100
N  48.34100 46.44900 42.22900
C  49.75000 46.53800 42.31800
C  50.02900 48.07700 42.47000
C  48.68100 48.77800 42.62000
C  47.73500 47.60200 42.54600
C  51.22300 48.57900 43.38200
C  48.29400 49.96000 41.66800
C  47.81700 51.23800 42.30400
N  45.64900 45.42200 42.65900
C  45.33400 46.75600 42.72000
C  43.88900 46.90100 42.80900
C  43.36400 45.61600 42.60100
C  44.48900 44.75300 42.55700
C  43.17800 48.20700 43.11200
C  42.12900 44.86000 42.41800
O  40.96500 45.24200 42.35500
C  42.55300 43.31400 42.55400
C  42.08400 42.89300 43.92500
O  42.16000 43.59100 44.95500
O  41.68700 41.48500 43.95600
C  41.64700 40.94500 45.35700
H  48.65400 40.19200 42.50200
H  51.73300 45.96700 42.45000
H  46.11400 48.77800 43.01700
H  44.14700 40.71400 43.29600
H  46.49600 39.63600 41.84900
H  45.41200 38.80400 44.27100
H  46.66800 40.10000 44.81700
H  47.01700 38.75300 43.72000
H  43.01300 40.33000 41.48100
H  44.25500 39.24500 40.95200
H  45.05600 41.75800 39.89100
H  43.34500 41.97100 39.95100
H  52.20100 40.50700 41.30400
H  50.73300 39.71400 41.98100
H  51.99600 40.26300 43.03400
H  53.74000 45.09000 41.60500
H  54.97200 44.22800 42.60200
H  53.50600 44.84400 43.44700
H  50.33600 48.26200 41.44100
H  48.65300 49.16800 43.63700
H  51.35900 47.75100 44.07700
H  50.94400 49.47500 43.93900
H  52.16500 48.83800 42.89800
H  47.47000 49.59600 41.05400
H  49.12500 50.19700 41.00400
H  48.71900 51.85000 42.32300
H  47.35800 51.02100 43.26900
H  47.02900 51.77200 41.77300
H  43.69900 48.76300 43.89200
H  42.13100 47.92600 43.23200
H  43.28300 48.84700 42.23600
H  42.07000 42.65700 41.83100
H  40.65400 40.54000 45.55400
H  42.19500 41.51500 46.10800
H  42.25700 40.04800 45.25300

