158

Mg -2.39100 17.26600 26.26700
C  -2.97400 14.74300 28.72300
C  -3.09300 19.57800 28.43200
C  -2.44000 19.44400 23.73800
C  -2.80800 14.63100 23.88900
N  -3.15200 17.14900 28.32200
C  -3.06200 16.05100 29.22300
C  -3.13700 16.55300 30.64900
C  -3.41900 18.06400 30.46700
C  -3.27500 18.31100 28.99800
C  -4.69600 18.53700 31.14200
C  -1.88800 16.18000 31.52700
C  -1.82200 16.98100 32.82900
H  -1.76300 16.22300 34.12200
N  -2.45300 19.30700 26.18500
C  -2.72200 20.12800 27.25900
C  -2.45500 21.53000 26.79800
C  -2.23100 21.45300 25.35100
C  -2.37800 20.04900 25.00300
C  -2.67900 22.68100 27.70200
C  -1.81300 22.51700 24.33400
O  -1.67200 22.32800 23.15000
C  -1.60400 23.89400 24.78200
N  -2.60100 17.04500 24.14900
C  -2.52900 18.12000 23.32400
C  -2.74500 17.76500 21.87400
C  -2.76300 16.21900 21.93800
C  -2.68200 15.92100 23.43300
C  -4.05300 18.43800 21.40100
C  -1.65200 15.56000 21.06400
C  -2.14200 14.81400 19.85900
N  -2.68000 15.13800 26.28200
C  -2.69000 14.24000 25.23600
C  -2.77300 12.86000 25.74700
C  -2.81700 12.99300 27.11700
C  -2.89200 14.41800 27.37400
C  -2.98800 11.55300 24.93600
C  -2.94500 12.30100 28.35600
O  -2.96700 11.06500 28.57200
C  -3.09700 13.36300 29.43100
C  -1.90400 13.09800 30.34800
O  -0.86200 13.68900 30.31500
O  -2.33100 12.17600 31.28400
C  -1.50600 12.10700 32.55700
H  -3.14700 20.21300 29.31900
H  -2.36100 20.08400 22.85700
H  -2.84900 13.85100 23.12600
H  -3.93600 16.06300 31.20600
H  -2.51500 18.56000 30.82000
H  -5.37600 18.86400 30.35600
H  -4.48200 19.41200 31.75600
H  -5.16100 17.73100 31.71000
H  -0.93700 16.26300 31.00100
H  -1.88100 15.13000 31.82100
H  -2.62700 17.70700 32.93900
H  -0.90300 17.55600 32.71400
H  -3.02500 22.46800 28.71400
H  -3.41000 23.38900 27.31000
H  -1.70200 23.14800 27.82200
H  -0.97700 23.96300 25.67100
H  -2.54400 24.33200 25.11900
H  -1.24900 24.48600 23.93900
H  -1.90900 18.19700 21.32400
H  -3.73800 15.85900 21.60800
H  -4.38900 19.15400 22.15000
H  -4.81700 17.70200 21.14700
H  -3.86800 19.09100 20.54800
H  -1.12200 14.81700 21.66100
H  -0.86200 16.23900 20.74500
H  -2.72500 13.93000 20.11600
H  -1.21800 14.50900 19.36900
H  -2.66400 15.47300 19.16500
H  -4.04000 11.27600 24.87300
H  -2.43600 10.71000 25.35000
H  -2.58700 11.67800 23.93000
H  -4.04200 13.12200 29.91900
H  -1.31500 13.11800 32.91900
H  -0.59100 11.57700 32.29500
H  -1.93100 11.46300 33.32700
Mg 30.08600 58.91100 40.13100
C  27.45000 57.00700 39.11300
C  32.29700 56.44100 38.89200
C  32.89400 61.10200 40.23800
C  27.99500 61.57700 40.93900
N  29.89400 56.97600 39.00200
C  28.66000 56.37500 38.77300
C  28.88100 55.08600 37.98300
C  30.37200 54.76900 38.39800
C  30.93100 56.19000 38.66000
C  30.51500 53.88100 39.67800
C  28.67900 55.38100 36.47900
C  27.55200 54.56800 35.84000
H  26.89300 55.16300 34.62300
N  32.28500 58.75900 39.76700
C  32.90400 57.60600 39.27700
C  34.27000 57.80200 39.28100
C  34.56600 59.13400 39.65000
C  33.22800 59.75800 39.91500
C  35.27200 56.78100 38.87000
C  35.99900 59.67500 39.83800
O  36.96800 59.05000 39.61400
C  36.11900 61.05100 40.50800
N  30.41500 61.09300 40.37000
C  31.65300 61.69100 40.50500
C  31.50600 63.21500 41.04900
C  29.90200 63.27200 41.25800
C  29.39600 61.87000 40.84900
C  32.34500 63.58600 42.33400
C  29.12200 64.42700 40.41300
C  28.27000 65.43800 41.27500
N  28.12300 59.28400 40.12700
C  27.34000 60.38500 40.50600
C  25.95500 60.10800 40.35600
C  25.93000 58.76000 39.81900
C  27.23300 58.29900 39.66900
C  24.81200 61.05100 40.60800
C  25.07900 57.66500 39.39500
O  23.86100 57.64800 39.38800
C  25.99300 56.49700 38.94500
C  25.75500 55.43700 39.86300
O  26.21300 55.35100 40.97200
O  24.99000 54.59600 39.17800
C  24.26300 53.43800 39.86700
H  32.83700 55.52800 38.63400
H  33.79700 61.71500 40.20200
H  27.25900 62.32800 41.23400
H  28.20100 54.28700 38.27600
H  30.92800 54.28800 37.59200
H  31.01100 54.47300 40.44600
H  31.14000 52.98800 39.64900
H  29.48400 53.64900 39.94700
H  29.60400 55.11500 35.96600
H  28.48200 56.43600 36.29000
H  26.82100 54.33700 36.61600
H  28.05500 53.71200 35.38900
H  35.68100 57.11200 37.91500
H  34.87400 55.83900 38.49400
H  36.07500 56.77800 39.60600
H  35.55600 61.33200 41.39800
H  35.78000 61.86600 39.86800
H  37.18300 61.11700 40.73400
H  31.80400 63.99300 40.34500
H  29.57800 63.37500 42.29300
H  33.29500 63.05800 42.41900
H  31.75400 63.35600 43.22100
H  32.62000 64.64100 42.32400
H  28.36300 63.95400 39.79000
H  29.72000 64.97800 39.68700
H  27.20300 65.23200 41.18500
H  28.41600 66.44200 40.87700
H  28.64400 65.30100 42.28900
H  25.07400 61.98600 40.11400
H  24.73900 61.27900 41.67100
H  23.90500 60.57800 40.23100
H  25.83600 56.25000 37.89500
H  24.76400 53.31900 40.82700
H  24.47500 52.56600 39.24800
H  23.17900 53.53500 39.93000

