158

Mg 25.72700 -0.76900 29.37800
C  27.44900 -0.97200 32.33700
C  22.78600 -0.52200 31.22900
C  23.92700 -0.76700 26.57500
C  28.63300 -1.36000 27.55300
N  25.21700 -1.02600 31.51500
C  26.05800 -0.93500 32.59300
C  25.34800 -0.53000 33.96600
C  23.91300 -0.86700 33.49400
C  23.96300 -0.85300 31.94600
C  23.30100 -2.22300 34.13600
C  25.72900 0.90200 34.40600
C  24.83200 1.63300 35.40800
H  25.59700 2.19100 36.68600
N  23.68500 -0.51400 28.95100
C  22.66900 -0.38600 29.82700
C  21.44600 -0.07300 29.14000
C  21.79400 -0.10100 27.78600
C  23.19200 -0.46000 27.71100
C  20.10000 0.07000 29.84400
C  20.97700 0.31400 26.56000
O  21.48900 0.34700 25.44800
C  19.53200 0.82400 26.67800
N  26.26100 -1.08500 27.39600
C  25.29900 -1.09200 26.36500
C  25.97300 -1.26800 25.03200
C  27.51300 -1.24400 25.34700
C  27.45000 -1.31000 26.82500
C  25.50600 -2.55900 24.21100
C  28.21800 0.10000 24.94100
C  29.29800 0.05900 23.81900
N  27.67400 -1.25600 29.80000
C  28.75000 -1.38900 28.95900
C  29.90000 -1.54700 29.80500
C  29.48300 -1.28000 31.10900
C  28.12900 -1.15400 31.06200
C  31.25000 -1.86100 29.29100
C  29.93300 -1.03000 32.46000
O  31.07500 -1.04900 32.89800
C  28.61400 -0.69600 33.31900
C  28.67000 -1.68600 34.39900
O  28.46400 -2.89300 34.23800
O  29.07400 -1.09000 35.63000
C  29.37400 -2.01200 36.74800
H  21.90700 -0.43500 31.87100
H  23.33900 -0.85400 25.65900
H  29.52000 -1.46700 26.92500
H  25.63100 -1.23200 34.75000
H  23.40900 0.04400 33.81800
H  23.96800 -2.67900 34.86800
H  23.06400 -2.94500 33.35600
H  22.31300 -1.95000 34.50600
H  25.80800 1.45400 33.47000
H  26.71400 0.89300 34.87300
H  23.98100 1.05100 35.76100
H  24.43700 2.56400 35.00100
H  19.50100 0.89300 29.45600
H  20.17000 0.12300 30.93100
H  19.44300 -0.78900 29.70700
H  19.19900 1.07700 25.67100
H  19.46600 1.64200 27.39500
H  18.81800 0.08800 27.04900
H  25.55900 -0.41900 24.48800
H  28.00200 -2.16900 25.04100
H  24.65900 -3.07400 24.66500
H  26.21500 -3.38300 24.12900
H  25.18800 -2.35500 23.18800
H  28.71300 0.64400 25.74600
H  27.48500 0.80000 24.53800
H  30.22300 0.39800 24.28600
H  28.97300 0.59400 22.92700
H  29.40400 -0.98000 23.50700
H  31.33500 -2.05600 28.22200
H  31.77800 -2.64900 29.82800
H  31.82900 -0.94100 29.37600
H  28.59700 0.28500 33.79500
H  29.35300 -3.05100 36.41700
H  28.55900 -1.90300 37.46300
H  30.30900 -1.81200 37.27200
Mg -12.07700 16.03700 42.31000
C  -8.71400 16.53700 42.50600
C  -12.60600 19.26000 41.79600
C  -15.29900 15.18700 41.16400
C  -11.43900 12.44800 42.33600
N  -10.70500 17.66800 41.71900
C  -9.41100 17.70700 42.15300
C  -8.89200 19.12500 42.21500
C  -10.23800 19.95100 42.38400
C  -11.23100 18.90400 41.88500
C  -10.56400 20.28400 43.84800
C  -8.12600 19.61100 40.93200
C  -6.66900 19.93700 41.16000
H  -5.68600 19.14400 40.20600
N  -13.70100 17.10900 41.54100
C  -13.71700 18.40400 41.52200
C  -15.03100 18.94400 41.19100
C  -15.83100 17.81000 40.87500
C  -14.96000 16.59000 41.21300
C  -15.43300 20.43600 41.10300
C  -17.26500 17.88200 40.44700
O  -17.83400 18.99900 40.29500
C  -18.02100 16.63300 40.25700
N  -13.20000 14.14100 41.66000
C  -14.47700 14.10200 41.25400
C  -15.00100 12.65300 41.08000
C  -13.73100 11.82400 41.31700
C  -12.73500 12.82100 41.91700
C  -16.27800 12.36500 41.89500
C  -13.24100 11.23000 39.93200
C  -13.38700 9.69300 39.80900
N  -10.42200 14.68400 42.34900
C  -10.33500 13.28600 42.50300
C  -8.96000 12.92900 42.65200
C  -8.29600 14.16500 42.76700
C  -9.22100 15.22400 42.49900
C  -8.31300 11.66400 42.99300
C  -6.98200 14.72300 43.04000
O  -5.98300 14.17200 43.37000
C  -7.20500 16.32000 42.88100
C  -6.89100 17.01400 44.22600
O  -7.39800 16.78300 45.31800
O  -5.89800 17.96200 44.02400
C  -5.20200 18.47500 45.21000
H  -12.69300 20.34300 41.91100
H  -16.29600 14.91800 40.80600
H  -11.35800 11.37800 42.53800
H  -8.35000 19.26200 43.15100
H  -10.15900 20.90100 41.85600
H  -9.61000 20.38400 44.36600
H  -11.21200 19.55000 44.32600
H  -10.95000 21.30200 43.79800
H  -8.65800 20.47000 40.52200
H  -8.35300 18.89900 40.13800
H  -6.43400 19.55400 42.15300
H  -6.53400 21.01800 41.12400
H  -16.35400 20.64300 41.64700
H  -15.60900 20.71200 40.06300
H  -14.62600 21.10700 41.39700
H  -19.01500 16.94500 39.93700
H  -18.00900 16.12300 41.22000
H  -17.50200 16.05900 39.48900
H  -15.45300 12.70800 40.09000
H  -13.91400 11.00300 42.01000
H  -17.07800 11.98800 41.25700
H  -16.60400 13.15000 42.57700
H  -16.06300 11.50300 42.52600
H  -12.18600 11.50200 39.90600
H  -13.84900 11.59600 39.10400
H  -12.41300 9.20600 39.84500
H  -13.82400 9.50300 38.82800
H  -14.03500 9.15800 40.50400
H  -8.38000 11.42900 44.05500
H  -7.23300 11.64900 42.85000
H  -8.86600 10.91600 42.42500
H  -6.55800 16.76500 42.12400
H  -5.51500 19.51000 45.34800
H  -4.14300 18.39200 44.96300
H  -5.34800 17.85300 46.09200

