158

Mg 35.00600 3.07800 30.18000
C  32.69500 3.98300 32.80900
C  37.35300 3.18000 32.45600
C  37.07500 2.62800 27.63100
C  32.29200 3.45300 27.97500
N  34.99400 3.41400 32.37300
C  33.96100 3.60900 33.26100
C  34.41100 3.63900 34.71500
C  35.97000 3.68200 34.54100
C  36.15000 3.45600 33.02900
C  36.76100 4.97100 34.87800
C  33.91200 2.40800 35.46100
C  33.61400 2.56000 36.96200
H  34.34500 3.63900 37.78700
N  36.90400 2.84800 30.03600
C  37.79100 2.81600 31.09400
C  39.11200 2.63300 30.61300
C  39.04600 2.43300 29.19900
C  37.61000 2.58300 28.89000
C  40.25800 2.50900 31.54100
C  40.20200 2.06400 28.16000
O  40.03400 1.91200 26.94000
C  41.61900 1.85000 28.67300
N  34.76900 3.03000 28.07300
C  35.75800 2.79900 27.22100
C  35.25700 2.50900 25.79800
C  33.70100 2.72000 25.88900
C  33.54200 3.09600 27.40400
C  36.02100 3.33100 24.71000
C  32.80700 1.52800 25.50000
C  33.16400 0.15600 26.14700
N  32.99100 3.67100 30.28100
C  31.99800 3.76700 29.34600
C  30.82200 4.29500 29.93500
C  31.06400 4.31000 31.27800
C  32.39300 3.95700 31.47800
C  29.59400 4.57100 29.12900
C  30.35700 4.67500 32.47300
O  29.20700 5.11800 32.68500
C  31.41000 4.40600 33.61100
C  31.53900 5.61900 34.50700
O  31.92500 6.67400 34.13400
O  30.94800 5.36000 35.72000
C  30.65900 6.45100 36.69000
H  38.04300 2.99600 33.28200
H  37.76600 2.42300 26.81100
H  31.49200 3.50000 27.23200
H  34.27400 4.60100 35.21000
H  36.49400 2.97400 35.18400
H  37.76000 4.83500 35.29200
H  36.11800 5.54400 35.54500
H  36.92500 5.56700 33.98000
H  34.60600 1.60600 35.20900
H  32.96500 2.22700 34.95400
H  33.60000 1.62400 37.51900
H  32.56700 2.86200 36.98500
H  40.87100 3.41100 31.53000
H  40.86100 1.66000 31.22000
H  39.86600 2.37300 32.54900
H  42.27800 1.88500 27.80600
H  41.61300 0.85500 29.11800
H  41.93400 2.61200 29.38600
H  35.49800 1.47100 25.56800
H  33.40800 3.52200 25.21200
H  36.65600 4.08900 25.17000
H  35.35900 3.76200 23.95900
H  36.70800 2.59300 24.29700
H  32.89400 1.36600 24.42600
H  31.75000 1.66500 25.72900
H  32.40900 -0.31500 26.77600
H  34.02000 0.36700 26.78700
H  33.44700 -0.58900 25.40400
H  29.55500 3.96300 28.22500
H  29.53700 5.62700 28.86600
H  28.74100 4.37400 29.78000
H  31.05000 3.50800 34.11300
H  31.20700 6.32400 37.62300
H  29.64200 6.45500 37.08100
H  30.79600 7.42700 36.22300
Mg 40.02900 9.47200 29.45900
C  41.91600 10.76800 32.00600
C  37.85300 8.12500 31.68600
C  38.30200 8.17200 26.86500
C  42.69500 10.37200 27.14200
N  40.05000 9.32300 31.66600
C  40.75000 10.14600 32.48200
C  40.17400 10.16100 33.92000
C  38.98600 9.16200 33.83400
C  38.94900 8.84100 32.30500
C  39.08500 7.83100 34.67000
C  39.92300 11.63600 34.46500
C  40.50400 11.91600 35.81000
H  39.56700 12.44100 36.89900
N  38.35400 8.31100 29.26500
C  37.54700 7.97300 30.32800
C  36.35000 7.30500 29.83300
C  36.40800 7.43000 28.43100
C  37.73200 8.03100 28.08900
C  35.23600 6.69000 30.76800
C  35.33500 7.01000 27.37100
O  35.51800 7.04500 26.15400
C  34.04300 6.51700 27.77500
N  40.45200 9.33800 27.30000
C  39.54100 8.82300 26.47100
C  39.98500 8.85000 24.96000
C  41.32300 9.58100 25.15000
C  41.52500 9.76600 26.62900
C  40.20100 7.34500 24.46200
C  41.54500 10.87800 24.27100
C  40.94500 12.13700 24.82700
N  41.92900 10.37700 29.50200
C  42.93200 10.61200 28.52100
C  44.09200 11.19300 29.19000
C  43.69200 11.26900 30.60000
C  42.39400 10.72200 30.69400
C  45.48000 11.44700 28.55900
C  44.16000 11.66800 31.88100
O  45.24200 12.10200 32.31800
C  43.01500 11.35400 32.84600
C  43.53100 10.47200 33.92900
O  43.40800 9.24500 34.00800
O  44.19000 11.21500 34.87000
C  44.71800 10.60400 36.06100
H  37.12000 7.97700 32.48200
H  37.79400 7.67200 26.03800
H  43.47600 10.60000 26.41300
H  40.95300 9.76800 34.57400
H  38.05900 9.68100 34.07700
H  38.23500 7.84800 35.35200
H  39.97600 7.72300 35.28900
H  39.12300 6.96900 34.00400
H  38.83800 11.70600 34.53200
H  40.22100 12.18000 33.56900
H  41.22800 12.72300 35.70200
H  41.10200 11.04900 36.09000
H  35.40100 7.00700 31.79800
H  35.28900 5.60800 30.64800
H  34.27200 7.03500 30.39600
H  33.51200 7.32600 28.27600
H  34.37200 5.65700 28.35800
H  33.62000 6.03900 26.89200
H  39.28900 9.35200 24.28700
H  42.17900 8.98900 24.82500
H  39.98800 6.68800 25.30600
H  41.25900 7.22200 24.23100
H  39.55300 7.06200 23.63200
H  41.14300 10.58200 23.30200
H  42.56500 11.15000 23.99900
H  40.10400 12.36600 24.17200
H  41.66200 12.95700 24.88000
H  40.53000 11.99300 25.82400
H  45.89900 10.62800 27.97300
H  46.26500 11.70800 29.26900
H  45.30800 12.27300 27.86900
H  42.66100 12.23400 33.38200
H  43.90300 10.01100 36.47500
H  44.86800 11.42100 36.76700
H  45.56900 10.05900 35.65000

