158

Mg 55.30600 23.76000 44.67200
C  52.81900 26.13300 43.52100
C  53.17300 21.28000 43.76000
C  57.91100 21.67200 44.82900
C  57.40600 26.55300 45.28000
N  53.28400 23.75200 43.77300
C  52.38100 24.85000 43.52100
C  51.02000 24.26900 43.08200
C  51.07200 22.82900 43.56500
C  52.60000 22.56900 43.69200
C  50.22100 22.54500 44.83900
C  50.83000 24.43200 41.50900
C  49.41000 24.72100 41.01700
H  48.89900 24.03400 39.75300
N  55.56700 21.67600 44.32200
C  54.54400 20.80700 43.98600
C  55.06900 19.44500 43.86100
C  56.47400 19.56400 44.22100
C  56.69500 20.96500 44.53900
C  54.35300 18.15600 43.52400
C  57.51500 18.52000 44.10000
O  57.12400 17.45200 43.71800
C  58.98100 18.67700 44.61500
N  57.29300 24.07800 44.91200
C  58.22200 23.00100 45.03600
C  59.66800 23.57600 45.21600
C  59.52300 25.05500 45.25300
C  57.92600 25.26900 45.13600
C  60.37300 22.95300 46.38400
C  60.27800 25.84100 44.07700
C  61.66700 26.45400 44.49500
N  55.17600 25.91500 44.52100
C  56.07900 26.94100 44.91500
C  55.39000 28.20900 44.89400
C  54.18300 27.91200 44.22900
C  54.10800 26.52500 44.02600
C  55.84700 29.54100 45.36200
C  52.98600 28.50700 43.60900
O  52.77500 29.70000 43.58300
C  52.07200 27.42700 43.12000
C  51.95900 27.55200 41.64000
O  52.84900 27.50600 40.78800
O  50.58900 27.81200 41.40800
C  50.26000 28.10600 39.97100
H  52.54900 20.39000 43.65300
H  58.79500 21.07300 45.05800
H  58.08400 27.32700 45.64700
H  50.25300 24.86700 43.57400
H  50.60100 22.21900 42.79400
H  50.81900 22.16400 45.66700
H  49.46900 21.76500 44.71300
H  49.65600 23.42500 45.14800
H  51.06300 23.49900 40.99600
H  51.50000 25.20400 41.13100
H  49.33400 25.80200 40.90400
H  48.71500 24.60800 41.84900
H  53.29400 18.39200 43.42200
H  54.54500 17.50000 44.37300
H  54.64600 17.68200 42.58700
H  59.45700 19.24900 43.81800
H  59.43600 17.68700 44.58400
H  58.92000 19.01500 45.64900
H  60.24200 23.32900 44.32300
H  59.76900 25.52600 46.20400
H  60.33700 23.62800 47.23900
H  61.38200 22.92500 45.97300
H  59.96200 21.98400 46.66600
H  59.66500 26.66700 43.71800
H  60.56600 25.29000 43.18200
H  62.40300 25.71000 44.19000
H  61.73300 26.68800 45.55800
H  61.93600 27.34200 43.92400
H  55.20600 29.74000 46.22100
H  55.69200 30.28400 44.58000
H  56.89900 29.44400 45.62900
H  51.13800 27.56200 43.66400
H  49.45500 28.83800 39.91100
H  49.82200 27.23800 39.47900
H  51.12400 28.44100 39.39600
Mg 47.32200 24.33800 27.57400
C  48.28500 26.67800 30.05500
C  47.07300 21.97400 30.03200
C  46.73300 21.97400 25.22900
C  48.24400 26.65400 25.10200
N  47.69700 24.39500 29.77800
C  47.76900 25.47900 30.55300
C  47.67000 25.07000 32.03700
C  47.38100 23.55100 32.01100
C  47.42600 23.26300 30.47600
C  48.33400 22.69300 32.90900
C  46.78500 26.06000 32.89400
C  46.29900 25.64800 34.34200
H  46.79700 26.61300 35.44000
N  46.94600 22.24500 27.62000
C  46.79800 21.49400 28.75800
C  46.35400 20.17100 28.44000
C  46.26300 20.10900 26.99200
C  46.80500 21.38600 26.51100
C  45.92500 19.14000 29.58100
C  45.71300 19.00700 26.11000
O  45.90100 19.09000 24.86400
C  44.94700 17.87400 26.55300
N  47.47700 24.27200 25.59800
C  46.92500 23.28300 24.81200
C  46.65400 23.76000 23.34400
C  46.93400 25.24400 23.43600
C  47.58500 25.41300 24.76300
C  47.43800 22.95200 22.24700
C  45.63700 26.05400 23.16800
C  44.62300 26.21700 24.37700
N  48.18400 26.34600 27.50000
C  48.47100 27.09200 26.45700
C  49.01000 28.35500 26.94200
C  48.95100 28.30800 28.33700
C  48.51100 27.00100 28.63600
C  49.38400 29.43600 26.04800
C  49.18500 28.96800 29.56800
O  49.65000 30.01500 29.84900
C  48.67800 28.02400 30.68100
C  49.77900 27.92400 31.58700
O  50.70100 27.16900 31.60100
O  49.56400 28.80100 32.62100
C  50.53000 28.77000 33.80100
H  46.76700 21.24500 30.78600
H  46.38400 21.38600 24.37800
H  48.10400 27.39700 24.31300
H  48.67600 25.31300 32.37900
H  46.37500 23.30100 32.34500
H  47.99100 21.66500 33.03100
H  48.25600 23.19200 33.87500
H  49.36400 22.73100 32.55300
H  46.00500 26.45400 32.24200
H  47.38800 26.96800 32.91200
H  46.71200 24.67500 34.60800
H  45.22200 25.51600 34.44800
H  46.79900 18.56100 29.88000
H  45.27700 18.34500 29.21100
H  45.37800 19.53000 30.44000
H  44.28400 17.55100 25.75000
H  44.25600 18.22600 27.31800
H  45.63600 17.05300 26.75400
H  45.60000 23.60200 23.11400
H  47.56700 25.44700 22.57200
H  48.48500 23.25300 22.30300
H  47.23700 23.16800 21.19800
H  47.25000 21.87900 22.26000
H  45.15100 25.50800 22.36000
H  45.81600 27.08400 22.85700
H  44.89000 26.96400 25.12500
H  44.12500 25.30200 24.69900
H  43.76000 26.79600 24.04700
H  49.09400 30.37900 26.51100
H  48.80000 29.31500 25.13600
H  50.46200 29.55600 25.93400
H  47.79000 28.49000 31.10900
H  50.47100 27.79400 34.28200
H  50.43800 29.49700 34.60800
H  51.54000 28.76000 33.39100

