158

Mg 36.35600 49.71400 24.65600
C  36.24400 47.88300 27.76900
C  35.12300 52.44400 26.26300
C  35.87900 51.11700 21.56200
C  37.28600 46.68100 23.14800
N  35.85100 50.11700 26.74400
C  35.86400 49.22000 27.84900
C  35.52600 50.03000 29.17000
C  34.90300 51.36400 28.64600
C  35.32100 51.33500 27.09300
C  33.37100 51.49400 28.82500
C  36.70200 50.11600 30.16600
C  36.31000 50.15500 31.66100
H  34.86900 49.81600 32.01000
N  35.68500 51.59000 24.05000
C  35.29900 52.58100 24.83500
C  34.97100 53.74900 23.97100
C  35.14700 53.41700 22.64500
C  35.69000 52.01100 22.68900
C  34.33900 55.10400 24.60800
C  34.85800 54.30100 21.41100
O  34.93700 53.85300 20.28400
C  34.54000 55.77400 21.50400
N  36.54500 49.03100 22.62600
C  36.25300 49.75500 21.53300
C  36.39900 48.88900 20.26900
C  37.21600 47.62500 20.83700
C  36.97500 47.73400 22.29100
C  35.06800 48.66200 19.50200
C  38.67300 47.62200 20.37700
C  39.04900 46.29200 19.63000
N  36.74500 47.65800 25.25100
C  37.13200 46.58500 24.49400
C  37.47800 45.45200 25.32500
C  37.13400 45.94400 26.65500
C  36.63000 47.27700 26.52900
C  38.17100 44.09200 25.06800
C  37.16900 45.60100 28.07100
O  37.54800 44.56400 28.52600
C  36.61300 46.79100 28.79700
C  35.50300 46.43800 29.61800
O  34.32600 46.51600 29.35600
O  36.01200 45.70200 30.68100
C  34.97200 45.18000 31.58000
H  34.73000 53.35700 26.71600
H  35.69600 51.57300 20.58700
H  37.51500 45.69900 22.72900
H  34.77500 49.36100 29.59000
H  35.33500 52.21500 29.17300
H  33.01300 50.63400 29.39000
H  32.93500 51.38900 27.83100
H  33.03500 52.44500 29.23800
H  37.28300 51.00700 29.92500
H  37.40600 49.28600 30.10300
H  36.66100 51.10800 32.05700
H  36.92300 49.41100 32.17000
H  33.95100 54.87700 25.60100
H  33.50500 55.46400 24.00600
H  35.19600 55.77600 24.64600
H  35.28500 56.15800 22.20000
H  33.46200 55.86800 21.63500
H  34.79900 56.07700 20.49000
H  37.04100 49.47800 19.61400
H  36.69600 46.72300 20.51300
H  34.25600 49.17700 20.01500
H  34.87900 47.59800 19.36300
H  35.18300 49.12100 18.52000
H  39.43500 47.69400 21.15400
H  38.82600 48.46800 19.70700
H  38.21600 45.61700 19.43700
H  39.88300 45.74300 20.06800
H  39.39000 46.61200 18.64500
H  38.65300 43.80000 26.00100
H  38.87400 44.28100 24.25700
H  37.37400 43.40000 24.79700
H  37.36700 47.32400 29.37600
H  34.43200 44.35100 31.12300
H  34.14200 45.81700 31.88500
H  35.58400 44.75000 32.37400
Mg 7.81200 53.56400 40.38000
C  7.07000 50.14400 39.96000
C  11.02800 52.99400 39.68800
C  8.06200 56.89100 39.93700
C  4.36900 54.09300 41.07700
N  8.86900 51.72800 39.86000
C  8.43500 50.46300 39.70700
C  9.63000 49.52100 39.41300
C  10.89100 50.45100 39.87100
C  10.24300 51.82800 39.78200
C  11.25000 50.08800 41.35900
C  9.87300 48.92000 38.01400
C  9.79600 50.03100 36.87000
H  8.42300 50.21100 36.15500
N  9.30900 54.74700 39.86000
C  10.65200 54.35400 39.72500
C  11.48000 55.52700 39.58300
C  10.58900 56.68700 39.69600
C  9.23300 56.16000 39.85300
C  13.02300 55.37700 39.37700
C  10.99800 58.11500 39.61400
O  12.19600 58.32700 39.42800
C  10.08500 59.32900 39.74100
N  6.33300 55.28800 40.32600
C  6.70200 56.57600 40.13400
C  5.53000 57.54100 40.34800
C  4.39200 56.54700 40.80200
C  5.08200 55.24700 40.73300
C  5.82300 58.72800 41.35400
C  3.09800 56.61500 39.86400
C  1.85100 57.33400 40.37300
N  6.11100 52.41000 40.60200
C  4.82800 52.78000 40.86400
C  4.04000 51.66000 40.90800
C  4.85500 50.54100 40.55000
C  6.14300 51.09700 40.38900
C  2.59400 51.61800 41.14900
C  4.84700 49.09300 40.30100
O  3.95100 48.26800 40.37600
C  6.40500 48.84700 39.90400
C  6.34500 48.15800 38.60400
O  5.78800 48.45700 37.56600
O  6.85400 46.86100 38.82100
C  6.94400 45.97600 37.68400
H  12.09100 52.81800 39.51200
H  8.18800 57.97100 39.83500
H  3.33800 54.34800 41.33000
H  9.57900 48.64500 40.05900
H  11.70400 50.35700 39.15200
H  10.90500 50.87100 42.03400
H  12.33600 50.17700 41.33200
H  10.91300 49.10200 41.67700
H  8.98400 48.29000 37.96200
H  10.87800 48.50100 37.96900
H  10.44000 49.59300 36.10800
H  10.15700 51.02800 37.12400
H  13.54900 56.28600 39.66900
H  13.20700 55.19700 38.31800
H  13.41300 54.61000 40.04600
H  9.39800 59.33000 38.89400
H  10.71700 60.20900 39.62700
H  9.61100 59.37800 40.72200
H  5.26800 57.88400 39.34700
H  4.26300 56.77500 41.86000
H  6.80800 58.64000 41.81200
H  5.11200 58.85800 42.17000
H  5.99500 59.66500 40.82500
H  2.77200 55.59500 39.66300
H  3.40400 56.91100 38.86000
H  1.53000 57.10000 41.38800
H  1.03800 57.17900 39.66300
H  2.11000 58.39300 40.40700
H  2.19900 52.34400 41.86000
H  2.30000 50.68900 41.63700
H  2.10200 51.73800 40.18400
H  6.77900 48.09700 40.60100
H  7.59900 45.14000 37.93000
H  7.39100 46.58900 36.90200
H  5.93000 45.64900 37.45300

