158

Mg 16.54500 52.50700 26.02000
C  18.19900 51.11100 28.97400
C  13.90400 53.24500 28.05900
C  14.88500 53.32400 23.25800
C  19.29500 51.36900 24.25400
N  16.13600 52.12800 28.30100
C  16.91400 51.63300 29.32900
C  16.25100 51.79500 30.72600
C  14.80400 52.38200 30.31400
C  14.94700 52.62200 28.74500
C  13.46500 51.55800 30.69300
C  17.03000 52.77500 31.64400
C  16.43800 52.82900 33.09500
H  15.18800 52.02700 33.56300
N  14.64400 53.23400 25.66400
C  13.69900 53.47100 26.63100
C  12.55700 54.13700 26.07100
C  12.84400 54.22400 24.64100
C  14.21500 53.60600 24.44600
C  11.43100 54.74700 26.87300
C  12.02000 54.68800 23.37900
O  12.48800 54.66000 22.22700
C  10.64800 55.26600 23.52700
N  17.01400 52.32800 24.08400
C  16.14600 52.76500 23.11300
C  16.83400 52.64600 21.78400
C  18.27700 52.15800 22.15700
C  18.25900 52.02000 23.62500
C  15.98200 51.70500 20.89700
C  19.48500 53.07400 21.64000
C  19.33600 54.57000 21.81600
N  18.27300 51.37100 26.43700
C  19.27100 50.99200 25.63400
C  20.23300 50.12300 26.26200
C  19.85100 50.23600 27.58600
C  18.69300 50.99400 27.65100
C  21.40500 49.42800 25.66900
C  20.37200 49.92100 28.90400
O  21.41600 49.46600 29.34200
C  19.25900 50.47600 29.94200
C  18.64100 49.30300 30.65900
O  18.49800 48.17400 30.19600
O  18.30600 49.62700 31.95700
C  17.95900 48.50100 32.81900
H  13.00900 53.53600 28.61400
H  14.40800 53.49500 22.29000
H  20.00000 50.91100 23.55700
H  16.17600 50.81000 31.18800
H  14.56900 53.34900 30.75900
H  12.98200 51.15400 29.80400
H  12.72800 52.23500 31.12500
H  13.66900 50.73600 31.37900
H  16.94600 53.76400 31.19400
H  18.06600 52.45400 31.74500
H  16.29500 53.87600 33.36200
H  17.31900 52.52900 33.66300
H  11.07400 55.68600 26.45000
H  11.76800 54.90900 27.89600
H  10.56000 54.10000 26.98300
H  10.61500 56.16000 24.15100
H  9.97200 54.43600 23.73500
H  10.37500 55.53800 22.50800
H  16.77400 53.62700 21.31300
H  18.49800 51.18800 21.71200
H  16.07300 50.67400 21.23900
H  16.35800 51.81900 19.88000
H  14.93900 52.02100 20.91300
H  19.55200 52.90300 20.56500
H  20.40100 52.82600 22.17700
H  18.95600 55.21800 21.02600
H  20.28000 54.98500 22.16600
H  18.61600 54.74600 22.61500
H  21.19900 49.02900 24.67600
H  21.76000 48.61900 26.30700
H  22.11400 50.24500 25.53900
H  19.82400 51.14200 30.59400
H  16.92400 48.25600 32.58000
H  17.90100 48.79200 33.86800
H  18.67500 47.68300 32.73300
Mg 9.36900 48.29900 25.50000
C  6.99400 48.54700 28.15200
C  11.69000 49.63800 27.66800
C  11.58300 47.86000 23.08100
C  6.70000 47.51600 23.46100
N  9.29300 49.01600 27.61200
C  8.29100 48.86300 28.53000
C  8.76700 49.30500 29.95400
C  10.07000 50.08600 29.62100
C  10.40400 49.51100 28.21000
C  9.95800 51.63700 29.52200
C  8.93300 48.11700 30.92800
C  8.48400 48.32200 32.33400
H  8.29700 47.04100 33.16900
N  11.40900 48.55200 25.38400
C  12.15300 49.11100 26.40000
C  13.55900 49.11200 26.00100
C  13.55300 48.70700 24.56700
C  12.14800 48.33500 24.30100
C  14.61900 49.73500 26.83600
C  14.65000 48.68900 23.57400
O  14.33900 48.28500 22.48200
C  15.94100 49.33200 23.78700
N  9.12600 47.84500 23.50300
C  10.22900 47.67300 22.71300
C  9.70600 47.12600 21.35300
C  8.23800 46.97000 21.48700
C  7.98000 47.39800 22.93100
C  10.21400 47.95500 20.11100
C  7.73600 45.52500 21.25200
C  8.46200 44.34400 21.95200
N  7.19500 48.08500 25.70000
C  6.29000 47.84200 24.73200
C  4.95600 47.79900 25.34300
C  5.19000 48.12400 26.70700
C  6.55200 48.18500 26.87500
C  3.68900 47.50300 24.55300
C  4.51200 48.27700 27.96500
O  3.34600 48.21200 28.29000
C  5.68000 48.62200 29.06300
C  5.63800 47.53500 30.06800
O  6.28200 46.48600 30.03400
O  4.81000 47.86200 31.12200
C  4.57100 46.80600 32.18000
H  12.46000 50.00700 28.34800
H  12.18500 47.73500 22.17900
H  5.88800 47.14300 22.83400
H  8.17700 50.10400 30.40300
H  10.85700 49.81100 30.32400
H  10.53800 52.10500 30.31800
H  8.98900 52.13200 29.57600
H  10.35700 51.81100 28.52300
H  9.97800 47.87700 31.12700
H  8.55000 47.19900 30.48300
H  7.57700 48.91600 32.44500
H  9.33000 48.74600 32.87500
H  14.88100 50.71900 26.44600
H  15.48800 49.08100 26.75700
H  14.35600 49.78800 27.89200
H  16.38400 49.20800 24.77500
H  15.67400 50.38100 23.66000
H  16.58100 49.13200 22.92700
H  10.18500 46.14700 21.33800
H  7.67300 47.61200 20.81100
H  11.03900 48.58800 20.43900
H  9.39800 48.60200 19.79000
H  10.50000 47.26400 19.31800
H  7.85800 45.37100 20.18000
H  6.70100 45.39000 21.56700
H  9.20500 44.66800 22.68100
H  8.87500 43.77400 21.12000
H  7.73200 43.73700 22.48700
H  3.85700 47.24300 23.50800
H  2.97800 48.32900 24.51800
H  3.16600 46.74200 25.13200
H  5.62600 49.62600 29.48300
H  4.81900 45.82800 31.76800
H  3.58400 46.86700 32.64000
H  5.28200 47.11100 32.94700

