158

Mg 2.74600 -2.41900 45.53200
C  5.81100 -1.02600 44.64900
C  1.26200 -0.04200 43.27800
C  -0.10000 -3.91700 45.60300
C  4.45200 -5.18600 46.79900
N  3.44000 -0.82600 44.05900
C  4.75200 -0.37700 43.97200
C  4.90700 0.80200 43.01300
C  3.42000 1.13100 42.67200
C  2.63600 0.06300 43.36300
C  2.94300 2.50700 43.13000
C  5.76600 0.49000 41.73700
C  7.07300 1.36000 41.59000
H  7.57800 1.59300 40.14000
N  0.76700 -1.90000 44.77100
C  0.40600 -0.93600 43.88600
C  -0.98500 -1.01600 43.60600
C  -1.46000 -2.18800 44.28100
C  -0.29800 -2.68100 44.95600
C  -1.74100 -0.15100 42.57800
C  -2.90000 -2.76900 44.20500
O  -3.76300 -2.26100 43.50300
C  -3.32100 -4.00500 45.04900
N  2.23400 -4.21700 46.23600
C  0.96900 -4.57800 46.19300
C  0.80000 -5.94200 46.86300
C  2.26800 -6.37800 47.22100
C  3.05500 -5.13900 46.78700
C  -0.12500 -6.04700 48.12900
C  2.73500 -7.75900 46.53000
C  2.40100 -8.99000 47.37500
N  4.68800 -2.96000 45.73600
C  5.22600 -4.11100 46.36000
C  6.64900 -3.88900 46.56700
C  6.84700 -2.63000 45.92300
C  5.68800 -2.18100 45.37700
C  7.68800 -4.69500 47.35700
C  7.86600 -1.68300 45.67300
O  9.04700 -1.66600 45.93200
C  7.28800 -0.61900 44.76200
C  7.42700 0.81800 45.33000
O  6.73400 1.34500 46.25400
O  8.47200 1.39700 44.75600
C  8.55400 2.84700 45.03200
H  0.77600 0.69200 42.63200
H  -1.01600 -4.50900 45.65900
H  4.94600 -5.98600 47.35400
H  5.44000 1.60000 43.52900
H  3.28400 1.12800 41.59100
H  2.12800 2.45400 43.85100
H  2.60400 3.07500 42.26400
H  3.83100 2.98600 43.54300
H  5.18800 0.61700 40.82100
H  6.11800 -0.54100 41.71900
H  7.79000 0.93500 42.29200
H  6.97600 2.34100 42.05600
H  -1.18800 0.76600 42.37700
H  -2.68300 0.27300 42.92500
H  -1.98200 -0.73400 41.68900
H  -2.86800 -4.92200 44.67200
H  -4.38500 -4.19800 44.91500
H  -3.03000 -3.85900 46.08900
H  0.32600 -6.59400 46.13000
H  2.37500 -6.56400 48.29000
H  -0.48600 -5.05800 48.41200
H  0.40300 -6.34100 49.03600
H  -0.90500 -6.79700 47.99500
H  3.75000 -7.83100 46.13900
H  1.98300 -7.77900 45.74100
H  1.32400 -9.15600 47.38400
H  2.65100 -8.79700 48.41900
H  2.91700 -9.88300 47.02400
H  7.74800 -5.67900 46.89300
H  7.43800 -4.85100 48.40700
H  8.68200 -4.26300 47.24600
H  7.71800 -0.64600 43.76100
H  7.56100 3.22500 44.78900
H  9.21400 3.30200 44.29300
H  8.90900 3.03100 46.04600
Mg 46.53500 26.02100 29.03500
C  47.65400 27.77600 31.92900
C  45.25000 23.66600 31.22700
C  45.94100 24.06600 26.50800
C  48.65300 28.06500 27.12600
N  46.47000 25.77800 31.30200
C  46.91900 26.63800 32.24400
C  46.55700 26.13300 33.58000
C  45.72200 24.86600 33.38300
C  45.90000 24.69000 31.90100
C  46.16200 23.65600 34.18000
C  45.86900 27.29300 34.47300
C  46.51900 27.50900 35.82400
H  45.82300 28.21500 37.03800
N  45.56600 24.20700 28.91500
C  45.00100 23.44200 29.89500
C  44.33100 22.26000 29.21200
C  44.50100 22.43700 27.83700
C  45.38300 23.58800 27.67900
C  43.73600 21.12200 30.00000
C  44.12700 21.59800 26.59800
O  44.35600 21.86600 25.40000
C  43.39000 20.34200 26.91500
N  47.35900 25.98000 27.07500
C  46.84600 25.11900 26.19900
C  47.41600 25.39500 24.77000
C  48.07500 26.88600 24.94500
C  48.04200 27.05200 26.48100
C  48.26000 24.19800 24.27100
C  47.22500 27.96600 24.24900
C  47.01900 27.69800 22.74700
N  47.82700 27.61700 29.41000
C  48.56400 28.40000 28.47500
C  49.14300 29.53900 29.16200
C  48.88200 29.29600 30.56900
C  48.05300 28.15000 30.60900
C  50.07000 30.52400 28.53800
C  49.12800 29.72500 31.87200
O  49.94100 30.58800 32.21500
C  48.43100 28.78700 32.80500
C  49.52700 28.09800 33.42100
O  49.96200 27.08100 32.90500
O  49.85300 28.55700 34.65300
C  50.77400 27.70900 35.35000
H  44.97700 22.75700 31.76700
H  45.67700 23.64400 25.53700
H  48.87600 28.75700 26.31100
H  47.54700 25.95300 33.99900
H  44.68700 25.03600 33.67900
H  47.15400 23.53200 33.74700
H  45.56200 22.76600 33.99000
H  46.43600 23.81100 35.22300
H  44.87900 26.91100 34.72300
H  45.74600 28.24100 33.95000
H  47.49600 27.97200 35.68500
H  46.75900 26.50800 36.18200
H  42.66700 21.30600 29.89500
H  43.91700 21.07300 31.07400
H  43.92000 20.10800 29.64600
H  43.90300 19.56000 27.47500
H  43.06900 19.86100 25.99100
H  42.55600 20.70500 27.51500
H  46.54200 25.39300 24.11800
H  49.07900 27.04300 24.55100
H  48.19000 23.22300 24.75300
H  49.28800 24.49700 24.48000
H  48.20500 24.16300 23.18300
H  47.80600 28.88300 24.34900
H  46.26400 28.07700 24.75200
H  47.52100 26.79200 22.40500
H  47.50300 28.46600 22.14300
H  45.95800 27.82400 22.53300
H  50.06800 31.55700 28.88700
H  49.63100 30.55400 27.54100
H  51.05900 30.14900 28.27400
H  47.90800 29.33000 33.59200
H  50.42300 26.86200 35.94100
H  51.33500 28.36600 36.01400
H  51.46900 27.36700 34.58400

