158

Mg 43.97800 4.27600 46.79800
C  41.61600 6.75000 46.09400
C  41.57400 1.98400 46.35900
C  46.45200 1.98100 46.54000
C  46.25400 6.79600 47.49100
N  41.96000 4.35500 46.10300
C  41.16200 5.44200 45.81400
C  39.72300 4.99900 45.47900
C  39.66200 3.67000 46.22700
C  41.14000 3.28200 46.23900
C  39.17600 3.81100 47.71800
C  39.36500 4.94500 43.93700
C  38.35100 5.87000 43.44100
H  38.80300 6.54000 42.14100
N  44.00200 2.18200 46.53200
C  42.89400 1.46700 46.45100
C  43.30800 0.04200 46.31300
C  44.74400 -0.00600 46.26700
C  45.14900 1.43200 46.43400
C  42.41700 -1.13900 46.44700
C  45.58300 -1.32500 46.28800
O  45.06300 -2.37400 46.47000
C  47.06900 -1.34200 45.97200
N  46.00800 4.37800 46.88800
C  46.86600 3.28400 46.87600
C  48.31800 3.73000 47.15500
C  48.14700 5.12200 47.70500
C  46.67800 5.47300 47.29400
C  49.17900 2.68800 48.04200
C  49.24700 6.08600 47.18700
C  49.90200 6.93800 48.26000
N  43.97700 6.41500 46.76000
C  44.89300 7.30400 47.19900
C  44.45000 8.65700 47.02300
C  43.10300 8.48000 46.66300
C  42.89500 7.08700 46.51400
C  45.24500 9.92300 47.30100
C  41.89500 9.13600 46.30500
O  41.65000 10.31900 46.33300
C  40.80200 8.09100 46.00900
C  39.84800 8.16700 47.08100
O  39.97800 7.77200 48.28800
O  38.65800 8.77200 46.60200
C  37.44900 8.85100 47.37800
H  40.71400 1.32200 46.23700
H  47.30500 1.30600 46.44300
H  46.94500 7.51600 47.93500
H  38.95300 5.58300 45.98200
H  39.14000 2.88600 45.67900
H  39.88300 3.25300 48.33200
H  38.16900 3.39300 47.72600
H  39.22200 4.77300 48.22900
H  38.93700 3.97000 43.70200
H  40.29200 5.19600 43.42100
H  38.25600 6.61000 44.23600
H  37.43900 5.32600 43.19700
H  42.81600 -1.82900 45.70300
H  41.38100 -0.86100 46.25500
H  42.34000 -1.53300 47.46000
H  47.27000 -0.37600 45.51000
H  47.31800 -2.09900 45.22800
H  47.69800 -1.36400 46.86300
H  48.90400 3.86200 46.24500
H  48.22200 5.17000 48.79100
H  49.54500 3.24000 48.90800
H  49.98600 2.38700 47.37500
H  48.56200 1.86000 48.39100
H  48.89800 6.86500 46.50900
H  50.03100 5.59800 46.60800
H  49.66000 7.98900 48.10400
H  50.96400 6.69600 48.21400
H  49.53500 6.64700 49.24400
H  45.69600 10.27700 46.37400
H  46.12200 9.80600 47.93600
H  44.51100 10.66300 47.62100
H  40.39900 8.19000 45.00100
H  37.49300 8.45800 48.39400
H  36.70000 8.22200 46.89800
H  37.01300 9.84900 47.43400
Mg 0.12700 43.79000 26.75000
C  2.49800 43.57800 29.24500
C  -2.22700 42.65400 28.78700
C  -1.92000 43.41000 24.00300
C  2.72500 44.33300 24.54000
N  0.15400 43.14200 28.75900
C  1.18500 43.29700 29.66500
C  0.71400 43.00500 31.05800
C  -0.78000 42.54200 30.98500
C  -0.98900 42.79800 29.37400
C  -1.20800 41.18100 31.51400
C  0.81700 44.30700 31.95800
C  0.92600 44.15400 33.51500
H  0.84500 42.67300 34.08500
N  -1.90000 43.13400 26.50300
C  -2.71700 42.71400 27.46600
C  -4.03400 42.55100 26.92200
C  -3.98800 42.77300 25.51700
C  -2.60100 43.15000 25.26300
C  -5.28000 42.49000 27.77100
C  -5.09700 42.84000 24.48800
O  -4.90000 43.28400 23.35100
C  -6.48500 42.40900 24.80400
N  0.39000 43.83200 24.46800
C  -0.62700 43.65600 23.64400
C  -0.13300 43.92900 22.13500
C  1.33100 44.40000 22.34700
C  1.49600 44.12200 23.87000
C  -0.43900 42.79100 21.16500
C  1.69100 45.86500 21.91600
C  1.74300 47.01900 22.96700
N  2.19500 44.06100 26.86900
C  3.13700 44.21000 25.82400
C  4.51000 44.23200 26.34400
C  4.32600 43.93300 27.70300
C  2.89600 43.83800 27.94000
C  5.84100 44.39200 25.50100
C  4.94200 43.58700 29.02800
O  6.09700 43.36100 29.31300
C  3.79000 43.44000 30.05000
C  4.01700 42.05600 30.52300
O  3.87300 40.99600 29.91900
O  4.37600 42.15900 31.85700
C  4.91200 40.93800 32.48300
H  -2.98500 42.30100 29.49000
H  -2.64900 43.40200 23.19000
H  3.52600 44.64100 23.86500
H  1.33400 42.17900 31.40500
H  -1.34800 43.31800 31.50000
H  -1.58900 40.60800 30.66800
H  -2.03800 41.27600 32.21300
H  -0.44900 40.56200 31.99400
H  -0.07100 44.93900 31.97300
H  1.63000 45.00000 31.74200
H  0.03200 44.56700 33.98400
H  1.76900 44.70900 33.92500
H  -6.23900 42.80200 27.35800
H  -5.11700 42.98800 28.72600
H  -5.51600 41.44000 27.94600
H  -6.91500 42.13400 23.84100
H  -7.15500 43.17800 25.19000
H  -6.48200 41.51100 25.42000
H  -0.78200 44.75800 21.85100
H  2.01200 43.66400 21.92100
H  -0.36400 41.87400 21.74900
H  0.29300 42.67000 20.36600
H  -1.45300 43.01800 20.83800
H  0.92300 46.17800 21.20800
H  2.65200 45.84100 21.40300
H  2.77500 47.36500 23.02200
H  1.40400 46.75400 23.96900
H  1.11600 47.81100 22.55800
H  6.47800 43.54300 25.74900
H  6.30000 45.36900 25.65500
H  5.57500 44.39500 24.44400
H  3.72700 44.04500 30.95500
H  5.97100 41.04400 32.71900
H  4.94900 40.10300 31.78400
H  4.22500 40.74700 33.30800

