158

Mg 45.62000 3.70600 46.97800
C  43.26300 6.25900 46.55000
C  43.09500 1.47600 46.91500
C  47.86200 1.30400 47.17500
C  48.09400 6.08800 46.46300
N  43.47400 3.90400 46.67100
C  42.67800 4.99500 46.69700
C  41.23000 4.58800 46.63000
C  41.26500 3.09000 47.15600
C  42.71200 2.80000 46.85700
C  40.78200 2.91900 48.59200
C  40.64900 4.64100 45.18300
C  39.51700 5.63600 44.81700
H  39.82500 6.52500 43.60500
N  45.47600 1.67300 47.01300
C  44.37400 0.91700 47.02600
C  44.69400 -0.48700 47.16300
C  46.11500 -0.56800 47.26600
C  46.54800 0.83500 47.08700
C  43.63300 -1.57700 46.99200
C  46.98700 -1.91500 47.32800
O  46.39200 -3.00600 47.27600
C  48.52700 -1.88200 47.45100
N  47.61200 3.68300 46.68100
C  48.33400 2.65200 47.02800
C  49.83600 2.85800 47.30300
C  49.88900 4.29800 46.68000
C  48.48600 4.77800 46.53600
C  50.15400 2.69100 48.80600
C  50.77000 4.58900 45.40600
C  49.95900 4.74300 44.10200
N  45.71700 5.77400 46.62500
C  46.76200 6.62600 46.44400
C  46.33900 8.02400 46.36700
C  44.96000 7.91600 46.35200
C  44.65000 6.52100 46.52400
C  47.32100 9.20200 46.26000
C  43.64000 8.63600 46.41700
O  43.47200 9.81900 46.33600
C  42.56800 7.67300 46.53500
C  41.75000 7.91300 47.84900
O  42.03200 7.44500 48.94500
O  40.61500 8.52900 47.49600
C  39.61800 8.89200 48.48600
H  42.26600 0.79300 47.11300
H  48.65700 0.61600 47.47100
H  48.84200 6.87400 46.58400
H  40.74800 5.17200 47.41300
H  40.59400 2.46700 46.56400
H  39.89100 2.29600 48.50700
H  40.46100 3.85000 49.06000
H  41.49100 2.45000 49.27400
H  40.33400 3.64800 44.86200
H  41.54300 4.96300 44.64900
H  39.38000 6.25000 45.70700
H  38.67500 4.94800 44.74500
H  43.65700 -1.87300 45.94400
H  42.69600 -1.16400 47.36700
H  44.00600 -2.39300 47.61100
H  48.72800 -1.40400 48.40900
H  49.02800 -1.37100 46.62800
H  48.84800 -2.92300 47.41400
H  50.42000 2.14500 46.72100
H  50.30000 4.86700 47.51400
H  50.81300 1.82300 48.83100
H  49.21000 2.55700 49.33400
H  50.80700 3.54200 48.99900
H  51.50500 3.80600 45.22000
H  51.25900 5.55000 45.57000
H  50.61900 4.68900 43.23600
H  49.52000 5.74000 44.14400
H  49.21000 3.96000 43.98900
H  47.44500 9.51100 47.29800
H  46.71800 9.91200 45.69500
H  48.17800 9.30200 45.59400
H  41.79500 7.73400 45.76900
H  39.67800 9.96600 48.65900
H  39.64900 8.35900 49.43600
H  38.67600 8.67900 47.98000
Mg 5.33300 54.42400 41.20600
C  4.98300 50.87200 41.04500
C  8.52400 54.12200 40.29300
C  5.41400 57.79600 41.00700
C  2.01700 54.60800 42.19300
N  6.47400 52.64600 40.46300
C  6.26200 51.31000 40.61600
C  7.50400 50.50900 40.42500
C  8.64100 51.56600 40.42600
C  7.83600 52.85200 40.42800
C  9.71800 51.44400 41.55900
C  7.62500 49.50900 39.32200
C  6.97600 49.94700 38.01900
H  7.91700 50.37100 36.97100
N  6.73300 55.86300 40.65800
C  8.03800 55.48700 40.39200
C  8.75700 56.65900 40.02400
C  7.89700 57.76100 40.22400
C  6.62400 57.18400 40.64200
C  10.18700 56.62600 39.48600
C  8.19000 59.28400 40.08700
O  9.28200 59.81300 39.84100
C  7.04700 60.23400 40.00700
N  3.93300 55.99500 41.63900
C  4.23000 57.29800 41.58000
C  3.06700 58.23200 41.83000
C  1.99000 57.21400 42.35500
C  2.63000 55.86400 42.15400
C  3.40300 59.47200 42.72200
C  0.58300 57.32500 41.70000
C  -0.05300 58.72800 41.84500
N  3.73800 53.10300 41.37900
C  2.45100 53.32800 41.87800
C  1.75400 52.05700 42.12000
C  2.68200 51.05100 41.81500
C  3.87600 51.74500 41.32700
C  0.44900 51.90700 42.89200
C  3.03700 49.72700 41.98200
O  2.38400 48.92500 42.60400
C  4.49300 49.52700 41.36100
C  4.42400 48.55600 40.34600
O  4.06500 48.82600 39.19700
O  4.79100 47.28800 40.78100
C  4.83800 46.24100 39.71500
H  9.56300 54.08800 39.95900
H  5.33800 58.88500 41.01600
H  0.97900 54.68900 42.52300
H  7.63400 49.94300 41.34800
H  9.28200 51.68000 39.55200
H  9.78300 52.34600 42.16600
H  10.62400 51.34100 40.96100
H  9.54900 50.58400 42.20800
H  7.30900 48.52400 39.66400
H  8.69500 49.31700 39.23900
H  6.23300 50.72900 38.17300
H  6.36900 49.11100 37.67200
H  10.12800 56.51400 38.40300
H  10.69200 55.71400 39.80300
H  10.75700 57.50500 39.78800
H  6.21100 59.81700 39.44400
H  7.25100 61.06800 39.33600
H  6.99300 60.57800 41.04000
H  2.63600 58.52600 40.87300
H  1.94900 57.47100 43.41400
H  3.10400 60.36500 42.17300
H  4.45000 59.58000 43.00700
H  2.83200 59.46500 43.65000
H  -0.18100 56.63000 42.04700
H  0.69600 57.27800 40.61700
H  -0.90800 58.65500 42.51700
H  -0.34300 59.13900 40.87800
H  0.55700 59.50600 42.30600
H  -0.22100 52.72500 42.62800
H  0.60100 52.07700 43.95800
H  0.08800 50.88100 42.82000
H  5.15600 49.21400 42.16700
H  5.81100 46.27300 39.22500
H  4.21700 46.55900 38.87800
H  4.51200 45.27900 40.10900

