158

Mg 35.75800 3.40700 29.64000
C  33.27200 3.98600 31.98800
C  38.11200 3.65600 32.30200
C  38.14800 2.65700 27.43200
C  33.42600 3.70000 27.06400
N  35.76300 3.91000 31.90900
C  34.55500 3.99900 32.59200
C  34.82200 4.11600 34.13200
C  36.43800 4.27900 34.16200
C  36.83300 3.91700 32.72400
C  36.93100 5.72300 34.45400
C  34.26700 2.88800 34.92500
C  33.86500 3.13700 36.38500
H  34.52300 4.15300 37.27700
N  37.81200 3.16500 29.80600
C  38.56900 3.25200 30.97400
C  39.94300 2.84300 30.71800
C  40.02700 2.50800 29.31600
C  38.66300 2.81600 28.77400
C  40.94000 2.90900 31.88300
C  41.16300 2.03200 28.48500
O  41.07600 1.74800 27.25400
C  42.53600 1.82100 29.08500
N  35.81200 3.42500 27.54000
C  36.90200 2.92500 26.89700
C  36.64900 2.63900 25.44500
C  35.12900 2.74800 25.45600
C  34.77600 3.38300 26.73200
C  37.29100 3.61300 24.44800
C  34.42200 1.37800 25.12400
C  33.27700 1.46200 24.15600
N  33.71600 3.81300 29.47900
C  32.92400 3.91400 28.35900
C  31.60200 4.24600 28.89600
C  31.67600 4.21300 30.28600
C  33.02900 3.93700 30.61900
C  30.32200 4.47500 28.11700
C  30.92400 4.43700 31.50800
O  29.74400 4.74400 31.64000
C  31.94000 4.25400 32.68700
C  31.88000 5.52100 33.44600
O  32.16700 6.64700 33.03500
O  31.40500 5.26400 34.68900
C  31.65500 6.34700 35.64100
H  38.79300 3.80900 33.14200
H  38.98600 2.40800 26.77800
H  32.67900 3.55700 26.27900
H  34.39500 5.04300 34.51200
H  36.85500 3.60000 34.90600
H  37.18600 6.28800 33.55700
H  37.91800 5.73600 34.91500
H  36.22500 6.22400 35.11600
H  35.03700 2.12600 34.80400
H  33.30300 2.62500 34.49100
H  34.00200 2.17400 36.87700
H  32.80000 3.34500 36.47900
H  41.94800 3.09600 31.51300
H  40.83600 1.93500 32.36200
H  40.68300 3.66100 32.62900
H  42.65900 1.21300 29.98100
H  42.88600 2.79900 29.41800
H  43.24100 1.44500 28.34500
H  37.11300 1.67300 25.24600
H  34.84800 3.37800 24.61200
H  38.04300 3.26900 23.73800
H  37.87500 4.36300 24.98100
H  36.58600 4.14900 23.81200
H  34.06000 0.98300 26.07400
H  35.09900 0.59600 24.78100
H  32.41300 0.91400 24.53100
H  33.66400 0.89300 23.31100
H  32.97300 2.48100 23.91400
H  30.29400 5.33100 27.44300
H  29.64700 4.77700 28.91800
H  30.03100 3.51400 27.69100
H  31.53400 3.47800 33.33600
H  32.60200 6.84000 35.42000
H  31.71500 5.97600 36.66400
H  30.81200 7.03700 35.61900
Mg 35.19400 48.65800 25.92800
C  35.49100 46.68500 28.86500
C  33.87400 51.07500 27.80700
C  34.87100 50.26900 23.15200
C  35.90400 45.62400 24.05700
N  34.59100 48.72200 27.96600
C  34.95100 47.91100 29.03000
C  34.65800 48.59600 30.38600
C  33.78100 49.83200 29.97500
C  34.15100 49.92100 28.46800
C  32.24800 49.72400 30.31300
C  36.02900 49.00700 30.99900
C  36.35400 48.41800 32.40900
H  36.17400 49.37200 33.61500
N  34.56600 50.51100 25.49500
C  34.02900 51.37600 26.44300
C  33.81800 52.63600 25.72700
C  34.21500 52.40700 24.41300
C  34.57400 51.00800 24.32300
C  33.31600 53.80600 26.48200
C  34.26800 53.41400 23.26400
O  34.50900 53.06300 22.14200
C  34.03200 54.89100 23.62000
N  35.26900 48.01700 23.89700
C  35.11700 48.91300 22.91600
C  35.11800 48.27600 21.48300
C  35.75800 46.88900 21.85700
C  35.58100 46.81800 23.37400
C  33.64000 48.21700 20.87000
C  37.24800 46.67900 21.45600
C  37.50700 45.33400 20.66500
N  35.61200 46.51900 26.35700
C  35.89500 45.47700 25.47800
C  36.11700 44.24700 26.28100
C  36.11000 44.72300 27.62300
C  35.66600 46.09800 27.57700
C  36.39200 42.86600 25.78300
C  36.23300 44.38300 29.02100
O  36.52400 43.34400 29.57100
C  35.90100 45.65000 29.89800
C  34.71700 45.16500 30.71600
O  33.53600 44.97400 30.32100
O  35.17000 44.97100 32.01400
C  34.08300 44.82600 33.07700
H  33.49300 51.83000 28.49700
H  34.81900 50.78000 22.18900
H  36.24100 44.78700 23.44200
H  34.13000 47.88900 31.02600
H  33.99800 50.80600 30.41300
H  31.62700 50.16600 29.53400
H  32.06500 50.15500 31.29700
H  32.02900 48.65800 30.36700
H  36.18400 50.08500 30.93900
H  36.88000 48.58400 30.46400
H  37.37000 48.03000 32.48300
H  35.68200 47.59300 32.64400
H  34.07900 54.57900 26.57400
H  32.81800 53.68600 27.44400
H  32.49700 54.25900 25.92500
H  34.52900 55.27400 24.51100
H  32.97300 54.95500 23.87300
H  34.12500 55.48300 22.70900
H  35.76400 48.80800 20.78500
H  35.10500 46.06600 21.56800
H  33.35800 47.21000 20.56500
H  33.46200 48.87000 20.01600
H  32.89400 48.61700 21.55700
H  37.87300 46.57800 22.34300
H  37.61300 47.57900 20.96200
H  38.47200 45.55800 20.21100
H  36.85800 45.21100 19.79700
H  37.48800 44.49000 21.35400
H  36.12100 42.81200 24.72900
H  35.84900 42.01600 26.19600
H  37.46800 42.69300 25.76500
H  36.75300 45.88700 30.53500
H  33.92500 43.77100 33.30200
H  33.12100 45.21200 32.73800
H  34.48700 45.31200 33.96500

