158

Mg 9.19700 3.46100 27.16300
C  10.31400 1.83100 29.96300
C  7.21700 5.47300 29.03000
C  8.01900 4.83400 24.25800
C  10.92700 1.11800 25.18500
N  8.67300 3.44900 29.30100
C  9.46800 2.89500 30.27400
C  9.10500 3.56400 31.71400
C  7.97600 4.57500 31.29000
C  7.92800 4.55300 29.80400
C  6.69700 4.43100 32.02000
C  10.37800 3.99500 32.48500
C  10.21500 4.85100 33.67100
H  10.39500 4.34800 35.09700
N  7.88700 4.98000 26.63900
C  7.14900 5.63100 27.61100
C  6.30500 6.61000 26.97500
C  6.53900 6.50600 25.54800
C  7.52300 5.45900 25.40700
C  5.46800 7.63300 27.78400
C  6.00500 7.29900 24.38400
O  6.30000 7.09900 23.24800
C  5.04900 8.41200 24.70100
N  9.50700 3.07600 25.09000
C  8.90100 3.78200 24.12500
C  9.34900 3.39900 22.73100
C  10.17200 2.16900 23.02600
C  10.23100 2.12700 24.51000
C  8.13900 3.30800 21.75800
C  11.48000 1.97300 22.24700
C  11.47000 0.87500 21.14300
N  10.35800 1.81100 27.44300
C  11.05400 0.95100 26.59000
C  11.86500 -0.05600 27.33600
C  11.56000 0.30100 28.70200
C  10.59500 1.38800 28.69100
C  12.74000 -1.20400 26.81900
C  12.01900 -0.01700 30.04500
O  12.97800 -0.74800 30.38300
C  11.19900 0.97500 30.89100
C  10.40100 0.48000 31.96800
O  9.22900 0.26000 31.93800
O  11.17600 0.20200 33.02000
C  10.49800 -0.13000 34.27700
H  6.73100 6.27600 29.58900
H  7.66100 5.28100 23.32800
H  11.45400 0.47100 24.48100
H  8.72600 2.77100 32.35800
H  8.42000 5.55700 31.45200
H  6.85000 3.66500 32.78100
H  5.95100 4.05700 31.31900
H  6.38700 5.40400 32.39900
H  11.14500 4.49800 31.89600
H  10.75500 3.01700 32.78400
H  9.26400 5.38100 33.65400
H  10.88200 5.69600 33.50300
H  4.50700 7.78400 27.29200
H  6.06300 8.54100 27.68400
H  5.31600 7.39600 28.83700
H  5.53900 9.13400 25.35400
H  4.13200 7.98100 25.10200
H  4.73000 8.84400 23.75200
H  10.04100 4.17200 22.39600
H  9.66600 1.21500 22.87800
H  7.21000 3.34400 22.32700
H  8.08400 2.36300 21.21700
H  8.23600 4.19700 21.13600
H  12.27000 1.68100 22.93900
H  11.89900 2.92400 21.92000
H  10.44700 0.85300 20.76700
H  11.89300 -0.04600 21.54500
H  12.03800 1.19700 20.27000
H  13.78900 -0.96700 26.64100
H  12.31300 -1.41000 25.83700
H  12.78900 -2.02500 27.53400
H  11.87700 1.71800 31.31000
H  11.14700 0.09000 35.12500
H  10.29200 -1.19300 34.40700
H  9.59600 0.47200 34.38700
Mg 34.61900 49.09500 26.50400
C  35.07400 47.26600 29.26100
C  33.96500 51.84400 28.48500
C  33.79400 50.84600 23.64000
C  35.52700 46.50000 24.53800
N  34.52200 49.50500 28.63000
C  34.75200 48.52500 29.57000
C  34.65900 49.15100 31.02900
C  33.99400 50.53600 30.77700
C  34.15200 50.68900 29.21500
C  32.56900 50.65300 31.19500
C  36.11500 49.14700 31.62900
C  36.33000 48.79100 33.05800
H  36.30200 49.77700 34.27100
N  34.00500 51.07200 26.13800
C  33.89500 52.07200 27.06800
C  33.46600 53.31400 26.45900
C  33.36100 53.04700 25.04500
C  33.76500 51.58500 24.89900
C  33.31300 54.63300 27.13800
C  32.96800 54.00400 23.86600
O  32.76200 53.61100 22.73700
C  32.74900 55.52400 24.02400
N  34.84300 48.79000 24.34400
C  34.35000 49.55400 23.33800
C  34.52800 48.88700 21.90200
C  35.04100 47.51300 22.24100
C  35.20400 47.63800 23.76000
C  33.16000 48.91000 21.12500
C  36.27700 47.01600 21.47900
C  36.17200 45.92100 20.36700
N  35.16500 47.26300 26.76400
C  35.47500 46.23900 25.90600
C  35.79600 44.99600 26.66900
C  35.68500 45.41500 27.98900
C  35.25100 46.76100 27.97900
C  36.16200 43.66300 26.07200
C  35.79800 44.94600 29.29300
O  35.99600 43.82200 29.71900
C  35.35300 46.10500 30.17700
C  34.27800 45.60300 31.10200
O  33.14200 45.30700 30.73000
O  34.73700 45.55100 32.35700
C  33.78100 45.11700 33.41100
H  33.73900 52.75500 29.04500
H  33.52600 51.39800 22.73700
H  35.81400 45.58200 24.01900
H  33.97000 48.54100 31.61200
H  34.63300 51.22200 31.33300
H  32.40300 51.64400 31.62000
H  32.18200 49.86700 31.84300
H  31.95300 50.60400 30.29700
H  36.36500 50.20700 31.64900
H  36.75500 48.46200 31.07200
H  37.21500 48.15400 33.06800
H  35.54600 48.08500 33.33200
H  34.01700 55.39600 26.80800
H  33.39000 54.57800 28.22400
H  32.29000 54.96900 26.96800
H  31.78800 55.75200 24.48400
H  32.73600 55.91200 23.00600
H  33.59100 56.05700 24.46600
H  35.22100 49.55800 21.39300
H  34.28800 46.73000 22.15500
H  32.32700 48.98800 21.82300
H  33.05800 47.96200 20.59700
H  33.22400 49.75500 20.43900
H  37.02200 46.56600 22.13400
H  36.72500 47.90500 21.03600
H  35.60500 46.21400 19.48300
H  35.62500 45.10500 20.84100
H  37.13000 45.62800 19.93900
H  37.07900 43.71800 25.48500
H  35.32700 43.22200 25.52700
H  36.34000 42.91300 26.84300
H  36.28400 46.40900 30.65500
H  32.73600 45.12700 33.10100
H  33.93200 45.80200 34.24500
H  34.11300 44.13100 33.73800

