158

Mg 40.91400 7.93000 28.80400
C  42.86500 9.29400 31.24900
C  38.84100 6.57000 31.22200
C  39.17900 6.41800 26.35200
C  43.22800 8.85800 26.48300
N  40.99500 7.90100 30.95800
C  41.77900 8.65500 31.78200
C  41.23100 8.54500 33.32300
C  40.01400 7.60000 33.18400
C  39.90200 7.33000 31.67400
C  40.09300 6.19000 33.99300
C  40.90700 10.00900 33.80600
C  39.84100 10.14400 34.90800
H  40.29400 10.97400 36.21200
N  39.20100 6.65300 28.80400
C  38.47500 6.22000 29.86900
C  37.39600 5.45900 29.41800
C  37.35300 5.59200 27.96900
C  38.64700 6.28700 27.59400
C  36.47000 4.67700 30.36400
C  36.22600 5.10400 26.94700
O  36.27200 5.30200 25.75000
C  34.96400 4.59100 27.46800
N  41.11600 7.70400 26.68200
C  40.30500 7.06300 25.84200
C  40.81200 7.06500 24.45600
C  42.05600 8.08100 24.44000
C  42.15900 8.24100 25.96500
C  41.13200 5.60500 24.05600
C  41.69200 9.46800 23.79000
C  40.59900 10.34600 24.48400
N  42.70700 8.81000 28.80600
C  43.61000 9.08900 27.82300
C  44.85700 9.60800 28.39100
C  44.57000 9.79100 29.76800
C  43.28700 9.28100 29.93000
C  46.15500 9.94900 27.57900
C  45.03100 10.33300 30.99600
O  46.05400 10.93200 31.31500
C  43.98600 9.98200 32.08300
C  44.55600 9.29300 33.32600
O  44.67500 8.09000 33.52900
O  44.56500 10.26400 34.32100
C  44.93000 9.83700 35.61500
H  38.06800 6.28500 31.93700
H  38.50700 6.07800 25.56200
H  43.91600 9.21500 25.71400
H  42.10400 8.18400 33.86700
H  39.07400 8.01100 33.55300
H  40.55600 5.48300 33.30600
H  39.09900 5.83900 34.27100
H  40.73100 6.28200 34.87200
H  40.55100 10.71000 33.05000
H  41.80200 10.41200 34.28000
H  39.55800 9.20700 35.38900
H  38.96200 10.67300 34.54100
H  36.71900 4.65600 31.42500
H  36.41700 3.63200 30.05800
H  35.52500 5.19800 30.20900
H  34.35400 4.40500 26.58400
H  34.62800 5.44100 28.06300
H  35.09000 3.70700 28.09300
H  40.03800 7.45900 23.79900
H  43.03300 7.73900 24.09800
H  40.90400 4.94900 24.89700
H  42.14000 5.26500 23.82000
H  40.58300 5.45400 23.12600
H  41.33100 9.28600 22.77700
H  42.62300 10.03400 23.76600
H  39.83000 10.49700 23.72600
H  41.08100 11.21500 24.93000
H  40.01600 9.87700 25.27600
H  45.84000 10.50700 26.69800
H  46.44300 8.93700 27.29500
H  46.93500 10.50300 28.10100
H  43.50600 10.93800 32.28800
H  44.11000 10.00200 36.31400
H  45.75600 10.45300 35.97100
H  45.15500 8.77400 35.70700
Mg -4.57700 24.22300 27.25900
C  -3.18400 26.45400 29.61500
C  -5.21500 22.01700 29.86900
C  -5.47300 21.94900 25.00200
C  -3.56300 26.31500 24.66500
N  -4.32700 24.25800 29.46700
C  -3.88200 25.32700 30.21100
C  -3.92300 25.05800 31.72300
C  -4.27700 23.54500 31.79300
C  -4.69000 23.20000 30.29300
C  -3.07000 22.56800 32.26300
C  -5.04400 25.96600 32.35200
C  -4.67400 26.42900 33.71600
H  -5.00400 25.46200 34.78100
N  -5.40200 22.29100 27.44400
C  -5.54200 21.53000 28.64800
C  -6.16700 20.28000 28.30500
C  -6.10200 20.20800 26.92000
C  -5.64000 21.49000 26.38600
C  -6.72600 19.37000 29.38900
C  -6.59000 19.02100 25.95300
O  -6.62800 19.16500 24.75200
C  -7.24700 17.85200 26.61300
N  -4.71200 24.23800 25.10300
C  -5.21500 23.18700 24.39700
C  -5.19000 23.40500 22.95700
C  -4.64600 24.88700 22.82400
C  -4.22300 25.20500 24.24200
C  -4.39100 22.25900 22.19300
C  -5.52000 25.94800 22.12600
C  -4.81900 26.93000 21.20200
N  -3.68700 26.06700 27.11500
C  -3.29400 26.78500 25.97000
C  -2.60700 27.97600 26.44300
C  -2.51400 27.81200 27.83900
C  -3.18800 26.74500 28.21100
C  -1.95300 29.13800 25.67300
C  -2.05600 28.44100 29.03100
O  -1.44900 29.51900 29.22700
C  -2.54900 27.64900 30.28000
C  -1.30200 27.41300 30.98100
O  -0.49300 26.54400 30.71700
O  -1.17100 28.18500 32.05200
C  -0.23300 27.71000 33.05300
H  -5.24200 21.30600 30.69700
H  -5.75300 21.18000 24.28000
H  -3.32600 27.07800 23.92000
H  -2.92100 25.21500 32.12100
H  -5.16700 23.39300 32.40300
H  -3.45800 21.76000 32.88300
H  -2.35300 23.19100 32.79600
H  -2.46700 22.08600 31.49300
H  -6.03200 25.50800 32.40500
H  -5.17800 26.81800 31.68600
H  -5.01700 27.39700 34.08100
H  -3.58800 26.51600 33.66400
H  -6.11900 18.46400 29.38900
H  -7.76600 19.16700 29.13200
H  -6.68300 19.86300 30.36000
H  -7.36400 17.10100 25.83200
H  -8.28400 18.12600 26.80500
H  -6.62400 17.35700 27.35800
H  -6.19700 23.41100 22.53900
H  -3.76200 24.77800 22.19500
H  -3.82700 21.58600 22.83900
H  -3.72000 22.58700 21.40000
H  -5.17600 21.62700 21.77800
H  -6.13800 26.39500 22.90400
H  -6.16000 25.42400 21.41700
H  -5.19000 27.92600 21.44400
H  -4.98000 26.84400 20.12700
H  -3.77100 26.99200 21.49400
H  -2.64800 29.36200 24.86500
H  -0.95500 28.85800 25.33400
H  -1.80700 30.00500 26.31800
H  -3.25100 28.20200 30.90300
H  -0.52100 28.30200 33.92200
H  0.83900 27.77000 32.86400
H  -0.51700 26.68200 33.28000

