158

Mg 9.16200 3.33100 27.97200
C  10.60700 1.71600 30.79200
C  7.70300 5.51700 30.05600
C  7.67100 4.50800 25.38200
C  10.41400 0.61500 25.91800
N  9.04800 3.43300 30.20100
C  9.87200 2.83400 31.13500
C  9.76000 3.59800 32.52200
C  8.73100 4.69200 32.24700
C  8.48700 4.54500 30.75100
C  7.35100 4.50800 32.97100
C  11.19100 4.09300 33.11100
C  11.59000 3.68400 34.58800
H  10.51500 3.88500 35.66700
N  7.88500 4.83300 27.76300
C  7.39400 5.63900 28.70000
C  6.61500 6.63400 28.09100
C  6.56500 6.41900 26.63200
C  7.42600 5.24200 26.49500
C  5.98300 7.75100 28.95400
C  6.00200 7.26100 25.57300
O  5.94400 6.93000 24.38200
C  5.41100 8.62700 25.93800
N  9.10300 2.65900 25.89600
C  8.37900 3.36700 25.07700
C  8.39500 2.71200 23.64500
C  9.36800 1.51700 23.82000
C  9.67100 1.57100 25.29000
C  6.98700 2.35000 23.09700
C  10.62000 1.78100 22.92600
C  11.08800 0.43000 22.31600
N  10.23000 1.52800 28.22200
C  10.70800 0.60500 27.30100
C  11.51700 -0.37800 28.04000
C  11.49100 0.08600 29.35400
C  10.68800 1.19600 29.46500
C  12.17200 -1.54300 27.47900
C  12.00500 -0.21800 30.67100
O  12.75300 -1.10800 30.94600
C  11.46500 0.88300 31.73500
C  10.58700 0.17300 32.73700
O  9.60600 -0.45100 32.41200
O  10.87700 0.55300 34.07700
C  10.05100 -0.14900 35.11400
H  7.22400 6.21400 30.74800
H  7.22000 4.94000 24.48600
H  10.89400 -0.16200 25.32000
H  9.41000 2.88900 33.27200
H  9.21100 5.66200 32.36900
H  7.40800 4.02100 33.94400
H  6.77800 3.85800 32.31000
H  6.87700 5.49000 32.99400
H  11.37600 5.16200 33.00700
H  11.91900 3.62000 32.45100
H  12.28300 4.47500 34.87700
H  11.97800 2.67500 34.73000
H  6.47000 8.68300 28.66600
H  6.16500 7.64700 30.02400
H  4.91300 7.91400 28.82500
H  6.31500 9.08800 26.33700
H  4.60700 8.44800 26.65100
H  4.97500 9.19100 25.11300
H  8.67800 3.45500 22.90000
H  8.82600 0.61500 23.53600
H  6.68200 1.30300 23.10000
H  6.97000 2.59100 22.03500
H  6.16000 2.92500 23.51500
H  11.51200 2.05700 23.48900
H  10.51200 2.50500 22.11900
H  10.80800 0.44000 21.26200
H  10.65100 -0.46900 22.75100
H  12.17200 0.35000 22.39200
H  13.03400 -1.85500 28.06700
H  12.53600 -1.24100 26.49700
H  11.36000 -2.26000 27.35300
H  12.30900 1.43600 32.14800
H  9.31600 0.52200 35.55900
H  10.80900 -0.43200 35.84400
H  9.62100 -1.05000 34.67600
Mg -5.59600 25.29900 26.92800
C  -3.85200 27.10000 29.29600
C  -6.74500 23.21400 29.29800
C  -6.46700 23.06500 24.42700
C  -3.88200 27.03100 24.48300
N  -5.21900 25.06000 29.07400
C  -4.56000 25.98100 29.85600
C  -4.84100 25.73800 31.34600
C  -5.46400 24.29400 31.33000
C  -5.86200 24.18200 29.79500
C  -4.53500 23.19100 31.94400
C  -5.64600 26.83300 31.99400
C  -5.15700 27.24700 33.42800
H  -6.01100 26.84800 34.67900
N  -6.66000 23.45600 26.84000
C  -7.12800 22.78700 27.96600
C  -7.78000 21.61500 27.58200
C  -7.63400 21.52100 26.15300
C  -6.88700 22.72800 25.74700
C  -8.50500 20.69000 28.47800
C  -8.17800 20.40400 25.28500
O  -8.04900 20.38100 24.06800
C  -8.98900 19.22500 25.80900
N  -5.22000 25.04900 24.83900
C  -5.72500 24.08900 24.04000
C  -5.24900 24.25400 22.51800
C  -4.62100 25.60900 22.59100
C  -4.59000 25.95300 24.08200
C  -4.32800 23.12500 22.03900
C  -5.38200 26.78700 21.72500
C  -4.98400 26.94200 20.25000
N  -4.37100 26.96400 26.80600
C  -3.76100 27.58100 25.79000
C  -3.02300 28.77000 26.20500
C  -3.00400 28.61900 27.61800
C  -3.80500 27.45300 27.94800
C  -2.32800 29.75600 25.28500
C  -2.52000 29.19000 28.84100
O  -1.87500 30.20300 29.10100
C  -3.05500 28.21500 29.96500
C  -1.93100 27.82300 30.83000
O  -1.29600 26.77200 30.67500
O  -1.91200 28.61300 31.97300
C  -0.90300 28.12500 32.97000
H  -7.09300 22.52400 30.07000
H  -6.82600 22.35500 23.67800
H  -3.41500 27.62400 23.69400
H  -3.91900 25.62000 31.91400
H  -6.32000 24.33800 32.00400
H  -3.46800 23.40000 31.87500
H  -4.76200 22.31600 31.33400
H  -4.82200 22.95300 32.96800
H  -6.67500 26.53300 32.19000
H  -5.70500 27.66400 31.29200
H  -4.94500 28.31200 33.32800
H  -4.12400 26.93400 33.58700
H  -8.69200 21.25800 29.38900
H  -7.92900 19.80000 28.73200
H  -9.47500 20.53700 28.00500
H  -9.95600 19.58500 26.16100
H  -8.43700 18.55700 26.47000
H  -9.37200 18.61700 24.99000
H  -6.13600 24.40200 21.90300
H  -3.62600 25.58300 22.14700
H  -4.21700 22.39300 22.83900
H  -3.29900 23.40600 21.81300
H  -4.78900 22.70300 21.14600
H  -5.43800 27.80400 22.11300
H  -6.42900 26.49300 21.78800
H  -4.24800 27.73900 20.14000
H  -5.88800 27.07600 19.65500
H  -4.51700 26.04300 19.84800
H  -2.61000 29.67300 24.23500
H  -1.26200 29.90500 25.45700
H  -2.76200 30.71000 25.58400
H  -3.71200 28.65400 30.71600
H  -1.28000 27.21200 33.43100
H  -0.77800 28.90200 33.72300
H  0.06100 27.93300 32.49800

