158

Mg -1.60500 17.78300 27.48400
C  -1.84900 15.75400 30.33000
C  -1.93600 20.53800 29.64900
C  -1.95100 19.79200 24.81100
C  -1.71700 14.89100 25.50200
N  -1.78000 18.14100 29.79800
C  -1.80400 17.09000 30.67100
C  -1.93000 17.70700 32.07900
C  -1.95100 19.26000 31.85000
C  -1.77000 19.33900 30.32600
C  -3.19700 19.89600 32.51500
C  -0.85400 17.21100 33.12300
C  -0.17600 18.20500 34.07800
H  0.05700 17.66900 35.53600
N  -1.86800 19.87100 27.24800
C  -1.97200 20.82700 28.24900
C  -1.98000 22.12700 27.59300
C  -2.18100 21.93800 26.14900
C  -1.99400 20.45500 26.05800
C  -2.02200 23.45300 28.34800
C  -2.41500 22.93500 24.99000
O  -2.51000 22.58000 23.78500
C  -2.35100 24.46400 25.33200
N  -1.69600 17.40100 25.44400
C  -1.89500 18.36500 24.57400
C  -1.77600 17.76600 23.13800
C  -1.61100 16.23600 23.34700
C  -1.75100 16.14800 24.91500
C  -2.89400 18.21100 22.11400
C  -0.39500 15.55200 22.58700
C  0.99700 16.23100 22.84600
N  -1.84200 15.76800 27.83800
C  -1.84600 14.68200 26.94000
C  -2.00400 13.43700 27.61200
C  -2.01300 13.78900 28.96100
C  -1.83200 15.22000 29.02200
C  -2.04900 12.05600 27.02000
C  -2.26500 13.35700 30.39300
O  -2.44100 12.26600 30.84900
C  -1.91900 14.55500 31.26700
C  -0.61300 14.20100 31.95200
O  0.42000 13.87000 31.42900
O  -0.84100 14.02700 33.31200
C  0.27900 13.45700 34.13600
H  -1.95300 21.39900 30.32000
H  -2.07100 20.31100 23.85700
H  -1.65000 14.08200 24.77200
H  -2.83400 17.26500 32.49800
H  -1.07500 19.75100 32.27300
H  -3.73600 20.36700 31.69300
H  -2.78200 20.55300 33.27900
H  -3.77700 19.12400 33.02300
H  -0.03200 16.69100 32.63100
H  -1.22300 16.44300 33.80300
H  -0.71200 19.15300 34.13400
H  0.84800 18.28900 33.71400
H  -1.61400 23.28300 29.34400
H  -3.03800 23.84000 28.42900
H  -1.39800 24.18000 27.82800
H  -2.57000 25.06400 24.44800
H  -1.34400 24.68300 25.68800
H  -3.08600 24.86400 26.03000
H  -0.84100 18.21800 22.80800
H  -2.54900 15.86200 22.93800
H  -2.38800 18.68800 21.27400
H  -3.67000 18.82200 22.57400
H  -3.49800 17.43300 21.64600
H  -0.63500 15.77400 21.54700
H  -0.47500 14.46900 22.68500
H  0.89000 17.21600 23.30000
H  1.63700 16.21700 21.96300
H  1.50400 15.60900 23.58400
H  -1.16400 12.07200 26.38400
H  -2.98000 11.95100 26.46200
H  -1.77000 11.30500 27.75800
H  -2.60200 14.69900 32.10400
H  1.26400 13.69900 33.73700
H  0.05400 12.39000 34.15600
H  0.23700 13.81200 35.16600
Mg 25.99400 0.68300 29.85700
C  28.12500 0.37900 32.59700
C  23.33100 0.94800 32.01700
C  23.97000 0.34500 27.20300
C  28.76800 0.27300 27.79500
N  25.77700 0.42300 32.12200
C  26.81200 0.60200 32.97700
C  26.27800 0.86300 34.42800
C  24.74800 0.93600 34.16900
C  24.59100 0.83700 32.68800
C  23.90900 -0.11500 34.94300
C  26.86900 2.17700 35.08400
C  27.48100 1.96200 36.50100
H  26.94200 2.82600 37.63200
N  23.94800 0.68200 29.67200
C  22.99400 0.89600 30.67100
C  21.67300 0.90900 30.19700
C  21.83600 0.63200 28.75400
C  23.28800 0.52900 28.45900
C  20.43900 1.19600 30.92000
C  20.80900 0.48200 27.68600
O  21.11400 0.23200 26.56500
C  19.37700 0.76600 28.00300
N  26.37400 0.44700 27.83900
C  25.35100 0.33300 26.93900
C  25.84800 0.32100 25.48000
C  27.39700 0.27000 25.65300
C  27.54900 0.36800 27.16800
C  25.36200 -0.71100 24.48800
C  28.16200 1.37000 24.85200
C  29.29400 0.90400 23.96300
N  28.03500 0.24000 30.06700
C  29.05900 0.24600 29.11200
C  30.27800 -0.08700 29.73700
C  29.99800 0.04600 31.09200
C  28.61000 0.15900 31.29600
C  31.60500 -0.47500 29.05400
C  30.60700 0.08000 32.46200
O  31.74900 -0.13000 32.84600
C  29.35500 0.37300 33.49900
C  29.38100 -0.70000 34.57300
O  29.03600 -1.85100 34.36300
O  29.72400 -0.11800 35.77300
C  29.69200 -1.04700 36.91000
H  22.49100 1.14000 32.68800
H  23.34100 0.21500 26.32000
H  29.63000 0.00500 27.18100
H  26.57600 0.08100 35.12600
H  24.32000 1.83600 34.61200
H  24.43100 -1.01800 35.25900
H  23.05600 -0.45800 34.35600
H  23.56000 0.24700 35.91000
H  26.08000 2.91900 35.20500
H  27.66100 2.52200 34.42000
H  28.49700 2.34700 36.40400
H  27.43900 0.89400 36.71600
H  19.87200 2.07400 30.61200
H  20.66800 1.29700 31.98100
H  19.79100 0.32400 30.83400
H  18.98700 -0.03400 28.63300
H  18.78600 0.80100 27.08800
H  19.21000 1.68900 28.55800
H  25.47700 1.28300 25.12700
H  27.77300 -0.71000 25.35900
H  24.68700 -1.48100 24.86000
H  26.20900 -1.22300 24.03000
H  24.79700 -0.23100 23.68900
H  28.57100 2.09800 25.55300
H  27.57600 1.91900 24.11600
H  29.43200 -0.17700 23.91600
H  30.21300 1.41700 24.24700
H  29.23200 1.13400 22.89900
H  31.67200 -0.14000 28.01900
H  31.52100 -1.54800 28.88100
H  32.50000 -0.31800 29.65600
H  29.48000 1.27600 34.09600
H  29.72600 -2.12300 36.73800
H  28.82000 -0.79300 37.51200
H  30.60900 -0.96300 37.49200

