158

Mg 1.10700 7.56300 25.69600
C  1.83500 9.25900 28.59500
C  1.42700 4.56000 27.46500
C  0.58800 5.99300 22.78500
C  1.59400 10.64700 23.88300
N  1.96100 6.90700 27.70200
C  1.87600 7.89700 28.77900
C  1.90000 7.12600 30.11300
C  1.96800 5.64300 29.80400
C  1.80300 5.67700 28.20100
C  3.30200 4.96100 30.11800
C  0.66400 7.56900 30.99700
C  1.07100 7.97400 32.42300
H  2.37900 7.45400 33.13900
N  0.87700 5.51600 25.24000
C  1.02800 4.44900 26.06100
C  0.86200 3.22300 25.35100
C  0.65000 3.60700 23.95700
C  0.69700 5.13100 23.95500
C  0.91000 1.81800 25.95900
C  0.48500 2.75500 22.67900
O  0.30200 3.16100 21.57500
C  0.49400 1.26000 22.81800
N  1.16500 8.24800 23.67200
C  0.79600 7.38600 22.67700
C  0.91700 8.04600 21.36000
C  0.82400 9.52100 21.75100
C  1.22700 9.49400 23.21900
C  2.20700 7.59300 20.56600
C  -0.63400 10.16200 21.58500
C  -0.71600 11.59800 21.02100
N  1.59000 9.54300 26.08100
C  1.76400 10.74700 25.27400
C  1.83100 11.88100 26.14300
C  1.79100 11.36800 27.48100
C  1.75300 9.97700 27.38600
C  1.86600 13.34900 25.65300
C  1.96700 11.75600 28.91500
O  2.06300 12.82100 29.47500
C  1.97600 10.39300 29.70600
C  3.27300 10.40500 30.52200
O  4.46300 10.16100 30.23500
O  2.91100 10.91100 31.73900
C  3.86800 10.96900 32.81000
H  1.46900 3.63100 28.03900
H  0.33800 5.51300 21.83600
H  1.65200 11.61200 23.37500
H  2.83700 7.41700 30.58800
H  1.14100 5.03500 30.17100
H  3.91600 5.63700 30.71400
H  3.87200 4.79700 29.20400
H  3.13800 4.02200 30.64700
H  -0.01600 6.72000 30.93500
H  0.17600 8.41700 30.51600
H  0.19200 7.73100 33.02100
H  1.17300 9.05900 32.39800
H  -0.01000 1.23800 25.88400
H  1.11000 1.78900 27.03000
H  1.69800 1.20300 25.52400
H  1.46600 0.76900 22.88000
H  0.14900 0.77300 21.90600
H  -0.24400 1.03800 23.58800
H  0.02500 7.78600 20.79100
H  1.51000 10.10500 21.13800
H  2.27900 6.51900 20.40000
H  3.12400 8.03400 20.95600
H  1.94500 8.03900 19.60700
H  -1.04100 10.26900 22.59000
H  -1.33600 9.52900 21.04100
H  -1.24600 11.72300 20.07700
H  0.27300 12.05500 21.00500
H  -1.28700 12.18800 21.73800
H  1.58100 14.01500 26.46700
H  1.02900 13.28500 24.95700
H  2.77900 13.69600 25.16900
H  1.12600 10.41100 30.38800
H  3.30000 10.38400 33.53300
H  3.99500 11.96100 33.24200
H  4.84900 10.60100 32.51000
Mg 8.98900 2.95200 27.60300
C  10.21400 1.39100 30.37400
C  7.05300 4.97000 29.56200
C  7.94400 4.20500 24.77900
C  10.68800 0.43900 25.64500
N  8.61700 3.08500 29.77500
C  9.37100 2.48100 30.71400
C  9.06000 3.04700 32.06700
C  7.90500 4.05100 31.79000
C  7.72800 3.98000 30.28000
C  6.59800 3.84700 32.59200
C  10.30200 3.50700 32.93800
C  10.09800 4.55900 34.14200
H  10.85300 4.30700 35.51700
N  7.64400 4.39100 27.23700
C  6.93500 5.12700 28.14400
C  6.22100 6.11000 27.49800
C  6.50000 5.98800 26.08400
C  7.37300 4.81100 25.97000
C  5.45300 7.24500 28.16400
C  6.03900 6.80700 24.91800
O  6.62800 6.84100 23.82600
C  4.96000 7.93200 25.10000
N  9.44100 2.53500 25.47000
C  8.79200 3.15900 24.49900
C  8.96300 2.42100 23.12500
C  10.09200 1.44500 23.44100
C  10.05500 1.43400 24.96400
C  7.67900 1.82800 22.64000
C  11.55300 1.92200 22.97700
C  12.15600 1.06500 21.81600
N  10.25900 1.31700 27.86200
C  10.87000 0.43400 27.01300
C  11.67300 -0.51200 27.66000
C  11.50900 -0.12600 29.01900
C  10.58300 0.95100 29.05900
C  12.45200 -1.56100 27.06100
C  11.92700 -0.36200 30.38400
O  12.70700 -1.15100 30.84200
C  11.09800 0.57900 31.30500
C  10.59600 -0.14300 32.39500
O  9.51400 -0.70400 32.37900
O  11.41600 -0.05000 33.45700
C  10.82500 -0.44700 34.76000
H  6.49100 5.63100 30.22500
H  7.61600 4.64600 23.83600
H  11.19700 -0.35400 25.09300
H  8.68500 2.17500 32.60300
H  8.17300 5.09400 31.95500
H  6.86300 3.17400 33.40700
H  5.79000 3.39200 32.01800
H  6.13800 4.76200 32.96500
H  11.07400 4.05500 32.39700
H  10.72100 2.59600 33.36400
H  9.04000 4.66000 34.38200
H  10.24900 5.59400 33.83600
H  5.90800 8.22100 27.99800
H  5.41400 7.09600 29.24300
H  4.45300 7.27500 27.73100
H  3.98300 7.45900 25.19700
H  5.00500 8.68300 24.31200
H  5.12300 8.60000 25.94500
H  9.21300 3.10600 22.31500
H  9.77200 0.46300 23.09400
H  7.40400 2.39000 21.74700
H  6.83400 1.83300 23.32900
H  7.94200 0.85300 22.22900
H  12.23200 1.83500 23.82500
H  11.53500 2.98300 22.73100
H  13.12400 0.71100 22.17000
H  12.30400 1.68100 20.92900
H  11.50700 0.28700 21.41500
H  13.05000 -1.03100 26.31900
H  11.74000 -2.22200 26.56700
H  13.08600 -2.06900 27.78600
H  11.78900 1.30600 31.73200
H  10.25200 -1.34800 34.54100
H  10.15100 0.24600 35.26300
H  11.62500 -0.86500 35.37100

