158

Mg 48.46400 35.57100 27.55100
C  46.09400 34.10900 29.75200
C  48.83200 38.08000 29.73300
C  50.26200 37.06800 25.17500
C  47.58100 33.17200 25.26100
N  47.73000 35.83000 29.60900
C  46.84800 35.15300 30.38600
C  46.95000 35.56500 31.82400
C  47.43500 37.01700 31.64000
C  48.06800 36.98500 30.25800
C  46.35400 38.11000 31.78100
C  47.83200 34.62900 32.70700
C  48.23000 35.07300 34.15400
H  47.35600 36.09500 34.82800
N  49.41900 37.26300 27.50800
C  49.51400 38.24000 28.48600
C  50.36200 39.38500 28.05500
C  50.81400 39.04800 26.77900
C  50.12300 37.78300 26.39900
C  50.70700 40.58900 28.97400
C  51.64000 39.90500 25.79600
O  52.07900 39.52400 24.66900
C  52.21800 41.28800 26.25000
N  48.83400 35.20800 25.43800
C  49.66000 35.91200 24.70900
C  49.95600 35.26800 23.31000
C  49.35400 33.90200 23.44100
C  48.53300 34.10400 24.79700
C  49.50600 36.13000 22.14000
C  50.36000 32.69300 23.51600
C  50.03000 31.60400 22.45500
N  47.14700 34.01500 27.42600
C  46.87200 33.07300 26.42000
C  45.87900 32.15000 26.82000
C  45.50400 32.50400 28.16600
C  46.25900 33.57600 28.53500
C  45.32600 30.96500 26.12500
C  44.67600 32.20900 29.32000
O  43.86500 31.26100 29.47800
C  44.90700 33.33800 30.35700
C  44.93300 32.71600 31.74900
O  45.38400 31.57300 31.99100
O  44.26400 33.54700 32.61900
C  44.33500 33.10000 34.00600
H  48.82200 38.91100 30.44200
H  50.88700 37.58500 24.44400
H  47.41900 32.31800 24.60000
H  45.89700 35.49500 32.09700
H  48.18900 37.20200 32.40500
H  45.66000 37.85200 32.58100
H  45.72500 38.44800 30.95800
H  46.88800 38.99000 32.14100
H  48.72400 34.41200 32.12000
H  47.34600 33.65400 32.74100
H  49.24100 35.47900 34.17100
H  48.32500 34.13500 34.69900
H  50.02500 41.41600 28.78100
H  51.75400 40.85100 28.82800
H  50.67900 40.20400 29.99400
H  51.54700 41.81600 26.92700
H  52.35800 42.01100 25.44600
H  53.21200 41.09200 26.65200
H  51.04200 35.20200 23.23700
H  48.64200 33.66300 22.65000
H  48.52100 35.92600 21.72000
H  50.26000 36.29400 21.37000
H  49.45200 37.14800 22.52600
H  50.56200 32.41600 24.55100
H  51.37300 32.91800 23.18100
H  50.46400 30.63200 22.68800
H  50.57900 31.87900 21.55400
H  48.96200 31.46800 22.28500
H  44.85900 31.32800 25.21000
H  44.54000 30.46200 26.68800
H  46.17600 30.30800 25.94200
H  44.08500 34.05100 30.42200
H  45.38900 33.23200 34.25000
H  44.23400 32.03400 34.20900
H  43.81400 33.70600 34.74700
Mg 27.13200 51.46100 25.80500
C  25.10600 52.29100 28.49900
C  29.58500 50.56500 27.90100
C  28.91600 50.62700 23.02800
C  24.70800 52.99000 23.70000
N  27.36900 51.50800 27.95600
C  26.30700 51.69300 28.88900
C  26.80900 51.36100 30.34100
C  28.38800 51.21300 30.09400
C  28.47300 51.12300 28.59200
C  29.31100 52.19700 30.77900
C  26.03800 50.20300 30.97800
C  25.21600 50.38200 32.26600
H  25.99700 50.84700 33.48800
N  28.96600 50.64600 25.51300
C  29.84100 50.35600 26.54100
C  31.06600 49.79200 25.95200
C  30.89900 49.79700 24.50100
C  29.51100 50.34600 24.33700
C  32.28000 49.38900 26.72400
C  31.88700 49.38900 23.51500
O  31.66300 49.42600 22.30600
C  33.22100 48.99100 23.80600
N  26.86700 51.69000 23.73100
C  27.71400 51.36600 22.74500
C  27.21200 51.57300 21.32200
C  25.81900 52.19700 21.52200
C  25.76700 52.33000 23.06100
C  28.14400 52.42600 20.40400
C  24.56800 51.39900 21.00400
C  23.46500 52.35600 20.40200
N  25.33400 52.45500 26.03400
C  24.47200 52.97800 25.10400
C  23.34800 53.61000 25.76100
C  23.55200 53.36400 27.11100
C  24.76900 52.62600 27.19600
C  22.23900 54.40100 25.10100
C  23.13000 53.70200 28.45000
O  22.12500 54.34000 28.78800
C  23.99600 52.81900 29.41200
C  24.51000 53.84300 30.40000
O  25.49100 54.52900 30.27600
O  23.61900 53.83000 31.49000
C  24.02200 54.62000 32.60800
H  30.38300 50.32100 28.60600
H  29.49300 50.37400 22.13600
H  23.92400 53.31800 23.01400
H  26.57700 52.31200 30.82100
H  28.68900 50.22000 30.42700
H  29.83600 52.80500 30.04300
H  30.07400 51.64100 31.32400
H  28.81800 52.91300 31.43700
H  26.69000 49.36600 31.23200
H  25.34500 49.86500 30.20800
H  24.52200 49.58800 32.54200
H  24.57100 51.23500 32.05500
H  32.29500 48.30800 26.86100
H  32.23400 49.69000 27.77100
H  33.14000 49.86900 26.25700
H  33.41200 48.05500 24.33100
H  33.59400 49.88600 24.30200
H  33.76100 48.87100 22.86700
H  27.05900 50.58300 20.89100
H  25.76700 53.23700 21.20300
H  28.79700 52.97000 21.08600
H  27.55100 53.09700 19.78300
H  28.62300 51.58000 19.91100
H  23.99600 50.93000 21.80400
H  24.86800 50.66100 20.26000
H  22.52700 52.26400 20.94900
H  23.24500 51.92700 19.42500
H  23.79200 53.39500 20.34900
H  21.23400 54.13400 25.42800
H  22.34600 54.40700 24.01600
H  22.26700 55.42100 25.48500
H  23.55000 51.96100 29.91500
H  24.79400 54.13600 33.20700
H  23.13000 54.70500 33.22800
H  24.35900 55.62000 32.33400

