158

Mg 50.48900 46.37200 41.53400
C  47.42500 47.62400 40.75700
C  49.58400 43.20300 40.54400
C  53.91000 45.30200 41.71000
C  51.70900 49.69300 42.32300
N  48.61800 45.55700 40.90100
C  47.48900 46.20900 40.52000
C  46.44600 45.21900 39.95600
C  47.10300 43.77600 40.34700
C  48.52300 44.15700 40.68400
C  46.38400 43.03200 41.47800
C  45.91300 45.36400 38.42000
C  44.49100 45.01200 38.02500
H  44.42200 43.98900 36.85200
N  51.59900 44.55200 40.94100
C  50.99100 43.38300 40.58100
C  52.00300 42.40400 40.34700
C  53.24000 43.00900 40.67600
C  52.98000 44.38400 41.13900
C  51.65900 40.95700 39.96500
C  54.55200 42.34000 40.43400
O  54.53900 41.17000 40.07500
C  55.85200 42.91300 40.68900
N  52.63100 47.46500 41.70500
C  53.72100 46.71600 41.95900
C  54.89900 47.52600 42.50900
C  54.15400 48.80800 42.89100
C  52.74000 48.68900 42.27600
C  55.65600 46.88900 43.74100
C  54.90900 50.11900 42.40700
C  55.78000 50.86300 43.41900
N  49.69100 48.24000 41.76500
C  50.29300 49.47200 42.09000
C  49.24100 50.45600 42.01100
C  48.11800 49.72600 41.50900
C  48.43000 48.45700 41.31500
C  49.34700 51.88900 42.34100
C  46.68300 49.88300 41.17400
O  45.83500 50.75700 41.37600
C  46.26900 48.51400 40.52300
C  44.99100 47.93300 41.18500
O  45.03300 47.33800 42.20700
O  43.85800 48.06400 40.43500
C  42.61500 47.68300 41.12300
H  49.20900 42.20800 40.29400
H  54.87600 44.93600 42.06500
H  51.96800 50.67500 42.72200
H  45.55400 45.17800 40.58200
H  47.16400 43.09400 39.49900
H  47.11500 42.72700 42.22600
H  45.97200 42.11200 41.06200
H  45.64600 43.60800 42.03700
H  46.49800 44.70800 37.77500
H  46.09100 46.37500 38.05400
H  44.03700 45.95400 37.71500
H  43.92500 44.53400 38.82400
H  51.87100 40.23800 40.75600
H  52.27400 40.64700 39.12000
H  50.61800 40.98100 39.64300
H  56.02100 42.84600 41.76300
H  55.77600 43.95500 40.38000
H  56.61400 42.52300 40.01400
H  55.66400 47.65300 41.74300
H  53.96500 48.86500 43.96300
H  55.77700 47.66700 44.49400
H  56.60900 46.44600 43.45200
H  55.06500 46.08800 44.18600
H  54.10800 50.73600 42.00200
H  55.55000 50.05600 41.52700
H  55.35100 51.80900 43.74700
H  56.73700 51.02000 42.92000
H  55.90000 50.22400 44.29400
H  49.90500 52.49600 41.62800
H  49.83100 52.09000 43.29700
H  48.34400 52.29300 42.48000
H  46.13400 48.71300 39.46000
H  41.81000 47.73600 40.39000
H  42.35300 48.45200 41.85000
H  42.63200 46.69200 41.57700
Mg -9.93100 39.09600 39.47700
C  -9.16900 35.84100 38.84600
C  -6.72300 40.04100 38.35400
C  -11.02400 42.25800 39.44800
C  -13.30700 38.11800 40.30300
N  -8.20000 38.08000 38.67100
C  -8.08400 36.68300 38.54700
C  -6.60800 36.29800 38.12000
C  -5.82700 37.65800 38.22900
C  -7.00000 38.66300 38.44300
C  -4.67700 37.69900 39.27900
C  -6.58500 35.63900 36.73000
C  -7.12300 36.47700 35.52100
H  -8.21100 35.84000 34.61900
N  -9.03800 40.83900 38.89000
C  -7.71500 41.05700 38.53100
C  -7.58000 42.50700 38.27100
C  -8.80100 43.17500 38.42800
C  -9.68500 42.07000 38.97600
C  -6.21700 43.10700 37.89300
C  -9.00600 44.70600 38.15300
O  -8.24300 45.31800 37.45300
C  -10.43000 45.35200 38.50100
N  -11.94200 40.07600 40.02200
C  -12.04600 41.39800 39.94900
C  -13.49900 41.88500 40.31300
C  -14.18200 40.54400 40.72700
C  -13.12200 39.49000 40.35000
C  -13.65300 42.96500 41.44200
C  -15.55000 40.21500 40.09100
C  -16.81900 40.86300 40.66400
N  -11.06800 37.41200 39.52100
C  -12.44100 37.12000 39.83800
C  -12.66600 35.69100 39.82500
C  -11.40300 35.18700 39.38300
C  -10.46800 36.23600 39.17400
C  -13.81400 34.89100 40.16400
C  -10.75000 33.93300 38.92900
O  -11.18300 32.82100 38.74500
C  -9.26800 34.29700 38.58100
C  -8.40900 33.48800 39.46900
O  -8.55200 33.30600 40.68100
O  -7.35800 32.93400 38.72800
C  -6.50900 32.06300 39.49800
H  -5.70100 40.39800 38.21800
H  -11.25700 43.31300 39.61000
H  -14.27000 37.73000 40.64200
H  -6.23300 35.67900 38.93400
H  -5.39300 37.78000 37.23700
H  -3.82900 38.22100 38.83500
H  -4.38200 36.70700 39.62000
H  -4.94000 38.35800 40.10700
H  -7.16100 34.71400 36.69500
H  -5.55500 35.31500 36.58500
H  -6.26400 36.71100 34.89200
H  -7.61300 37.38900 35.86000
H  -6.16200 44.06100 38.41600
H  -6.06300 43.22300 36.82000
H  -5.41100 42.47000 38.25600
H  -10.51000 45.48500 39.58000
H  -11.10100 44.65900 37.99300
H  -10.53600 46.31900 38.00900
H  -13.98200 42.21900 39.39500
H  -14.35300 40.57000 41.80300
H  -14.17900 43.88200 41.17700
H  -12.58900 43.07300 41.65100
H  -14.08500 42.60500 42.37600
H  -15.68100 39.13400 40.11100
H  -15.36200 40.38000 39.03000
H  -16.63000 41.44400 41.56700
H  -17.46100 40.05300 41.01200
H  -17.33100 41.34900 39.83500
H  -13.75700 33.94500 39.62400
H  -14.67700 35.49400 39.88100
H  -13.83400 34.61500 41.21800
H  -9.23600 34.01800 37.52800
H  -5.86400 32.73200 40.06700
H  -5.95700 31.40100 38.83000
H  -7.16900 31.47600 40.13800

