158

Mg 0.64200 7.18500 25.33000
C  1.29100 8.99900 28.25800
C  0.98800 4.30100 27.12500
C  0.37300 5.42900 22.38100
C  0.61000 10.17700 23.51700
N  1.15500 6.75500 27.43100
C  1.21500 7.60200 28.45500
C  1.13800 6.99900 29.75400
C  1.36800 5.47400 29.39400
C  1.12300 5.48600 27.86100
C  2.73800 4.92800 29.89900
C  -0.14700 7.24900 30.60100
C  0.01900 7.90200 31.98100
H  1.20100 7.39200 32.79100
N  0.82600 5.18800 24.85500
C  0.81500 4.12400 25.73200
C  0.82400 2.89100 25.06700
C  0.66100 3.15700 23.65900
C  0.57100 4.65600 23.55900
C  0.88400 1.57200 25.81700
C  0.42600 2.22400 22.49500
O  0.47400 2.59500 21.32800
C  0.33800 0.79000 22.75700
N  0.39400 7.71300 23.28300
C  0.26100 6.77200 22.25400
C  0.03500 7.50700 20.90600
C  -0.01500 9.03100 21.36000
C  0.31500 9.00800 22.83600
C  1.26200 7.31600 19.92500
C  -1.44800 9.62500 21.03900
C  -2.60200 9.11000 21.97100
N  0.72600 9.22600 25.75300
C  0.79700 10.32400 24.87800
C  1.17500 11.52800 25.66400
C  1.31300 11.00900 26.98500
C  1.11300 9.57900 27.00500
C  1.20100 12.94300 25.36200
C  1.52900 11.47800 28.36900
O  1.72100 12.59300 28.84100
C  1.53100 10.14900 29.19000
C  2.89200 9.96700 29.91500
O  3.79900 9.23400 29.57300
O  2.84700 10.75400 31.00300
C  3.82500 10.66000 32.15400
H  0.92600 3.39500 27.73200
H  0.45900 4.82600 21.47500
H  0.55300 11.08400 22.91100
H  1.94600 7.42300 30.35000
H  0.53600 4.96300 29.87800
H  3.05300 4.47100 28.96100
H  2.56400 4.11000 30.59900
H  3.48500 5.62400 30.28000
H  -0.82900 6.39900 30.60600
H  -0.73100 8.00200 30.07300
H  -0.86400 7.91200 32.62000
H  0.23100 8.95900 31.82500
H  0.47700 1.64200 26.82600
H  1.93300 1.27700 25.85200
H  0.32800 0.77700 25.31900
H  0.42000 0.29800 21.78800
H  -0.49200 0.29200 23.25900
H  1.20000 0.45800 23.33500
H  -0.89800 7.11300 20.50300
H  0.67500 9.73900 20.90000
H  2.05900 6.74300 20.39800
H  1.72100 8.24100 19.57700
H  0.93200 6.65200 19.12500
H  -1.55900 9.17800 20.05100
H  -1.37900 10.70900 20.94700
H  -3.36100 8.81700 21.24700
H  -2.97000 9.96600 22.53700
H  -2.30600 8.38800 22.73300
H  0.69600 13.16100 24.42000
H  2.23000 13.30000 25.34300
H  0.78600 13.50500 26.19800
H  0.70300 10.26200 29.88900
H  4.66800 11.35000 32.10100
H  4.21800 9.64500 32.10400
H  3.32300 10.59900 33.11900
Mg 9.26800 47.23400 26.43700
C  7.23200 47.01300 29.26500
C  11.90800 47.99600 28.49600
C  11.09400 48.07500 23.70300
C  6.40900 47.32900 24.36500
N  9.50000 47.45700 28.57400
C  8.59300 47.23200 29.56400
C  9.15800 47.36700 31.03500
C  10.67600 47.73700 30.73400
C  10.72600 47.86400 29.14000
C  11.24100 48.95800 31.45600
C  9.10700 46.07600 31.91800
C  10.18100 45.89000 33.04700
H  9.67600 45.37700 34.38800
N  11.33200 47.64900 26.05300
C  12.22500 47.91600 27.08300
C  13.53400 48.15700 26.50600
C  13.33300 48.24800 25.10000
C  11.91400 47.86400 24.87800
C  14.84800 48.32400 27.26200
C  14.32200 48.60400 23.90100
O  13.91000 48.67500 22.78700
C  15.70500 48.78300 24.19700
N  8.83900 47.42500 24.31600
C  9.76600 47.98100 23.49700
C  9.22200 48.31400 22.12100
C  7.72000 47.86900 22.27800
C  7.63200 47.53600 23.76000
C  9.27300 49.90900 21.82400
C  7.28200 46.71200 21.35500
C  5.86000 46.83200 20.82500
N  7.26300 47.07100 26.70100
C  6.16900 47.13100 25.77300
C  4.97600 46.95900 26.46900
C  5.31800 46.89500 27.84000
C  6.74800 46.94700 27.92500
C  3.56800 46.89300 25.90000
C  4.83400 46.71600 29.15300
O  3.73100 46.38000 29.60700
C  6.04000 46.88800 30.15800
C  5.97400 45.73000 30.99000
O  6.45200 44.60400 30.70700
O  5.41900 46.05900 32.22200
C  5.31500 44.92600 33.18000
H  12.69200 48.29600 29.19500
H  11.76700 48.32700 22.88100
H  5.47600 47.36500 23.79900
H  8.59400 48.16000 31.52600
H  11.36200 46.89300 30.80300
H  11.25600 49.86400 30.84900
H  12.19100 48.59300 31.84600
H  10.78900 49.22700 32.41100
H  9.07500 45.21700 31.24800
H  8.12300 46.15000 32.38200
H  10.68200 46.84100 33.22700
H  10.92700 45.28700 32.52900
H  15.45200 49.14600 26.88000
H  15.45000 47.41900 27.34900
H  14.59000 48.66200 28.26600
H  16.33800 48.87200 23.31400
H  16.09900 48.04400 24.89300
H  15.72100 49.78000 24.63800
H  9.72100 47.67300 21.39400
H  7.11300 48.75200 22.07600
H  10.25700 50.28500 22.10100
H  8.43400 50.47800 22.22500
H  9.21100 50.01800 20.74100
H  7.32200 45.82700 21.99100
H  7.98300 46.64800 20.52300
H  5.37100 47.75500 21.13800
H  5.32300 45.98200 21.24600
H  5.82500 46.70700 19.74300
H  3.09500 45.98100 26.26400
H  3.56900 46.78100 24.81500
H  3.06000 47.77600 26.28900
H  5.85800 47.72500 30.83200
H  4.24000 44.90500 33.35800
H  5.77600 45.37300 34.06200
H  5.80200 43.96900 32.99300

