158

Mg 47.40400 16.57500 28.58300
C  45.32700 15.97100 31.37300
C  49.70000 17.89300 30.82100
C  49.31500 17.30700 25.97000
C  44.83600 15.55800 26.51700
N  47.49700 16.92900 30.82700
C  46.51900 16.56900 31.70100
C  46.89100 16.96000 33.16100
C  48.17700 17.80400 32.95300
C  48.49500 17.51000 31.45800
C  48.03300 19.35400 33.29800
C  47.08600 15.76500 34.19800
C  46.15400 15.69300 35.41100
H  45.59300 16.96900 35.92500
N  49.28900 17.40700 28.44100
C  50.10800 17.78400 29.49000
C  51.39800 18.16300 28.93100
C  51.30200 18.04300 27.51400
C  49.94400 17.49100 27.23400
C  52.52800 18.55000 29.84700
C  52.30100 18.35400 26.46700
O  52.12800 18.11700 25.23200
C  53.72900 18.84900 26.79200
N  47.04700 16.53100 26.59100
C  47.99600 16.99200 25.70400
C  47.50300 16.87100 24.28300
C  46.18500 16.12400 24.43600
C  45.99000 16.02900 25.89700
C  47.38100 18.23900 23.57500
C  46.04400 14.69300 23.75100
C  46.61800 13.45100 24.40900
N  45.57100 15.74800 28.84700
C  44.61800 15.42600 27.91900
C  43.45000 14.87400 28.62300
C  43.78000 14.92000 29.95600
C  45.03800 15.60000 30.02900
C  42.16400 14.30200 28.11500
C  43.24200 14.77800 31.26800
O  42.13900 14.32900 31.51300
C  44.20600 15.44600 32.26200
C  43.39500 16.47200 32.94100
O  43.17500 17.63400 32.56400
O  42.80500 15.88000 33.95500
C  41.68400 16.65300 34.50300
H  50.41500 18.33700 31.51700
H  49.91600 17.44500 25.06900
H  44.00900 15.26800 25.86600
H  46.01300 17.52700 33.47000
H  49.02100 17.46000 33.55200
H  47.09100 19.57400 33.80000
H  48.18300 19.97100 32.41100
H  48.87900 19.60500 33.93800
H  48.13000 15.78700 34.51100
H  47.04500 14.85100 33.60600
H  46.70700 15.26400 36.24700
H  45.38600 14.99400 35.07800
H  52.28500 19.07600 30.77000
H  53.33500 19.11800 29.38300
H  53.00700 17.59500 30.06800
H  53.70500 19.84200 27.24100
H  54.40400 18.84600 25.93600
H  54.02100 18.11600 27.54500
H  48.12400 16.10400 23.82100
H  45.40400 16.77900 24.05000
H  46.39100 18.34600 23.13000
H  48.04700 18.08800 22.72600
H  47.75900 19.09600 24.13200
H  46.56300 14.81200 22.80000
H  44.98400 14.49600 23.59100
H  47.38600 13.71700 25.13500
H  47.13800 12.79400 23.71100
H  45.88100 12.86500 24.95800
H  42.40300 13.32600 27.69400
H  41.74300 14.88200 27.29300
H  41.43200 14.03200 28.87600
H  44.52700 14.61100 32.88500
H  42.05800 17.57900 34.94000
H  41.17500 15.93800 35.14900
H  41.02700 16.84500 33.65500
Mg 48.42200 34.10500 27.43700
C  46.36200 32.62800 29.98900
C  48.38900 36.99300 29.46500
C  49.22800 35.89200 24.78400
C  47.78200 31.28200 25.57500
N  47.58300 34.68700 29.47100
C  47.02800 33.82000 30.36600
C  47.03300 34.39200 31.78400
C  47.21200 35.96500 31.48000
C  47.73900 35.90500 30.02100
C  45.80200 36.74300 31.59300
C  48.22400 33.88300 32.62400
C  48.15500 34.21700 34.12300
H  47.03000 35.10300 34.75500
N  48.93100 36.13300 27.17900
C  48.83600 37.13800 28.12400
C  49.47100 38.35800 27.50600
C  49.67600 38.10500 26.10000
C  49.29900 36.67700 25.95300
C  49.71000 39.62100 28.30000
C  50.04600 39.01000 24.98100
O  50.28900 38.48000 23.90300
C  50.26400 40.43400 25.24400
N  48.57400 33.62200 25.47100
C  49.00100 34.53000 24.52600
C  48.96500 33.84500 23.10100
C  48.83200 32.29800 23.44500
C  48.42400 32.39800 24.93900
C  47.84500 34.48000 22.18300
C  50.04300 31.33200 23.03400
C  51.25300 31.10300 23.93900
N  47.43700 32.27000 27.65000
C  47.19400 31.30600 26.77700
C  46.41700 30.27200 27.44300
C  45.85700 30.88200 28.53300
C  46.58200 32.04200 28.72200
C  46.13100 28.90200 26.96200
C  44.96100 30.67400 29.67400
O  44.26700 29.68700 29.98600
C  45.16700 31.91300 30.63400
C  45.43900 31.38800 31.99800
O  46.47300 30.90800 32.43300
O  44.29700 31.62900 32.61200
C  44.14600 31.22300 34.03800
H  48.50300 37.86500 30.11300
H  49.35500 36.44700 23.85200
H  47.74700 30.44000 24.88100
H  46.09300 34.16500 32.28600
H  47.88500 36.54800 32.10800
H  45.67200 37.27500 30.65100
H  45.89200 37.42300 32.44000
H  44.92100 36.11400 31.72700
H  49.18500 34.26100 32.27600
H  48.32400 32.80300 32.51100
H  49.08000 34.72500 34.39500
H  48.26200 33.29000 34.68600
H  48.75600 39.88800 28.75500
H  50.05400 40.48100 27.72600
H  50.39300 39.38900 29.11800
H  49.40800 40.90400 25.72900
H  50.63500 40.92700 24.34500
H  51.07500 40.54000 25.96500
H  49.91600 33.87000 22.57000
H  47.98800 31.85700 22.91500
H  48.41100 34.69400 21.27600
H  47.47800 35.38900 22.66100
H  47.00600 33.80500 22.01300
H  50.43700 31.53100 22.03800
H  49.48900 30.39300 23.04100
H  52.10300 31.42700 23.33800
H  51.38800 30.09200 24.32300
H  51.06800 31.79000 24.76400
H  46.02300 28.13500 27.72900
H  46.88900 28.58400 26.24500
H  45.23200 28.92800 26.34600
H  44.26400 32.51900 30.56100
H  43.95900 30.15200 33.95900
H  43.21300 31.62300 34.43500
H  44.98300 31.51500 34.67300

