158

Mg -2.46500 17.08100 27.19900
C  -2.75400 14.90600 29.92900
C  -2.97000 19.74300 29.25800
C  -2.28100 19.09300 24.41200
C  -2.14200 14.44400 25.11500
N  -2.88100 17.31400 29.37000
C  -2.97400 16.26300 30.30800
C  -3.03600 16.85600 31.72200
C  -3.31400 18.39400 31.38000
C  -3.14900 18.52600 29.86300
C  -4.69400 18.95200 31.97500
C  -1.74800 16.60900 32.55200
C  -1.50200 17.41800 33.87100
H  -1.25800 16.66100 35.26200
N  -2.51800 19.16800 26.85600
C  -2.71900 20.11700 27.89300
C  -2.72600 21.45500 27.30800
C  -2.48500 21.26100 25.86500
C  -2.37700 19.78500 25.64500
C  -3.04200 22.74300 27.97700
C  -2.19600 22.30500 24.78500
O  -2.02500 21.99800 23.60400
C  -2.24900 23.79200 25.12100
N  -2.34200 16.73900 25.09900
C  -2.26000 17.74400 24.18000
C  -2.23300 17.15700 22.70700
C  -1.91800 15.72100 22.97000
C  -2.18400 15.59500 24.47800
C  -3.60000 17.36100 21.96000
C  -0.47200 15.33200 22.65600
C  0.65700 15.92000 23.52500
N  -2.52800 15.12800 27.40700
C  -2.33700 14.14000 26.47200
C  -2.44700 12.82600 27.07300
C  -2.59800 13.07000 28.44700
C  -2.61100 14.51800 28.61000
C  -2.47500 11.45300 26.36500
C  -2.70800 12.43600 29.72100
O  -2.84200 11.28200 30.06900
C  -2.83300 13.58200 30.71800
C  -1.64300 13.36000 31.57400
O  -0.48500 13.58600 31.22100
O  -1.97100 12.87500 32.84900
C  -0.86700 12.58700 33.72300
H  -2.93100 20.61900 29.90900
H  -2.24600 19.63100 23.46300
H  -1.91400 13.58100 24.48600
H  -3.79700 16.23800 32.19900
H  -2.50500 19.04000 31.71900
H  -5.09000 18.08400 32.50200
H  -5.47800 19.34200 31.32600
H  -4.48200 19.70300 32.73600
H  -0.84000 16.48300 31.96200
H  -1.64100 15.60500 32.96500
H  -2.31000 18.14000 33.97900
H  -0.55100 17.94900 33.82900
H  -2.09000 23.25400 27.83200
H  -3.23900 22.67000 29.04600
H  -3.80500 23.28800 27.42200
H  -3.17400 24.23400 25.49300
H  -1.97700 24.28400 24.18800
H  -1.49000 24.05600 25.85800
H  -1.37500 17.53900 22.15500
H  -2.65400 15.07000 22.49700
H  -4.30000 17.99000 22.51100
H  -4.13100 16.42800 21.77200
H  -3.45800 17.77900 20.96400
H  -0.14200 15.59600 21.65200
H  -0.44600 14.24300 22.61600
H  1.07700 16.64500 22.82700
H  1.35500 15.15000 23.85500
H  0.41000 16.49400 24.41800
H  -1.75000 11.50700 25.55300
H  -3.48500 11.33500 25.97400
H  -2.18700 10.67500 27.07200
H  -3.78800 13.41100 31.21400
H  -1.17700 11.74400 34.33900
H  -0.57000 13.44600 34.32500
H  -0.01000 12.24700 33.14100
Mg 49.95900 45.29000 42.66100
C  46.79800 45.95200 41.58600
C  49.86000 42.29300 41.03200
C  53.17600 45.08700 43.04700
C  50.29900 48.95200 43.15600
N  48.45600 44.24300 41.48400
C  47.22700 44.69600 41.21900
C  46.37200 43.66700 40.41900
C  47.32100 42.39800 40.53400
C  48.66700 42.95000 41.04700
C  46.85900 41.17900 41.39000
C  46.09200 44.14500 39.00700
C  44.56700 44.04700 38.51100
H  44.25600 43.62800 37.01200
N  51.24100 43.80200 42.31000
C  51.09100 42.63900 41.61500
C  52.27700 41.89700 41.68500
C  53.27700 42.64400 42.38000
C  52.59900 43.91000 42.61000
C  52.38900 40.47800 41.10500
C  54.72500 42.21800 42.66800
O  55.03600 41.01200 42.42700
C  55.79500 43.19100 43.13300
N  51.56400 46.87800 43.02700
C  52.78900 46.38300 43.26900
C  53.75700 47.59500 43.37600
C  52.81200 48.81100 43.73700
C  51.50200 48.21000 43.28300
C  55.05600 47.45500 44.18400
C  53.10400 50.23600 43.08000
C  52.93400 51.43500 43.92600
N  48.72300 47.12700 42.58000
C  49.01900 48.50800 42.72600
C  47.76200 49.22300 42.64800
C  46.80700 48.26400 42.18800
C  47.51200 47.02700 42.17300
C  47.69100 50.63000 43.15300
C  45.43000 48.17200 41.92100
O  44.47700 48.94800 41.92100
C  45.38300 46.61600 41.51000
C  44.35000 45.86600 42.30300
O  44.49800 45.60200 43.46100
O  43.28900 45.50800 41.49800
C  42.21600 44.85200 42.24800
H  49.84600 41.27500 40.63600
H  54.25000 45.03200 43.23600
H  50.32500 49.99100 43.49100
H  45.49400 43.52400 41.04800
H  47.49900 42.06700 39.51100
H  45.77700 41.18200 41.52100
H  47.30900 41.46800 42.34000
H  47.34700 40.22600 41.18200
H  46.63500 43.59700 38.23800
H  46.42900 45.18200 39.00800
H  44.19600 45.07100 38.55300
H  44.05600 43.48900 39.29600
H  53.01800 40.44300 40.21600
H  51.44900 39.98200 40.86100
H  52.82400 39.88800 41.91200
H  55.68300 44.05700 42.48200
H  56.68200 42.56900 43.01000
H  55.81600 43.48100 44.18300
H  54.11900 47.58400 42.34800
H  52.85300 48.86200 44.82500
H  55.84300 47.16100 43.49000
H  54.81400 46.81200 45.03000
H  55.32700 48.44100 44.56200
H  52.39900 50.32900 42.25300
H  54.11400 50.26700 42.67100
H  52.44100 52.24200 43.38300
H  53.93300 51.77400 44.19900
H  52.30800 51.19400 44.78500
H  48.08700 50.60700 44.16800
H  46.64200 50.90900 43.24300
H  48.30600 51.35300 42.61700
H  44.97600 46.76800 40.51000
H  41.25400 44.83900 41.73600
H  42.06700 45.34200 43.20900
H  42.58400 43.82600 42.27400

