158

Mg 8.68800 4.33500 27.43000
C  10.12500 2.77500 30.28800
C  6.88200 6.33900 29.49600
C  7.32200 5.63700 24.74500
C  10.23900 1.72900 25.47000
N  8.49500 4.50200 29.64100
C  9.22700 3.81600 30.57800
C  8.79900 4.25800 31.94600
C  7.57400 5.14600 31.67600
C  7.63500 5.38800 30.18800
C  6.17700 4.81200 32.26500
C  9.93200 4.90900 32.72600
C  10.24000 4.33400 34.16500
H  10.86700 5.29400 35.18700
N  7.39900 5.84600 27.17400
C  6.69500 6.53000 28.10600
C  5.78300 7.35100 27.38400
C  6.04700 7.32000 26.02500
C  6.98200 6.24300 25.92300
C  4.78700 8.14700 28.13600
C  5.50800 8.13500 24.81300
O  5.93800 8.16600 23.63200
C  4.34400 9.11100 25.12200
N  8.61800 3.61100 25.42400
C  8.08500 4.47900 24.48700
C  8.52800 4.16000 23.08100
C  9.50400 2.86400 23.25500
C  9.40500 2.65800 24.78800
C  7.31800 3.89900 22.15500
C  10.94800 3.05100 22.63900
C  11.12800 2.62200 21.06600
N  9.86500 2.55700 27.71100
C  10.46700 1.62500 26.87100
C  11.29500 0.75900 27.57500
C  11.25200 1.21600 28.92500
C  10.32600 2.26900 28.96600
C  12.22200 -0.36000 26.94500
C  11.79700 1.08100 30.20100
O  12.63700 0.30000 30.64000
C  11.01700 1.98100 31.22100
C  10.31600 1.08500 32.24400
O  9.22500 0.61100 32.12500
O  11.09200 1.03100 33.35100
C  10.44100 0.49900 34.54500
H  6.08500 6.72100 30.13700
H  6.96600 6.08000 23.81300
H  10.81200 1.03600 24.85000
H  8.43500 3.36900 32.46000
H  7.73300 6.12300 32.13000
H  6.12200 4.05800 33.05100
H  5.51500 4.56700 31.43400
H  5.72300 5.65900 32.77800
H  9.75600 5.97600 32.86200
H  10.79200 4.86800 32.05800
H  10.91700 3.48600 34.06900
H  9.25900 4.05400 34.54900
H  4.77700 9.15300 27.71700
H  5.02000 8.13200 29.20100
H  3.83900 7.64800 27.93200
H  3.52700 8.55800 25.58500
H  3.96500 9.61200 24.23100
H  4.62000 9.95700 25.75200
H  9.19100 4.91300 22.65200
H  9.06400 1.94500 22.86800
H  6.39500 4.18900 22.65700
H  7.38100 2.83400 21.93300
H  7.41100 4.53600 21.27500
H  11.61800 2.42300 23.22600
H  11.23500 4.09600 22.75200
H  10.27600 2.04500 20.70600
H  11.90200 1.86400 20.94300
H  11.17200 3.50100 20.42200
H  11.65800 -1.28600 26.83400
H  13.18400 -0.56200 27.41700
H  12.51000 -0.09500 25.92700
H  11.75800 2.54000 31.79300
H  10.19000 1.37800 35.14000
H  11.14000 -0.17000 35.04900
H  9.47200 0.01200 34.44200
Mg 41.06600 8.31400 29.93200
C  43.06200 9.24500 32.66100
C  38.65000 7.19700 31.99400
C  39.53400 7.02600 27.23200
C  43.72600 9.21200 27.89300
N  41.00100 8.05900 32.02400
C  41.84900 8.64400 33.00200
C  41.24300 8.48900 34.44400
C  39.86600 7.64300 34.20100
C  39.83800 7.52700 32.66300
C  39.54200 6.40700 35.01900
C  40.98300 9.97300 35.06800
C  40.24700 9.94800 36.39100
H  40.81200 10.73600 37.49500
N  39.34200 7.25600 29.63000
C  38.48500 7.00400 30.61100
C  37.37900 6.15200 30.08200
C  37.49300 6.07800 28.67100
C  38.80200 6.88500 28.39700
C  36.28500 5.49300 30.95600
C  36.64200 5.42100 27.59900
O  36.76200 5.62000 26.38200
C  35.49700 4.64700 28.02700
N  41.51000 8.18000 27.80100
C  40.70500 7.61200 26.91300
C  41.26000 7.64800 25.45800
C  42.57600 8.54800 25.72200
C  42.59100 8.69500 27.22900
C  41.63600 6.29900 24.85700
C  42.67200 9.88400 25.04100
C  41.80700 11.06900 25.55400
N  43.03900 9.12200 30.18900
C  44.00500 9.48300 29.28400
C  45.22800 9.92800 29.94800
C  44.83800 10.01300 31.28900
C  43.55200 9.42900 31.37300
C  46.45400 10.35400 29.23500
C  45.28100 10.46000 32.59600
O  46.28800 11.04000 32.98100
C  44.19100 9.87100 33.56800
C  44.91400 8.89200 34.40700
O  45.00000 7.71800 34.18400
O  45.50100 9.53000 35.45600
C  46.35800 8.80100 36.36700
H  37.84100 6.92800 32.67600
H  39.00600 6.56400 26.39600
H  44.59900 9.46300 27.28800
H  42.01700 7.98200 35.02000
H  39.06700 8.36000 34.39000
H  38.51600 6.13200 35.26100
H  40.13400 6.35900 35.93400
H  39.93600 5.52900 34.50700
H  40.34700 10.52400 34.37500
H  41.95300 10.39200 35.33500
H  40.22700 8.89500 36.67100
H  39.25500 10.36600 36.22100
H  35.30200 5.74800 30.56000
H  36.31900 5.66300 32.03200
H  36.24900 4.40700 30.87200
H  34.79700 5.34900 28.48000
H  35.83300 3.84100 28.67900
H  35.09100 4.36200 27.05700
H  40.57000 8.14100 24.77300
H  43.42800 7.94100 25.41500
H  42.63000 6.41800 24.42700
H  40.93100 6.01600 24.07600
H  41.62700 5.69000 25.76100
H  42.44400 9.57300 24.02200
H  43.73400 10.12400 25.07900
H  42.40800 11.93300 25.83800
H  41.07200 10.81000 26.31600
H  41.17600 11.37900 24.72100
H  46.80000 9.66400 28.46500
H  47.18700 10.20500 30.02800
H  46.47900 11.32400 28.73800
H  43.79200 10.56900 34.30400
H  46.64800 7.84000 35.94300
H  45.84500 8.67800 37.32100
H  47.27800 9.38100 36.43800

