158

Mg 24.40400 -5.25600 45.61300
C  26.63500 -2.84700 44.18500
C  22.04900 -4.16200 43.50100
C  22.69100 -8.06600 46.29200
C  27.24300 -6.48200 47.36900
N  24.42600 -3.73300 44.01000
C  25.45600 -2.91100 43.49000
C  25.01700 -2.08400 42.34000
C  23.50700 -2.47700 42.18300
C  23.31200 -3.61000 43.20200
C  22.51500 -1.27000 42.42500
C  25.86800 -2.32800 41.01100
C  26.18300 -1.07800 40.23400
H  25.90700 -1.19000 38.69800
N  22.57500 -5.88100 45.11800
C  21.74000 -5.27200 44.27700
C  20.41700 -5.86900 44.39200
C  20.56400 -7.04300 45.14600
C  21.98400 -7.05400 45.56900
C  19.25200 -5.42200 43.53900
C  19.46800 -8.02700 45.40200
O  18.29900 -7.75700 45.08200
C  19.70600 -9.38000 45.98000
N  24.95300 -7.05400 46.65800
C  23.98900 -8.09900 46.79500
C  24.65900 -9.30500 47.53600
C  26.00500 -8.67400 48.07100
C  26.13500 -7.35800 47.26800
C  23.68100 -10.00600 48.58800
C  27.24800 -9.64900 48.18200
C  27.79600 -10.10500 49.51400
N  26.53000 -4.75700 45.83600
C  27.46000 -5.28000 46.71500
C  28.63100 -4.46100 46.67200
C  28.31800 -3.50300 45.74800
C  27.02700 -3.73500 45.23400
C  29.89500 -4.64100 47.35600
C  28.99100 -2.35100 45.00400
O  30.05700 -1.73900 45.08800
C  27.85200 -1.93100 44.01700
C  27.56500 -0.52100 44.41500
O  27.24600 -0.15100 45.49000
O  27.86000 0.31700 43.33800
C  27.95300 1.76700 43.69700
H  21.33000 -3.76400 42.78200
H  22.12200 -8.93400 46.63200
H  28.13200 -6.82400 47.90300
H  25.18100 -1.05300 42.65200
H  23.19700 -2.95700 41.25500
H  22.88100 -0.40000 41.88000
H  22.30800 -0.94700 43.44500
H  21.53100 -1.42900 41.98300
H  25.24700 -2.88700 40.31100
H  26.79900 -2.85200 41.22900
H  27.23300 -0.81200 40.35700
H  25.57900 -0.27900 40.66400
H  18.32800 -5.17100 44.06000
H  18.99700 -6.26200 42.89400
H  19.45000 -4.69000 42.75600
H  18.81000 -10.00000 45.96000
H  19.90100 -9.08900 47.01200
H  20.43800 -9.77700 45.27600
H  24.88700 -10.07300 46.79700
H  25.74800 -8.41300 49.09800
H  23.06100 -9.21600 49.01100
H  24.21100 -10.41700 49.44700
H  23.13700 -10.84400 48.15300
H  28.09500 -9.16900 47.69100
H  27.00400 -10.50600 47.55400
H  28.79500 -9.67500 49.59200
H  27.91900 -11.15800 49.77000
H  27.15500 -9.73900 50.31600
H  29.75400 -5.47500 48.04400
H  30.11600 -3.72100 47.89800
H  30.65800 -4.74600 46.58500
H  28.11800 -1.93300 42.96000
H  27.87300 2.26400 42.73000
H  28.96100 1.82200 44.10900
H  27.25200 2.14100 44.44300
Mg 47.21500 35.30700 27.59200
C  45.69000 33.45800 30.41400
C  47.62500 37.92800 29.88300
C  48.64600 36.95100 25.12800
C  46.77600 32.49700 25.59700
N  46.91300 35.54100 30.01800
C  46.25600 34.65900 30.83500
C  46.37400 35.17000 32.29400
C  46.66700 36.72500 32.03300
C  47.10300 36.75100 30.54900
C  45.49500 37.72700 32.23600
C  47.54800 34.40700 32.92800
C  47.65700 34.50400 34.47000
H  46.72700 35.35600 35.30400
N  47.98000 37.22700 27.51100
C  48.06400 38.12800 28.51800
C  48.65700 39.28100 27.92300
C  49.11700 39.02600 26.61300
C  48.59300 37.67400 26.36400
C  48.85300 40.55800 28.68600
C  49.92000 39.87000 25.69200
O  50.09800 39.55800 24.52500
C  50.38700 41.16100 26.06900
N  47.51800 34.82100 25.65900
C  48.09800 35.72900 24.80500
C  48.29100 35.10800 23.42400
C  48.08100 33.62400 23.68900
C  47.36600 33.63500 25.03200
C  47.36900 35.74800 22.29900
C  49.34700 32.64700 23.60100
C  49.36900 31.69700 22.36900
N  46.43900 33.43500 27.94900
C  46.39600 32.35800 27.00900
C  45.71700 31.20800 27.63900
C  45.35000 31.66800 28.86000
C  45.79500 32.99600 29.06300
C  45.31900 29.86100 27.02800
C  44.73300 31.21600 30.19600
O  44.16600 30.15100 30.51300
C  44.85300 32.46900 31.11400
C  45.36300 32.01800 32.43000
O  46.35300 31.28200 32.62100
O  44.53200 32.47500 33.40200
C  44.89800 32.00700 34.76000
H  47.77900 38.68300 30.65600
H  49.07700 37.49200 24.28300
H  46.81600 31.59100 24.98900
H  45.43400 35.03300 32.82800
H  47.55700 37.09100 32.54500
H  45.65100 38.42800 33.05600
H  44.55100 37.22700 32.45300
H  45.25700 38.29400 31.33600
H  48.45800 34.97300 32.73000
H  47.59300 33.36300 32.61500
H  48.65600 34.80600 34.78500
H  47.49400 33.48400 34.82000
H  48.88600 40.48800 29.77300
H  48.00800 41.17500 28.38100
H  49.75900 41.05100 28.33400
H  51.08300 41.06400 26.90200
H  49.65200 41.91100 26.36300
H  50.82400 41.58500 25.16500
H  49.27100 35.31100 22.99400
H  47.29400 33.35300 22.98600
H  46.40100 35.95100 22.75600
H  47.18600 35.06600 21.46900
H  47.78600 36.67300 21.90000
H  49.32600 31.97500 24.45900
H  50.30100 33.17000 23.66100
H  48.50200 31.97200 21.76900
H  49.33300 30.67300 22.74100
H  50.19900 31.98300 21.72400
H  45.81800 29.78900 26.06200
H  44.23900 29.92700 26.89800
H  45.61900 29.02400 27.66000
H  43.82700 32.77400 31.32000
H  44.46100 31.04400 35.02300
H  44.43000 32.76800 35.38500
H  45.97400 32.05100 34.92700

