158

Mg 17.19100 -0.36500 27.68200
C  16.40000 1.47300 30.65800
C  19.13500 -2.36300 29.53300
C  18.38200 -1.64200 24.83100
C  15.68800 2.19900 25.83600
N  17.95700 -0.20000 29.81600
C  17.33600 0.45600 30.87100
C  17.59500 -0.21700 32.22500
C  18.56600 -1.36400 31.81200
C  18.62000 -1.26300 30.29400
C  20.00300 -1.29400 32.49600
C  16.37100 -0.73900 32.98800
C  16.30900 -0.46200 34.51200
H  17.60600 0.03100 35.22500
N  18.54800 -1.87400 27.23200
C  19.19900 -2.70400 28.18700
C  19.81300 -3.82300 27.53200
C  19.58700 -3.56700 26.07200
C  18.78000 -2.34200 25.99900
C  20.41600 -4.96700 28.32100
C  19.84800 -4.48200 24.90700
O  19.43900 -4.28000 23.75300
C  20.68600 -5.70500 25.08800
N  17.16900 0.23200 25.68900
C  17.68100 -0.49300 24.69600
C  17.58300 0.18400 23.27800
C  16.66200 1.39800 23.64100
C  16.41300 1.27300 25.13500
C  18.98900 0.57300 22.66900
C  15.31700 1.31200 22.79500
C  14.27800 0.40800 23.28300
N  16.02800 1.27800 28.10200
C  15.42900 2.25600 27.24600
C  14.71100 3.23500 27.98900
C  15.09600 2.98000 29.30000
C  15.93300 1.77600 29.34700
C  14.04600 4.48900 27.49100
C  14.92700 3.49200 30.67700
O  14.31000 4.46300 31.05700
C  15.83600 2.55300 31.62900
C  16.87600 3.27600 32.30900
O  18.04200 3.31300 31.96900
O  16.40700 3.93500 33.45700
C  17.35400 4.62500 34.36900
H  19.51800 -3.16600 30.16600
H  18.63000 -2.07900 23.86100
H  15.16100 3.01300 25.33300
H  18.16300 0.39800 32.92300
H  18.25600 -2.37600 32.07300
H  19.90000 -2.24500 33.01700
H  20.09000 -0.42600 33.15000
H  20.86600 -1.22900 31.83300
H  16.23700 -1.78100 32.69600
H  15.48500 -0.24500 32.58900
H  16.00800 -1.38700 35.00400
H  15.48400 0.19400 34.78900
H  19.92600 -5.92400 28.14000
H  20.33200 -4.83800 29.40000
H  21.48900 -5.12300 28.21200
H  21.61300 -5.46300 25.60900
H  20.93000 -6.04800 24.08300
H  20.12400 -6.54500 25.49500
H  17.09700 -0.46700 22.55200
H  17.19900 2.34100 23.53900
H  19.00400 1.58000 22.25400
H  19.36600 -0.21200 22.01300
H  19.71900 0.42200 23.46400
H  15.59600 0.97500 21.79700
H  14.89200 2.31100 22.69300
H  13.78400 -0.04900 22.42600
H  13.57700 0.95200 23.91600
H  14.57200 -0.41900 23.93000
H  14.76200 4.89600 26.77800
H  13.80400 5.13900 28.33200
H  13.21000 4.07200 26.93000
H  15.19800 2.04200 32.35000
H  17.16100 4.27800 35.38400
H  17.29300 5.70600 34.24500
H  18.38500 4.31000 34.20600
Mg -1.76500 35.24500 26.47600
C  -3.76100 33.84900 29.13300
C  -1.01200 37.80700 28.72400
C  -0.12500 36.69900 24.03300
C  -3.00200 32.86100 24.34200
N  -2.49900 35.79600 28.63800
C  -3.11100 35.01400 29.55500
C  -2.98100 35.49600 31.00500
C  -2.24200 36.90700 30.79200
C  -1.87400 36.84400 29.30500
C  -2.98300 38.22100 31.23600
C  -2.19700 34.51900 31.85500
C  -1.61700 35.06300 33.18700
H  -1.83100 34.26600 34.47000
N  -0.68400 36.92000 26.45100
C  -0.51300 37.89000 27.38400
C  0.47800 38.86200 26.93400
C  0.87300 38.45900 25.62100
C  -0.07600 37.35800 25.30300
C  1.08900 39.94900 27.77800
C  1.92100 38.95200 24.68500
O  2.20000 38.63300 23.53400
C  2.67500 40.11800 25.19300
N  -1.70800 34.89500 24.43500
C  -0.86400 35.60300 23.61200
C  -0.76700 35.03200 22.26100
C  -1.53500 33.65400 22.39500
C  -2.13000 33.83500 23.78000
C  -1.32800 35.98500 21.16200
C  -0.54500 32.44900 22.34900
C  0.23300 31.98900 23.64200
N  -3.03500 33.57500 26.68100
C  -3.54500 32.80700 25.64600
C  -4.60500 31.93400 26.09500
C  -4.60500 32.22900 27.50000
C  -3.72200 33.33500 27.79000
C  -5.50900 31.02300 25.37200
C  -5.12300 31.90200 28.78300
O  -5.97500 31.01900 28.99700
C  -4.60700 32.86700 29.93700
C  -5.76200 33.44900 30.72100
O  -6.62200 34.24100 30.40400
O  -5.66600 32.90800 31.95800
C  -6.86100 33.06700 32.84800
H  -0.65300 38.55700 29.43200
H  0.40100 37.13700 23.18200
H  -3.42700 32.18100 23.60000
H  -4.01800 35.60300 31.32600
H  -1.27000 36.92500 31.28500
H  -3.92300 38.12900 31.77900
H  -3.00800 38.87100 30.36100
H  -2.33500 38.68500 31.98000
H  -1.42900 34.18500 31.15700
H  -2.91600 33.70900 31.98000
H  -2.01100 36.07400 33.28200
H  -0.52800 35.03400 33.14700
H  0.73500 39.90500 28.80800
H  0.84400 40.89800 27.30200
H  2.16300 39.76300 27.80100
H  2.06200 40.96700 25.49500
H  3.48800 40.42800 24.53600
H  3.26800 39.78000 26.04400
H  0.28800 34.81900 22.08700
H  -2.29200 33.52600 21.62200
H  -2.27200 35.70400 20.69500
H  -0.57700 36.05100 20.37500
H  -1.43200 36.97800 21.60000
H  0.19400 32.66700 21.57900
H  -1.14000 31.58300 22.05800
H  1.31000 32.14100 23.57700
H  0.11500 30.92700 23.86000
H  -0.09600 32.54200 24.52200
H  -5.13800 30.94400 24.35000
H  -6.55100 31.32300 25.26900
H  -5.52800 29.99300 25.72900
H  -3.99000 32.19100 30.53000
H  -6.52500 33.66900 33.69200
H  -7.16100 32.14400 33.34500
H  -7.73500 33.58000 32.44800

