158

Mg 44.77600 3.04500 47.17800
C  42.36400 5.53100 46.75200
C  42.10900 0.78600 47.09900
C  46.97300 0.59700 47.01000
C  47.28300 5.45300 46.68900
N  42.54000 3.16500 47.09500
C  41.81200 4.26900 46.94700
C  40.36000 3.89700 46.69700
C  40.28300 2.50400 47.41600
C  41.72000 2.11500 47.19500
C  39.79900 2.42700 48.94700
C  40.12000 3.96000 45.18300
C  38.68800 4.34700 44.78600
H  38.56300 5.47000 43.81000
N  44.55600 0.96200 47.07700
C  43.42700 0.21400 47.01900
C  43.73300 -1.18800 46.96600
C  45.17700 -1.27700 46.95200
C  45.66400 0.13000 46.99200
C  42.78700 -2.26500 46.80400
C  45.96000 -2.57800 46.92200
O  45.29900 -3.57400 47.04000
C  47.43200 -2.77900 46.63600
N  46.85800 3.00000 46.70300
C  47.59900 1.82300 46.95200
C  49.12500 2.21600 47.14900
C  49.10300 3.75900 47.14500
C  47.63600 4.14400 46.84100
C  49.84900 1.63800 48.43200
C  50.13400 4.30100 46.14300
C  51.27000 5.09300 46.89300
N  44.86600 5.06200 46.87300
C  45.94100 5.93100 46.61400
C  45.39200 7.29200 46.39100
C  44.02100 7.08900 46.52300
C  43.74900 5.75400 46.72300
C  46.15400 8.58000 46.13900
C  42.80200 7.86300 46.50400
O  42.61400 9.08500 46.41900
C  41.67500 6.85200 46.68900
C  40.96500 7.23300 47.94100
O  41.38800 7.31400 49.08300
O  39.65800 7.43600 47.59500
C  38.63400 7.70100 48.61300
H  41.25300 0.11500 47.19400
H  47.70200 -0.16200 47.30100
H  47.98900 6.26300 46.88400
H  39.82200 4.72600 47.15600
H  39.69500 1.82500 46.79800
H  40.60000 2.05900 49.58800
H  38.96100 1.73100 48.97600
H  39.48300 3.43900 49.19900
H  40.46400 3.00100 44.79700
H  40.74100 4.75500 44.77000
H  38.01800 4.41700 45.64300
H  38.35900 3.48700 44.20200
H  42.85200 -2.67100 45.79400
H  41.78000 -1.92000 47.04100
H  43.00500 -3.12100 47.44300
H  48.11700 -2.42200 47.40500
H  47.77200 -2.25200 45.74500
H  47.55400 -3.81600 46.32300
H  49.56000 1.79400 46.24300
H  49.23100 4.16700 48.14800
H  50.68000 1.06400 48.02100
H  49.18300 0.98300 48.99500
H  50.27400 2.37700 49.11100
H  49.77000 4.92100 45.32400
H  50.65600 3.51200 45.60200
H  52.03500 5.19900 46.12300
H  51.75600 4.63700 47.75600
H  50.91900 6.10900 47.07000
H  45.51700 9.37000 45.74100
H  47.03200 8.37900 45.52600
H  46.43600 9.04800 47.08200
H  41.00200 6.78600 45.83400
H  38.67400 7.01200 49.45600
H  37.62900 7.60000 48.20200
H  38.77600 8.68300 49.06500
Mg 40.47800 41.69400 27.07800
C  39.67700 44.09100 29.61600
C  41.31500 39.48700 29.60100
C  41.40700 39.64300 24.64400
C  40.10600 44.43900 24.85400
N  40.47500 41.79200 29.37600
C  40.06300 42.86200 30.16200
C  40.03100 42.42900 31.66400
C  40.61300 40.94500 31.63200
C  40.82900 40.68400 30.13200
C  41.85800 40.64400 32.53000
C  38.60400 42.61500 32.32800
C  38.33100 41.74100 33.55200
H  37.61100 42.46400 34.59000
N  41.27000 39.79500 27.10300
C  41.51000 39.03300 28.24000
C  42.04300 37.72400 27.77900
C  42.09400 37.75300 26.34500
C  41.59600 39.08300 25.95200
C  42.36000 36.57000 28.82000
C  42.54700 36.71600 25.34600
O  42.81000 36.95400 24.16200
C  42.88200 35.33300 25.89000
N  40.77000 42.01200 25.02800
C  41.14300 40.99000 24.22300
C  41.29100 41.44600 22.79000
C  40.80200 42.88900 22.85200
C  40.47800 43.17100 24.33900
C  42.76100 41.31700 22.21100
C  39.71800 43.14100 21.79300
C  38.31500 43.36900 22.36900
N  40.04800 43.80300 27.16200
C  39.96200 44.74000 26.16700
C  39.50100 46.02100 26.69100
C  39.36900 45.82100 28.06200
C  39.80000 44.46200 28.26500
C  39.14800 47.34200 26.06200
C  38.95900 46.39600 29.33200
O  38.60800 47.50000 29.52800
C  39.17100 45.32500 30.40700
C  40.09400 45.87100 31.46900
O  41.31200 45.89400 31.35700
O  39.37900 46.33800 32.53700
C  40.18300 46.85500 33.62900
H  41.41000 38.81300 30.45500
H  41.53300 38.94200 23.81600
H  39.82600 45.14400 24.06900
H  40.67600 43.09800 32.23500
H  39.85200 40.22200 31.92800
H  41.73000 39.68800 33.03900
H  42.00200 41.42600 33.27500
H  42.71500 40.49200 31.87300
H  37.76800 42.36300 31.67600
H  38.64400 43.66100 32.63200
H  39.22600 41.35000 34.03700
H  37.71300 40.86600 33.34700
H  41.63000 35.76100 28.79700
H  42.23600 36.80400 29.87700
H  43.37000 36.20300 28.63700
H  41.96000 35.09400 26.42000
H  43.79900 35.34200 26.48000
H  43.03200 34.66000 25.04500
H  40.69400 40.89800 22.06000
H  41.60200 43.59300 22.62500
H  43.21600 40.52700 22.80900
H  43.36300 42.21300 22.35900
H  42.77100 40.97900 21.17400
H  39.78700 42.36700 21.02900
H  40.07100 44.04900 21.30300
H  37.86200 44.32700 22.11300
H  38.16800 43.15200 23.42700
H  37.76500 42.62600 21.79000
H  38.94900 48.08100 26.83800
H  38.27900 47.23100 25.41300
H  39.91400 47.82200 25.45400
H  38.21700 45.12000 30.89300
H  40.90200 47.59700 33.28000
H  40.79200 46.13100 34.16900
H  39.56100 47.41000 34.33100

