158

Mg 49.00300 45.90000 43.59900
C  45.93500 46.49900 42.00800
C  49.23900 43.06300 41.57900
C  52.52000 45.78400 44.09600
C  49.01200 49.23400 44.68100
N  47.62700 44.81400 42.03700
C  46.40800 45.24800 41.59100
C  45.98500 44.26600 40.46500
C  46.87200 43.05000 40.70800
C  48.03900 43.64900 41.41500
C  46.24600 41.87900 41.53300
C  46.19300 44.89600 39.04600
C  44.96900 44.90200 38.14000
H  44.95600 44.24000 36.74800
N  50.58200 44.55300 43.01600
C  50.45500 43.45700 42.28200
C  51.70100 42.80200 42.11000
C  52.69100 43.54200 42.74500
C  51.97900 44.67200 43.38700
C  51.83800 41.43800 41.46100
C  54.15900 43.24500 42.73000
O  54.52900 42.21000 42.11100
C  55.16500 44.14300 43.35500
N  50.57400 47.27600 44.25300
C  51.81800 46.94200 44.53400
C  52.58700 48.11000 45.14200
C  51.42800 49.15200 45.40500
C  50.21800 48.55400 44.66400
C  53.52600 47.85200 46.32900
C  51.83000 50.60800 44.87400
C  51.13900 51.80900 45.54800
N  47.74100 47.41000 43.53100
C  47.82900 48.68800 44.13200
C  46.58100 49.40600 43.89200
C  45.82300 48.59700 42.99600
C  46.57600 47.36400 42.84900
C  46.25200 50.79900 44.41700
C  44.60600 48.49300 42.21800
O  43.70400 49.25400 42.12100
C  44.75600 47.19900 41.43300
C  43.46900 46.37200 41.70600
O  43.23400 45.75700 42.74000
O  42.58400 46.38200 40.58500
C  41.39200 45.45500 40.74500
H  49.38900 42.10300 41.08000
H  53.59200 45.78900 44.30300
H  49.05900 50.21400 45.16100
H  44.91800 44.09600 40.60900
H  47.11700 42.63500 39.73000
H  45.22200 42.07900 41.84800
H  46.79900 41.78300 42.46700
H  46.07400 40.94800 40.99400
H  46.89200 44.27400 38.48600
H  46.51100 45.92200 39.23100
H  44.81600 45.96600 37.96100
H  44.06000 44.59700 38.65900
H  51.91700 41.65800 40.39600
H  50.94700 40.81200 41.50300
H  52.69100 40.89000 41.86000
H  55.07300 44.14100 44.44100
H  54.91500 45.14500 43.00400
H  56.18400 43.78500 43.21100
H  53.17500 48.42200 44.27900
H  51.30700 49.35300 46.46900
H  53.19200 48.36600 47.23100
H  54.55800 48.16000 46.16000
H  53.48100 46.78000 46.52000
H  51.63200 50.62800 43.80200
H  52.90500 50.72000 45.01100
H  50.63200 52.31100 44.72400
H  51.85200 52.35900 46.16200
H  50.36400 51.42600 46.21100
H  46.18200 51.53000 43.61100
H  47.03500 51.26300 45.01500
H  45.20400 50.81300 44.71700
H  44.82700 47.45700 40.37600
H  40.82700 45.92800 41.54800
H  41.67900 44.44300 41.03000
H  40.90400 45.53100 39.77300
Mg 26.93100 50.80600 26.58500
C  25.04500 51.92600 29.25500
C  29.44700 50.16600 28.79100
C  28.96800 50.23600 23.94100
C  24.36200 51.51800 24.39900
N  27.24300 51.05400 28.70400
C  26.27800 51.41800 29.68700
C  26.74700 51.12500 31.17400
C  28.28700 50.92900 30.94300
C  28.33000 50.72400 29.37800
C  29.19600 52.05300 31.43200
C  26.02900 49.87800 31.81600
C  25.34600 50.11700 33.23200
H  26.17500 50.67100 34.38500
N  28.93400 50.10000 26.34900
C  29.85900 49.84200 27.42100
C  31.08300 49.36900 26.86400
C  30.94000 49.33100 25.44800
C  29.56200 49.90700 25.20400
C  32.40500 49.14800 27.64900
C  31.88500 48.87000 24.36600
O  31.55000 48.80600 23.19300
C  33.25400 48.35000 24.72900
N  26.73600 50.99000 24.50900
C  27.64800 50.61500 23.61100
C  27.21400 50.78500 22.16100
C  25.66600 50.94500 22.34400
C  25.55700 51.23900 23.82300
C  28.00800 51.91100 21.37300
C  24.85600 49.62900 21.89400
C  25.22700 48.37600 22.68600
N  25.16400 51.68800 26.69200
C  24.18900 51.86300 25.73300
C  23.02500 52.42200 26.35500
C  23.26100 52.43500 27.71800
C  24.55200 51.97900 27.93700
C  21.77000 52.76700 25.74100
C  22.68700 52.58200 29.01300
O  21.58000 52.91600 29.37300
C  23.80200 52.21700 30.07300
C  24.05200 53.29000 31.00600
O  24.74400 54.28400 30.78500
O  23.45800 53.08400 32.25100
C  23.95000 53.98300 33.31800
H  30.28500 49.93500 29.45100
H  29.56000 50.17900 23.02500
H  23.53100 51.53200 23.69000
H  26.47800 51.93300 31.85500
H  28.61000 50.04100 31.48600
H  28.73100 52.86500 31.99000
H  29.50200 52.53000 30.50000
H  29.95600 51.53200 32.01500
H  26.82500 49.14600 31.68500
H  25.18300 49.69100 31.15500
H  24.83300 49.19200 33.49700
H  24.46600 50.75800 33.19100
H  33.22500 49.66600 27.15300
H  32.56500 48.07000 27.63200
H  32.21700 49.58000 28.63200
H  33.79000 47.83200 23.93300
H  33.10400 47.61900 25.52400
H  33.86400 49.15400 25.14000
H  27.43100 49.84700 21.65100
H  25.31700 51.80000 21.76400
H  28.44600 51.45000 20.48800
H  28.68600 52.47200 22.01600
H  27.30900 52.66700 21.01400
H  25.09600 49.44400 20.84700
H  23.79800 49.87300 21.98700
H  25.74500 48.75000 23.56800
H  25.90200 47.79300 22.06000
H  24.38000 47.81400 23.08000
H  20.90300 52.45500 26.32200
H  21.72700 52.36400 24.72900
H  21.71600 53.84100 25.56200
H  23.36000 51.28700 30.43100
H  24.89900 53.51100 33.57300
H  23.32100 54.04200 34.20700
H  24.08700 54.99500 32.93700

