158

Mg 43.82900 4.34800 47.17700
C  41.65100 7.07600 46.64300
C  41.22400 2.28100 46.85100
C  46.01900 1.93200 46.89300
C  46.51100 6.74300 47.29800
N  41.69600 4.64400 46.53200
C  41.06800 5.84600 46.51600
C  39.61800 5.64700 46.14400
C  39.39200 4.16400 46.65000
C  40.85900 3.63000 46.72100
C  38.75300 4.12100 48.06100
C  39.32000 5.90100 44.69400
C  38.13300 6.84300 44.36600
H  37.68000 6.80200 42.88200
N  43.66200 2.27000 46.92000
C  42.48100 1.61800 46.82400
C  42.78700 0.22900 46.79200
C  44.16200 0.09100 46.62700
C  44.72200 1.43500 46.74100
C  41.73000 -0.87600 46.80900
C  44.94600 -1.18000 46.62500
O  44.35600 -2.27400 46.57000
C  46.43500 -1.23100 46.52400
N  46.01300 4.32600 47.02000
C  46.63400 3.14000 47.10400
C  48.16600 3.30700 47.22100
C  48.27400 4.89100 47.48900
C  46.86700 5.40500 47.29000
C  48.94000 2.32900 48.27500
C  49.37200 5.53900 46.55700
C  50.46200 6.34000 47.41900
N  44.09600 6.51800 46.91600
C  45.20900 7.33600 47.11200
C  44.87100 8.74600 46.91400
C  43.44800 8.72200 46.84900
C  43.03400 7.33000 46.82900
C  45.81900 9.95400 46.77700
C  42.21200 9.47900 46.61600
O  42.00900 10.72000 46.46200
C  41.08500 8.46600 46.55100
C  40.12000 8.76600 47.62000
O  40.31600 8.57400 48.79300
O  38.90800 9.21400 47.12900
C  38.04800 9.79100 48.13500
H  40.36600 1.63600 46.64900
H  46.79600 1.25700 46.52800
H  47.32300 7.46200 47.42300
H  38.98100 6.36800 46.65600
H  38.82900 3.56300 45.93500
H  38.27300 5.09000 48.20000
H  39.46800 4.03600 48.87900
H  38.02300 3.31500 48.13700
H  39.29000 4.93800 44.18200
H  40.19900 6.37600 44.25700
H  38.32000 7.89300 44.59100
H  37.27900 6.58700 44.99300
H  41.85800 -1.51700 45.93600
H  40.72500 -0.45200 46.82200
H  41.92100 -1.42300 47.73200
H  47.07600 -0.77300 47.27700
H  46.69800 -0.88500 45.52400
H  46.73900 -2.25500 46.74000
H  48.46800 3.11900 46.19100
H  48.42600 4.96400 48.56500
H  48.32200 2.05500 49.13000
H  49.80100 2.77700 48.77300
H  49.32600 1.55800 47.60900
H  48.88600 6.35700 46.02600
H  49.77500 4.84000 45.82400
H  51.46700 6.11200 47.06400
H  50.60400 6.08100 48.46900
H  50.32200 7.41500 47.30600
H  45.95600 10.45400 47.73600
H  45.49000 10.75900 46.12000
H  46.81100 9.57300 46.53600
H  40.61500 8.70900 45.59800
H  37.11500 10.15800 47.70500
H  38.50400 10.68100 48.56900
H  37.82300 9.07200 48.92300
Mg 16.03400 52.52200 27.02300
C  17.76300 50.84500 29.63100
C  13.60100 53.16100 29.24300
C  14.28500 53.68300 24.40400
C  18.22300 50.94100 24.80300
N  15.82300 52.14400 29.18500
C  16.61400 51.45900 30.06100
C  16.24300 51.51300 31.55700
C  14.79400 52.12500 31.34000
C  14.70700 52.51100 29.83400
C  13.65900 51.14400 31.69400
C  17.26200 52.27900 32.47500
C  17.52700 51.68600 33.86600
H  16.73400 52.21000 35.02500
N  14.20800 53.45200 26.84200
C  13.33700 53.58800 27.89900
C  12.23700 54.47000 27.42000
C  12.34800 54.55700 25.97000
C  13.64300 53.88400 25.70400
C  11.06400 54.95200 28.33000
C  11.47300 55.09300 24.97500
O  11.70000 55.03000 23.79500
C  10.21600 55.79300 25.41800
N  16.17000 52.33800 24.91800
C  15.37000 52.90400 23.99500
C  16.00000 52.86200 22.60100
C  17.18200 51.92200 22.78600
C  17.19800 51.76700 24.29700
C  14.95500 52.44900 21.48900
C  18.56000 52.53900 22.08400
C  19.15100 53.71100 22.83100
N  17.71400 51.21500 27.13400
C  18.51300 50.74900 26.18600
C  19.71400 50.17700 26.78700
C  19.44300 50.18800 28.16800
C  18.21400 50.78900 28.31200
C  20.89500 49.43700 26.14600
C  19.96100 49.87800 29.40700
O  21.11700 49.54400 29.74800
C  18.92700 50.32900 30.51000
C  18.55100 49.18600 31.38500
O  17.91400 48.20500 31.12700
O  19.10200 49.44700 32.65500
C  19.02200 48.34100 33.62100
H  12.78100 53.33200 29.94500
H  13.93600 54.14100 23.47600
H  18.91600 50.47600 24.10000
H  16.20300 50.47300 31.88100
H  14.75300 53.05300 31.91000
H  12.95400 51.64600 32.35600
H  14.07700 50.18500 32.00000
H  13.08900 50.87500 30.80500
H  16.92500 53.30100 32.64800
H  18.18800 52.47500 31.93500
H  18.58400 51.71800 34.12700
H  17.26200 50.63200 33.77800
H  11.18400 54.79700 29.40300
H  10.18900 54.39000 28.00500
H  10.83500 55.97500 28.03000
H  10.41300 56.63900 26.07700
H  9.78100 55.07900 26.11700
H  9.54600 56.03900 24.59400
H  16.18200 53.93100 22.49400
H  16.91300 50.92700 22.43400
H  13.97100 52.15200 21.85200
H  15.33500 51.64600 20.85700
H  14.79000 53.26400 20.78400
H  18.39700 52.80600 21.04000
H  19.13200 51.61500 22.16400
H  19.05900 54.73200 22.46100
H  20.18900 53.52200 23.10400
H  18.64700 53.82900 23.79000
H  20.59200 49.23400 25.11900
H  21.02700 48.44300 26.57500
H  21.87200 49.91700 26.08800
H  19.40500 51.19600 30.96700
H  18.02900 47.96800 33.87300
H  19.49200 48.69700 34.53800
H  19.60100 47.47000 33.31400

