158

Mg 44.13800 4.24900 47.76200
C  42.12300 7.10400 47.53900
C  41.23100 2.38800 48.04000
C  45.88500 1.44600 47.16000
C  46.95600 6.22900 47.20500
N  41.86600 4.69800 47.79400
C  41.34200 5.96400 47.64500
C  39.81200 5.91300 47.50200
C  39.52800 4.36300 47.77800
C  40.94900 3.75000 47.85100
C  38.65100 4.00300 48.97500
C  39.14800 6.44800 46.16900
C  39.84300 6.23900 44.77500
H  39.77800 7.42000 43.75800
N  43.66000 2.23300 47.51200
C  42.42900 1.62700 47.77800
C  42.50400 0.25300 47.47000
C  43.89200 -0.04400 47.21800
C  44.52600 1.21500 47.27000
C  41.24900 -0.70000 47.45900
C  44.46700 -1.31300 46.75800
O  43.71900 -2.27400 46.63000
C  45.94100 -1.62400 46.31100
N  46.13000 3.92000 47.23400
C  46.65000 2.62500 47.23200
C  48.16700 2.64200 47.14900
C  48.57800 4.13500 47.07000
C  47.18500 4.82000 47.21600
C  48.83900 2.00100 48.43600
C  49.18500 4.49900 45.68900
C  50.63300 4.97100 45.73000
N  44.49300 6.23100 47.57700
C  45.69900 6.96500 47.33400
C  45.45600 8.39500 47.17900
C  44.05300 8.45000 47.31200
C  43.51900 7.20900 47.54200
C  46.44900 9.47700 46.94900
C  42.93500 9.38000 47.32200
O  43.00500 10.60000 47.15400
C  41.61500 8.52900 47.49500
C  40.97700 8.94200 48.81600
O  40.96700 8.31500 49.85600
O  40.18500 10.11700 48.58600
C  39.25300 10.46600 49.67900
H  40.30300 1.84100 48.22100
H  46.58800 0.61200 47.20600
H  47.84400 6.83800 47.02200
H  39.43600 6.44600 48.37500
H  39.10100 3.96300 46.85800
H  39.09300 3.09300 49.38000
H  37.57100 3.88900 48.88000
H  38.73100 4.67500 49.82900
H  38.79300 7.44500 46.42800
H  38.22500 5.88200 46.04100
H  39.41000 5.38100 44.26000
H  40.89400 5.98300 44.90500
H  40.99000 -0.85300 46.41200
H  40.44100 -0.22100 48.01300
H  41.51100 -1.66300 47.89800
H  46.55200 -1.67300 47.21200
H  46.26800 -0.76000 45.73300
H  46.01300 -2.58200 45.79500
H  48.43800 2.04800 46.27700
H  49.20400 4.39000 47.92500
H  49.12100 0.95100 48.35200
H  48.12500 1.88000 49.25000
H  49.71600 2.46500 48.88800
H  48.65300 5.37200 45.31200
H  49.03200 3.70400 44.95800
H  50.81100 5.42600 44.75500
H  51.34200 4.15300 45.85900
H  50.78500 5.69600 46.52900
H  46.67700 9.98200 47.88700
H  46.08700 10.20800 46.22500
H  47.45900 9.11900 46.74800
H  40.92300 8.64800 46.66200
H  39.62900 11.24300 50.34500
H  39.09200 9.58500 50.30100
H  38.34900 10.86000 49.21500
Mg 53.59500 24.16400 44.19300
C  50.89200 26.46900 43.38300
C  51.73200 21.69800 42.63100
C  56.28600 22.39600 44.26900
C  55.42400 26.95600 45.46900
N  51.65000 24.22300 43.00200
C  50.67400 25.17000 42.86100
C  49.50700 24.62500 42.07500
C  49.66900 23.05400 42.38800
C  51.13500 22.94500 42.62100
C  48.79000 22.47600 43.51600
C  49.56300 24.95600 40.52200
C  50.67300 25.82200 39.87500
H  51.71800 25.11600 39.03300
N  53.96600 22.23400 43.57100
C  53.04600 21.34500 43.02500
C  53.65900 20.00300 43.09000
C  54.96800 20.18400 43.62700
C  55.13500 21.69200 43.79500
C  52.96800 18.73100 42.65000
C  55.88100 19.13600 44.02400
O  55.62300 17.98700 43.66400
C  57.17500 19.27400 44.82200
N  55.66500 24.61100 44.68100
C  56.59000 23.72200 44.49000
C  57.95600 24.31500 45.00300
C  57.72200 25.82800 45.25700
C  56.18400 25.79800 45.22900
C  58.55000 23.70100 46.27600
C  58.20800 26.88700 44.25400
C  58.86200 28.24700 44.78500
N  53.21300 26.25100 44.53600
C  54.02900 27.22800 45.10800
C  53.23900 28.45400 45.23800
C  52.02600 28.16600 44.56500
C  52.09000 26.85700 44.03100
C  53.74500 29.63900 45.97700
C  50.73000 28.77800 44.23400
O  50.26000 29.88300 44.49300
C  49.96500 27.67600 43.37200
C  49.68500 28.26900 42.08000
O  50.53600 28.70400 41.34300
O  48.35600 28.21400 41.75300
C  47.75400 28.74500 40.48700
H  51.17300 20.84600 42.23900
H  57.20900 21.81900 44.35000
H  55.89200 27.89300 45.77900
H  48.57500 25.08800 42.39600
H  49.40500 22.59200 41.43600
H  47.98000 23.13700 43.82300
H  49.40900 22.11800 44.33900
H  48.21700 21.63900 43.11500
H  48.69800 25.56000 40.24600
H  49.40800 23.98200 40.05700
H  51.19700 26.46000 40.58600
H  50.23600 26.64400 39.30700
H  52.83300 18.32400 43.65200
H  53.57600 18.02700 42.08100
H  52.03700 18.87900 42.10200
H  57.32700 18.35700 45.39100
H  57.02700 20.10300 45.51400
H  57.93200 19.51700 44.07500
H  58.68700 24.18100 44.20500
H  58.02900 26.20600 46.23200
H  59.63300 23.61100 46.18600
H  58.15000 22.71600 46.51700
H  58.37500 24.24900 47.20200
H  57.40000 26.97500 43.52700
H  59.01900 26.41500 43.70000
H  58.68900 28.36600 45.85400
H  58.41000 29.08500 44.25500
H  59.91300 28.34300 44.51100
H  54.57200 30.05600 45.40100
H  54.00800 29.36000 46.99700
H  52.86800 30.26800 46.12900
H  49.02100 27.44100 43.86400
H  48.38100 28.48200 39.63500
H  47.53800 29.81200 40.52000
H  46.73100 28.37200 40.45100

