158

Mg 34.97600 2.28900 29.89400
C  32.68100 3.22600 32.34800
C  37.52200 2.81700 32.28600
C  37.09100 1.38900 27.52900
C  32.31900 2.40600 27.56000
N  35.05300 2.90800 32.08900
C  34.00800 3.11000 32.86300
C  34.34700 3.23400 34.32700
C  35.91000 3.45300 34.26300
C  36.23400 3.02100 32.80000
C  36.34200 4.88000 34.65900
C  33.81300 1.94900 35.10100
C  33.44800 2.17500 36.63500
H  34.33400 3.22400 37.25100
N  36.97800 2.07100 29.84700
C  37.81900 2.28300 30.92500
C  39.19800 1.87700 30.47300
C  39.04800 1.32100 29.16600
C  37.66200 1.55000 28.84000
C  40.40400 2.06200 31.41600
C  40.12200 0.63200 28.31500
O  39.84500 0.15000 27.24900
C  41.58300 0.42200 28.86200
N  34.79300 2.17300 27.77600
C  35.79300 1.60000 27.06300
C  35.49100 1.52400 25.57900
C  33.86500 1.55800 25.64400
C  33.60900 2.12600 27.04600
C  36.06400 2.67900 24.70000
C  33.14700 0.21900 25.31500
C  31.73100 0.23900 24.68900
N  32.88800 2.68500 29.89800
C  31.93800 2.70700 28.88700
C  30.65900 2.90200 29.42800
C  30.89900 3.16000 30.83700
C  32.27000 3.03800 31.00900
C  29.33100 3.18700 28.60600
C  30.21800 3.50600 32.12600
O  29.05100 3.61500 32.41900
C  31.43500 3.54400 33.17400
C  31.35100 4.82000 33.87000
O  31.58500 5.94200 33.44700
O  31.12200 4.62500 35.14900
C  30.90900 5.81900 36.05200
H  38.30400 2.97500 33.03200
H  37.81000 1.05200 26.77900
H  31.55800 2.24200 26.79500
H  33.91700 4.19200 34.62200
H  36.50700 2.81200 34.91200
H  36.87500 5.25300 33.78500
H  37.02300 4.88200 35.51100
H  35.55000 5.58100 34.92400
H  34.45700 1.07700 34.98100
H  32.91100 1.52800 34.65800
H  33.57300 1.28200 37.24800
H  32.45500 2.62400 36.67000
H  40.07300 2.85400 32.08800
H  41.36600 2.36600 31.00400
H  40.53600 1.13200 31.97100
H  41.59800 0.34000 29.94900
H  42.12500 1.35900 28.74000
H  42.07600 -0.44200 28.41600
H  35.99900 0.63900 25.19500
H  33.50200 2.36300 25.00400
H  36.94300 3.10400 25.18300
H  35.29900 3.44000 24.54700
H  36.31500 2.24600 23.73200
H  33.07300 -0.26600 26.28800
H  33.78100 -0.46200 24.74600
H  31.81300 -0.28900 23.73900
H  31.40200 1.26500 24.52700
H  30.98200 -0.25300 25.31000
H  29.40500 2.76100 27.60600
H  29.20000 4.26900 28.58900
H  28.47800 2.89400 29.21800
H  31.13200 2.82000 33.93000
H  29.83500 5.86900 36.23000
H  31.13700 6.81000 35.65800
H  31.33600 5.55500 37.01900
Mg 27.35100 50.81500 26.41800
C  25.48100 51.72100 29.29400
C  29.94700 49.82200 28.52100
C  29.03700 50.06900 23.73200
C  24.65300 52.08900 24.44400
N  27.67800 50.93800 28.66900
C  26.78000 51.27800 29.64100
C  27.33000 51.07900 31.09400
C  28.81900 50.63200 30.75600
C  28.80200 50.40500 29.19600
C  29.86600 51.75900 31.16500
C  26.51500 50.13600 32.04600
C  25.86200 50.84000 33.27100
H  26.53600 50.62100 34.53400
N  29.23200 50.11100 26.10500
C  30.13400 49.63500 27.12900
C  31.33000 49.21000 26.43300
C  31.13100 49.35500 25.03600
C  29.72100 49.89300 24.88700
C  32.46400 48.57700 27.20100
C  32.13600 48.95000 23.91300
O  31.89400 49.00700 22.68700
C  33.51700 48.47600 24.26900
N  26.95400 51.21300 24.37400
C  27.68900 50.53200 23.46100
C  27.11400 50.61500 21.98400
C  25.69700 51.13800 22.33600
C  25.80600 51.62900 23.76900
C  28.11600 51.46500 21.10600
C  24.61000 50.03600 22.29100
C  23.51400 50.16900 21.22400
N  25.55100 51.80300 26.74300
C  24.48600 52.20700 25.86000
C  23.45200 52.73800 26.62300
C  23.78600 52.50200 27.97500
C  25.04100 51.86100 27.98000
C  22.19000 53.42200 26.02600
C  23.24300 52.60500 29.31600
O  22.17600 53.12900 29.67700
C  24.33900 52.14500 30.20900
C  24.74600 53.26600 31.12600
O  25.52200 54.14900 30.84200
O  23.97600 53.14200 32.33200
C  24.25100 54.11600 33.33600
H  30.75700 49.49000 29.17300
H  29.57100 49.70800 22.85000
H  23.70900 52.22500 23.91200
H  27.19900 52.10700 31.43100
H  29.22300 49.78600 31.31100
H  30.16600 52.30100 30.26900
H  30.80700 51.38000 31.56300
H  29.40500 52.40600 31.91200
H  27.25300 49.46600 32.48700
H  25.73400 49.70000 31.42300
H  24.80000 50.59900 33.21400
H  25.97100 51.92000 33.16800
H  32.37900 47.50200 27.03800
H  32.38000 48.77200 28.27000
H  33.42500 48.93900 26.83600
H  34.00800 48.12200 23.36200
H  33.42500 47.61700 24.93400
H  33.94100 49.27300 24.88000
H  27.02700 49.61400 21.56200
H  25.46200 51.90900 21.60300
H  29.04700 51.69900 21.62200
H  27.69200 52.39000 20.71500
H  28.41500 50.84000 20.26400
H  24.08000 49.92600 23.23700
H  25.12700 49.09400 22.10900
H  23.65000 51.14800 20.76300
H  22.52000 50.31200 21.64800
H  23.56200 49.40700 20.44700
H  22.53700 54.35300 25.57700
H  21.39800 53.60300 26.75300
H  21.62100 52.83200 25.30900
H  24.03800 51.26400 30.77600
H  25.30700 54.38700 33.34200
H  23.99700 53.86900 34.36700
H  23.80400 55.09200 33.14800

