158

Mg 24.23600 -5.83700 46.16600
C  26.21900 -3.18600 44.86500
C  21.75200 -4.93700 44.12600
C  22.77600 -8.80000 47.00200
C  27.13600 -6.72600 48.05400
N  24.11200 -4.21700 44.68900
C  24.97200 -3.23500 44.39800
C  24.23800 -2.18700 43.47100
C  22.71700 -2.62000 43.53200
C  22.87800 -4.03800 44.11300
C  21.71900 -1.72200 44.30600
C  24.79900 -2.18200 41.96500
C  25.28800 -0.80700 41.41200
H  25.10900 -0.61700 39.94600
N  22.49300 -6.76000 45.52900
C  21.61100 -6.20100 44.75700
C  20.40500 -7.12700 44.60900
C  20.72600 -8.23900 45.44600
C  22.06500 -7.97700 46.07100
C  19.19200 -6.92600 43.76600
C  19.91100 -9.45600 45.83500
O  18.80000 -9.47800 45.30700
C  20.31100 -10.53900 46.86600
N  24.82200 -7.52500 47.36500
C  24.09000 -8.64700 47.52700
C  24.74600 -9.65200 48.49400
C  26.19400 -9.06000 48.75800
C  26.04600 -7.62800 48.08400
C  23.91500 -10.19600 49.67300
C  27.35900 -9.90200 48.10600
C  28.68300 -9.69100 48.89800
N  26.27200 -5.13600 46.42600
C  27.30800 -5.55400 47.24200
C  28.44400 -4.65700 47.12600
C  28.03900 -3.70500 46.21800
C  26.73500 -4.04400 45.82200
C  29.74700 -4.76100 48.04500
C  28.46700 -2.46900 45.59400
O  29.46700 -1.79400 45.70800
C  27.31300 -2.14300 44.67800
C  26.75400 -0.75400 44.91700
O  26.03300 -0.44100 45.83300
O  27.33300 0.09200 44.04400
C  27.18200 1.53400 44.29600
H  20.83900 -4.72700 43.56500
H  22.49200 -9.78300 47.38400
H  27.97200 -7.08900 48.65600
H  24.20900 -1.22800 43.98800
H  22.28700 -2.69400 42.53300
H  20.92000 -1.35200 43.66400
H  22.14600 -0.85100 44.80400
H  21.27300 -2.33600 45.08900
H  24.08700 -2.57900 41.24100
H  25.67700 -2.82600 41.93600
H  26.36000 -0.73900 41.60100
H  24.67200 -0.02400 41.85400
H  18.37300 -6.45800 44.31100
H  18.75800 -7.83300 43.34600
H  19.44600 -6.14000 43.05500
H  19.44800 -11.14500 47.14300
H  20.43300 -9.92700 47.76000
H  21.22700 -11.03500 46.54200
H  24.83400 -10.48600 47.79700
H  26.39500 -8.87400 49.81300
H  22.87700 -9.86300 49.68600
H  24.38600 -9.86500 50.59800
H  23.91200 -11.28400 49.61300
H  27.46000 -9.48500 47.10300
H  27.03900 -10.94000 48.02400
H  29.10900 -10.69300 48.95600
H  28.48000 -9.31800 49.90200
H  29.36300 -9.14500 48.24400
H  30.12700 -3.76800 48.28500
H  30.57900 -5.31900 47.61400
H  29.44800 -5.22100 48.98700
H  27.72500 -2.04400 43.67300
H  26.14000 1.80900 44.13300
H  27.90700 2.01400 43.63900
H  27.41800 1.74200 45.33900
Mg -1.20700 34.87000 27.47300
C  -2.89400 33.09800 29.95900
C  -0.05400 37.07500 29.81300
C  -0.12200 36.88100 24.97300
C  -2.52200 32.67300 25.06300
N  -1.57500 35.08900 29.71200
C  -2.17800 34.19500 30.52200
C  -2.06600 34.67000 32.00500
C  -1.30800 36.01300 31.82600
C  -0.87900 36.06000 30.38700
C  -2.12800 37.29400 32.31300
C  -1.32200 33.61900 32.91600
C  -1.92700 33.44700 34.31600
H  -0.97600 33.43300 35.46100
N  -0.07500 36.57800 27.43100
C  0.29500 37.32900 28.50200
C  1.10800 38.43300 28.04300
C  1.01400 38.51500 26.65100
C  0.30600 37.27100 26.28200
C  1.85300 39.36500 29.02400
C  1.70200 39.44300 25.62900
O  1.40300 39.44300 24.44400
C  2.96800 40.23700 25.98100
N  -1.27300 34.76400 25.35900
C  -0.82900 35.78000 24.49500
C  -1.34300 35.62600 23.10900
C  -1.77700 34.13900 23.16000
C  -1.89200 33.85000 24.60100
C  -2.56300 36.57400 22.87400
C  -0.98000 33.12900 22.31800
C  0.31700 32.55800 22.82800
N  -2.45900 33.27100 27.42600
C  -2.82400 32.40100 26.40700
C  -3.71900 31.41000 26.92200
C  -3.70400 31.51300 28.31900
C  -3.02000 32.74700 28.60100
C  -4.38500 30.35700 25.98800
C  -4.09300 30.94400 29.62200
O  -4.73100 29.89300 29.85100
C  -3.66800 31.95700 30.76900
C  -4.82400 32.41300 31.51000
O  -5.76600 33.09200 31.08500
O  -4.67800 31.99700 32.81100
C  -5.81500 32.42300 33.66200
H  0.30100 37.73100 30.61100
H  0.14700 37.59200 24.19000
H  -2.77900 31.98100 24.25900
H  -3.09800 34.77600 32.34000
H  -0.33600 36.04800 32.31800
H  -1.40900 37.99800 32.73200
H  -2.83400 37.05900 33.10900
H  -2.72400 37.72200 31.50700
H  -0.40300 34.14500 33.17400
H  -1.26900 32.68300 32.36000
H  -2.39200 32.46100 34.30400
H  -2.81500 34.07600 34.37500
H  2.93200 39.21700 29.07900
H  1.54400 39.08500 30.03100
H  1.58500 40.37100 28.70100
H  2.71500 40.90300 26.80500
H  3.32000 40.92300 25.21100
H  3.86500 39.71300 26.31300
H  -0.59800 35.85300 22.34700
H  -2.80800 34.01600 22.82600
H  -2.50000 37.42000 23.55900
H  -3.55300 36.11900 22.87900
H  -2.59600 37.03700 21.88800
H  -0.77300 33.55100 21.33400
H  -1.66300 32.29800 22.14300
H  0.76700 33.18700 23.59600
H  0.94000 32.47100 21.93800
H  0.06700 31.56300 23.19600
H  -4.50400 29.43600 26.55900
H  -3.76900 30.04300 25.14500
H  -5.32500 30.65800 25.52500
H  -2.93400 31.41500 31.36500
H  -6.58400 33.08200 33.26000
H  -5.37800 32.73200 34.61200
H  -6.33900 31.54300 34.03600

