158

Mg 9.93100 48.07100 26.01700
C  7.71400 48.15200 28.78200
C  12.34800 49.41100 27.95700
C  11.89800 47.43100 23.49400
C  7.16500 47.46000 23.97700
N  10.02000 48.63700 28.14800
C  9.02300 48.48500 29.11200
C  9.62100 48.86200 30.49400
C  10.91300 49.61700 30.06800
C  11.16600 49.07500 28.65200
C  10.85100 51.18500 30.15100
C  9.90000 47.68000 31.48200
C  9.27700 47.92300 32.89700
H  9.02600 46.72800 33.77400
N  11.89200 48.45000 25.72400
C  12.72500 49.00800 26.66300
C  14.09600 48.91200 26.12500
C  13.97700 48.28900 24.86800
C  12.55600 48.05500 24.63700
C  15.19600 49.28400 27.03100
C  15.05400 48.11900 23.85200
O  14.76900 47.89600 22.67400
C  16.50500 48.16200 24.20400
N  9.58800 47.79000 23.87700
C  10.57100 47.28300 23.13400
C  10.10400 46.64000 21.80900
C  8.61500 46.78100 21.94600
C  8.45100 47.34500 23.36300
C  10.74300 47.20000 20.45600
C  7.80200 45.44200 21.60900
C  6.47200 45.69000 20.83400
N  7.85200 48.00200 26.22700
C  6.87800 47.71300 25.31300
C  5.62800 47.57400 25.99400
C  5.89300 47.72100 27.35000
C  7.25800 47.99500 27.43400
C  4.34600 47.20200 25.32600
C  5.28900 47.81500 28.68500
O  4.13500 47.74900 29.05100
C  6.46900 47.99000 29.61700
C  6.55900 46.70800 30.43900
O  7.01500 45.62500 30.09900
O  5.85400 46.91400 31.62900
C  5.51300 45.76400 32.49800
H  13.12400 49.97500 28.47900
H  12.68500 46.93600 22.92100
H  6.26600 47.25700 23.39100
H  8.96200 49.59800 30.95600
H  11.83000 49.27100 30.54400
H  11.26400 51.37800 31.14100
H  9.85100 51.61900 30.14400
H  11.51600 51.66000 29.43000
H  10.91300 47.30800 31.63300
H  9.43200 46.76000 31.12900
H  8.34100 48.46800 32.77100
H  9.79400 48.70900 33.44700
H  15.85800 48.42400 27.13600
H  14.92000 49.66700 28.01300
H  15.85400 50.05800 26.63800
H  16.84400 49.13300 24.56600
H  17.24800 47.74700 23.52400
H  16.57300 47.48300 25.05400
H  10.23900 45.55900 21.83100
H  8.27800 47.58600 21.29400
H  10.03800 47.51400 19.68700
H  11.33300 46.41500 19.98400
H  11.42000 48.02700 20.67100
H  7.44000 45.00600 22.54000
H  8.47300 44.68700 21.19900
H  6.37000 46.74700 20.58900
H  5.64400 45.29200 21.42100
H  6.57000 45.16900 19.88100
H  3.61200 47.19600 26.13300
H  4.29000 46.27500 24.75700
H  4.10000 48.01000 24.63700
H  6.16900 48.80800 30.27200
H  4.50400 45.92700 32.87700
H  6.12700 45.88300 33.39100
H  5.60400 44.76600 32.07100
Mg -12.96500 16.41300 42.33500
C  -9.85400 14.81900 41.72300
C  -11.95200 19.10000 40.51300
C  -16.13800 17.41200 42.30900
C  -14.08400 13.21500 43.61000
N  -11.07100 16.95500 41.37800
C  -9.91400 16.19000 41.23900
C  -8.83600 17.00700 40.50100
C  -9.53000 18.38600 40.31700
C  -10.93200 18.14800 40.70800
C  -8.90600 19.43900 41.33300
C  -8.48200 16.40000 39.10800
C  -6.94100 16.30000 38.87100
H  -6.39000 15.09600 38.16300
N  -13.91000 18.09200 41.59500
C  -13.27500 19.09200 40.89600
C  -14.29100 20.12800 40.56800
C  -15.50700 19.76400 41.18400
C  -15.22700 18.35500 41.70300
C  -13.97700 21.41100 39.81100
C  -16.80900 20.57600 41.21800
O  -16.85400 21.70800 40.69900
C  -18.00500 20.02400 41.90500
N  -14.80600 15.44900 42.75400
C  -16.05300 16.09800 42.79800
C  -17.23500 15.16600 43.12000
C  -16.51600 13.95900 43.69300
C  -15.02700 14.13500 43.19300
C  -18.29200 15.84500 44.13300
C  -17.07500 12.53000 43.34500
C  -16.95400 11.44700 44.36800
N  -12.20300 14.37700 42.63700
C  -12.74300 13.22600 43.23300
C  -11.68300 12.25100 43.41900
C  -10.53600 12.88600 42.86500
C  -10.96600 14.12700 42.37800
C  -11.90700 10.98100 44.13400
C  -9.08300 12.77900 42.66700
O  -8.31500 11.88400 42.97200
C  -8.57500 14.08100 41.91700
C  -7.53900 14.66200 42.81000
O  -7.75800 15.03400 43.95100
O  -6.35800 14.96700 42.18100
C  -5.39600 15.86200 42.81800
H  -11.79200 19.99900 39.91400
H  -17.16500 17.77600 42.23600
H  -14.29600 12.22400 44.01600
H  -7.88900 17.00100 41.04000
H  -9.38800 18.82600 39.33000
H  -9.70100 19.93500 41.88900
H  -8.51200 20.24600 40.71600
H  -8.17300 18.98600 42.00000
H  -8.83800 16.97700 38.25400
H  -8.86400 15.38700 38.98300
H  -6.36300 16.39500 39.79000
H  -6.70600 17.22800 38.34900
H  -14.81300 21.68300 39.16700
H  -13.21500 21.20800 39.05800
H  -13.66800 22.21300 40.48100
H  -18.37400 19.20300 41.29100
H  -18.80100 20.76300 41.81400
H  -17.89600 19.75300 42.95500
H  -17.73700 14.93200 42.18100
H  -16.48800 14.06000 44.77800
H  -19.25800 15.36800 43.96700
H  -18.32600 16.91900 43.95100
H  -17.95400 15.66500 45.15300
H  -16.37600 12.29200 42.54300
H  -18.07800 12.77900 43.00000
H  -17.92600 10.99800 44.57200
H  -16.56100 11.95800 45.24700
H  -16.22300 10.68100 44.11000
H  -10.90400 10.61100 44.34600
H  -12.47800 10.29600 43.50600
H  -12.42600 11.09400 45.08500
H  -8.12700 13.60500 41.04500
H  -4.83000 15.36700 43.60600
H  -5.88900 16.77400 43.15400
H  -4.57000 16.18000 42.18200

