158

Mg -2.45900 17.45400 25.75400
C  -2.75500 15.24300 28.59900
C  -3.18900 19.99600 27.85200
C  -2.00600 19.45500 23.09400
C  -1.87400 14.65000 23.76900
N  -2.94700 17.56500 27.97300
C  -2.89500 16.60700 28.97500
C  -3.20800 17.16100 30.36600
C  -3.88000 18.55600 29.88400
C  -3.27200 18.76100 28.50400
C  -5.46000 18.50700 29.81900
C  -1.96700 17.38400 31.22200
C  -2.28400 18.07500 32.53200
H  -1.86000 17.26700 33.77100
N  -2.45500 19.43600 25.58100
C  -2.72300 20.35800 26.57900
C  -2.66600 21.71700 25.96900
C  -2.38400 21.52300 24.57000
C  -2.26300 20.07900 24.38300
C  -2.95700 23.00100 26.82100
C  -2.39300 22.60400 23.49900
O  -2.50300 22.38000 22.29000
C  -2.44700 24.07900 23.88600
N  -2.08800 17.01900 23.67400
C  -1.96200 18.07800 22.77100
C  -1.59000 17.52600 21.33700
C  -1.51100 15.98200 21.63300
C  -1.86100 15.80300 23.11800
C  -2.71900 17.89600 20.34000
C  0.00400 15.56000 21.28200
C  1.21200 16.07300 22.14900
N  -2.48700 15.34200 26.06700
C  -2.15700 14.32000 25.14300
C  -2.20800 13.11900 25.78000
C  -2.28900 13.41000 27.23200
C  -2.51700 14.76200 27.33600
C  -2.11200 11.78400 25.17100
C  -2.35300 12.84200 28.51100
O  -2.12200 11.70600 28.83300
C  -2.72800 13.99400 29.50700
C  -1.58900 13.99900 30.44100
O  -0.42400 14.38400 30.24900
O  -1.95400 13.31800 31.54100
C  -0.85200 12.63800 32.32800
H  -3.40500 20.83400 28.51800
H  -1.88400 20.11900 22.23500
H  -1.61500 13.74100 23.22200
H  -3.98500 16.57200 30.85400
H  -3.50300 19.46100 30.36100
H  -5.87400 19.25300 30.49700
H  -5.78600 17.48900 30.03600
H  -5.78500 18.66100 28.79000
H  -1.42000 18.04500 30.54900
H  -1.39700 16.46200 31.33000
H  -3.35400 18.27400 32.59700
H  -1.81700 19.05900 32.47000
H  -3.18700 22.84500 27.87500
H  -3.83100 23.52500 26.43300
H  -2.11100 23.66100 26.63000
H  -2.51000 24.60400 22.93200
H  -1.61300 24.40700 24.50600
H  -3.42800 24.25400 24.32700
H  -0.64400 18.03400 21.14900
H  -2.10800 15.27200 21.06100
H  -3.50900 18.36200 20.92900
H  -3.25800 17.08900 19.84300
H  -2.25700 18.47400 19.54100
H  0.16600 15.98800 20.29300
H  -0.01100 14.50300 21.01900
H  1.77000 16.82700 21.59500
H  1.79100 15.17900 22.38400
H  0.90200 16.64500 23.02300
H  -1.44200 11.65900 24.32100
H  -3.14100 11.43800 25.07000
H  -1.61300 11.13200 25.88800
H  -3.57900 13.58000 30.04900
H  -0.08700 13.33700 32.66700
H  -0.37200 11.94700 31.63500
H  -1.26700 12.02800 33.13000
Mg 48.01000 35.29600 28.13700
C  46.34700 33.80000 30.83900
C  48.31300 38.19400 30.06300
C  49.51300 36.87800 25.42800
C  47.35700 32.64300 26.08700
N  47.36600 35.92400 30.20200
C  46.92900 35.06600 31.16400
C  46.96200 35.81100 32.52400
C  47.16000 37.36300 32.14500
C  47.78700 37.11400 30.78300
C  45.94400 38.23700 32.01100
C  48.12200 35.30000 33.47300
C  47.82100 34.98900 34.96900
H  47.35700 36.20100 35.81500
N  48.90000 37.22900 27.80400
C  48.89600 38.28500 28.78200
C  49.70600 39.34900 28.26500
C  50.08600 38.92500 26.94000
C  49.47400 37.58800 26.65100
C  49.94000 40.65900 28.92600
C  50.94500 39.66200 25.93200
O  51.32200 39.07800 24.91900
C  51.34000 41.16600 26.12000
N  48.13000 34.95700 25.91800
C  48.91800 35.68800 25.05900
C  48.89000 35.08100 23.64600
C  48.43300 33.65800 23.97400
C  47.91200 33.69300 25.41500
C  47.99400 35.97000 22.77700
C  49.60100 32.53500 23.92300
C  49.08600 31.15100 23.45700
N  47.08100 33.56500 28.47000
C  46.83400 32.57200 27.49100
C  46.02300 31.49800 28.07700
C  45.81400 31.95300 29.44000
C  46.43700 33.22400 29.56600
C  45.63000 30.13100 27.49700
C  45.29600 31.51100 30.76300
O  44.83400 30.44800 31.15900
C  45.51700 32.80800 31.67500
C  46.04900 32.29300 32.93800
O  47.10400 31.75400 33.05200
O  44.99200 32.31600 33.93800
C  45.37800 31.86700 35.29900
H  48.31300 39.17700 30.53700
H  50.08300 37.35200 24.62500
H  47.27400 31.80900 25.38700
H  45.97900 35.62800 32.95900
H  47.88000 37.89800 32.76400
H  45.63100 38.62100 32.98200
H  45.13000 37.64600 31.59100
H  46.10200 39.08200 31.34100
H  48.98000 35.95900 33.33800
H  48.54800 34.40900 33.01100
H  48.79400 34.69000 35.35900
H  47.07600 34.19500 35.01300
H  49.17700 41.38800 28.65400
H  50.90500 41.08600 28.65100
H  49.91700 40.55000 30.01100
H  52.23100 41.35600 26.71800
H  50.44100 41.64000 26.51200
H  51.57200 41.58600 25.14100
H  49.84500 35.25700 23.15000
H  47.66800 33.35100 23.26100
H  48.67000 36.32300 21.99800
H  47.80900 36.93500 23.25100
H  47.16100 35.42200 22.33700
H  49.93500 32.38900 24.95000
H  50.44600 32.86000 23.31500
H  49.63000 30.80900 22.57700
H  48.07700 31.32900 23.08500
H  48.98900 30.35100 24.19100
H  46.08600 29.34100 28.09300
H  46.10100 30.05600 26.51700
H  44.54900 30.02900 27.39900
H  44.54200 33.21600 31.94300
H  45.07100 30.85300 35.55300
H  44.81100 32.54500 35.93600
H  46.41900 32.12400 35.49300

