158

Mg 9.14600 2.62300 27.65100
C  10.58700 1.17600 30.68900
C  7.19200 4.47900 29.67200
C  7.93900 3.95500 24.83400
C  10.63800 0.06700 25.83700
N  8.94900 2.79300 29.85200
C  9.76100 2.29500 30.87100
C  9.44600 2.92600 32.17700
C  8.17500 3.74700 31.92700
C  7.98000 3.63000 30.38400
C  6.88200 3.24000 32.63900
C  10.75400 3.72900 32.63000
C  10.95300 3.90300 34.12900
H  9.84100 3.45800 35.09800
N  7.81800 4.11900 27.35100
C  7.09600 4.77000 28.23600
C  6.39100 5.87700 27.57900
C  6.50300 5.67100 26.15800
C  7.47900 4.52700 26.03500
C  5.56900 6.89500 28.32400
C  5.92900 6.44100 24.99400
O  6.34200 6.34700 23.85400
C  4.91200 7.43500 25.36000
N  9.25400 2.11300 25.61500
C  8.67700 2.80300 24.63800
C  9.01000 2.26000 23.22000
C  9.93500 1.02600 23.57100
C  10.05300 1.09500 25.15100
C  7.83700 1.87300 22.28300
C  11.38900 0.87700 22.92200
C  11.57800 1.42100 21.54300
N  10.27500 0.89800 28.13100
C  10.78000 -0.04500 27.26300
C  11.58000 -0.98400 28.03700
C  11.56200 -0.55800 29.37500
C  10.73500 0.59700 29.38900
C  12.36600 -2.06000 27.44100
C  12.14700 -0.76300 30.72800
O  12.85000 -1.62000 31.11600
C  11.63800 0.39900 31.60500
C  11.10900 -0.14300 32.90300
O  10.05000 -0.77200 33.04900
O  12.04000 0.04300 33.88700
C  11.74400 -0.48600 35.21500
H  6.73400 5.21600 30.33600
H  7.61800 4.44100 23.91000
H  11.03500 -0.76500 25.25300
H  9.18700 2.09400 32.83100
H  8.29400 4.78600 32.23300
H  6.56300 4.02500 33.32400
H  7.00700 2.38100 33.29900
H  6.17800 2.90400 31.87800
H  10.71400 4.72500 32.19000
H  11.67400 3.26500 32.27400
H  10.99400 4.98200 34.27800
H  11.93100 3.55300 34.45900
H  5.57900 7.88000 27.85800
H  5.87000 6.99300 29.36700
H  4.52600 6.61600 28.46900
H  5.27100 8.40500 25.70200
H  4.19100 7.19400 26.14100
H  4.29700 7.47700 24.46100
H  9.63200 3.03100 22.76500
H  9.49200 0.04000 23.43400
H  6.96000 1.72200 22.91100
H  8.00600 1.02200 21.62300
H  7.68100 2.67300 21.55800
H  11.51800 -0.20100 23.01300
H  12.01400 1.35500 23.67700
H  12.55400 1.90400 21.53100
H  10.82500 2.15000 21.24400
H  11.65000 0.56200 20.87500
H  12.45100 -1.98900 26.35700
H  11.89600 -2.94500 27.87000
H  13.37300 -1.95300 27.84400
H  12.51600 1.03000 31.74800
H  10.88000 -1.14900 35.26700
H  11.48600 0.24400 35.98300
H  12.65700 -1.02400 35.46800
Mg 31.05000 59.56100 38.45000
C  28.01200 58.07800 37.42900
C  32.73900 57.09100 36.97800
C  33.80700 61.48700 38.70400
C  29.05800 62.66000 38.78900
N  30.42100 57.77500 37.36900
C  29.20100 57.37900 37.02800
C  29.18800 56.04600 36.32500
C  30.69200 55.62600 36.41300
C  31.37900 56.82500 37.04900
C  30.95300 54.26800 37.21700
C  28.62800 56.18700 34.87000
C  27.41300 55.28100 34.49100
H  26.28300 55.98200 33.72700
N  33.06400 59.14800 38.09000
C  33.55400 58.10500 37.46900
C  35.02600 58.24800 37.26900
C  35.41400 59.57200 37.75200
C  34.07100 60.17000 38.22100
C  35.87500 57.17300 36.60300
C  36.78300 60.07100 37.76500
O  37.68000 59.45600 37.22800
C  37.10900 61.37400 38.39900
N  31.37700 61.68700 38.61600
C  32.65200 62.20200 38.75900
C  32.62800 63.74300 38.93800
C  31.17700 64.12800 38.62300
C  30.47300 62.75000 38.77200
C  33.32700 64.32700 40.15600
C  30.80800 64.80100 37.29100
C  30.01200 66.05200 37.46200
N  28.95400 60.19800 38.40600
C  28.39300 61.44700 38.61100
C  26.92500 61.26800 38.46800
C  26.78600 59.91900 38.12000
C  28.02800 59.29400 38.01600
C  25.93800 62.36000 38.68500
C  25.70900 59.02400 37.69700
O  24.50800 59.28200 37.54600
C  26.48800 57.71800 37.27800
C  26.10300 56.58800 38.18300
O  26.69800 56.42200 39.24800
O  25.07000 55.70800 37.77400
C  24.81600 54.56600 38.65700
H  33.26100 56.20200 36.61800
H  34.68100 62.14100 38.68900
H  28.51500 63.60800 38.78700
H  28.54300 55.39400 36.91300
H  31.11500 55.44700 35.42500
H  30.14200 53.56500 37.02900
H  30.98100 54.45600 38.29000
H  31.82200 53.71300 36.86300
H  29.38400 55.92000 34.13000
H  28.46200 57.26400 34.82600
H  26.96900 54.83800 35.38300
H  27.80900 54.46200 33.89000
H  35.25800 56.29500 36.40800
H  36.55800 56.94100 37.42100
H  36.37300 57.39400 35.65900
H  38.18200 61.43100 38.58200
H  36.65700 61.43700 39.38900
H  36.84800 62.19500 37.73200
H  33.16700 63.93200 38.01000
H  30.79600 64.68600 39.47900
H  33.75300 65.28800 39.86800
H  34.11900 63.69700 40.56000
H  32.65200 64.52600 40.98800
H  30.26300 64.10300 36.65500
H  31.67300 65.13300 36.71700
H  28.97300 65.92800 37.15600
H  30.29700 66.82400 36.74800
H  29.95400 66.45800 38.47200
H  26.33600 63.33300 38.97400
H  25.20600 61.99900 39.40800
H  25.43300 62.59200 37.74700
H  26.12700 57.53600 36.26600
H  24.04900 54.73300 39.41300
H  25.67400 54.21300 39.23000
H  24.42100 53.75000 38.05200

