158

Mg 24.83600 -5.77500 46.75900
C  26.96400 -3.41900 45.23600
C  22.21200 -4.40700 44.81400
C  22.93600 -8.58900 47.31700
C  27.44000 -7.11600 48.36300
N  24.65500 -4.29700 44.93300
C  25.65700 -3.37200 44.65700
C  25.12300 -2.31900 43.66700
C  23.57600 -2.37500 43.98700
C  23.44200 -3.74000 44.62100
C  23.13400 -1.25400 44.99800
C  25.51900 -2.86800 42.18100
C  26.34000 -1.94300 41.27900
H  26.18300 -2.05600 39.72900
N  22.81000 -6.41800 46.17900
C  21.94000 -5.75100 45.33500
C  20.69300 -6.39300 45.28100
C  20.79300 -7.69000 45.97800
C  22.25200 -7.61500 46.52400
C  19.62200 -5.88600 44.42700
C  19.82000 -8.83000 46.11700
O  18.71800 -8.68400 45.58800
C  20.10600 -10.05700 46.96200
N  25.08100 -7.60200 47.82600
C  24.22200 -8.67100 47.92100
C  24.88900 -9.79900 48.71600
C  26.31500 -9.20800 49.26100
C  26.27400 -7.88000 48.46200
C  24.10900 -10.31500 49.94800
C  27.69100 -10.07900 49.07500
C  28.55400 -10.10900 50.35200
N  26.75500 -5.33800 46.84600
C  27.76900 -5.98100 47.58800
C  29.06700 -5.27100 47.43600
C  28.74400 -4.29100 46.48000
C  27.39000 -4.39600 46.13800
C  30.28800 -5.64700 48.06800
C  29.31200 -3.18100 45.71200
O  30.44400 -2.73000 45.64700
C  28.17400 -2.60400 44.79700
C  28.02300 -1.12100 45.14400
O  28.68200 -0.22300 44.69700
O  27.02100 -0.91000 46.08200
C  26.98000 0.45100 46.64400
H  21.47600 -3.76000 44.33400
H  22.48500 -9.54100 47.60400
H  28.34800 -7.43900 48.87600
H  25.58200 -1.36200 43.91500
H  23.03600 -2.16600 43.06300
H  23.99100 -0.69400 45.37200
H  22.49900 -1.50300 45.84800
H  22.51800 -0.62500 44.35400
H  24.61400 -3.22700 41.69200
H  26.01700 -3.83100 42.29600
H  27.42000 -1.95000 41.42900
H  25.85000 -0.98800 41.46900
H  19.77100 -6.24000 43.40700
H  19.53100 -4.80000 44.42300
H  18.65200 -6.24700 44.76700
H  20.96600 -10.57400 46.53500
H  19.30000 -10.78300 47.07600
H  20.31300 -9.76000 47.99000
H  25.01900 -10.64300 48.03900
H  26.19000 -8.77200 50.25200
H  23.69200 -11.31200 49.81000
H  23.35500 -9.60400 50.28600
H  24.76300 -10.27200 50.81900
H  28.28600 -9.63200 48.27900
H  27.48200 -11.08200 48.70500
H  29.38900 -9.47900 50.04700
H  29.00600 -11.10000 50.36900
H  28.20300 -9.83700 51.34800
H  30.74700 -4.77200 48.52900
H  30.92100 -5.93400 47.22800
H  30.12400 -6.38700 48.85100
H  28.40400 -2.65000 43.73300
H  26.57700 0.57000 47.65000
H  26.32500 0.98900 45.95800
H  27.89700 1.03700 46.70400
Mg -12.71000 37.54100 41.50200
C  -10.61600 35.17600 40.09800
C  -10.65200 39.87800 40.08300
C  -15.14800 39.80700 41.67700
C  -14.84900 35.05700 42.56500
N  -10.89000 37.49200 40.06300
C  -10.17500 36.44500 39.67300
C  -8.95100 36.83900 38.94600
C  -8.84000 38.39800 39.17100
C  -10.17300 38.64300 39.83400
C  -7.68700 38.92600 40.04300
C  -9.11100 36.37100 37.41900
C  -7.75600 35.65700 36.97700
H  -6.79300 36.57400 36.06100
N  -12.85400 39.62100 41.00700
C  -11.87200 40.36300 40.54900
C  -12.32400 41.73700 40.50600
C  -13.67400 41.78900 40.89900
C  -13.95900 40.34800 41.20100
C  -11.39600 42.80900 40.04200
C  -14.53700 43.08800 40.92500
O  -14.15100 44.17300 40.46400
C  -15.98100 42.99000 41.29600
N  -14.67900 37.42800 42.01200
C  -15.51100 38.52100 41.95400
C  -16.94100 38.06100 42.21500
C  -16.81900 36.62400 42.78300
C  -15.41700 36.34300 42.48600
C  -17.82700 38.88200 43.08100
C  -17.82900 35.56600 42.21800
C  -17.61500 35.11100 40.77100
N  -12.68500 35.62400 41.51400
C  -13.56000 34.72100 42.03500
C  -13.03500 33.40600 41.99000
C  -11.88400 33.50300 41.20700
C  -11.74800 34.84200 40.96700
C  -13.71100 32.21100 42.61900
C  -10.69700 32.80000 40.65500
O  -10.34200 31.68300 40.67900
C  -9.93400 33.82000 39.78500
C  -8.57300 33.80800 40.37200
O  -8.26900 34.32900 41.43700
O  -7.75300 33.25800 39.44100
C  -6.29400 33.13600 39.86400
H  -9.95600 40.59500 39.64200
H  -15.96100 40.51500 41.85100
H  -15.56600 34.30700 42.90500
H  -8.15300 36.30500 39.46200
H  -8.88800 38.97100 38.24500
H  -7.92700 39.32200 41.03000
H  -6.97800 39.57500 39.53100
H  -7.05100 38.05700 40.21300
H  -9.37500 37.25200 36.83400
H  -10.00400 35.77500 37.23100
H  -7.98400 34.80500 36.33600
H  -7.22000 35.36300 37.87900
H  -11.58800 43.78300 40.49200
H  -11.28300 42.87800 38.96000
H  -10.36500 42.60500 40.33400
H  -16.46200 42.21400 40.70000
H  -16.48700 43.94800 41.17800
H  -16.05200 42.68300 42.33900
H  -17.37300 38.02700 41.21500
H  -17.06600 36.62200 43.84500
H  -17.31800 39.35900 43.91900
H  -18.69200 38.33300 43.45200
H  -18.19700 39.77100 42.57000
H  -18.82000 36.01000 42.31000
H  -17.95200 34.70800 42.87900
H  -17.05600 34.17700 40.83700
H  -17.03000 35.82200 40.18700
H  -18.63000 34.99900 40.39100
H  -13.79600 31.40900 41.88600
H  -14.71700 32.44200 42.96900
H  -13.18900 31.89300 43.52200
H  -10.05700 33.57400 38.73000
H  -6.16300 32.85500 40.90900
H  -5.68200 34.00200 39.61000
H  -5.73500 32.35400 39.35000

