158

Mg 41.18000 9.57400 29.53400
C  43.16800 10.49200 32.27300
C  39.07100 7.84500 31.70600
C  39.62500 8.30900 26.87900
C  43.86500 10.54700 27.41700
N  41.14800 9.18900 31.70300
C  41.96500 9.83000 32.66400
C  41.41400 9.63900 34.12500
C  40.30400 8.55600 33.87600
C  40.14800 8.47800 32.35300
C  40.65300 7.24700 34.59900
C  40.87600 11.02100 34.69900
C  41.73400 11.72000 35.69400
H  40.90500 12.35600 36.80600
N  39.49500 8.43200 29.35600
C  38.82700 7.75900 30.31000
C  37.70500 7.14900 29.68700
C  37.73800 7.41500 28.30400
C  39.02200 8.08900 28.10200
C  36.65700 6.29300 30.36500
C  36.79300 7.01500 27.17500
O  36.95500 7.28000 25.98800
C  35.55400 6.23500 27.50600
N  41.71600 9.34600 27.46800
C  40.87300 8.83800 26.57200
C  41.37600 8.94800 25.13400
C  42.57500 9.85700 25.30800
C  42.77600 9.91200 26.84100
C  41.74600 7.61900 24.47000
C  42.46900 11.20400 24.63600
C  43.55100 11.55800 23.57500
N  43.09100 10.40000 29.76200
C  44.04700 10.68700 28.79800
C  45.23700 11.15300 29.44000
C  44.88900 11.19900 30.80000
C  43.61500 10.64600 30.93700
C  46.55100 11.56000 28.84300
C  45.45600 11.53900 32.10900
O  46.48100 12.12500 32.37000
C  44.23800 11.16100 33.17900
C  44.73100 10.40200 34.37600
O  44.84800 9.18200 34.41800
O  44.92000 11.29200 35.37600
C  45.28800 10.55700 36.61200
H  38.42300 7.25300 32.35600
H  39.22900 7.83400 25.97900
H  44.56400 10.96800 26.69000
H  42.21600 9.24500 34.74800
H  39.29000 8.81800 34.17900
H  41.59000 7.29600 35.15400
H  40.75500 6.45100 33.86200
H  39.79400 7.02500 35.23200
H  39.81500 10.86800 34.89400
H  40.89100 11.73000 33.87100
H  42.29600 12.51000 35.19700
H  42.51500 11.06500 36.07900
H  35.68500 6.78500 30.32900
H  36.98200 6.17700 31.39900
H  36.63500 5.30000 29.91700
H  35.98100 5.24500 27.66900
H  34.88200 6.14700 26.65200
H  34.92500 6.67500 28.27900
H  40.60600 9.44400 24.54400
H  43.51700 9.43100 24.96300
H  41.12900 7.52200 23.57700
H  41.39300 6.88800 25.19800
H  42.79200 7.50500 24.18400
H  42.41500 11.98200 25.39800
H  41.48900 11.20300 24.15900
H  43.12800 11.36500 22.59000
H  44.40900 10.89200 23.67100
H  43.85600 12.60100 23.65800
H  46.54600 12.64400 28.73000
H  46.84200 11.03700 27.93200
H  47.20800 11.38300 29.69400
H  43.77400 12.06300 33.57800
H  46.10800 11.07900 37.10600
H  45.67700 9.55900 36.41300
H  44.45900 10.48900 37.31600
Mg 54.03900 23.75900 44.82200
C  51.60200 26.16300 43.90400
C  51.97000 21.30400 43.82900
C  56.72700 21.60000 44.81600
C  56.12900 26.45800 45.62100
N  52.11200 23.79200 43.89100
C  51.29600 24.83800 43.52900
C  49.97200 24.35100 42.98000
C  49.99000 22.84300 43.42600
C  51.45400 22.60300 43.70600
C  49.08300 22.35900 44.66600
C  49.84400 24.51000 41.41400
C  48.34800 24.45500 40.96200
H  48.06400 24.11300 39.49000
N  54.32300 21.67300 44.46900
C  53.27400 20.87700 44.15800
C  53.72000 19.51700 44.30200
C  55.14200 19.50000 44.44100
C  55.48200 20.97800 44.61600
C  52.78000 18.39400 44.33900
C  56.12900 18.36900 44.30800
O  55.68600 17.24600 44.17800
C  57.69000 18.48300 44.15900
N  56.18500 24.05500 44.96500
C  56.98900 22.98300 45.10600
C  58.42700 23.47300 45.34100
C  58.21200 24.95200 45.67700
C  56.73700 25.22200 45.36200
C  59.21800 22.58000 46.41000
C  59.12100 25.94200 44.86900
C  60.24100 26.53700 45.74600
N  53.90100 25.91500 45.02200
C  54.80500 26.85300 45.35600
C  54.22200 28.20100 45.34400
C  52.92400 27.92900 44.78700
C  52.85000 26.52400 44.51200
C  54.70700 29.46400 45.83700
C  51.68900 28.61900 44.38200
O  51.23500 29.77500 44.53500
C  50.84100 27.47700 43.69400
C  50.78200 27.73800 42.29700
O  51.76000 27.85300 41.57800
O  49.48300 27.96800 41.88100
C  49.31600 28.36800 40.48200
H  51.26700 20.47400 43.72300
H  57.53500 20.87300 44.92500
H  56.81900 27.24600 45.93100
H  49.17800 24.88100 43.50600
H  49.68300 22.14700 42.64500
H  49.64100 21.82800 45.43600
H  48.36900 21.59000 44.37000
H  48.57800 23.28300 44.94800
H  50.36500 23.70100 40.90100
H  50.31300 25.46200 41.16600
H  47.91600 25.38500 41.33000
H  47.97200 23.58900 41.50600
H  53.20400 17.52300 44.83800
H  52.36500 18.22100 43.34600
H  51.88400 18.72500 44.86400
H  58.14300 19.16000 43.43600
H  57.88800 17.46400 43.82700
H  58.18600 18.44000 45.12900
H  59.02300 23.45200 44.42800
H  58.42300 25.04600 46.74300
H  59.38800 23.17500 47.30700
H  60.19600 22.30700 46.01300
H  58.66700 21.71100 46.77000
H  58.53800 26.78700 44.50300
H  59.56200 25.53200 43.96100
H  61.21100 26.48900 45.25200
H  60.20400 26.23400 46.79200
H  60.00900 27.60000 45.66900
H  54.12200 30.23900 45.34100
H  55.68200 29.69800 45.41000
H  54.53800 29.46800 46.91300
H  49.82600 27.42900 44.08900
H  48.69300 27.59000 40.03900
H  50.22300 28.44300 39.88300
H  48.81200 29.33400 40.48100

