158

Mg 16.88700 -2.29500 28.78600
C  15.68000 -0.13700 31.15800
C  18.45500 -4.01600 31.36700
C  18.56100 -3.98300 26.45700
C  15.43300 -0.24400 26.24600
N  17.07100 -2.03000 31.10400
C  16.44000 -1.08800 31.82500
C  16.55100 -1.40100 33.33400
C  17.64700 -2.54200 33.37700
C  17.72700 -2.93700 31.87400
C  18.94700 -2.10400 34.17400
C  15.15400 -1.63300 33.98600
C  15.10000 -2.43400 35.33400
H  16.14200 -2.00900 36.41200
N  18.35100 -3.72200 28.86200
C  18.70100 -4.38000 30.04100
C  19.47200 -5.55300 29.58600
C  19.55100 -5.54300 28.15600
C  18.85100 -4.38900 27.77500
C  19.92700 -6.53500 30.57700
C  20.30100 -6.50200 27.22800
O  20.29500 -6.38000 26.02900
C  21.16500 -7.59100 27.70800
N  17.16300 -2.00800 26.60000
C  17.82400 -2.95500 25.91700
C  17.60400 -2.71900 24.31300
C  16.62100 -1.56800 24.30400
C  16.37100 -1.29200 25.73700
C  18.89100 -2.44500 23.62800
C  15.31900 -1.81500 23.49800
C  15.03700 -0.76700 22.38000
N  15.65500 -0.63300 28.66800
C  15.14700 0.08700 27.56900
C  14.30800 1.13600 28.12400
C  14.49200 1.06400 29.51600
C  15.35500 0.00300 29.80600
C  13.45800 2.14300 27.47600
C  14.07500 1.69000 30.75400
O  13.26200 2.58300 31.02400
C  14.86800 0.93300 31.85400
C  15.53500 1.93200 32.82500
O  16.58200 2.51800 32.62500
O  14.67000 2.16800 33.86800
C  15.35300 2.85500 34.99500
H  19.09300 -4.43800 32.14700
H  18.99800 -4.55700 25.63700
H  14.84300 0.33100 25.53000
H  16.92400 -0.54600 33.89800
H  17.37200 -3.40500 33.98300
H  18.72500 -2.08000 35.24100
H  19.28100 -1.11500 33.86000
H  19.77400 -2.78300 33.96700
H  14.44600 -1.93300 33.21400
H  14.86300 -0.64800 34.35100
H  15.00500 -3.49600 35.10600
H  14.17400 -2.11800 35.81300
H  19.12900 -6.78100 31.27800
H  20.72500 -6.17000 31.22400
H  20.21400 -7.51100 30.18500
H  21.53100 -8.21800 26.89500
H  20.57700 -8.26000 28.33500
H  22.01000 -7.12900 28.21900
H  17.25500 -3.60600 23.78500
H  17.16100 -0.75700 23.81600
H  18.81700 -1.86800 22.70600
H  19.40400 -3.38900 23.44400
H  19.48100 -1.83700 24.31300
H  14.48600 -1.92300 24.19200
H  15.42200 -2.73900 22.92900
H  14.04600 -0.32000 22.46000
H  15.01300 -1.31000 21.43500
H  15.79300 0.00900 22.25200
H  13.49900 2.01800 26.39400
H  13.76200 3.15500 27.74300
H  12.44300 1.95100 27.82200
H  14.16200 0.38700 32.48100
H  15.40600 2.12100 35.79900
H  14.81400 3.74100 35.33100
H  16.37700 3.16900 34.79200
Mg 43.03400 4.10700 47.41900
C  40.89800 6.80400 47.31700
C  40.31200 2.07900 47.07900
C  45.17200 1.55600 46.95600
C  45.71700 6.38600 47.16200
N  40.82800 4.46000 46.92800
C  40.20300 5.63400 47.25900
C  38.64100 5.42600 47.38000
C  38.57000 3.87200 47.36500
C  39.99800 3.48000 47.05700
C  37.97800 3.32800 48.62700
C  37.79500 6.20300 46.25300
C  38.09600 5.75700 44.77600
H  38.50900 6.80000 43.79400
N  42.73600 2.10200 47.01100
C  41.57600 1.44100 46.85600
C  41.78400 0.06600 46.65100
C  43.21700 -0.14800 46.58700
C  43.80400 1.18200 46.82400
C  40.74300 -1.02100 46.58800
C  43.91600 -1.43700 46.39600
O  43.31600 -2.47700 46.32100
C  45.39100 -1.58000 46.34700
N  45.17200 3.97300 47.21000
C  45.77600 2.78500 47.03000
C  47.31800 2.96400 47.05200
C  47.40300 4.52900 46.79700
C  46.02300 5.05800 47.11100
C  47.97500 2.37600 48.37900
C  48.11600 4.90000 45.46200
C  49.44200 5.70500 45.59600
N  43.26400 6.19600 47.35800
C  44.42200 6.97700 47.30400
C  43.99100 8.39100 47.22800
C  42.61900 8.34100 47.30500
C  42.24600 7.00600 47.31100
C  45.01700 9.52000 47.27700
C  41.48700 9.27800 47.34000
O  41.39800 10.50000 47.29400
C  40.25600 8.23400 47.36900
C  39.42500 8.54500 48.58900
O  39.48500 7.78100 49.53200
O  38.49700 9.55000 48.31800
C  37.41800 9.63600 49.22400
H  39.50300 1.36500 47.24900
H  45.93800 0.78100 46.87400
H  46.55000 7.09200 47.11500
H  38.24800 5.87200 48.29400
H  38.00900 3.56100 46.48400
H  38.69600 2.66700 49.11100
H  37.12900 2.72800 48.30000
H  37.60100 4.09100 49.30800
H  38.12800 7.24000 46.21200
H  36.71000 6.19300 46.35700
H  37.23300 5.31000 44.28200
H  38.94100 5.06900 44.79600
H  40.98800 -1.72400 45.79200
H  39.73600 -0.60500 46.60500
H  40.76400 -1.65100 47.47700
H  45.80100 -0.76300 45.75300
H  45.66300 -2.51800 45.86300
H  45.83500 -1.64600 47.34000
H  47.55700 2.27100 46.24500
H  47.99400 4.93100 47.62000
H  48.64500 1.56500 48.09400
H  47.22900 1.91900 49.02900
H  48.35800 3.23500 48.93000
H  47.36600 5.50400 44.95200
H  48.42700 4.02200 44.89600
H  50.14800 5.09400 46.15800
H  49.15000 6.55500 46.21200
H  49.70400 5.96100 44.56900
H  45.73300 9.38400 48.08700
H  44.51200 10.44300 47.56300
H  45.52700 9.61300 46.31800
H  39.69800 8.41000 46.44900
H  36.89300 10.58700 49.13700
H  37.60800 9.53800 50.29300
H  36.63000 8.95600 48.90000

