158

Mg 8.69900 3.40400 27.90600
C  10.17600 1.81200 30.63700
C  6.74800 5.17600 29.98100
C  7.11600 4.73100 25.15900
C  10.39400 1.06100 25.84200
N  8.61600 3.53400 30.09800
C  9.33500 2.87900 31.00000
C  9.17900 3.47900 32.37100
C  7.91300 4.38700 32.19300
C  7.72800 4.36800 30.64400
C  6.64900 4.02000 33.06700
C  10.41700 4.27100 32.84500
C  11.03500 3.90200 34.21500
H  10.46900 4.74100 35.48500
N  7.19400 4.75100 27.63500
C  6.47100 5.37400 28.59800
C  5.63400 6.35200 28.01300
C  5.71700 6.24400 26.55800
C  6.71400 5.22100 26.42100
C  4.59600 7.17900 28.77000
C  4.94200 7.00400 25.43800
O  5.15700 6.87800 24.24600
C  3.97500 8.04700 25.81200
N  8.81300 2.98700 25.87900
C  8.08400 3.74000 24.90700
C  8.46900 3.26100 23.50500
C  9.42600 2.03000 23.80600
C  9.56700 2.02400 25.26200
C  7.24000 2.98000 22.53500
C  10.95100 2.28000 23.09900
C  11.70400 0.93400 22.63800
N  9.90900 1.72100 28.18300
C  10.41800 0.82400 27.23700
C  11.21200 -0.21700 27.84800
C  11.13200 0.12400 29.23300
C  10.29200 1.26600 29.33500
C  11.94300 -1.34500 27.17200
C  11.72000 -0.16100 30.52000
O  12.53600 -1.02800 30.85000
C  10.96400 0.84500 31.51100
C  10.10100 0.14600 32.43000
O  9.15000 -0.60600 32.21800
O  10.49500 0.41600 33.73400
C  9.63300 -0.15300 34.81200
H  6.19100 5.82500 30.66000
H  6.67100 5.17900 24.26800
H  10.85600 0.41200 25.09500
H  8.90500 2.67600 33.05600
H  8.14900 5.42900 32.41000
H  5.78500 3.94800 32.40700
H  6.38600 4.76000 33.82300
H  6.83400 3.07700 33.58200
H  10.01800 5.27300 33.00500
H  11.16900 4.38100 32.06300
H  12.11400 4.05300 34.18100
H  10.85000 2.83800 34.36400
H  4.57800 6.81000 29.79500
H  3.59900 6.94500 28.39800
H  4.67900 8.25600 28.62000
H  4.44200 8.80600 26.43900
H  3.19100 7.52900 26.36500
H  3.62400 8.64500 24.97100
H  9.01900 4.05300 22.99600
H  9.05900 1.13900 23.29600
H  6.26200 3.27300 22.91600
H  7.25500 1.93200 22.23600
H  7.32100 3.61300 21.65100
H  11.66700 2.81900 23.72100
H  10.96300 2.80000 22.14100
H  12.07700 0.82800 21.62000
H  11.09700 0.04100 22.79100
H  12.49800 0.73500 23.35800
H  12.82700 -0.89100 26.72400
H  11.28000 -1.72700 26.39600
H  12.32400 -2.14000 27.81200
H  11.62400 1.51500 32.06200
H  9.96800 0.32900 35.73100
H  9.54100 -1.23900 34.85100
H  8.61500 0.16500 34.58900
Mg 35.45800 2.80100 29.64500
C  33.16500 3.63600 32.10500
C  38.03700 2.92200 32.12200
C  37.97800 2.07800 27.38100
C  33.13900 3.20400 27.23700
N  35.54900 3.08500 31.87800
C  34.46200 3.40200 32.64700
C  34.85400 3.39100 34.11400
C  36.40200 3.57400 34.05800
C  36.68300 3.15400 32.61400
C  36.87300 4.91900 34.57800
C  34.27500 2.11400 34.77600
C  33.81300 2.30200 36.22100
H  34.45900 3.38900 37.08800
N  37.56500 2.37600 29.76100
C  38.38800 2.52700 30.84300
C  39.73900 2.11000 30.60100
C  39.85600 1.98800 29.17600
C  38.41500 2.17500 28.69400
C  40.80600 2.09000 31.70700
C  41.05000 1.78900 28.30300
O  40.97700 1.51100 27.13400
C  42.51300 1.86800 28.90400
N  35.56100 2.56900 27.60200
C  36.69900 2.23000 26.83700
C  36.44700 2.39700 25.36800
C  34.86500 2.56400 25.38800
C  34.43100 2.82800 26.84100
C  37.25600 3.56300 24.68700
C  34.02800 1.42100 24.75900
C  33.87400 1.43900 23.21300
N  33.49600 3.21900 29.59000
C  32.59200 3.37000 28.59400
C  31.20100 3.57300 29.06600
C  31.37900 3.71500 30.44100
C  32.76800 3.48800 30.73200
C  29.95300 3.83000 28.22500
C  30.70300 3.93600 31.76000
O  29.52600 4.05800 31.98800
C  31.84900 3.93100 32.91300
C  31.84700 5.17600 33.69400
O  32.53200 6.15500 33.49900
O  31.01400 4.93800 34.74700
C  31.08600 5.88400 35.87200
H  38.82300 3.29800 32.78100
H  38.79400 2.16100 26.66000
H  32.45000 3.32600 26.39800
H  34.36700 4.21200 34.64100
H  36.87800 2.86900 34.74000
H  37.43900 5.56400 33.90700
H  37.38100 4.80600 35.53500
H  36.00600 5.51900 34.85500
H  35.11800 1.42400 34.80600
H  33.44100 1.84000 34.13000
H  33.91000 1.33600 36.71600
H  32.74500 2.46700 36.08000
H  40.40300 1.67100 32.62900
H  41.23300 3.07800 31.87900
H  41.58100 1.36300 31.46600
H  43.27800 2.39100 28.33200
H  42.84000 0.83600 29.03200
H  42.41000 2.38100 29.86100
H  36.85100 1.46600 24.97200
H  34.70500 3.46300 24.79300
H  37.45100 4.30800 25.45800
H  36.69700 4.04600 23.88600
H  38.16500 3.05200 24.37000
H  33.03100 1.37200 25.19700
H  34.53200 0.48300 24.99200
H  34.68900 2.06700 22.85200
H  32.94700 1.82300 22.78700
H  34.08700 0.45700 22.79100
H  29.22900 3.09900 28.58600
H  30.09100 3.67300 27.15600
H  29.55300 4.83100 28.38700
H  31.73900 3.15800 33.67300
H  30.25600 5.71100 36.55700
H  31.19200 6.93600 35.60800
H  31.97200 5.55600 36.41700

