158

Mg 47.96600 34.86800 26.18100
C  46.44900 33.62600 29.27700
C  48.45100 37.79700 27.90900
C  49.07900 35.99900 23.34500
C  47.31000 31.77500 24.81300
N  47.52400 35.52100 28.37500
C  46.98200 34.88300 29.44200
C  47.23100 35.67900 30.78600
C  47.48100 37.08800 30.20300
C  47.87100 36.79400 28.70800
C  46.22400 38.08400 30.30300
C  48.39900 35.30900 31.76600
C  47.99100 35.00300 33.20800
H  46.76000 35.61900 33.78300
N  48.56800 36.63400 25.68700
C  48.83900 37.68400 26.55300
C  49.55400 38.73800 25.85000
C  49.73600 38.25300 24.49300
C  49.07800 36.92500 24.41300
C  49.94900 40.09900 26.51900
C  50.46100 38.90200 23.36600
O  50.45700 38.44100 22.24200
C  51.22800 40.25100 23.64500
N  47.99900 34.03400 24.26300
C  48.67400 34.64800 23.26300
C  48.66500 33.78000 22.00100
C  48.28800 32.34200 22.56300
C  47.84300 32.73300 23.93900
C  47.69900 34.34600 20.97600
C  49.52200 31.27500 22.61700
C  49.16300 29.93300 21.92800
N  47.00600 33.15600 26.79900
C  46.76900 31.96300 26.07500
C  45.99600 31.02000 26.82600
C  45.83900 31.64300 28.10300
C  46.49800 32.90800 28.04600
C  45.52400 29.69700 26.38400
C  45.15800 31.56900 29.45600
O  44.40500 30.74900 29.88900
C  45.61100 32.76300 30.25300
C  46.46400 32.23400 31.38900
O  47.69900 32.24200 31.39900
O  45.66700 31.84600 32.48500
C  46.35100 31.35300 33.66700
H  48.37100 38.81800 28.28700
H  49.53100 36.40200 22.43600
H  47.25800 30.79400 24.33500
H  46.31000 35.72900 31.36700
H  48.27200 37.59300 30.75800
H  46.45700 38.92500 30.95600
H  45.29400 37.60900 30.61600
H  46.05700 38.46700 29.29600
H  49.12100 36.12600 31.78000
H  48.97100 34.44200 31.43200
H  48.88700 35.25900 33.77400
H  47.95700 33.93600 33.42600
H  50.11700 40.97600 25.89400
H  50.81200 40.09400 27.18500
H  49.05300 40.42500 27.04600
H  51.91100 40.32800 22.79900
H  51.77100 40.08200 24.57500
H  50.51300 41.07200 23.58300
H  49.66900 33.66600 21.59200
H  47.44100 31.98100 21.97900
H  46.80400 33.72700 20.91600
H  48.14900 34.59000 20.01400
H  47.38300 35.31600 21.35900
H  49.69500 30.87900 23.61700
H  50.43400 31.61700 22.12700
H  50.02200 29.43300 21.48000
H  48.52700 30.19100 21.08100
H  48.64200 29.30700 22.65300
H  46.38900 29.05900 26.20300
H  45.04400 29.85600 25.41800
H  44.85900 29.26600 27.13300
H  44.77100 33.32800 30.65700
H  46.07400 30.30600 33.78800
H  45.81000 31.85900 34.46600
H  47.42400 31.33600 33.85800
Mg -2.08000 35.20200 27.05900
C  -4.10700 33.44000 29.20800
C  -1.15700 37.10800 29.76800
C  0.00400 36.82600 25.05200
C  -3.36400 33.43500 24.27500
N  -2.60500 35.28900 29.29200
C  -3.24900 34.30600 29.94000
C  -3.20300 34.52800 31.52600
C  -2.47700 35.94400 31.61100
C  -2.06700 36.14400 30.12300
C  -3.41100 37.00500 32.28400
C  -2.39400 33.36600 32.26500
C  -3.25800 32.68600 33.33100
H  -3.67700 33.49400 34.50300
N  -0.72800 36.73200 27.36700
C  -0.52700 37.47100 28.53600
C  0.37600 38.55900 28.29100
C  0.58200 38.51300 26.82600
C  -0.00600 37.26400 26.37200
C  0.80500 39.47900 29.28600
C  1.16300 39.63500 25.86700
O  1.16000 39.60000 24.70000
C  1.71200 40.86500 26.47800
N  -1.68100 35.09300 24.94700
C  -0.74700 35.87900 24.40000
C  -0.77400 35.71700 22.91200
C  -1.90800 34.70400 22.60700
C  -2.32200 34.37700 24.02800
C  -0.74800 37.06300 22.09200
C  -1.57800 33.45900 21.75900
C  -2.54500 32.93700 20.71800
N  -3.43400 33.76500 26.74300
C  -3.87600 33.12100 25.62000
C  -4.85500 32.10600 25.92100
C  -4.84600 32.16300 27.33400
C  -4.07400 33.25200 27.74000
C  -5.56400 31.12100 25.05500
C  -5.39600 31.51300 28.49300
O  -6.02700 30.44400 28.60400
C  -4.95100 32.38900 29.69700
C  -6.11600 32.90000 30.27400
O  -6.81500 33.81000 29.79700
O  -6.27300 32.38000 31.55700
C  -7.22000 33.04600 32.42700
H  -0.80100 37.58100 30.68600
H  0.70700 37.32700 24.38400
H  -3.93200 32.97200 23.46500
H  -4.24100 34.58600 31.85400
H  -1.57100 35.96600 32.21600
H  -2.91800 37.49700 33.12200
H  -4.35600 36.54900 32.57800
H  -3.72700 37.84500 31.66600
H  -1.50800 33.77300 32.75300
H  -2.12000 32.61500 31.52500
H  -2.61300 31.86400 33.64300
H  -4.13500 32.28900 32.82000
H  0.23100 40.37700 29.05600
H  1.87900 39.65800 29.33000
H  0.46900 39.12600 30.26100
H  0.86800 41.35600 26.96100
H  2.23300 41.43200 25.70600
H  2.43800 40.50100 27.20500
H  0.16000 35.19700 22.70200
H  -2.74100 35.07500 22.01000
H  -0.91200 37.88900 22.78400
H  -1.50800 36.96000 21.31700
H  0.23300 37.28200 21.67200
H  -1.36400 32.65400 22.46200
H  -0.65000 33.57900 21.20000
H  -2.20400 33.01200 19.68600
H  -3.45900 33.52900 20.68000
H  -2.81200 31.90200 20.93200
H  -4.95800 30.21600 25.08300
H  -5.59300 31.43900 24.01300
H  -6.57700 31.02500 25.44500
H  -4.49900 31.78100 30.48100
H  -7.98300 32.27900 32.56000
H  -7.67400 33.99800 32.15300
H  -6.74300 33.16300 33.40100

