158

Mg 17.07500 -1.26500 27.92100
C  16.12800 0.57400 30.61100
C  19.18000 -3.24600 29.87600
C  18.65500 -2.56900 25.06100
C  15.47000 1.08500 25.82000
N  17.64900 -1.23900 30.01900
C  16.95700 -0.53600 30.95600
C  17.46500 -0.95000 32.40300
C  18.64800 -1.79700 32.05600
C  18.45600 -2.19700 30.58900
C  20.07900 -1.23500 32.31800
C  16.31500 -1.64800 33.11400
C  16.05200 -1.44000 34.65800
H  17.04800 -0.57400 35.42500
N  18.58600 -2.74200 27.58400
C  19.22600 -3.56100 28.48000
C  20.00800 -4.57100 27.78700
C  19.93000 -4.30000 26.40800
C  18.99800 -3.13900 26.28500
C  20.82800 -5.60600 28.64400
C  20.71900 -4.90800 25.18200
O  20.46300 -4.61000 24.05400
C  21.69200 -5.97300 25.34600
N  16.94500 -0.94700 25.78000
C  17.75500 -1.52900 24.81300
C  17.61600 -0.88500 23.38000
C  16.39700 0.13300 23.64500
C  16.23500 0.07000 25.20100
C  18.91300 -0.33800 22.73800
C  15.06600 -0.22900 22.89100
C  13.91500 -0.97600 23.58200
N  15.79900 0.38300 28.10800
C  15.30900 1.25600 27.21000
C  14.66800 2.42000 27.90900
C  14.93600 2.14400 29.25700
C  15.72200 0.94100 29.33000
C  13.89900 3.51100 27.28400
C  14.73800 2.52400 30.63000
O  14.08100 3.50000 31.02500
C  15.42300 1.53600 31.61400
C  16.28100 2.34100 32.49100
O  17.46600 2.59600 32.29300
O  15.54300 2.68800 33.52000
C  16.00000 3.72100 34.43000
H  19.91400 -3.84400 30.42000
H  19.09400 -2.81200 24.09100
H  15.16800 1.85800 25.11100
H  17.63200 0.05500 32.79100
H  18.69000 -2.72500 32.62700
H  20.78000 -1.28100 31.48400
H  20.49500 -1.82500 33.13400
H  20.04700 -0.17500 32.56900
H  16.36000 -2.70300 32.84300
H  15.39200 -1.25000 32.69200
H  15.99000 -2.46100 35.03400
H  15.10100 -0.91900 34.76800
H  20.43200 -5.71900 29.65300
H  21.84900 -5.24400 28.77000
H  20.85000 -6.62800 28.26300
H  21.44300 -6.66300 26.15200
H  22.70400 -5.56700 25.34100
H  21.58000 -6.67500 24.52000
H  17.29300 -1.72700 22.76800
H  16.77000 1.11800 23.36300
H  18.81600 0.69800 22.41500
H  19.23300 -0.86700 21.84000
H  19.70300 -0.48100 23.47700
H  15.25200 -0.44700 21.83900
H  14.62700 0.76900 22.88600
H  13.23900 -0.34000 24.15400
H  14.32000 -1.69000 24.29900
H  13.40200 -1.67500 22.92200
H  14.27800 3.84700 26.31900
H  13.95800 4.42300 27.87800
H  12.84000 3.25400 27.26400
H  14.67900 1.07700 32.26500
H  16.64800 4.42500 33.90900
H  16.43200 3.15600 35.25600
H  15.11800 4.25300 34.78700
Mg 30.38900 57.96900 40.09300
C  27.67800 55.78200 39.29400
C  32.57600 55.39800 38.96900
C  32.93900 60.07500 40.22000
C  28.08300 60.39100 40.66700
N  30.13700 55.88600 39.13300
C  28.95400 55.20700 39.00700
C  29.23300 53.81700 38.48000
C  30.80800 53.72000 38.54100
C  31.19500 55.09700 38.94500
C  31.39800 52.66700 39.53900
C  28.69400 53.51900 37.05800
C  28.92200 54.56500 35.92000
H  27.71700 54.82600 34.93200
N  32.47000 57.67000 39.76800
C  33.12800 56.62700 39.28500
C  34.53200 56.95800 39.10500
C  34.69100 58.26000 39.62900
C  33.29700 58.73700 39.88800
C  35.62100 56.01400 38.63700
C  36.06300 59.00700 39.89400
O  37.13800 58.41000 39.91400
C  36.01000 60.50900 40.30500
N  30.47800 60.02400 40.35100
C  31.66200 60.73500 40.32300
C  31.40500 62.28800 40.48500
C  29.91900 62.34800 40.76100
C  29.42100 60.84000 40.56900
C  32.22500 62.90600 41.67800
C  29.15400 63.42900 39.97000
C  28.75500 64.64000 40.76300
N  28.28200 58.09500 40.17900
C  27.49700 59.14600 40.49100
C  26.09000 58.84900 40.35300
C  26.10800 57.50400 39.87800
C  27.47400 57.11000 39.80500
C  24.89900 59.79000 40.54000
C  25.29600 56.39600 39.38700
O  24.07700 56.33100 39.23900
C  26.22000 55.21400 39.09100
C  26.00800 54.08600 40.08000
O  26.76900 53.66900 40.87100
O  24.71400 53.60200 39.86500
C  24.33700 52.51700 40.79600
H  33.23800 54.58500 38.66400
H  33.65400 60.88200 40.39700
H  27.36900 61.20100 40.83200
H  28.88800 53.14300 39.26500
H  31.36200 53.61200 37.60800
H  32.03900 51.91200 39.08300
H  30.62400 52.03300 39.97300
H  31.86500 53.22400 40.35200
H  27.64100 53.23600 37.09300
H  29.25300 52.69700 36.61000
H  29.79800 54.19800 35.38500
H  29.20400 55.54300 36.30800
H  36.44200 56.46500 38.07900
H  35.34600 55.26600 37.89400
H  35.98200 55.42400 39.47900
H  35.46200 61.12700 39.59400
H  37.00000 60.87600 40.57300
H  35.44700 60.48500 41.23800
H  31.59400 62.80500 39.54400
H  29.69800 62.44700 41.82400
H  32.85500 63.69300 41.26400
H  32.80900 62.16900 42.22900
H  31.53500 63.35800 42.39100
H  28.25000 63.11000 39.45300
H  29.69200 63.69800 39.06100
H  29.55600 65.35300 40.95800
H  28.50100 64.23900 41.74400
H  27.95400 65.26500 40.36900
H  24.45000 59.96900 39.56400
H  25.24700 60.68700 41.05300
H  24.15200 59.28700 41.15400
H  26.07100 54.83700 38.07900
H  23.26000 52.35000 40.79300
H  24.60300 52.82700 41.80700
H  24.89300 51.63500 40.48000

