158

Mg 17.05800 -1.56700 27.16000
C  16.22300 0.55700 29.80600
C  19.02200 -3.42100 29.42200
C  18.42700 -3.22400 24.59000
C  15.76500 0.80800 24.97500
N  17.66200 -1.37300 29.31900
C  17.04200 -0.49600 30.22800
C  17.35200 -0.90700 31.66900
C  18.47900 -1.96900 31.46000
C  18.37000 -2.33500 30.00000
C  19.95100 -1.67300 31.77800
C  16.15300 -1.45300 32.48100
C  16.17200 -1.23000 34.00700
H  17.42700 -0.76100 34.80100
N  18.43900 -3.21200 27.00300
C  19.09500 -3.87200 28.02600
C  19.77100 -5.02700 27.47100
C  19.52100 -5.00500 26.11000
C  18.76400 -3.80200 25.83300
C  20.53000 -5.98800 28.33400
C  19.96800 -5.99600 24.99400
O  19.48600 -5.88000 23.89700
C  21.03000 -7.06700 25.19000
N  17.06700 -1.20200 25.00700
C  17.72000 -2.06000 24.16000
C  17.72200 -1.54400 22.73600
C  16.78400 -0.25400 22.85100
C  16.45000 -0.22000 24.33400
C  19.16000 -1.31100 22.12000
C  15.44900 -0.38400 22.01800
C  15.04500 0.59600 20.98800
N  16.13800 0.24800 27.27700
C  15.54900 1.03900 26.33800
C  14.72200 2.02800 27.00600
C  15.02800 1.92400 28.33300
C  15.92500 0.83200 28.48000
C  13.79000 2.90100 26.23500
C  14.71400 2.51000 29.62200
O  14.07400 3.48700 29.98200
C  15.49700 1.59700 30.66500
C  16.50400 2.37500 31.48400
O  17.62700 2.71700 31.10400
O  15.99900 2.70700 32.65600
C  16.58000 3.62100 33.64900
H  19.69600 -3.96200 30.09000
H  18.84700 -3.77700 23.74700
H  15.43100 1.56600 24.26300
H  17.90600 -0.11900 32.17900
H  18.12200 -2.88200 31.93700
H  20.47700 -1.39800 30.86400
H  20.51300 -2.48600 32.23700
H  20.14700 -0.77700 32.36700
H  16.13300 -2.53000 32.31900
H  15.31800 -1.10100 31.87500
H  15.56600 -2.03300 34.42600
H  15.39400 -0.46600 33.98700
H  21.54400 -6.07500 27.94100
H  19.96100 -6.91700 28.32400
H  20.65100 -5.55600 29.32700
H  20.76300 -7.80800 25.94300
H  21.86800 -6.52700 25.63100
H  21.25200 -7.57700 24.25300
H  17.34600 -2.36200 22.12100
H  17.41700 0.56700 22.51400
H  19.25900 -0.52300 21.37300
H  19.49700 -2.29500 21.79500
H  19.91100 -1.06700 22.87200
H  14.63500 -0.36100 22.74200
H  15.46400 -1.39600 21.61500
H  14.49800 1.37300 21.52200
H  14.36000 0.14400 20.27100
H  15.88600 0.99500 20.42100
H  13.19800 3.53200 26.89700
H  13.13200 2.37400 25.54500
H  14.38000 3.55900 25.59600
H  14.71800 1.17400 31.29900
H  15.93400 4.48300 33.81700
H  17.63500 3.85400 33.50600
H  16.52300 3.06100 34.58300
Mg 47.91100 44.99200 42.43800
C  44.50700 44.25800 42.47700
C  48.55900 41.44500 42.15600
C  51.13000 45.60800 41.61500
C  47.14900 48.37400 42.09300
N  46.68600 43.02200 42.52400
C  45.26700 43.04100 42.29000
C  44.68800 41.63000 42.06400
C  46.01400 40.77300 42.10600
C  47.14300 41.78400 42.21500
C  46.01200 39.64300 43.22100
C  43.87400 41.43800 40.78300
C  44.29300 42.10200 39.43200
H  44.21400 41.36400 38.09900
N  49.62100 43.72900 42.11400
C  49.65800 42.37700 42.01100
C  50.98400 41.91000 41.79800
C  51.73600 43.10600 41.46100
C  50.84600 44.24700 41.79900
C  51.45600 40.42000 41.64100
C  53.19200 43.16800 40.85900
O  53.89200 42.13600 40.80300
C  53.76800 44.44600 40.49100
N  48.97200 46.64200 41.86300
C  50.25400 46.71300 41.54200
C  50.83800 48.11400 41.46900
C  49.56700 48.96400 41.64900
C  48.46700 47.96800 41.95100
C  51.94600 48.42500 42.53300
C  49.34300 49.79400 40.36400
C  48.94100 51.31600 40.59500
N  46.16200 46.22800 42.51800
C  46.03600 47.55100 42.30100
C  44.56000 47.83200 42.10900
C  43.92600 46.58600 42.25300
C  44.96200 45.66200 42.49100
C  43.92700 49.16200 41.81600
C  42.64600 45.87700 42.14100
O  41.51900 46.19400 41.91800
C  43.03000 44.41600 42.22500
C  42.25200 43.92400 43.39900
O  41.23500 43.24100 43.27200
O  42.73700 44.44200 44.59600
C  41.88800 44.36500 45.77400
H  48.75300 40.37900 42.01600
H  52.14700 45.96300 41.43500
H  46.81700 49.41000 41.99200
H  43.99800 41.32200 42.85000
H  46.10000 40.22100 41.17000
H  46.04400 38.66100 42.75000
H  45.13300 39.80700 43.84600
H  46.92600 39.68100 43.81400
H  42.82300 41.60300 41.02200
H  43.85200 40.37400 40.54600
H  45.34200 42.33100 39.61900
H  43.83800 43.08800 39.34100
H  51.60900 40.18700 40.58800
H  50.78000 39.63400 41.98000
H  52.40300 40.24700 42.15200
H  53.03000 44.91100 39.83800
H  54.67900 44.30600 39.90800
H  54.06400 44.87400 41.44900
H  51.31900 48.17800 40.49300
H  49.70600 49.70500 42.43700
H  52.35000 47.50700 42.95900
H  51.51600 48.98900 43.36100
H  52.69600 49.01500 42.00600
H  48.46200 49.37800 39.87500
H  50.15900 49.73400 39.64400
H  48.06600 51.63000 40.02600
H  49.76700 51.94500 40.26400
H  49.03400 51.61500 41.63900
H  42.94000 49.07900 41.36200
H  44.57100 49.68300 41.10700
H  43.84900 49.77500 42.71400
H  42.73900 44.03500 41.24700
H  41.44300 43.37000 45.79400
H  41.13000 45.12100 45.57100
H  42.41300 44.55500 46.71000

