158

Mg 25.99100 -0.55500 28.74300
C  27.63000 -0.91900 31.79100
C  23.01400 -0.05800 30.61400
C  24.28400 -0.22400 25.98000
C  28.85300 -1.60800 27.14300
N  25.43900 -0.24700 31.04100
C  26.35600 -0.39700 32.02600
C  25.65300 -0.25800 33.37000
C  24.13900 -0.06600 33.02300
C  24.19700 -0.10600 31.47500
C  23.15000 -1.21700 33.54400
C  26.24500 0.84800 34.25600
C  26.74600 0.40100 35.69500
H  26.42300 1.37200 36.77500
N  23.89200 -0.21700 28.35800
C  22.87000 -0.03000 29.25300
C  21.63700 0.22500 28.48600
C  22.02600 0.40600 27.10500
C  23.43200 -0.05100 27.10000
C  20.21400 0.46500 29.08500
C  21.24300 0.89400 25.91500
O  21.73900 0.76900 24.82900
C  19.88000 1.57300 26.11600
N  26.54900 -0.87400 26.79200
C  25.64700 -0.70200 25.78500
C  26.32900 -0.83100 24.38600
C  27.68600 -1.55500 24.76900
C  27.73400 -1.33200 26.33900
C  25.40800 -1.53200 23.34100
C  28.92500 -1.01200 23.97800
C  28.80300 -0.61500 22.50800
N  27.84500 -1.14300 29.33500
C  28.92700 -1.44500 28.57700
C  30.08100 -1.67600 29.37600
C  29.62800 -1.44900 30.68300
C  28.25500 -1.18500 30.60800
C  31.43100 -2.13900 28.83800
C  30.03400 -1.49500 32.04000
O  31.07400 -1.71500 32.52400
C  28.76000 -1.17800 32.80100
C  28.40300 -2.31900 33.74800
O  27.56200 -3.17200 33.48100
O  29.11900 -2.29900 34.93700
C  28.68000 -3.29300 35.92300
H  22.17400 0.22200 31.25300
H  23.90200 -0.01100 24.97900
H  29.76300 -1.97300 26.66300
H  25.52400 -1.14000 33.99800
H  23.70500 0.89100 33.31200
H  23.53500 -2.16000 33.93200
H  22.26700 -1.44200 32.94600
H  22.81200 -0.74500 34.46600
H  25.44900 1.55000 34.50300
H  27.06600 1.26600 33.67300
H  27.80200 0.27800 35.45500
H  26.29100 -0.57500 35.86300
H  19.97900 -0.14300 29.95800
H  19.46900 0.15300 28.35300
H  19.94800 1.51200 29.22900
H  19.92700 2.29500 26.93100
H  19.15500 0.81700 26.42100
H  19.50200 2.12200 25.25400
H  26.57700 0.20800 24.17100
H  27.52300 -2.62700 24.65800
H  25.77100 -2.45900 22.89900
H  25.26000 -0.76700 22.57800
H  24.49400 -1.77000 23.88400
H  29.63800 -1.83400 24.03100
H  29.35500 -0.21200 24.58200
H  27.94100 -1.00500 21.96700
H  29.65000 -0.97500 21.92500
H  28.75900 0.46000 22.33400
H  31.51400 -1.84300 27.79300
H  31.68100 -3.17200 29.08300
H  32.13100 -1.51500 29.39400
H  29.02300 -0.31200 33.40800
H  27.72900 -2.92300 36.30500
H  29.34500 -3.26000 36.78700
H  28.73600 -4.36700 35.74900
Mg 41.01900 7.80200 29.33700
C  42.79600 9.22600 31.94200
C  38.76400 6.48600 31.73000
C  39.58300 5.96000 26.86800
C  43.69700 8.53900 27.16900
N  40.81900 7.79400 31.57100
C  41.60600 8.61600 32.39100
C  41.09400 8.56400 33.92100
C  39.82000 7.61500 33.81900
C  39.77900 7.25500 32.26200
C  40.01000 6.36400 34.72600
C  40.80300 10.02000 34.47100
C  40.10600 10.05600 35.86500
H  40.42900 11.24300 36.80400
N  39.34000 6.54600 29.27300
C  38.52500 6.14800 30.36900
C  37.38900 5.42000 29.83000
C  37.62200 5.24200 28.40700
C  38.89300 5.93200 28.10300
C  36.17000 5.09800 30.63800
C  36.63700 4.64400 27.38200
O  36.78000 4.56500 26.16300
C  35.31500 4.12700 27.86700
N  41.63200 7.21200 27.24500
C  40.73900 6.59200 26.44100
C  41.28500 6.43400 25.04900
C  42.61600 7.28200 25.07100
C  42.68100 7.73500 26.52300
C  41.34600 5.02900 24.51800
C  42.61200 8.42600 24.05600
C  41.59200 9.59700 24.28500
N  42.89700 8.58300 29.48600
C  43.80100 8.92000 28.51000
C  44.89300 9.65200 29.14700
C  44.56200 9.78900 30.44900
C  43.31600 9.13800 30.60800
C  46.19100 10.29300 28.40900
C  44.91700 10.36100 31.69000
O  45.90300 11.10100 31.90300
C  43.85300 9.95400 32.76700
C  44.34800 9.10300 33.81400
O  44.59700 7.93400 33.76600
O  44.34600 9.79100 35.03100
C  44.91400 9.05300 36.20700
H  38.10600 6.05000 32.48400
H  39.13700 5.39300 26.04800
H  44.52500 8.82800 26.51800
H  41.86400 8.23700 34.62000
H  38.93900 8.11400 34.22200
H  40.99100 6.39500 35.20000
H  39.92700 5.40400 34.21700
H  39.19400 6.30400 35.44700
H  40.16800 10.49200 33.72200
H  41.68700 10.65100 34.56500
H  40.27000 9.13400 36.42300
H  39.03700 10.08600 35.65100
H  36.11300 4.05100 30.93700
H  35.18900 5.28500 30.20100
H  36.19400 5.61100 31.59900
H  35.36400 3.36500 28.64500
H  34.83400 3.57200 27.06200
H  34.66700 4.99300 28.00400
H  40.50100 6.91800 24.46700
H  43.47700 6.65200 24.84700
H  41.80900 5.13800 23.53800
H  40.38800 4.58600 24.24700
H  41.94500 4.24400 24.98000
H  42.40600 7.93600 23.10400
H  43.61500 8.76500 23.79500
H  41.29800 9.71800 25.32800
H  40.73600 9.54100 23.61200
H  42.01600 10.58000 24.08400
H  46.88100 9.46300 28.25300
H  46.58500 11.08500 29.04500
H  45.84400 10.72500 27.47000
H  43.54800 10.92700 33.15100
H  44.47200 8.06400 36.32200
H  44.60500 9.47800 37.16200
H  46.00300 8.99900 36.23000

