158

Mg 40.81300 10.30200 30.42700
C  42.71300 11.65600 33.21800
C  38.60300 9.09500 32.71500
C  39.10100 9.01500 27.93900
C  43.37800 11.16700 28.37700
N  40.74800 10.32300 32.76100
C  41.53100 11.06400 33.67700
C  40.87800 10.97600 35.03800
C  39.58700 10.07700 34.89100
C  39.67500 9.74600 33.35600
C  39.46300 8.73500 35.64800
C  40.63500 12.34200 35.67200
C  39.66800 12.45000 36.91000
H  39.85800 13.44500 37.98800
N  39.14300 9.27500 30.32900
C  38.34300 8.84700 31.37100
C  37.16400 8.17800 30.87000
C  37.18600 8.21500 29.43600
C  38.52400 8.83500 29.17900
C  36.14200 7.56700 31.81300
C  36.16200 7.70600 28.36400
O  36.30100 7.90000 27.16500
C  34.85500 7.03800 28.80500
N  41.25500 9.97200 28.45900
C  40.33000 9.55000 27.52700
C  40.81200 9.55800 26.09900
C  42.27500 10.28100 26.31300
C  42.34000 10.42700 27.86900
C  40.79200 8.20300 25.32400
C  42.32700 11.56400 25.54100
C  41.58000 12.82800 25.95800
N  42.62600 11.23400 30.66200
C  43.62300 11.46800 29.72900
C  44.69200 12.19900 30.30800
C  44.36000 12.29900 31.64200
C  43.11800 11.63300 31.81600
C  45.98000 12.64700 29.67400
C  44.84300 12.78500 32.85600
O  45.92100 13.29100 33.08400
C  43.76600 12.49600 33.99700
C  44.39900 11.71400 35.02000
O  44.77600 10.59200 34.79100
O  44.49100 12.41100 36.22800
C  44.92000 11.55000 37.35700
H  37.77700 8.78000 33.35700
H  38.59500 8.59000 27.06900
H  44.10000 11.47900 27.61900
H  41.54800 10.48900 35.74700
H  38.64500 10.61600 34.99500
H  39.15100 7.91000 35.00900
H  38.57600 8.79000 36.27900
H  40.29100 8.38800 36.26600
H  40.35200 13.03500 34.87900
H  41.53900 12.78100 36.09400
H  39.49100 11.47000 37.35200
H  38.77000 12.66200 36.33000
H  35.84900 8.20900 32.64400
H  36.62300 6.80000 32.42000
H  35.28700 7.16300 31.27100
H  34.26900 7.76000 29.37400
H  35.08900 6.16200 29.40900
H  34.26100 6.80800 27.92000
H  40.22100 10.27000 25.52200
H  43.10700 9.66500 25.97200
H  41.69200 8.00100 24.74300
H  39.86400 8.22200 24.75300
H  40.70800 7.37000 26.02100
H  41.90100 11.36400 24.55700
H  43.40500 11.62200 25.39200
H  41.09400 12.78300 26.93300
H  40.76500 12.99800 25.25600
H  42.17700 13.73400 25.85300
H  46.04200 12.11300 28.72600
H  46.72300 12.33500 30.40700
H  45.85600 13.72000 29.52200
H  43.35600 13.44300 34.34800
H  44.43400 11.85700 38.28300
H  45.99600 11.40000 37.45500
H  44.59700 10.51900 37.21000
Mg -12.26100 16.57600 40.99500
C  -8.99100 15.14700 40.45600
C  -11.19300 19.47300 39.59400
C  -15.47300 17.41600 40.60000
C  -13.26000 13.22400 41.72300
N  -10.28300 17.17200 39.85300
C  -9.12900 16.47300 39.87300
C  -7.94600 17.39700 39.36400
C  -8.66500 18.86900 39.25800
C  -10.14800 18.55000 39.58300
C  -8.15000 19.97300 40.16800
C  -7.25300 16.91500 38.06900
C  -5.68700 16.92100 38.15500
H  -4.96500 16.97100 36.83000
N  -13.19500 18.27400 40.40800
C  -12.54900 19.33500 39.86200
C  -13.49500 20.43100 39.54300
C  -14.75700 19.91600 39.89800
C  -14.56800 18.47400 40.26700
C  -13.16700 21.83600 39.21800
C  -16.05400 20.69600 39.85200
O  -16.08400 21.87400 39.66500
C  -17.35700 20.07500 40.35400
N  -14.11400 15.49400 41.15400
C  -15.32400 16.09000 40.96500
C  -16.53800 15.15800 41.12000
C  -15.85400 13.92900 41.76700
C  -14.34700 14.16700 41.55900
C  -17.70600 15.92300 41.95300
C  -16.40800 12.53600 41.25800
C  -16.85000 11.58300 42.42600
N  -11.36100 14.62200 41.09100
C  -11.89100 13.42200 41.44500
C  -10.83100 12.44600 41.68700
C  -9.68200 13.07900 41.21300
C  -10.03500 14.44300 40.89200
C  -10.97300 11.08900 42.19700
C  -8.24200 12.86800 41.04100
O  -7.56600 11.88200 41.17600
C  -7.73700 14.28000 40.52800
C  -6.86200 14.75300 41.59800
O  -7.09000 15.38300 42.63900
O  -5.58000 14.27600 41.32300
C  -4.55700 14.44300 42.42100
H  -10.87800 20.47100 39.28300
H  -16.52300 17.66500 40.43700
H  -13.49200 12.20600 42.04300
H  -7.21200 17.29400 40.16200
H  -8.63700 19.21100 38.22300
H  -8.80400 20.16400 41.01800
H  -8.02300 20.91200 39.63000
H  -7.20600 19.64400 40.60500
H  -7.42500 17.53500 37.19000
H  -7.52800 15.87700 37.88200
H  -5.28500 16.06600 38.69900
H  -5.41800 17.85800 38.64300
H  -13.60700 22.17400 38.28000
H  -12.10300 22.02400 39.07600
H  -13.44100 22.55800 39.98800
H  -17.76100 19.60600 39.45700
H  -17.89900 20.98600 40.60600
H  -17.17500 19.44200 41.22300
H  -16.91800 14.82900 40.15300
H  -15.96000 13.96200 42.85100
H  -17.51100 16.99500 41.98000
H  -17.64700 15.69400 43.01700
H  -18.71400 15.73100 41.58400
H  -15.51800 12.00000 40.93000
H  -17.14800 12.65500 40.46700
H  -16.83400 12.03900 43.41500
H  -16.16400 10.74100 42.52000
H  -17.84000 11.18300 42.20600
H  -10.47300 11.05900 43.16600
H  -10.40200 10.40400 41.57200
H  -11.95700 10.62000 42.20900
H  -7.17500 14.03300 39.62700
H  -4.83200 14.17400 43.44100
H  -4.28100 15.49600 42.36200
H  -3.74600 13.82300 42.04000

