158

Mg 2.70200 -1.26200 44.86200
C  5.96400 -0.39000 44.43300
C  1.76100 1.15900 42.48500
C  -0.49800 -2.40500 44.97200
C  3.74500 -4.29000 46.54700
N  3.77500 0.05100 43.39500
C  5.16800 0.32000 43.58900
C  5.59700 1.42000 42.55900
C  4.27800 2.06900 42.20000
C  3.19200 1.04500 42.74200
C  4.15200 3.52900 42.67100
C  6.40000 0.74300 41.36400
C  7.85600 1.31700 41.24500
H  8.22600 1.72300 39.77900
N  0.85800 -0.65400 43.94000
C  0.74300 0.40400 43.05700
C  -0.69200 0.58500 42.81500
C  -1.41600 -0.50600 43.44000
C  -0.34900 -1.24800 44.15500
C  -1.23300 1.77600 42.06900
C  -2.92400 -0.53200 43.54500
O  -3.57000 0.25000 42.91600
C  -3.71000 -1.39100 44.45600
N  1.76300 -3.13700 45.63200
C  0.45800 -3.28200 45.58300
C  -0.06200 -4.54900 46.38300
C  1.35500 -5.21300 46.68300
C  2.38100 -4.18400 46.30800
C  -0.89800 -4.17800 47.65600
C  1.75300 -6.56500 46.05100
C  2.10500 -7.64900 47.08300
N  4.42400 -2.13900 45.56100
C  4.65900 -3.31600 46.28600
C  6.09100 -3.37800 46.53400
C  6.68300 -2.26300 45.89900
C  5.61800 -1.58800 45.19000
C  6.74800 -4.50500 47.36100
C  7.83200 -1.48000 45.62400
O  9.00800 -1.66200 46.03300
C  7.42000 -0.30200 44.65500
C  7.63300 0.99600 45.37600
O  7.47000 1.20500 46.59800
O  8.28300 1.85300 44.45200
C  8.42000 3.23800 44.94600
H  1.49000 1.82800 41.66600
H  -1.48900 -2.82400 44.78600
H  4.09500 -5.23100 46.97700
H  6.24000 2.06100 43.16200
H  4.23500 2.04800 41.11100
H  3.78400 4.16600 41.86700
H  5.14900 3.88000 42.93600
H  3.45400 3.80100 43.46400
H  5.82100 0.85600 40.44700
H  6.48400 -0.31200 41.62300
H  8.57200 0.60600 41.65600
H  8.01000 2.28600 41.71900
H  -2.17800 2.27600 42.28000
H  -1.10400 1.59300 41.00200
H  -0.50300 2.54800 42.31300
H  -4.68600 -0.97900 44.71200
H  -3.09800 -1.63200 45.32600
H  -3.87900 -2.32200 43.91700
H  -0.63000 -5.09000 45.62500
H  1.45400 -5.30400 47.76500
H  -1.87300 -3.91200 47.25000
H  -0.53100 -3.25700 48.11000
H  -0.92700 -5.07700 48.27200
H  2.62100 -6.42200 45.40700
H  0.90800 -6.90800 45.45300
H  3.17300 -7.87100 47.08600
H  1.62900 -8.60700 46.87300
H  1.81600 -7.41100 48.10700
H  6.64900 -5.39400 46.73800
H  6.26800 -4.54400 48.33900
H  7.83100 -4.42000 47.45700
H  7.99400 -0.30000 43.72900
H  7.44800 3.71800 45.06700
H  8.87200 3.85000 44.16600
H  9.15400 3.27900 45.75100
Mg 16.25100 52.27200 26.48800
C  18.03500 50.93700 29.09300
C  13.66600 52.68800 28.68800
C  14.52800 53.24400 23.92800
C  18.77800 51.05700 24.22400
N  15.91600 51.79300 28.55800
C  16.81000 51.48800 29.48800
C  16.43200 51.76900 31.00400
C  14.90600 51.91600 30.74900
C  14.83000 52.21700 29.19800
C  14.12900 50.63900 31.29100
C  17.28600 53.00300 31.39500
C  17.44100 53.30700 32.93900
H  16.43900 52.54000 33.93200
N  14.34200 53.04000 26.37800
C  13.36900 53.07700 27.34700
C  12.20400 53.73500 26.75500
C  12.48200 53.99000 25.37600
C  13.83500 53.40400 25.17700
C  10.95300 54.11700 27.57200
C  11.65100 54.63900 24.24900
O  12.07800 54.91100 23.17500
C  10.28700 55.22600 24.56200
N  16.59100 52.09500 24.45900
C  15.70800 52.69300 23.59600
C  16.17400 52.66800 22.17400
C  17.71700 52.42800 22.28600
C  17.78300 51.84500 23.68900
C  15.51300 51.67500 21.14500
C  18.68700 53.54800 22.05300
C  18.88900 53.87500 20.54200
N  17.98800 51.13600 26.58500
C  19.01600 50.77000 25.60900
C  20.05400 50.15600 26.26900
C  19.73100 50.15500 27.60500
C  18.47300 50.76000 27.75400
C  21.26000 49.54800 25.69700
C  20.26100 49.87900 28.92800
O  21.26900 49.29100 29.31700
C  19.17700 50.42700 29.94100
C  18.64700 49.37300 30.88100
O  17.64400 48.71800 30.73700
O  19.35000 49.37900 32.06000
C  18.70400 48.62600 33.13400
H  12.77900 52.73100 29.32400
H  13.97400 53.61000 23.06100
H  19.63100 50.93100 23.55400
H  16.62800 50.92600 31.66700
H  14.45600 52.81900 31.16000
H  13.41900 50.80400 32.10200
H  14.82700 49.85800 31.59000
H  13.56100 50.19400 30.47400
H  16.80700 53.79000 30.81300
H  18.29900 52.81800 31.03500
H  17.26500 54.38000 33.01500
H  18.42500 53.14900 33.38300
H  10.03000 53.77200 27.10800
H  10.87400 55.20100 27.64800
H  10.92100 53.62400 28.54400
H  9.94800 55.72200 23.65200
H  10.33000 55.82400 25.47200
H  9.71100 54.33900 24.82400
H  16.06600 53.70500 21.85300
H  18.04300 51.66900 21.57400
H  15.32300 52.21100 20.21600
H  14.59200 51.22800 21.51900
H  16.20300 50.93000 20.75100
H  19.60200 53.19400 22.53000
H  18.27600 54.38300 22.62000
H  18.10300 53.38200 19.97000
H  19.89100 53.57000 20.24000
H  18.97000 54.95000 20.38400
H  21.87800 50.32600 25.25000
H  20.95000 48.81300 24.95400
H  21.70900 48.97800 26.51000
H  19.50800 51.28600 30.52400
H  18.67100 47.56500 32.88500
H  17.66700 48.89300 33.33500
H  19.21700 48.64400 34.09600

