158

Mg 0.22900 7.77900 27.37900
C  1.08400 9.81700 30.13100
C  0.25800 5.12200 29.50700
C  -0.06000 5.80200 24.69800
C  0.79000 10.57600 25.32100
N  0.71400 7.58500 29.58700
C  0.94200 8.47300 30.49600
C  0.73100 7.99300 31.94000
C  0.71000 6.48200 31.77900
C  0.49100 6.37100 30.20300
C  1.99700 5.66200 32.20600
C  -0.66500 8.43700 32.45600
C  -0.81200 8.37600 33.96300
H  0.41500 8.01100 34.86500
N  -0.00100 5.69500 27.22100
C  -0.02300 4.80500 28.17300
C  -0.33600 3.53100 27.62500
C  -0.44000 3.69200 26.23600
C  -0.18800 5.12000 25.99100
C  -0.42200 2.36900 28.53100
C  -0.71700 2.66300 25.16400
O  -0.74300 2.97200 24.02800
C  -0.98400 1.22900 25.53000
N  0.24700 8.18800 25.43100
C  0.10000 7.21200 24.44900
C  0.13100 7.72900 22.98200
C  0.15400 9.31100 23.20400
C  0.47900 9.37700 24.71000
C  1.35200 7.18600 22.28400
C  -1.22800 10.08000 23.03100
C  -1.31600 10.91500 21.70200
N  0.80600 9.78800 27.62500
C  0.89400 10.83600 26.71500
C  1.26500 12.06600 27.38700
C  1.31300 11.66900 28.71100
C  1.00900 10.31100 28.85200
C  1.38900 13.47800 26.79100
C  1.65400 12.21300 30.00200
O  2.13500 13.31600 30.30400
C  1.16000 11.05800 31.00600
C  2.09500 10.95600 32.21600
O  3.07600 10.23700 32.26700
O  1.77100 11.92400 33.18000
C  2.86800 12.25200 34.13100
H  0.26500 4.27100 30.19100
H  -0.37800 5.27800 23.79400
H  0.97400 11.45400 24.69800
H  1.58100 8.24100 32.57500
H  -0.12100 5.94000 32.22900
H  1.82200 4.62600 31.91500
H  2.30900 5.86300 33.23100
H  2.82300 5.93500 31.54900
H  -1.42400 7.76500 32.05400
H  -0.67700 9.47000 32.10700
H  -1.66600 7.75800 34.24200
H  -1.12500 9.35200 34.33400
H  -0.75600 2.65600 29.52800
H  0.50400 1.82800 28.72100
H  -1.11200 1.56400 28.27700
H  -1.87400 1.18400 26.15700
H  -0.21800 0.89000 26.22800
H  -1.04400 0.61200 24.63400
H  -0.73600 7.38500 22.41800
H  0.92400 9.78900 22.59700
H  1.05900 6.42600 21.55900
H  2.08700 6.77800 22.97700
H  1.84400 8.02000 21.78200
H  -1.44700 10.76200 23.85300
H  -2.06100 9.37700 23.06600
H  -0.63500 10.38300 21.03700
H  -0.93100 11.92000 21.87200
H  -2.32100 10.98000 21.28600
H  1.78300 13.33900 25.78400
H  2.18300 13.92700 27.38800
H  0.43800 14.00200 26.88600
H  0.13300 11.34100 31.23700
H  3.75900 12.46600 33.54100
H  3.01400 11.30200 34.64600
H  2.72400 13.15600 34.72200
Mg 41.15100 9.34400 29.85300
C  42.74800 10.48100 32.78200
C  38.58000 8.20100 31.77200
C  39.80700 7.96800 27.07800
C  43.91800 10.38200 28.06500
N  40.70300 9.45400 32.06100
C  41.49400 9.94100 33.02900
C  40.74900 9.77600 34.40300
C  39.50600 8.89500 34.11000
C  39.59200 8.76100 32.56200
C  39.42500 7.59800 34.91000
C  40.49400 11.15700 35.06700
C  40.02500 11.17200 36.55300
H  40.84300 12.07500 37.53600
N  39.34200 8.24400 29.48600
C  38.43200 7.95600 30.37900
C  37.30600 7.39700 29.72400
C  37.54200 7.35400 28.30600
C  38.96000 7.84100 28.20800
C  36.11600 6.83300 30.51100
C  36.66600 6.97900 27.13100
O  37.04300 7.20900 25.97100
C  35.26600 6.52200 27.35200
N  41.86900 9.21100 27.89800
C  41.10300 8.57900 26.92200
C  41.80900 8.55600 25.52900
C  43.11600 9.29500 25.88300
C  42.92000 9.70700 27.33900
C  42.07300 7.15500 24.85500
C  43.60500 10.40900 24.94100
C  42.95900 11.72000 25.08500
N  42.94800 10.32800 30.20500
C  43.97200 10.66000 29.35200
C  45.05300 11.20300 30.11500
C  44.67500 11.12400 31.47100
C  43.35000 10.63200 31.45000
C  46.48100 11.59900 29.61800
C  45.06700 11.38500 32.81800
O  46.05400 11.99800 33.25500
C  43.83400 10.95900 33.74500
C  44.33500 10.05500 34.75900
O  44.34500 8.86100 34.72400
O  44.82200 10.76900 35.89200
C  45.27100 9.91000 36.95200
H  37.73800 7.93200 32.41300
H  39.41600 7.50200 26.17100
H  44.88100 10.54900 27.57800
H  41.49600 9.24600 34.99500
H  38.53800 9.31800 34.38100
H  40.17900 7.51700 35.69300
H  39.64200 6.76500 34.24200
H  38.40600 7.38600 35.23500
H  39.82000 11.72200 34.42400
H  41.39900 11.73000 34.86600
H  39.91100 10.17000 36.96600
H  39.01700 11.58600 36.55400
H  35.18400 7.28300 30.16800
H  36.17300 7.08700 31.57000
H  35.87500 5.77600 30.40200
H  35.26300 5.77100 28.14200
H  34.93700 5.97200 26.47100
H  34.64400 7.40800 27.48100
H  41.17400 9.26500 24.99700
H  43.99100 8.64500 25.90900
H  41.73700 6.45800 25.62300
H  43.13200 6.99300 24.65400
H  41.41400 7.00600 23.99900
H  43.41400 9.91400 23.98800
H  44.66500 10.64500 25.03500
H  42.24300 11.63400 25.90200
H  42.36900 11.97100 24.20400
H  43.64500 12.54500 25.27900
H  46.54100 12.61700 29.23300
H  46.88800 10.89200 28.89500
H  47.04600 11.71000 30.54400
H  43.47000 11.90000 34.15800
H  45.99700 10.56900 37.42900
H  45.84100 9.03500 36.63900
H  44.54000 9.57800 37.68900

