158

Mg 46.51900 34.87000 27.77600
C  44.81000 32.94400 30.25600
C  46.70300 37.43500 30.00800
C  47.74900 36.55900 25.32200
C  46.02500 32.16100 25.57100
N  45.99600 35.12000 29.91600
C  45.37000 34.18300 30.71200
C  45.46800 34.62800 32.18100
C  45.60800 36.14900 32.07700
C  46.15100 36.28900 30.60300
C  44.34800 36.96500 32.31100
C  46.62000 33.85000 32.92400
C  46.37600 33.67700 34.45000
H  45.52400 34.76400 35.21200
N  47.16100 36.78500 27.66400
C  47.19900 37.71200 28.69100
C  47.81400 38.91800 28.22000
C  47.98000 38.70500 26.79800
C  47.64100 37.30500 26.54800
C  47.92300 40.12000 29.12500
C  48.51600 39.64100 25.64900
O  48.39500 39.38900 24.45800
C  49.16500 40.88500 26.06500
N  46.81400 34.41500 25.72900
C  47.34800 35.28400 24.95500
C  47.50100 34.81700 23.51600
C  46.97400 33.34700 23.55400
C  46.60700 33.27900 25.04300
C  47.00300 35.70800 22.37300
C  47.90500 32.12200 23.20300
C  49.07900 31.78600 24.15700
N  45.80400 32.91000 27.92200
C  45.66400 32.02900 26.95500
C  45.16500 30.79200 27.52200
C  44.80500 31.10300 28.79100
C  45.11400 32.46500 29.03500
C  44.90200 29.51100 26.84800
C  44.12000 30.59500 29.93700
O  43.66900 29.48400 30.17400
C  43.90900 31.87200 30.87800
C  44.07300 31.55700 32.29100
O  44.99700 31.06300 32.86500
O  42.87300 32.01300 32.83800
C  42.64900 31.67100 34.26600
H  46.79900 38.27600 30.69900
H  48.07600 37.14200 24.45900
H  45.87300 31.30500 24.91100
H  44.51500 34.46300 32.68300
H  46.40800 36.42000 32.76700
H  44.41000 37.52100 33.24700
H  43.43700 36.38900 32.47000
H  44.17100 37.57200 31.42400
H  47.47600 34.50100 32.74600
H  46.89200 32.96100 32.35400
H  47.29700 33.82200 35.01500
H  45.99600 32.67200 34.63300
H  48.68000 40.81900 28.76900
H  48.35600 39.84800 30.08700
H  46.96200 40.60300 29.30100
H  48.33700 41.51100 26.39800
H  49.81700 41.17800 25.24200
H  49.63200 40.57700 27.00100
H  48.57500 34.66700 23.40100
H  46.16300 33.24600 22.83200
H  46.35100 35.29200 21.60500
H  47.84100 36.27400 21.96700
H  46.37600 36.37200 22.96900
H  48.44900 32.22500 22.26400
H  47.14400 31.34300 23.15200
H  50.05900 32.05300 23.76000
H  49.03000 30.73500 24.44100
H  49.01900 32.39100 25.06200
H  45.69000 29.32700 26.11800
H  43.95500 29.39000 26.32300
H  45.08900 28.73400 27.58900
H  42.89400 32.24000 30.72500
H  42.80800 32.59400 34.82300
H  43.42800 31.00300 34.63400
H  41.62600 31.32600 34.41300
Mg 30.12200 58.97000 40.89100
C  27.16300 57.36300 39.76000
C  31.79100 56.22300 39.88300
C  32.99000 60.85100 40.94300
C  28.13700 61.82600 41.49200
N  29.51000 57.09100 39.63700
C  28.24500 56.62300 39.43800
C  28.22600 55.20900 38.90800
C  29.64100 54.74600 39.39800
C  30.42600 56.09300 39.66900
C  29.56000 53.77400 40.68800
C  27.97400 55.14200 37.37500
C  26.69400 54.38200 36.96000
H  25.98900 54.83000 35.67500
N  32.16200 58.55500 40.57300
C  32.70300 57.31500 40.15400
C  34.06400 57.39200 40.23200
C  34.45300 58.67600 40.60800
C  33.17600 59.48300 40.65100
C  34.92500 56.20100 39.96700
C  35.87500 59.02700 40.97400
O  36.74100 58.18700 40.99400
C  36.23400 60.44700 41.40900
N  30.50900 60.97900 41.24300
C  31.75000 61.51100 41.20900
C  31.74100 62.98000 41.75800
C  30.24300 63.21400 42.09900
C  29.59400 61.91700 41.59400
C  32.82100 63.46300 42.80200
C  29.59800 64.53600 41.51600
C  28.46500 65.14400 42.35100
N  28.03800 59.53200 40.90400
C  27.40000 60.70000 41.12600
C  25.94400 60.59400 40.87000
C  25.83700 59.27400 40.35300
C  27.14000 58.70000 40.42500
C  24.88300 61.74300 41.05400
C  24.91800 58.23700 39.95000
O  23.69700 58.27100 39.82000
C  25.67100 56.86000 39.74100
C  25.16700 55.93600 40.85600
O  25.78400 55.57800 41.87300
O  23.91100 55.59900 40.50300
C  23.06700 55.00000 41.58000
H  32.18200 55.22800 39.66100
H  33.87100 61.46700 41.13600
H  27.46400 62.63100 41.79500
H  27.44200 54.62500 39.39000
H  30.26400 54.21800 38.67600
H  28.57100 53.52500 41.07300
H  30.17600 54.24300 41.45500
H  30.02400 52.86500 40.30600
H  28.91900 54.78000 36.96900
H  27.78500 56.16700 37.05800
H  26.02700 54.25600 37.81300
H  27.07700 53.38200 36.75600
H  35.56400 56.25800 39.08500
H  34.35200 55.28300 40.09500
H  35.70200 56.05200 40.71700
H  35.81200 61.08200 40.63100
H  37.30200 60.36900 41.20600
H  35.92800 60.67000 42.43100
H  31.99700 63.57100 40.87900
H  30.07900 63.23500 43.17600
H  32.14600 63.65300 43.63700
H  33.30000 64.37200 42.43800
H  33.50000 62.62700 42.97100
H  29.26200 64.29900 40.50600
H  30.49400 65.15400 41.47600
H  28.55000 66.22500 42.46300
H  28.41000 64.72800 43.35700
H  27.51500 64.97500 41.84400
H  25.07800 62.33400 41.94900
H  23.90400 61.26700 41.12400
H  24.92700 62.31300 40.12600
H  25.54400 56.40500 38.75900
H  23.39800 55.19500 42.60000
H  23.13200 53.91300 41.63500
H  22.05600 55.29700 41.30000

