158

Mg 16.98000 -2.44000 28.39500
C  16.10100 -0.25900 31.13300
C  18.98600 -4.24100 30.73300
C  18.30600 -4.23400 25.90400
C  15.35900 -0.41000 26.25000
N  17.48700 -2.22300 30.60600
C  16.90100 -1.33700 31.50800
C  17.27400 -1.63600 32.96300
C  18.26100 -2.94100 32.77500
C  18.31100 -3.13300 31.25700
C  19.63400 -2.82800 33.39300
C  16.03900 -1.73400 34.04400
C  16.20300 -0.89800 35.26400
H  17.55500 -0.70100 35.85000
N  18.40500 -4.01600 28.35300
C  19.05600 -4.61800 29.39500
C  19.75500 -5.84900 28.89800
C  19.64200 -5.81300 27.46600
C  18.67400 -4.74900 27.19100
C  20.56900 -6.76700 29.87700
C  20.23900 -6.74100 26.47600
O  19.96700 -6.68800 25.30400
C  21.19100 -7.81400 26.98000
N  16.82000 -2.38100 26.40400
C  17.51000 -3.16700 25.55200
C  17.35300 -2.64300 24.08700
C  16.29700 -1.54300 24.21300
C  16.04000 -1.41800 25.68700
C  18.75000 -2.11100 23.51200
C  15.07000 -1.72700 23.37500
C  14.50000 -0.38800 22.84300
N  15.95200 -0.61200 28.53000
C  15.27100 0.04000 27.58900
C  14.66600 1.16300 28.18100
C  15.02400 1.10900 29.58400
C  15.77800 -0.01600 29.76600
C  13.97000 2.30100 27.53400
C  14.83000 1.80100 30.84800
O  14.35900 2.88300 31.01600
C  15.50100 0.91000 31.90500
C  16.51800 1.71000 32.64900
O  17.72700 1.76800 32.33500
O  16.02800 2.35200 33.81700
C  17.02700 3.10000 34.60800
H  19.54000 -4.83200 31.46500
H  18.70800 -4.72300 25.01400
H  14.68500 0.24800 25.69800
H  17.95100 -0.83100 33.24800
H  17.79600 -3.76400 33.31900
H  19.63900 -3.50000 34.25100
H  19.82500 -1.80500 33.71900
H  20.37700 -3.18200 32.67900
H  16.10500 -2.76100 34.40200
H  15.14500 -1.53400 33.45300
H  15.63000 -1.39400 36.04800
H  15.70600 0.06500 35.14700
H  21.62600 -6.64100 29.63900
H  20.26300 -7.71900 29.44400
H  20.22200 -6.79000 30.91000
H  21.78300 -7.35200 27.76900
H  21.77900 -8.07200 26.09900
H  20.57700 -8.68100 27.22500
H  16.93400 -3.47000 23.51200
H  16.70800 -0.56200 23.97500
H  18.83200 -1.02500 23.57100
H  18.83500 -2.44600 22.47900
H  19.59100 -2.53900 24.05700
H  14.19900 -2.25600 23.76200
H  15.32300 -2.13700 22.39700
H  14.96500 -0.09300 21.90200
H  14.58200 0.45000 23.53600
H  13.41900 -0.51900 22.88700
H  12.93200 2.11000 27.26300
H  14.59200 2.64000 26.70600
H  14.11000 3.12000 28.24000
H  14.75100 0.65100 32.65200
H  16.92700 4.17900 34.48900
H  18.06600 2.89000 34.35500
H  16.98600 2.96800 35.68900
Mg -11.05800 17.17500 43.02100
C  -7.67000 17.88900 43.35900
C  -11.58000 20.45000 42.44600
C  -14.07300 16.26000 41.85100
C  -10.15800 13.67700 42.87300
N  -9.73200 18.89300 42.87900
C  -8.39900 19.02400 43.18900
C  -7.89900 20.43400 42.98800
C  -9.27000 21.24000 43.21800
C  -10.28600 20.15300 42.89800
C  -9.46200 21.76100 44.64600
C  -7.18100 20.69100 41.65700
C  -5.63200 20.98300 41.75100
H  -5.15900 21.57100 40.44900
N  -12.69500 18.21800 42.35500
C  -12.68100 19.55100 42.17200
C  -13.97500 19.92800 41.69700
C  -14.77300 18.72800 41.63700
C  -13.82900 17.67600 41.92000
C  -14.45500 21.37700 41.49600
C  -16.30900 18.60600 41.14400
O  -16.92100 19.61800 40.76400
C  -16.85700 17.27500 40.81600
N  -11.95800 15.22400 42.34400
C  -13.29000 15.17600 42.14300
C  -13.74900 13.68200 42.09200
C  -12.42000 12.96000 41.95500
C  -11.40700 14.03500 42.44300
C  -14.60700 13.28300 43.37700
C  -12.03600 12.50500 40.45400
C  -12.30500 11.05800 39.94200
N  -9.36500 15.99400 43.28100
C  -9.14700 14.60700 43.28200
C  -7.73000 14.30200 43.65900
C  -7.13100 15.56300 43.63600
C  -8.14600 16.59300 43.47100
C  -7.04200 12.99100 43.83000
C  -5.83400 16.18400 43.72900
O  -4.66500 15.80500 43.82800
C  -6.21000 17.77000 43.76900
C  -5.90800 18.40900 45.06900
O  -6.50900 18.24500 46.15400
O  -4.92800 19.27600 44.87000
C  -4.56200 19.96700 46.05100
H  -11.71100 21.51800 42.26100
H  -15.10200 15.89600 41.80700
H  -9.94100 12.60800 42.84000
H  -7.23700 20.67200 43.82000
H  -9.28700 22.08400 42.52900
H  -9.94200 22.74000 44.63400
H  -8.54000 21.99200 45.18000
H  -10.02200 21.16100 45.36200
H  -7.64700 21.55300 41.18000
H  -7.31900 19.79600 41.05000
H  -5.05900 20.06000 41.84200
H  -5.27900 21.61900 42.56200
H  -13.62500 22.02900 41.76600
H  -15.36500 21.62800 42.04100
H  -14.67900 21.46600 40.43300
H  -16.31500 16.69300 40.07000
H  -17.88300 17.37900 40.46100
H  -16.95900 16.61300 41.67600
H  -14.29900 13.47200 41.17500
H  -12.27100 12.10900 42.62000
H  -13.99100 12.62500 43.99000
H  -15.47600 12.66800 43.14300
H  -14.84100 14.22800 43.86800
H  -11.03500 12.84000 40.18500
H  -12.73700 13.03200 39.80700
H  -11.44000 10.67400 39.40300
H  -13.16900 11.06400 39.27700
H  -12.50300 10.43400 40.81400
H  -7.61000 12.14600 43.43900
H  -6.96000 12.84200 44.90600
H  -6.06100 12.89000 43.36500
H  -5.62900 18.21500 42.96100
H  -3.51500 20.24200 45.92500
H  -4.60600 19.43900 47.00400
H  -5.27100 20.79200 46.12500

