158

Mg 36.44300 2.56500 30.27700
C  33.91300 3.36800 32.52400
C  38.72100 2.68300 32.81800
C  38.88800 2.05700 27.92700
C  34.04900 2.89800 27.59900
N  36.30900 2.93700 32.39700
C  35.18600 3.24200 33.11300
C  35.53900 3.27600 34.62900
C  37.14100 3.32500 34.61900
C  37.42200 2.95400 33.18500
C  37.68600 4.68100 35.00700
C  34.87900 2.11100 35.45300
C  34.40200 2.48100 36.85100
H  34.81100 3.76300 37.60100
N  38.49900 2.21700 30.41400
C  39.30500 2.41900 31.55200
C  40.60400 2.07700 31.26100
C  40.68600 1.99800 29.81900
C  39.33100 2.07900 29.31000
C  41.56200 1.75000 32.36800
C  41.90400 1.67800 28.95900
O  41.73000 1.65200 27.73300
C  43.20100 1.43800 29.58400
N  36.53700 2.71700 28.13500
C  37.62500 2.25200 27.39700
C  37.35800 2.35000 25.89900
C  35.81300 2.28500 25.92400
C  35.38200 2.67900 27.32700
C  37.94500 3.62900 25.32300
C  35.20200 0.94100 25.39100
C  35.41500 -0.36500 26.29700
N  34.43200 3.00200 30.07900
C  33.60700 3.04900 28.94700
C  32.21200 3.30600 29.40300
C  32.30100 3.46300 30.77300
C  33.66100 3.20400 31.14200
C  31.07200 3.22500 28.48100
C  31.57000 3.75700 32.03000
O  30.37600 4.05000 32.16600
C  32.57200 3.67900 33.18700
C  32.48700 5.04400 33.77500
O  32.97000 5.99100 33.24800
O  31.96400 5.00600 35.02500
C  32.16400 6.14400 35.85100
H  39.49600 2.83100 33.57400
H  39.62100 2.05900 27.11700
H  33.23000 2.94300 26.87900
H  35.11900 4.18400 35.06100
H  37.61000 2.54100 35.21300
H  38.39100 5.00400 34.24100
H  38.17100 4.45200 35.95500
H  36.98500 5.48200 35.24300
H  35.62700 1.32000 35.39500
H  33.98800 1.72500 34.95800
H  34.63900 1.55700 37.37900
H  33.32400 2.63700 36.79900
H  41.77100 2.58800 33.03400
H  42.56800 1.37100 32.18700
H  41.19500 0.99500 33.06300
H  44.03500 1.48600 28.88500
H  43.04900 0.49600 30.11100
H  43.33200 2.23400 30.31700
H  37.83700 1.49100 25.43000
H  35.52300 3.09000 25.24900
H  38.04100 3.46800 24.25000
H  38.79600 3.97800 25.90700
H  37.24700 4.46100 25.41500
H  35.67400 0.65100 24.45200
H  34.13600 1.08300 25.21000
H  36.21500 -0.21300 27.02200
H  35.53500 -1.31500 25.77700
H  34.44900 -0.46100 26.79300
H  31.17000 2.31400 27.89100
H  30.95500 4.03900 27.76600
H  30.13200 3.26300 29.03000
H  32.29000 2.95600 33.95300
H  31.27000 6.76400 35.78600
H  32.96900 6.76000 35.45000
H  32.32100 5.78700 36.86900
Mg 47.13200 35.10600 26.46900
C  45.36800 33.44300 28.91400
C  47.65700 37.77800 28.71000
C  48.74500 36.82000 24.02400
C  45.97500 32.83600 24.00000
N  46.67900 35.49700 28.56500
C  46.15900 34.51300 29.40600
C  46.12700 35.02300 30.78300
C  46.34200 36.59600 30.64300
C  46.97600 36.64500 29.24200
C  44.99000 37.36900 30.87300
C  47.19400 34.25900 31.65100
C  46.92000 34.45700 33.19100
H  45.79400 35.35100 33.80700
N  48.13700 36.94700 26.37600
C  48.21500 37.89900 27.43300
C  49.04300 38.98400 26.99200
C  49.35600 38.78500 25.64000
C  48.84700 37.41900 25.30400
C  49.42100 40.18600 27.83000
C  50.11300 39.69500 24.56000
O  50.38200 39.27300 23.49800
C  50.66700 41.07700 24.98800
N  47.18300 34.91100 24.31100
C  48.08100 35.64300 23.56400
C  48.30600 34.99000 22.14300
C  47.36800 33.80700 22.11600
C  46.84000 33.84700 23.52100
C  48.14200 35.97400 20.92900
C  47.90400 32.48200 21.65800
C  46.99800 31.81300 20.63600
N  45.93300 33.49600 26.44500
C  45.54600 32.65400 25.34300
C  44.76500 31.60800 25.88100
C  44.61500 31.90900 27.30400
C  45.32900 33.03800 27.54200
C  44.28100 30.36600 25.17600
C  44.02000 31.43300 28.58700
O  43.37400 30.43700 28.77100
C  44.36900 32.60200 29.63200
C  44.96300 31.84600 30.79600
O  45.92500 31.07600 30.72100
O  44.25400 32.09800 31.93800
C  44.75400 31.29300 33.10900
H  47.81300 38.54800 29.46800
H  49.33400 37.17700 23.17600
H  45.62700 32.02600 23.35500
H  45.11600 34.79800 31.12300
H  47.07400 37.05700 31.30600
H  44.13800 36.71700 31.06300
H  44.79800 37.85800 29.91700
H  45.14400 38.11500 31.65200
H  48.17600 34.69800 31.47400
H  47.23800 33.18500 31.47000
H  47.87700 34.84700 33.53700
H  46.83400 33.44400 33.58300
H  50.49800 40.07700 27.95400
H  48.98200 40.13200 28.82700
H  49.08400 41.09400 27.33000
H  51.12400 40.99700 25.97400
H  50.02300 41.95400 24.92400
H  51.36800 41.35300 24.20100
H  49.32600 34.60500 22.13900
H  46.52000 34.13300 21.51300
H  47.53400 35.45400 20.18800
H  49.09700 36.27600 20.49900
H  47.61200 36.88900 21.19400
H  48.15500 31.79200 22.46400
H  48.82000 32.83000 21.18100
H  47.50800 32.04900 19.70200
H  45.97600 32.18500 20.56500
H  47.03500 30.74400 20.84500
H  43.22400 30.47100 24.93200
H  44.39100 29.63400 25.97700
H  44.91000 30.20500 24.30100
H  43.52900 33.19700 29.99000
H  44.10900 31.45900 33.97200
H  45.75800 31.66700 33.30800
H  44.61600 30.22000 32.97600

