158

Mg 49.60800 46.08400 42.70400
C  46.76000 47.70900 41.65600
C  48.47600 43.21900 41.12200
C  52.87000 45.00700 42.50300
C  50.78900 49.24400 43.80600
N  47.83200 45.58700 41.58500
C  46.84700 46.41800 41.16500
C  45.74900 45.69600 40.33900
C  46.16600 44.27000 40.46300
C  47.60900 44.37700 41.06600
C  45.14800 43.36900 41.16300
C  45.61000 46.14600 38.78500
C  44.15500 46.40500 38.28800
H  43.78100 46.18200 36.80700
N  50.54600 44.29000 41.92500
C  49.87100 43.23500 41.40300
C  50.83900 42.13300 41.23300
C  52.07900 42.61000 41.68900
C  51.89100 44.02100 42.02500
C  50.31500 40.75400 40.73500
C  53.33700 41.74100 41.63200
O  53.29400 40.59800 41.17000
C  54.67600 42.43500 41.80500
N  51.57000 47.05000 42.88100
C  52.69300 46.30600 42.96400
C  53.84800 47.05100 43.67900
C  53.22900 48.43900 44.04400
C  51.78700 48.27800 43.54500
C  54.60000 46.32300 44.84600
C  53.93700 49.72300 43.40000
C  54.17400 50.83700 44.41500
N  48.96400 48.05200 42.88100
C  49.48500 49.20700 43.32100
C  48.51700 50.21200 43.40200
C  47.33500 49.66200 42.74500
C  47.72700 48.33700 42.45400
C  48.72700 51.55800 44.02100
C  46.05300 49.96800 42.20000
O  45.35300 50.99600 42.22100
C  45.60600 48.69300 41.46300
C  44.39600 48.26300 42.07500
O  44.29100 47.61100 43.10100
O  43.35500 48.60300 41.27600
C  42.04500 48.16400 41.58700
H  47.92700 42.41800 40.62300
H  53.81800 44.59300 42.85300
H  51.01600 50.17200 44.33300
H  44.82900 45.87400 40.89600
H  46.36700 43.81400 39.49400
H  45.33200 43.36800 42.23700
H  45.04800 42.37100 40.73500
H  44.16200 43.82200 41.06500
H  46.19200 45.62900 38.02200
H  46.05000 47.14100 38.72700
H  43.78400 47.35300 38.67700
H  43.42700 45.78300 38.81000
H  49.30800 40.77700 40.31900
H  50.47700 39.96900 41.47400
H  50.83400 40.60100 39.78800
H  54.79300 43.41000 41.33200
H  55.43200 41.83100 41.30400
H  54.92900 42.53600 42.86000
H  54.68800 47.17600 42.99500
H  53.28700 48.60000 45.12000
H  54.29100 45.34600 45.21900
H  54.75200 47.04100 45.65100
H  55.59000 46.08500 44.45700
H  53.37100 50.04100 42.52500
H  54.86700 49.44100 42.90700
H  55.17300 51.27300 44.39400
H  53.88800 50.59300 45.43800
H  53.49800 51.66600 44.20800
H  49.33800 52.20300 43.38900
H  49.27400 51.46400 44.95900
H  47.82300 52.12400 44.24500
H  45.43500 48.97600 40.42400
H  41.48100 48.28200 40.66200
H  41.58000 48.73600 42.39000
H  42.12300 47.09200 41.76800
Mg 1.53100 42.62300 26.41700
C  2.99800 42.63400 29.75400
C  -1.34200 41.42600 27.77300
C  0.40900 41.84400 23.30400
C  4.64300 43.36000 25.11900
N  0.98100 42.00800 28.54700
C  1.58700 42.31000 29.76400
C  0.62200 42.13200 30.93300
C  -0.66300 41.78600 30.21700
C  -0.33000 41.76300 28.71100
C  -1.36000 40.50000 30.78200
C  0.51200 43.51800 31.69000
C  0.99300 43.37900 33.12600
H  0.52100 42.20200 33.97800
N  -0.30600 41.91200 25.64000
C  -1.35900 41.40700 26.36500
C  -2.38300 40.99800 25.41500
C  -1.94700 41.14600 24.08000
C  -0.57600 41.67400 24.29200
C  -3.69700 40.49000 25.94800
C  -2.61600 40.80800 22.71800
O  -1.99200 40.80200 21.67300
C  -4.06800 40.71100 22.73400
N  2.38700 42.57200 24.48500
C  1.67800 42.37000 23.32700
C  2.62500 42.28300 22.14500
C  3.98200 42.95600 22.72600
C  3.71300 43.02400 24.22600
C  2.71600 40.81300 21.61600
C  4.28200 44.40000 22.11300
C  4.96100 44.42200 20.67200
N  3.46300 42.90300 27.21200
C  4.61100 43.24600 26.53100
C  5.66600 43.34300 27.49900
C  5.06200 43.13700 28.75000
C  3.77200 42.85900 28.58200
C  7.11600 43.59100 27.10700
C  5.40800 43.01800 30.17900
O  6.45600 43.15700 30.85900
C  3.96000 42.83400 30.88000
C  4.15100 41.59100 31.72300
O  4.17100 40.43900 31.31400
O  4.57500 41.95000 32.97500
C  5.08700 40.82700 33.83200
H  -2.36100 41.19500 28.09200
H  0.10600 41.58500 22.28700
H  5.63600 43.55400 24.70800
H  0.94900 41.31500 31.57700
H  -1.40700 42.57500 30.33400
H  -1.13500 40.46700 31.84800
H  -1.12700 39.56500 30.27400
H  -2.44600 40.59500 30.80000
H  -0.52600 43.82000 31.83100
H  1.05900 44.31400 31.18500
H  0.75600 44.30700 33.64500
H  2.08300 43.33800 33.14300
H  -4.32000 41.37500 26.07700
H  -3.58500 39.91900 26.87000
H  -4.19200 39.77700 25.28900
H  -4.45400 41.46800 23.41600
H  -4.37500 39.68600 22.94100
H  -4.37400 41.10400 21.76500
H  2.14700 42.79200 21.30700
H  4.85800 42.30900 22.68300
H  3.74400 40.56200 21.35600
H  2.22600 40.54400 20.68000
H  2.37400 40.04700 22.31200
H  4.99000 44.93400 22.74700
H  3.35400 44.96800 22.04900
H  5.01400 43.36800 20.39900
H  6.02400 44.66300 20.66900
H  4.43100 45.09700 20.00000
H  7.62200 42.73500 26.65900
H  7.58300 44.04500 27.98100
H  6.99300 44.44500 26.44100
H  3.77300 43.72900 31.47200
H  5.27200 41.23300 34.82700
H  6.03900 40.63300 33.33700
H  4.47300 39.92900 33.89600

