158

Mg 24.22500 -4.53100 45.85400
C  26.37400 -2.08600 44.33000
C  21.72800 -3.30800 43.93600
C  22.53200 -7.40900 46.36100
C  26.88200 -5.70900 47.64500
N  24.10500 -2.98300 44.31000
C  25.03500 -2.08300 43.91100
C  24.46800 -1.20300 42.75200
C  22.92300 -1.24800 43.13100
C  22.85100 -2.54700 43.85700
C  22.45000 0.05300 43.87300
C  24.75100 -1.66400 41.21500
C  25.79300 -0.81200 40.48900
H  25.74500 -0.94600 38.98400
N  22.30700 -5.29700 45.27900
C  21.47700 -4.63700 44.41000
C  20.30200 -5.43400 44.20300
C  20.49200 -6.70200 44.83900
C  21.82200 -6.57100 45.52100
C  19.07000 -5.00200 43.38900
C  19.57700 -7.90700 44.78800
O  18.43200 -7.73200 44.31700
C  19.88900 -9.19300 45.53100
N  24.65700 -6.25400 46.81300
C  23.78000 -7.31100 46.98500
C  24.31100 -8.42400 47.93500
C  25.62500 -7.70400 48.52500
C  25.72400 -6.42700 47.59900
C  23.40700 -8.95500 48.99300
C  26.82800 -8.62600 48.51300
C  27.56800 -8.85100 49.75500
N  26.26600 -3.97600 46.10400
C  27.22100 -4.58100 46.81800
C  28.42000 -3.74700 46.66200
C  28.21100 -2.87900 45.65700
C  26.83100 -2.99000 45.31900
C  29.60700 -3.91200 47.54200
C  28.68700 -1.80100 44.77100
O  29.80900 -1.31300 44.63100
C  27.58600 -1.24900 43.81600
C  27.26300 0.19900 44.15100
O  27.28600 0.74900 45.24900
O  27.06400 0.97900 42.98100
C  26.97300 2.46800 43.18500
H  20.82400 -2.93800 43.44900
H  22.02500 -8.34700 46.59700
H  27.44600 -5.88600 48.56300
H  24.91800 -0.22400 42.91900
H  22.23500 -1.36600 42.29400
H  23.27200 0.59800 44.33800
H  21.67100 -0.20200 44.59100
H  22.04600 0.68000 43.07900
H  23.92600 -1.86700 40.53300
H  25.38200 -2.55300 41.25000
H  26.79400 -1.14200 40.76600
H  25.88800 0.24900 40.72400
H  18.94500 -5.69600 42.55900
H  19.24200 -3.99300 43.01300
H  18.24200 -4.88000 44.08900
H  20.93500 -9.41200 45.31700
H  19.31700 -9.99200 45.05900
H  19.67800 -9.18900 46.60100
H  24.57400 -9.14700 47.16200
H  25.40300 -7.33000 49.52400
H  22.59000 -8.24800 49.13900
H  23.90600 -8.99700 49.96100
H  23.06500 -9.97000 48.78900
H  27.62800 -8.32000 47.83900
H  26.46400 -9.61500 48.23400
H  26.97300 -8.48100 50.59000
H  28.56000 -8.41000 49.85500
H  27.69400 -9.93100 49.83600
H  30.58200 -3.61900 47.15400
H  29.74300 -4.95300 47.83200
H  29.46500 -3.30900 48.44000
H  27.78500 -1.25100 42.74400
H  27.50500 2.89200 44.03600
H  25.91000 2.59600 43.39000
H  27.34100 2.95600 42.28200
Mg 35.18900 3.52600 30.16200
C  32.79100 4.19300 32.45900
C  37.58400 3.72800 32.60300
C  37.51200 2.52400 27.82900
C  32.78200 3.58100 27.53100
N  35.15200 3.82700 32.22800
C  34.04400 3.98100 33.01500
C  34.25900 4.19100 34.51300
C  35.82400 4.40700 34.42800
C  36.24800 3.93800 33.03700
C  36.24500 5.93400 34.71000
C  33.78400 2.99300 35.39700
C  33.38400 3.43000 36.81200
H  34.25200 4.41000 37.66900
N  37.28600 3.21600 30.17800
C  38.05900 3.36100 31.31200
C  39.36600 2.87100 31.02100
C  39.37700 2.58500 29.62400
C  37.99000 2.77900 29.10500
C  40.47500 2.78200 32.02300
C  40.49700 2.14900 28.72300
O  40.43900 1.94000 27.48100
C  41.87500 1.86800 29.33800
N  35.14400 3.27800 27.91100
C  36.23400 2.74600 27.26100
C  35.85500 2.46000 25.81400
C  34.28900 2.75000 25.75900
C  34.05100 3.29400 27.11300
C  36.71500 3.35000 24.75500
C  33.37300 1.63800 25.21100
C  32.08800 2.06300 24.44800
N  33.21900 3.87400 29.97100
C  32.33300 3.85700 28.91200
C  31.07600 4.16300 29.38900
C  31.24200 4.32000 30.74100
C  32.53200 4.10100 31.07500
C  29.76500 4.23500 28.60000
C  30.43400 4.66200 31.86100
O  29.25200 5.04600 31.97500
C  31.43900 4.43000 33.10300
C  31.37000 5.67900 33.93800
O  31.58900 6.82800 33.51800
O  30.92200 5.31800 35.21200
C  30.58900 6.55400 36.00900
H  38.31800 3.90800 33.39000
H  38.23400 1.92100 27.27500
H  31.91200 3.52300 26.87500
H  33.73500 5.10400 34.79700
H  36.43200 3.90400 35.17900
H  35.34500 6.40100 35.11000
H  36.67700 6.45400 33.85500
H  36.91400 5.98600 35.56900
H  34.52200 2.21200 35.58200
H  32.89600 2.56800 34.92800
H  33.29100 2.50400 37.38000
H  32.36200 3.78600 36.67700
H  40.64700 1.82700 32.52000
H  40.23600 3.54800 32.76000
H  41.43400 3.13300 31.64200
H  41.91700 1.20800 30.20400
H  42.37000 2.80000 29.60700
H  42.54700 1.50400 28.56100
H  36.07300 1.40800 25.63500
H  34.19000 3.58800 25.06900
H  37.15500 2.59700 24.10200
H  37.44700 3.92800 25.31900
H  36.04900 3.97500 24.15900
H  32.90600 1.18000 26.08300
H  33.90900 0.87400 24.64800
H  31.26900 2.25500 25.14000
H  31.81000 1.28800 23.73400
H  32.35000 2.94600 23.86400
H  29.01700 4.47600 29.35600
H  29.40000 3.34500 28.08800
H  29.86500 5.07500 27.91200
H  31.11000 3.60500 33.73600
H  29.82900 7.20600 35.57800
H  31.53900 7.04900 36.20800
H  30.10600 6.14300 36.89600

