158

Mg 30.55100 58.69600 41.03200
C  27.78800 56.89700 39.93600
C  32.55600 56.28800 39.65300
C  33.08500 60.99600 41.01800
C  28.31300 61.40500 41.77700
N  30.12000 56.88400 39.81100
C  28.96600 56.23500 39.65300
C  29.11200 54.76500 39.27700
C  30.64600 54.58400 39.34500
C  31.16700 55.98200 39.67400
C  31.17400 53.39700 40.17900
C  28.40300 54.26700 38.03300
C  28.20200 55.22000 36.80900
H  28.36100 54.82800 35.37800
N  32.53300 58.61900 40.55400
C  33.15300 57.56000 39.92700
C  34.57800 57.88400 39.83100
C  34.78100 59.20800 40.15200
C  33.46400 59.66500 40.59600
C  35.64000 56.94800 39.27800
C  36.13000 59.92400 40.08900
O  37.07600 59.38900 39.49600
C  36.40400 61.29700 40.65200
N  30.61000 60.81000 41.59400
C  31.81700 61.49200 41.52800
C  31.71600 62.98000 41.88000
C  30.18500 63.10400 42.21200
C  29.65700 61.74400 41.81500
C  32.65600 63.39900 43.03300
C  29.35700 64.29000 41.68100
C  29.08600 65.49200 42.69300
N  28.43000 59.06500 41.08200
C  27.64800 60.18500 41.37200
C  26.26800 59.91600 41.15100
C  26.32400 58.61300 40.59400
C  27.62300 58.16900 40.48000
C  25.18600 60.90800 41.35800
C  25.43500 57.54900 40.07600
O  24.23200 57.56700 39.92900
C  26.39200 56.36700 39.76300
C  26.10000 55.32100 40.78100
O  26.58800 55.16800 41.87600
O  25.14800 54.43700 40.26300
C  24.70500 53.22900 41.05300
H  33.24600 55.53600 39.26400
H  33.74900 61.85300 40.89000
H  27.59100 62.21400 41.90600
H  28.68100 54.33100 40.17900
H  31.07300 54.44700 38.35200
H  31.92200 53.72900 40.89800
H  31.55000 52.69100 39.43800
H  30.44700 52.89100 40.81400
H  27.43700 53.88700 38.36500
H  29.00700 53.48100 37.58000
H  28.92800 56.02200 36.94200
H  27.18000 55.57900 36.92600
H  35.68000 57.22400 38.22500
H  35.33700 55.90600 39.38800
H  36.57600 57.08800 39.81800
H  35.92900 61.54600 41.60200
H  36.14200 62.01600 39.87500
H  37.47900 61.36700 40.81400
H  31.80000 63.54000 40.94900
H  30.15700 63.07300 43.30200
H  33.16300 62.52200 43.43600
H  32.19000 63.90200 43.88000
H  33.32700 64.17300 42.66200
H  28.47400 63.91300 41.16500
H  29.93000 64.61200 40.81100
H  29.32000 65.24700 43.72900
H  28.00600 65.63800 42.66200
H  29.56600 66.40300 42.33600
H  25.40500 61.47400 42.26300
H  24.30600 60.29300 41.54800
H  25.04600 61.45500 40.42600
H  26.09600 56.08700 38.75100
H  24.26900 53.60500 41.97900
H  25.51900 52.57500 41.36600
H  24.00200 52.68100 40.42600
Mg -11.86000 38.48500 42.02400
C  -9.62300 36.04800 40.74900
C  -9.70700 40.95800 40.70100
C  -14.35700 40.77500 42.28700
C  -13.98800 35.90700 42.97300
N  -9.93900 38.43200 40.88300
C  -9.23600 37.33700 40.48900
C  -8.03900 37.78000 39.64000
C  -8.05600 39.28900 39.76900
C  -9.35400 39.61800 40.45100
C  -6.83900 39.89700 40.57300
C  -8.04100 37.27900 38.16900
C  -6.94900 36.33300 37.66800
H  -5.88100 36.91400 36.73900
N  -11.96300 40.55400 41.59100
C  -10.90200 41.40300 41.23100
C  -11.39600 42.84200 41.13900
C  -12.77800 42.78100 41.58300
C  -13.11400 41.35200 41.82900
C  -10.50200 44.09600 40.85200
C  -13.72500 44.03100 41.70400
O  -13.39000 45.13600 41.29300
C  -15.08600 43.92600 42.26700
N  -13.86400 38.38800 42.44800
C  -14.64500 39.47600 42.68900
C  -16.13100 39.02900 43.26600
C  -15.95600 37.50100 43.24100
C  -14.51100 37.24300 42.77900
C  -16.40300 39.60300 44.70800
C  -17.01100 36.83200 42.28400
C  -17.03000 37.13500 40.76500
N  -11.86100 36.37700 41.91400
C  -12.69100 35.46700 42.44000
C  -12.14300 34.10700 42.40200
C  -10.93100 34.26700 41.67000
C  -10.81700 35.67700 41.39000
C  -12.79900 32.85000 42.92000
C  -9.74600 33.62100 41.04600
O  -9.38800 32.45700 40.95700
C  -8.90300 34.79600 40.46700
C  -7.58900 34.68400 41.17700
O  -7.33200 35.19100 42.23400
O  -6.76300 33.98200 40.34100
C  -5.34900 34.00100 40.66100
H  -9.16900 41.70900 40.11900
H  -15.21600 41.42200 42.48000
H  -14.63100 35.16600 43.45200
H  -7.18100 37.33700 40.14500
H  -8.30900 39.75100 38.81500
H  -6.88200 40.97300 40.74200
H  -5.87000 39.71400 40.10800
H  -6.84200 39.27300 41.46700
H  -8.13100 38.03000 37.38400
H  -8.97900 36.72800 38.11200
H  -7.43300 35.43800 37.27700
H  -6.25000 35.98900 38.43000
H  -9.53800 43.91900 41.32900
H  -10.94400 44.93200 41.39600
H  -10.44800 44.24200 39.77300
H  -15.70100 43.32200 41.60200
H  -15.51800 44.92600 42.22100
H  -15.08400 43.51900 43.27900
H  -16.87200 39.41200 42.56400
H  -16.00500 37.19800 44.28700
H  -16.01100 40.61200 44.83600
H  -16.01500 38.94200 45.48200
H  -17.44500 39.63300 45.02900
H  -17.98200 37.11200 42.69000
H  -17.00200 35.74300 42.33200
H  -15.99500 37.34600 40.49600
H  -17.73200 37.93100 40.51800
H  -17.39700 36.24000 40.26200
H  -12.15500 32.05400 42.54600
H  -13.82000 32.80700 42.54200
H  -12.61800 32.86000 43.99500
H  -8.89600 34.63900 39.38800
H  -4.67100 33.65600 39.88000
H  -5.17700 33.25100 41.43200
H  -5.10300 34.98400 41.06200

