158

Mg 17.80400 -2.04200 28.04700
C  16.93600 -0.08500 30.83200
C  19.97600 -3.77300 29.94100
C  19.25900 -3.09700 25.25000
C  15.81200 0.26000 26.26800
N  18.31600 -1.87600 30.13400
C  17.87800 -1.06400 31.15600
C  18.31500 -1.54800 32.50500
C  19.36700 -2.62300 32.13700
C  19.19500 -2.87600 30.66200
C  20.84600 -2.33900 32.60200
C  17.00600 -2.10100 33.33300
C  17.06900 -1.71600 34.87200
H  18.49200 -1.92200 35.44000
N  19.29400 -3.44000 27.64200
C  20.03400 -4.04600 28.54000
C  20.75700 -5.08800 27.89900
C  20.52200 -5.05200 26.50100
C  19.70100 -3.79700 26.41400
C  21.63000 -6.11600 28.60500
C  20.89000 -5.97900 25.38400
O  20.60100 -5.68200 24.24900
C  21.76100 -7.16900 25.64400
N  17.56600 -1.51500 26.08500
C  18.35100 -2.00200 25.08100
C  17.87800 -1.45900 23.69200
C  16.70200 -0.53500 24.05100
C  16.68100 -0.63100 25.55400
C  18.95300 -0.64900 22.90600
C  15.35900 -0.92400 23.34700
C  14.56400 0.22200 22.79000
N  16.43800 -0.33500 28.42900
C  15.67700 0.44200 27.61700
C  14.87700 1.42900 28.33900
C  15.40300 1.35700 29.62800
C  16.27800 0.24900 29.62800
C  13.92500 2.37300 27.71100
C  15.36200 1.92000 30.97400
O  14.81400 2.90100 31.45900
C  16.44400 0.98000 31.78300
C  17.58000 1.90900 32.30500
O  18.62200 2.15500 31.79400
O  17.03500 2.49200 33.42700
C  17.88900 3.38900 34.15900
H  20.66200 -4.47400 30.42100
H  19.78300 -3.46900 24.36700
H  15.24500 0.95000 25.63800
H  18.85400 -0.71900 32.96400
H  19.16800 -3.54400 32.68500
H  20.86700 -1.86600 33.58400
H  21.44900 -1.76600 31.89900
H  21.41900 -3.24700 32.79100
H  16.88500 -3.14800 33.05300
H  16.14800 -1.56900 32.92400
H  16.41500 -2.33500 35.48600
H  16.71300 -0.70400 35.06500
H  22.53200 -6.41200 28.07000
H  21.07000 -7.04100 28.74700
H  21.98500 -5.67900 29.53800
H  22.71800 -6.85100 26.05800
H  21.83200 -7.57700 24.63600
H  21.28900 -7.87000 26.33100
H  17.53700 -2.32800 23.12900
H  16.82600 0.49600 23.71700
H  19.90100 -0.82600 23.41600
H  18.76000 0.41800 22.79900
H  19.07100 -1.13900 21.94000
H  14.73900 -1.31100 24.15600
H  15.50400 -1.75100 22.65100
H  14.96500 1.18900 23.09300
H  13.56000 0.24700 23.21300
H  14.40200 0.08100 21.72100
H  14.49200 3.26900 27.45500
H  13.12300 2.54400 28.42800
H  13.59900 1.85700 26.80700
H  15.86900 0.57500 32.61600
H  18.92600 3.35800 33.82400
H  17.80500 3.08300 35.20200
H  17.30400 4.28100 33.93500
Mg 40.47600 9.26300 28.55700
C  42.29000 10.81200 31.35700
C  38.47600 7.77400 30.93900
C  38.82000 8.19500 26.08200
C  42.96600 10.67300 26.48700
N  40.37300 9.29900 30.85800
C  41.15900 10.05400 31.76700
C  40.64900 9.82000 33.22300
C  39.44900 8.88900 32.97900
C  39.44800 8.52900 31.49500
C  39.40900 7.50000 33.76500
C  40.37300 11.10300 34.04400
C  39.25700 11.10000 35.16100
H  39.65700 11.83600 36.47500
N  38.96800 8.03300 28.48400
C  38.18000 7.52000 29.58500
C  37.08000 6.70600 28.96700
C  37.14700 6.88800 27.56200
C  38.35500 7.62400 27.30800
C  36.08700 5.88700 29.81100
C  36.20800 6.30300 26.51600
O  36.56400 6.28800 25.36100
C  34.83600 5.59300 26.86600
N  40.91600 9.32900 26.59200
C  39.90600 8.99600 25.76100
C  40.29300 9.27800 24.27500
C  41.64400 9.96700 24.37400
C  41.88200 9.95100 25.89200
C  40.22900 8.09000 23.29100
C  41.79600 11.21400 23.51700
C  41.33800 12.61900 24.12000
N  42.25500 10.49200 28.80100
C  43.15000 10.91000 27.84800
C  44.30800 11.53000 28.41600
C  44.01200 11.47600 29.80100
C  42.70500 10.87300 29.98800
C  45.57100 11.94800 27.69900
C  44.55800 11.80300 31.09700
O  45.54200 12.51400 31.33600
C  43.47700 11.40900 32.16900
C  44.04000 10.46700 33.21900
O  44.55400 9.42300 32.86500
O  43.73600 10.90700 34.50800
C  43.86200 9.96000 35.61800
H  37.70100 7.42000 31.62300
H  38.30500 7.81800 25.19500
H  43.68900 10.86900 25.69200
H  41.40500 9.25900 33.77100
H  38.54900 9.50100 33.04800
H  38.35800 7.36700 34.02400
H  40.04000 7.64600 34.64100
H  39.74900 6.68800 33.12200
H  40.36100 11.88800 33.28800
H  41.32300 11.43000 34.46900
H  38.84200 10.15700 35.51600
H  38.37100 11.64400 34.83300
H  35.08500 6.14700 29.47000
H  36.16500 6.06000 30.88400
H  36.22900 4.81600 29.66600
H  35.09400 4.71400 27.45600
H  34.38800 5.17300 25.96500
H  34.25700 6.35400 27.39000
H  39.58100 10.05300 23.99000
H  42.39000 9.24000 24.05100
H  39.95300 7.13300 23.73300
H  41.19700 7.95400 22.80900
H  39.50000 8.34000 22.52000
H  41.27500 11.01000 22.58200
H  42.85000 11.27100 23.24300
H  41.18100 12.57400 25.19800
H  40.41100 12.82600 23.58500
H  42.02400 13.44600 23.93200
H  45.25900 12.84500 27.16400
H  45.86200 11.15800 27.00600
H  46.40200 12.15000 28.37500
H  43.20500 12.23300 32.82800
H  44.47000 9.08100 35.40100
H  42.84300 9.69700 35.90100
H  44.33600 10.37600 36.50800

