158

Mg -2.14200 17.23200 25.94100
C  -2.46200 15.00800 28.86100
C  -3.49400 19.76900 28.03800
C  -2.20300 19.09800 23.37800
C  -1.73300 14.34000 24.04300
N  -3.07000 17.24900 28.18000
C  -2.90200 16.34200 29.15000
C  -3.37300 16.91700 30.52800
C  -3.96300 18.31000 30.15500
C  -3.44600 18.50300 28.72600
C  -5.47100 18.33000 30.23100
C  -2.20800 17.03200 31.50900
C  -2.25300 16.06100 32.67300
H  -2.73300 16.52700 34.05900
N  -2.52800 19.17600 25.69800
C  -3.07300 20.06300 26.68800
C  -3.19400 21.39000 26.12500
C  -2.86600 21.24500 24.69200
C  -2.52700 19.81400 24.49500
C  -3.37000 22.62200 26.94100
C  -2.86000 22.35900 23.60600
O  -2.68100 22.04700 22.43800
C  -3.06500 23.77100 23.93100
N  -1.89600 16.80000 24.02900
C  -1.95500 17.76900 23.08800
C  -1.65000 17.15900 21.71300
C  -1.32500 15.68200 21.94500
C  -1.65400 15.56900 23.38300
C  -2.81400 17.43600 20.64700
C  0.11000 15.32600 21.61900
C  1.24500 15.86300 22.55100
N  -2.00100 15.12900 26.32500
C  -1.82900 14.11500 25.39900
C  -1.77600 12.85300 26.08300
C  -1.94100 13.18500 27.44900
C  -2.15500 14.53100 27.55900
C  -1.68200 11.50700 25.47200
C  -2.09900 12.60100 28.77600
O  -1.98600 11.45400 29.21400
C  -2.44400 13.72000 29.65700
C  -1.38300 13.76800 30.66200
O  -0.31100 14.38500 30.59300
O  -1.67100 13.00200 31.74900
C  -0.76200 12.79600 32.86600
H  -3.81400 20.62000 28.64300
H  -2.07900 19.64400 22.44000
H  -1.59400 13.46200 23.40800
H  -4.14000 16.23200 30.89000
H  -3.46300 19.11200 30.69700
H  -5.96400 17.42400 30.58400
H  -6.07800 18.46400 29.33600
H  -5.85800 19.12000 30.87500
H  -2.14500 18.02100 31.96400
H  -1.25300 16.91200 30.99800
H  -1.22800 15.73500 32.84500
H  -2.87100 15.18600 32.47500
H  -3.60900 22.47700 27.99400
H  -4.21900 23.18000 26.54500
H  -2.42900 23.16500 26.85300
H  -2.17200 24.35900 24.14200
H  -3.89800 24.00900 24.59300
H  -3.24700 24.25900 22.97300
H  -0.84600 17.78200 21.32100
H  -1.96500 15.02000 21.36100
H  -2.51900 18.08200 19.82100
H  -3.71000 17.82300 21.13300
H  -3.09900 16.46000 20.25400
H  0.32000 15.84300 20.68300
H  0.17900 14.24800 21.47800
H  0.82400 16.46500 23.35600
H  1.95100 16.44300 21.95600
H  1.69100 14.96600 22.98100
H  -1.09700 11.68600 24.57000
H  -2.61900 10.97600 25.30700
H  -1.01400 10.97000 26.14500
H  -3.37300 13.48600 30.17700
H  0.26000 13.04500 32.57900
H  -0.78400 11.79200 33.29000
H  -1.11500 13.53400 33.58600
Mg 30.29600 58.96800 40.59400
C  27.31600 57.53700 39.29800
C  32.03700 56.38400 39.38100
C  33.06600 60.92500 40.91000
C  28.28900 61.94000 41.06300
N  29.73900 57.16400 39.57000
C  28.53900 56.80600 39.07900
C  28.62800 55.49300 38.27900
C  30.06200 55.03700 38.54600
C  30.68200 56.23900 39.24700
C  30.32400 53.72700 39.32900
C  28.15300 55.67200 36.77500
C  27.01800 54.75400 36.23300
H  26.13600 55.43300 35.30400
N  32.31900 58.54200 40.35900
C  32.86600 57.41700 39.92700
C  34.24500 57.43300 40.17600
C  34.62400 58.80800 40.63000
C  33.32200 59.53600 40.63300
C  35.10300 56.26200 40.07500
C  35.94300 59.27800 41.15000
O  36.94600 58.59700 41.14800
C  36.10700 60.67500 41.68300
N  30.64400 61.18400 40.73800
C  31.90600 61.65500 40.92500
C  31.89900 63.17000 41.13900
C  30.36200 63.51500 41.27100
C  29.70500 62.12900 41.07200
C  32.80000 63.86300 42.23100
C  29.92900 64.52000 40.20600
C  29.50100 65.94000 40.74600
N  28.17000 59.60900 40.45000
C  27.58000 60.78100 40.70000
C  26.11800 60.63700 40.48700
C  25.98400 59.31500 40.01700
C  27.26300 58.77700 39.97800
C  25.11400 61.73400 40.63900
C  25.05500 58.40900 39.42100
O  23.87100 58.59700 39.09900
C  25.86800 57.16100 38.95200
C  25.39500 56.02700 39.77200
O  25.55800 55.81500 40.93500
O  24.80600 55.13200 38.84900
C  24.15200 53.97400 39.39800
H  32.58200 55.48100 39.09800
H  33.82800 61.63900 41.23000
H  27.74700 62.88700 41.10500
H  27.99000 54.84500 38.88100
H  30.61400 54.81600 37.63300
H  30.92000 53.94200 40.21600
H  30.90300 53.02200 38.73200
H  29.31500 53.36300 39.52400
H  29.04700 55.32100 36.25900
H  27.88900 56.70500 36.54700
H  26.50500 54.28200 37.07100
H  27.54100 53.92800 35.75100
H  35.08700 55.87700 39.05500
H  34.87900 55.44400 40.75900
H  36.13000 56.56600 40.27700
H  37.02700 60.66400 42.26800
H  35.34600 60.62600 42.46200
H  36.07700 61.49000 40.96100
H  32.22200 63.55500 40.17200
H  30.20700 63.89400 42.28200
H  32.15500 64.33200 42.97500
H  33.36400 64.68700 41.79500
H  33.52000 63.15500 42.64100
H  29.00400 64.16100 39.75400
H  30.62700 64.60900 39.37400
H  29.58500 65.92000 41.83300
H  28.48900 66.18200 40.42200
H  30.10300 66.71500 40.27100
H  24.62800 62.06300 39.72000
H  25.51200 62.61300 41.14600
H  24.30800 61.30500 41.23400
H  25.68000 56.95000 37.89900
H  23.60000 54.31100 40.27500
H  25.00900 53.36400 39.68400
H  23.63500 53.56100 38.53300

