158

Mg -1.18700 17.55200 25.45900
C  -1.69300 15.28300 28.15200
C  -1.63400 20.10900 27.63500
C  -0.80800 19.57400 22.79800
C  -0.83200 14.82700 23.42200
N  -1.78500 17.62200 27.67700
C  -1.65300 16.64000 28.62800
C  -1.68700 17.19500 30.07000
C  -1.75500 18.75200 29.82600
C  -1.71100 18.83300 28.24500
C  -2.96000 19.37000 30.45500
C  -0.55900 16.75100 31.00300
C  -0.45900 17.46300 32.40300
H  -0.25600 16.69900 33.68200
N  -1.19700 19.62300 25.20800
C  -1.38700 20.50900 26.23300
C  -1.24000 21.84600 25.73400
C  -0.99600 21.73600 24.27500
C  -0.93300 20.30900 24.02200
C  -1.52700 23.02600 26.64600
C  -0.87000 22.78300 23.24400
O  -0.87700 22.40100 22.07800
C  -0.66600 24.30500 23.61600
N  -1.03600 17.27800 23.38500
C  -0.85500 18.23700 22.50100
C  -0.56100 17.62500 21.08500
C  -0.18200 16.13700 21.41600
C  -0.69600 16.10000 22.82400
C  -1.83200 17.73200 20.16300
C  1.26800 15.70800 21.17400
C  2.16300 15.39600 22.39200
N  -1.40400 15.45200 25.61100
C  -1.30300 14.50200 24.68300
C  -1.49200 13.17400 25.22600
C  -1.60300 13.41600 26.57900
C  -1.59800 14.81400 26.77700
C  -1.41900 11.85000 24.50100
C  -1.58100 12.79400 27.88600
O  -1.61000 11.60000 28.21800
C  -1.64700 13.90100 28.91700
C  -0.36500 13.71700 29.69200
O  0.75800 14.01200 29.38600
O  -0.70200 13.24600 30.96700
C  0.29900 13.23100 32.02700
H  -1.96800 20.92800 28.27500
H  -0.69300 20.17800 21.89500
H  -0.77500 13.97700 22.73900
H  -2.61400 16.81000 30.49400
H  -0.84100 19.22200 30.18900
H  -3.58100 18.73000 31.08200
H  -3.56700 19.73900 29.62800
H  -2.74400 20.17200 31.16100
H  0.33100 17.02200 30.43500
H  -0.76600 15.69600 31.18000
H  -1.27500 18.13700 32.66600
H  0.41600 18.11200 32.36700
H  -0.64500 23.56800 26.98700
H  -1.98200 22.88900 27.62700
H  -2.18100 23.67200 26.06000
H  -0.01000 24.21700 24.48200
H  -1.67300 24.62900 23.87800
H  -0.19300 24.89300 22.82900
H  0.23500 18.07700 20.49300
H  -0.78500 15.42700 20.85000
H  -2.25400 16.74000 20.00000
H  -1.54900 18.19100 19.21600
H  -2.52000 18.37200 20.71500
H  1.74100 16.52700 20.63200
H  1.11600 14.79700 20.59500
H  1.76900 15.16700 23.38200
H  2.77000 16.28900 22.54400
H  2.85600 14.60300 22.10900
H  -1.78500 11.90600 23.47600
H  -1.90200 11.05100 25.06200
H  -0.38700 11.49900 24.47000
H  -2.47100 13.64200 29.58200
H  0.77200 14.21300 32.05400
H  0.98200 12.39800 31.86700
H  -0.15500 13.07800 33.00700
Mg 35.66700 49.31200 24.87000
C  35.49400 47.53200 27.92600
C  34.29500 52.03400 26.43800
C  35.08400 50.74900 21.81700
C  36.60500 46.37500 23.31800
N  35.07900 49.75700 26.93400
C  35.09200 48.89300 28.03100
C  34.89400 49.66400 29.34100
C  34.36500 51.04700 28.93600
C  34.62900 50.97900 27.35100
C  32.94200 51.39600 29.26800
C  36.08100 49.77600 30.28900
C  35.78200 49.45100 31.81600
H  34.33200 49.63500 32.36200
N  34.74300 51.14000 24.24700
C  34.29700 52.19100 25.03500
C  33.87000 53.25500 24.23200
C  34.00400 52.83700 22.85200
C  34.61800 51.49300 22.90700
C  33.44700 54.58000 24.83100
C  33.65800 53.64900 21.60800
O  33.84300 53.16600 20.45500
C  33.03800 55.09400 21.68500
N  35.57300 48.60800 22.79300
C  35.47400 49.42300 21.79000
C  35.88400 48.76200 20.41700
C  36.55500 47.45500 20.95500
C  36.27500 47.43500 22.49900
C  34.78500 48.54300 19.38300
C  38.11700 47.47100 20.84400
C  38.77800 46.69500 19.69200
N  36.09900 47.32400 25.46000
C  36.56500 46.22500 24.72500
C  36.73600 45.11700 25.58900
C  36.30000 45.57000 26.86900
C  35.92700 46.89800 26.71900
C  37.20400 43.73500 25.20800
C  36.02500 45.18500 28.25700
O  36.17200 44.12900 28.83600
C  35.62800 46.48200 29.06500
C  34.39500 46.15100 29.84900
O  33.26600 46.40500 29.52700
O  34.73000 45.79900 31.15900
C  33.64800 45.41700 32.11000
H  34.11100 53.00600 26.90000
H  35.15000 51.17900 20.81500
H  36.93400 45.50600 22.74400
H  34.10300 49.16800 29.90400
H  34.93800 51.84900 29.40000
H  32.58200 50.75000 30.06800
H  32.25600 51.47600 28.42500
H  32.96400 52.38200 29.73300
H  36.59100 50.73900 30.25500
H  36.93000 49.14300 30.03100
H  36.41600 50.04900 32.46900
H  36.21500 48.46400 31.97600
H  32.43800 54.78100 24.47200
H  34.01700 55.47800 24.59300
H  33.42000 54.56300 25.92100
H  32.67200 55.21900 20.66500
H  33.70100 55.91900 21.94700
H  32.13800 55.02100 22.29600
H  36.64100 49.39500 19.95300
H  36.16500 46.55500 20.48000
H  35.13600 49.10600 18.51800
H  33.85200 49.04800 19.63000
H  34.61300 47.48500 19.18200
H  38.57400 46.97500 21.70000
H  38.36600 48.53000 20.77800
H  38.87900 45.62600 19.88000
H  39.78700 47.07400 19.53300
H  38.17300 46.88700 18.80600
H  37.86000 43.43300 26.02400
H  37.84500 43.82500 24.33000
H  36.42200 42.97700 25.19500
H  36.50200 46.71300 29.67400
H  33.69700 44.33100 32.18600
H  32.69200 45.82600 31.78300
H  33.88700 45.97100 33.01800

