158

Mg -12.23100 37.49900 41.96200
C  -9.87300 34.86500 41.39700
C  -10.01900 39.62600 40.46100
C  -14.59000 39.78600 42.10700
C  -14.42500 34.98500 43.09200
N  -10.30800 37.21100 40.87400
C  -9.49100 36.15200 40.81800
C  -8.20400 36.44100 40.07400
C  -8.11400 38.00700 40.16000
C  -9.56900 38.29500 40.47300
C  -7.09800 38.60100 41.13900
C  -8.38500 35.94900 38.60100
C  -7.08000 35.25500 38.09100
H  -6.21200 36.02200 37.10700
N  -12.27100 39.45300 41.43700
C  -11.28900 40.17200 40.89600
C  -11.66400 41.52300 40.79000
C  -12.99900 41.63100 41.21400
C  -13.35700 40.24900 41.63600
C  -10.84800 42.69700 40.29800
C  -13.89300 42.91300 41.21700
O  -13.55700 44.00000 40.76100
C  -15.22900 42.83500 41.84000
N  -14.29000 37.37400 42.38500
C  -15.02300 38.49600 42.46000
C  -16.50300 38.11300 42.84500
C  -16.34100 36.58400 43.28300
C  -14.96600 36.28500 42.76800
C  -17.08900 39.02000 43.92700
C  -17.43800 35.59400 42.62100
C  -18.12700 34.69700 43.58700
N  -12.30000 35.29600 42.17000
C  -13.27100 34.45300 42.69000
C  -12.72700 33.16000 42.84100
C  -11.41700 33.19600 42.34100
C  -11.16900 34.58200 42.00400
C  -13.56900 31.92400 43.34600
C  -10.17800 32.47000 41.94800
O  -9.80900 31.31500 42.03500
C  -9.09900 33.55700 41.46800
C  -8.16100 33.63100 42.62900
O  -8.52600 34.01800 43.74700
O  -6.93600 33.18600 42.26400
C  -6.04500 32.96100 43.41700
H  -9.22700 40.26400 40.06500
H  -15.46900 40.43300 42.11800
H  -15.08100 34.27400 43.60000
H  -7.36000 35.99800 40.60300
H  -7.83600 38.44500 39.20200
H  -7.58700 39.50900 41.49300
H  -6.23100 38.88800 40.54500
H  -6.92800 37.86300 41.92300
H  -8.58400 36.82800 37.98800
H  -9.25000 35.28700 38.66200
H  -7.38300 34.35300 37.55900
H  -6.43600 34.95800 38.91900
H  -11.47300 43.19700 39.55800
H  -9.87700 42.34800 39.94700
H  -10.60900 43.48300 41.01500
H  -15.85700 42.37600 41.07700
H  -15.44600 43.90100 41.91100
H  -15.25000 42.33200 42.80700
H  -17.14700 38.16300 41.96700
H  -16.23700 36.48000 44.36300
H  -17.71900 39.78600 43.47400
H  -16.28100 39.46000 44.51300
H  -17.72000 38.38600 44.54900
H  -16.92500 34.94300 41.91300
H  -18.06600 36.22200 41.99000
H  -17.85600 33.66800 43.35000
H  -19.17700 34.98600 43.53300
H  -17.87900 35.01800 44.59800
H  -14.38000 31.63000 42.68000
H  -13.86700 31.95400 44.39400
H  -12.96600 31.01600 43.31700
H  -8.52900 33.38900 40.55400
H  -6.61200 32.36200 44.13100
H  -5.69500 33.94500 43.72700
H  -5.11300 32.44900 43.17900
Mg 0.99100 43.30900 26.24900
C  3.19100 43.30400 29.09600
C  -1.53300 42.38100 28.44400
C  -0.92100 42.69000 23.64100
C  3.86200 43.60300 24.12600
N  0.83300 43.05300 28.51800
C  1.85700 43.08200 29.44800
C  1.39600 42.88600 30.90300
C  -0.14600 42.49400 30.64100
C  -0.28800 42.74700 29.08500
C  -0.60700 40.99500 31.09900
C  1.54600 44.23900 31.64800
C  1.21300 44.25900 33.23400
H  1.02200 42.89300 34.01600
N  -0.94500 42.85300 26.01700
C  -1.85300 42.55300 27.04000
C  -3.11700 42.30800 26.43900
C  -3.01600 42.36300 25.04800
C  -1.62700 42.67600 24.84900
C  -4.34800 41.87500 27.23800
C  -4.03500 42.17200 23.98000
O  -3.76900 42.11200 22.76000
C  -5.51800 41.95400 24.23200
N  1.42800 43.15300 24.19900
C  0.44300 42.80400 23.34800
C  0.99900 42.86800 21.91700
C  2.39900 43.56700 21.97600
C  2.54700 43.42800 23.52300
C  1.04200 41.42100 21.22400
C  2.40700 44.96200 21.30900
C  2.03300 46.14000 22.11100
N  3.07600 43.57000 26.45400
C  4.10400 43.72600 25.52700
C  5.40000 43.91100 26.20200
C  5.09000 43.59400 27.53300
C  3.63800 43.53200 27.67500
C  6.79100 44.15500 25.46900
C  5.65200 43.36200 28.82500
O  6.82800 43.22700 29.19500
C  4.50100 43.33200 29.86700
C  4.57700 42.15900 30.76600
O  4.06000 41.04600 30.47900
O  5.02200 42.50400 31.97600
C  4.77600 41.68100 33.13100
H  -2.34100 42.29300 29.17400
H  -1.49100 42.62500 22.71200
H  4.69500 43.56800 23.42200
H  1.90800 42.10800 31.46900
H  -0.77200 43.19800 31.19100
H  -0.58100 40.39600 30.18900
H  -1.59000 40.95300 31.56900
H  0.14500 40.50000 31.71400
H  0.73600 44.92000 31.38900
H  2.39600 44.89400 31.45800
H  0.32000 44.86500 33.38900
H  1.99800 44.69200 33.85300
H  -4.87400 42.81500 27.39900
H  -3.90100 41.53500 28.17300
H  -4.99700 41.13400 26.77300
H  -5.56900 40.92000 24.57400
H  -5.97400 41.95500 23.24200
H  -5.97700 42.79000 24.75900
H  0.31200 43.46800 21.32000
H  3.20300 42.92000 21.62400
H  0.20400 40.79500 21.53200
H  2.06000 41.03700 21.29300
H  0.77200 41.66200 20.19600
H  1.81300 44.85800 20.40100
H  3.39400 45.12500 20.87500
H  2.73000 46.69600 22.73700
H  1.37500 45.82300 22.92000
H  1.58600 46.91700 21.49000
H  7.45100 43.28900 25.40800
H  7.36000 44.93200 25.97900
H  6.63900 44.41600 24.42200
H  4.63500 44.19300 30.52300
H  4.47000 40.65500 32.93100
H  4.10900 42.28100 33.75000
H  5.74900 41.59300 33.61500

