158

Mg 36.12100 49.34200 24.99800
C  36.51900 47.47600 28.04100
C  35.29200 52.09600 26.93100
C  35.57900 51.19600 22.16500
C  37.03200 46.51700 23.15900
N  35.73700 49.62300 27.28300
C  36.07900 48.81100 28.29400
C  36.01500 49.60500 29.62500
C  35.59000 51.03000 29.20000
C  35.53000 50.92800 27.68400
C  34.20000 51.46500 29.83000
C  37.37000 49.52400 30.43400
C  37.28000 48.82000 31.81100
H  35.94200 48.87000 32.51900
N  35.54300 51.39600 24.63200
C  35.27200 52.31500 25.54300
C  34.97600 53.56200 24.90100
C  35.08700 53.33600 23.51200
C  35.39200 51.89600 23.35200
C  34.68900 54.81200 25.65300
C  34.95900 54.33100 22.35400
O  35.15600 54.03200 21.15400
C  34.62700 55.86300 22.70300
N  36.12100 48.78000 23.03800
C  36.02800 49.79700 22.01400
C  36.18800 49.16300 20.57600
C  36.72700 47.73900 20.98800
C  36.66500 47.62400 22.46200
C  34.97200 49.11200 19.62000
C  37.97900 47.25700 20.30100
C  39.21300 47.84300 20.95900
N  36.70100 47.43800 25.42100
C  37.06600 46.36000 24.58100
C  37.49700 45.20400 25.35400
C  37.15400 45.56000 26.68800
C  36.79600 46.97300 26.73100
C  38.09200 43.89500 24.66000
C  37.11400 45.06000 28.11800
O  37.43600 44.01500 28.67500
C  36.77700 46.32400 29.00500
C  35.52900 46.01100 29.85400
O  34.44300 46.57600 29.69400
O  35.82900 45.13700 30.85500
C  34.70200 44.58000 31.61100
H  35.08800 52.91500 27.62300
H  35.53300 51.81800 21.26900
H  37.47100 45.78000 22.48200
H  35.25800 49.10600 30.23100
H  36.39200 51.76600 29.25500
H  34.17300 52.51300 30.12600
H  34.01100 50.96500 30.78000
H  33.29000 51.17300 29.30500
H  37.80400 50.52200 30.50100
H  38.14400 49.03000 29.84600
H  38.10900 49.15400 32.43500
H  37.38500 47.75100 31.62500
H  35.54500 55.46900 25.80100
H  34.15700 54.63300 26.58700
H  33.92500 55.43000 25.18100
H  35.40000 56.21800 23.38400
H  33.65500 55.93800 23.19100
H  34.71900 56.36600 21.74000
H  36.95000 49.71100 20.02100
H  36.00200 47.01500 20.61700
H  33.99900 49.11800 20.11200
H  35.01200 48.16500 19.08100
H  35.02300 49.90400 18.87300
H  38.07000 47.67400 19.29700
H  37.96700 46.17000 20.22900
H  39.91400 48.33100 20.28200
H  39.67400 46.91400 21.29500
H  39.04000 48.43300 21.85900
H  37.44500 43.48500 23.88400
H  38.35400 43.18700 25.44600
H  39.09700 44.11000 24.29600
H  37.68600 46.58300 29.54700
H  34.26700 43.78200 31.01000
H  33.95200 45.32800 31.86900
H  35.04100 44.27100 32.60000
Mg 6.30800 53.66000 41.72900
C  5.08900 50.28400 41.36100
C  9.39100 52.66800 40.74000
C  7.06200 56.90800 41.31000
C  2.93500 54.53600 42.21300
N  7.07600 51.74100 40.99000
C  6.45900 50.45800 40.97700
C  7.48700 49.34300 40.73000
C  8.81100 50.12100 40.73600
C  8.43400 51.63100 40.76900
C  9.81900 49.68000 41.81700
C  7.33100 48.56700 39.38500
C  6.87000 49.21100 38.13100
H  6.30300 48.33900 36.99500
N  8.08300 54.66900 41.13900
C  9.23600 54.09700 40.81400
C  10.21300 55.12400 40.64700
C  9.53700 56.37800 40.78600
C  8.14500 56.03000 41.06800
C  11.77200 54.90700 40.57900
C  10.20400 57.76200 40.75200
O  11.41800 57.88400 40.61700
C  9.44800 59.01600 41.05900
N  5.19100 55.44500 41.74800
C  5.72200 56.66900 41.59000
C  4.74500 57.86400 41.78400
C  3.44000 57.03700 42.15700
C  3.85200 55.57500 41.99300
C  5.03900 58.83500 42.91600
C  2.32500 57.36100 41.18800
C  0.92300 57.47100 41.91100
N  4.38900 52.61200 41.92600
C  3.14400 53.10200 42.20700
C  2.23400 52.03500 42.58200
C  3.00200 50.87100 42.22100
C  4.25900 51.32200 41.74600
C  0.87600 52.19100 43.08700
C  2.90500 49.41500 42.18900
O  2.06900 48.59400 42.46600
C  4.34200 49.04100 41.57900
C  4.29000 48.16900 40.39600
O  3.86800 48.51000 39.32000
O  4.61700 46.95300 40.82400
C  4.44300 45.90300 39.87900
H  10.38000 52.30500 40.45700
H  7.20400 57.98500 41.42600
H  1.95800 54.78900 42.63000
H  7.41700 48.65400 41.57100
H  9.46100 50.00600 39.86900
H  9.56500 48.67000 42.14000
H  9.71800 50.41000 42.61900
H  10.81400 49.72600 41.37500
H  6.78400 47.64500 39.58300
H  8.32700 48.21000 39.12500
H  7.71700 49.75700 37.71400
H  6.18800 50.00400 38.44000
H  12.16700 55.19600 41.55300
H  12.20800 55.53000 39.79800
H  12.09600 53.88800 40.36700
H  9.99400 59.92200 40.79500
H  9.10100 58.91200 42.08700
H  8.54800 59.15800 40.46200
H  4.67100 58.32800 40.80100
H  3.12900 57.20100 43.18900
H  5.70300 58.19900 43.50200
H  4.11000 59.08100 43.43000
H  5.53400 59.76300 42.62900
H  2.29000 56.55600 40.45400
H  2.47900 58.28800 40.63600
H  0.14000 56.96000 41.35100
H  0.74900 58.54200 41.81300
H  0.89300 57.32800 42.99200
H  0.56200 51.16000 43.25000
H  0.37800 52.81400 42.34400
H  0.83900 52.67300 44.06300
H  5.01400 48.48500 42.23200
H  4.64500 44.89300 40.23600
H  4.99300 45.99800 38.94300
H  3.38200 45.82000 39.64500

