158

Mg 47.44900 44.40600 42.23300
C  44.09900 43.60900 43.13000
C  48.00500 40.96400 41.96300
C  50.40300 45.08000 40.71200
C  46.42500 47.75600 41.62700
N  46.21400 42.58800 42.63600
C  44.88300 42.45000 42.96700
C  44.36100 40.96500 42.88600
C  45.73900 40.17400 42.77600
C  46.77500 41.32700 42.49500
C  45.97400 39.14200 43.88600
C  43.31000 40.78800 41.76600
C  43.68900 41.28300 40.33200
H  43.25400 40.49400 39.08400
N  48.99100 43.21400 41.47200
C  49.03800 41.84100 41.54200
C  50.38900 41.41400 41.24400
C  51.07800 42.56200 40.80300
C  50.16600 43.72300 40.93800
C  50.96200 40.02700 41.40500
C  52.60900 42.51900 40.41500
O  53.32500 41.55400 40.40400
C  53.24700 43.73900 39.86800
N  48.30600 46.15700 41.22300
C  49.58700 46.20900 40.85000
C  50.10200 47.58300 40.77000
C  48.76800 48.38600 40.67300
C  47.70900 47.40700 41.14800
C  51.02700 47.83300 41.94600
C  48.39600 48.83600 39.28800
C  48.97200 50.24700 38.98500
N  45.75100 45.56100 42.61500
C  45.43800 46.91600 42.25100
C  44.14000 47.20900 42.72500
C  43.52400 45.93200 43.01100
C  44.55700 44.90600 42.88600
C  43.40700 48.49500 42.47100
C  42.27000 45.26300 43.37300
O  41.08100 45.63400 43.49300
C  42.60900 43.79400 43.39800
C  42.07100 43.28000 44.70000
O  42.31100 43.72400 45.80800
O  41.29200 42.13400 44.44700
C  41.03800 41.25700 45.56200
H  48.26100 39.90400 41.90300
H  51.36900 45.52400 40.46200
H  46.14000 48.80600 41.53800
H  43.90100 40.68800 43.83400
H  45.67000 39.68700 41.80300
H  46.17600 38.22600 43.33000
H  45.05900 38.92300 44.43700
H  46.75200 39.48700 44.56800
H  42.38800 41.29300 42.05500
H  43.18500 39.70600 41.77600
H  44.77300 41.17300 40.28000
H  43.51400 42.35300 40.22200
H  50.36800 39.29800 41.95500
H  51.97100 40.01300 41.81800
H  51.20800 39.54200 40.46100
H  52.55900 44.31800 39.25100
H  54.13500 43.52900 39.27100
H  53.51500 44.39300 40.69800
H  50.72600 47.60100 39.87700
H  48.71600 49.21200 41.38100
H  50.62900 47.46100 42.89000
H  51.21400 48.90100 42.06500
H  51.99600 47.47500 41.59700
H  47.31800 48.91700 39.15100
H  48.88100 48.14200 38.60000
H  49.51700 50.14800 38.04600
H  49.51200 50.61600 39.85800
H  48.11400 50.89900 38.81900
H  43.72300 48.96800 41.54100
H  43.67600 49.15900 43.29200
H  42.32600 48.43100 42.59000
H  42.06500 43.30400 42.59100
H  41.87400 41.01600 46.21800
H  40.75500 40.36400 45.00500
H  40.13400 41.59400 46.06800
Mg 6.93000 53.52900 41.52600
C  6.33900 50.17000 41.00000
C  9.94800 53.20600 40.07900
C  7.04300 56.84600 41.20600
C  3.74900 53.82300 42.91900
N  7.90100 51.88000 40.54100
C  7.58900 50.61500 40.52900
C  8.71600 49.70600 40.12300
C  9.95300 50.67700 40.33500
C  9.28200 51.98900 40.29400
C  10.83300 50.20000 41.57800
C  8.60700 49.10500 38.63800
C  8.39400 50.16400 37.56700
H  6.97200 50.43600 37.06000
N  8.36200 54.93900 40.84600
C  9.53500 54.57100 40.19900
C  10.23500 55.77600 39.80400
C  9.33700 56.97200 40.01100
C  8.16600 56.27100 40.66400
C  11.62900 55.78700 39.11200
C  9.56300 58.39700 39.53600
O  10.44700 58.69100 38.72100
C  8.62800 59.41500 40.00200
N  5.49000 55.14900 41.80700
C  5.87600 56.41300 41.71200
C  4.78900 57.36300 42.03700
C  3.74800 56.44900 42.67400
C  4.27100 55.03600 42.39500
C  5.17100 58.65500 42.85400
C  2.29200 56.50200 42.02900
C  1.13600 56.32100 43.01400
N  5.31900 52.22200 41.97500
C  4.08500 52.46300 42.52000
C  3.40000 51.21500 42.71500
C  4.16500 50.30800 41.97300
C  5.33100 50.95000 41.63400
C  1.98700 50.98100 43.34800
C  4.25200 48.91300 41.57600
O  3.51000 47.94100 41.66800
C  5.71800 48.77600 40.90600
C  5.45200 48.26400 39.51600
O  4.93100 48.94100 38.60700
O  5.78900 46.89200 39.47200
C  5.78400 46.26200 38.12900
H  10.91300 53.19200 39.57000
H  6.96000 57.91700 41.00900
H  2.81700 53.88700 43.48300
H  8.70900 48.84200 40.78800
H  10.62100 50.56500 39.48000
H  10.52600 49.29400 42.10000
H  10.68200 50.91400 42.38700
H  11.88700 50.25500 41.30700
H  7.82000 48.35800 38.73600
H  9.48300 48.52100 38.35400
H  9.00300 49.95200 36.68800
H  8.86900 51.09400 37.87900
H  12.20200 54.99200 39.58900
H  12.16000 56.70700 39.35800
H  11.45800 55.61500 38.05000
H  7.61600 59.39400 39.59800
H  9.16000 60.35700 39.87000
H  8.64800 59.44300 41.09100
H  4.42900 57.70500 41.06700
H  3.82600 56.47400 43.76100
H  4.60800 58.74500 43.78400
H  4.84300 59.50400 42.25300
H  6.24300 58.71100 43.04400
H  2.30200 55.73700 41.25300
H  2.18900 57.40800 41.43300
H  0.29600 55.69600 42.71000
H  0.72100 57.31500 43.18100
H  1.49900 55.95600 43.97500
H  1.25200 51.78500 43.37900
H  2.22000 50.87800 44.40800
H  1.59400 50.04900 42.94300
H  6.29900 48.06800 41.49600
H  6.71000 45.82700 37.75300
H  5.34300 46.87600 37.34400
H  5.05300 45.45600 38.20200

