158

Mg -2.63300 17.11800 26.28500
C  -3.25900 14.89700 28.72600
C  -3.30600 19.78100 28.46300
C  -2.12100 19.38700 23.79800
C  -2.15600 14.52400 23.95400
N  -3.08800 17.34800 28.41300
C  -3.25300 16.22400 29.16600
C  -3.66100 16.71100 30.58700
C  -4.13600 18.20600 30.32700
C  -3.40700 18.47300 29.04900
C  -5.58700 18.39200 30.25200
C  -2.47900 16.53600 31.53700
C  -2.70200 16.00800 32.97900
H  -1.53300 15.63500 33.80900
N  -2.57900 19.34700 26.20600
C  -2.83800 20.18400 27.21600
C  -2.63500 21.53200 26.70700
C  -2.36200 21.46200 25.32100
C  -2.37700 20.02800 25.03100
C  -2.83900 22.85300 27.62900
C  -2.09700 22.56500 24.32800
O  -1.95100 22.43800 23.11300
C  -2.04900 23.98100 24.83200
N  -2.25600 16.97100 24.12900
C  -2.09200 18.06200 23.39100
C  -1.78800 17.71200 21.97700
C  -1.57000 16.14400 21.96700
C  -2.10300 15.81300 23.41000
C  -2.71600 18.23100 20.87200
C  -0.08700 15.83600 21.78500
C  0.83700 16.25300 22.96600
N  -2.81800 15.11700 26.27400
C  -2.53600 14.18700 25.32300
C  -2.75600 12.84600 25.84200
C  -3.11000 13.10700 27.20900
C  -3.08100 14.47700 27.37400
C  -2.49400 11.55000 25.08900
C  -3.54600 12.40500 28.41600
O  -3.69500 11.21200 28.60900
C  -3.43900 13.58200 29.52600
C  -2.15900 13.19300 30.23200
O  -1.11800 13.83100 30.23700
O  -2.40400 12.13600 31.04600
C  -1.59300 12.07600 32.24100
H  -3.40400 20.54300 29.23900
H  -1.89600 20.06900 22.97500
H  -2.09700 13.64200 23.31300
H  -4.53000 16.20000 31.00100
H  -3.72200 18.87200 31.08400
H  -6.10800 17.53700 30.68300
H  -5.82600 18.46700 29.19100
H  -5.87100 19.32000 30.74900
H  -2.14000 17.55600 31.71700
H  -1.69600 15.92800 31.08300
H  -3.26600 15.07800 32.90100
H  -3.40000 16.63700 33.53000
H  -3.23800 22.64100 28.62100
H  -3.65900 23.48700 27.29000
H  -1.94000 23.47000 27.63700
H  -1.24400 24.08500 25.56100
H  -2.96200 24.25200 25.36100
H  -1.89700 24.66600 23.99800
H  -0.82200 18.18500 21.79700
H  -2.18100 15.58200 21.26200
H  -2.09100 18.63200 20.07500
H  -3.27300 19.04300 21.34000
H  -3.40500 17.48800 20.47100
H  0.22700 16.29400 20.84700
H  -0.00800 14.76200 21.61600
H  1.45500 15.51800 23.48100
H  0.36500 16.87400 23.72700
H  1.56600 16.93200 22.52400
H  -3.31400 11.19400 24.46500
H  -2.28700 10.85300 25.90000
H  -1.60000 11.61700 24.47000
H  -4.27000 13.66100 30.22600
H  -0.93800 12.92000 32.45700
H  -1.02600 11.14900 32.32400
H  -2.37700 12.05300 32.99800
Mg 41.17800 7.18700 29.29000
C  42.53800 8.82000 32.10100
C  38.75300 5.87300 31.27600
C  40.03800 5.66400 26.61500
C  44.19500 7.99700 27.58800
N  40.71400 7.27200 31.48000
C  41.31000 8.10800 32.32900
C  40.62600 7.93100 33.68600
C  39.58800 6.83300 33.50600
C  39.66400 6.65400 32.04800
C  39.83200 5.57200 34.32800
C  39.98800 9.19100 34.38700
C  40.19100 9.17200 35.98400
H  40.67700 10.49000 36.62300
N  39.60900 6.01700 28.96500
C  38.73300 5.59500 29.87200
C  37.62800 4.97000 29.17000
C  37.81800 5.03500 27.80400
C  39.22600 5.57700 27.68300
C  36.49900 4.29600 29.91300
C  36.89800 4.75700 26.63600
O  37.30600 4.69200 25.46400
C  35.48900 4.49600 26.98300
N  42.05300 6.75100 27.42500
C  41.34300 6.09900 26.50500
C  42.04800 6.20300 25.10600
C  43.23800 7.10100 25.38400
C  43.22000 7.26900 26.88300
C  42.44300 4.76000 24.52600
C  43.07500 8.48200 24.57300
C  42.16700 9.56000 25.19500
N  43.00200 8.17900 29.67600
C  44.09600 8.41700 28.90300
C  45.00600 9.23700 29.60600
C  44.43300 9.49000 30.86400
C  43.19000 8.72900 30.85100
C  46.31500 9.65300 29.19100
C  44.63300 10.11600 32.13000
O  45.52000 10.86600 32.48800
C  43.45400 9.66200 33.05100
C  44.07700 8.96900 34.25000
O  44.65500 7.85400 34.17300
O  43.67600 9.62500 35.43000
C  44.11700 8.87700 36.59500
H  38.03300 5.41000 31.95300
H  39.53400 5.36300 25.69300
H  45.04700 8.32600 26.99000
H  41.46500 7.64800 34.32000
H  38.57100 7.18500 33.67900
H  39.78300 4.63700 33.77000
H  39.07100 5.44400 35.09700
H  40.72800 5.57700 34.94900
H  38.90300 9.08500 34.38900
H  40.27700 10.16400 33.99000
H  40.79900 8.33100 36.31700
H  39.32000 8.76000 36.49500
H  36.64400 4.10300 30.97600
H  36.38800 3.30300 29.47800
H  35.52300 4.75000 29.74500
H  35.15400 5.28100 27.66100
H  35.27100 3.49100 27.34300
H  34.93800 4.63400 26.05200
H  41.34600 6.70200 24.43800
H  44.21600 6.67300 25.16800
H  42.30300 3.92700 25.21600
H  43.48100 4.69400 24.20000
H  41.83800 4.59400 23.63500
H  42.56600 8.18100 23.65700
H  44.07200 8.87700 24.37900
H  41.88100 9.29200 26.21200
H  41.33500 9.74700 24.51600
H  42.71800 10.49400 25.08500
H  46.64700 8.92700 28.44800
H  47.10300 9.62600 29.94300
H  46.20400 10.62900 28.71900
H  43.03300 10.61100 33.38200
H  43.92700 7.80400 36.55700
H  43.59200 9.19800 37.49500
H  45.16000 9.11700 36.80000

