158

Mg 35.90600 48.94800 25.31700
C  36.14400 47.23300 28.39600
C  34.42700 51.50200 26.91300
C  34.71200 50.03500 22.38400
C  37.01000 46.07000 23.59500
N  35.51400 49.38100 27.42100
C  35.69300 48.55900 28.52800
C  35.35900 49.25400 29.85900
C  34.75900 50.64100 29.33200
C  34.90900 50.50500 27.76200
C  33.29300 50.91100 29.69100
C  36.65700 49.40700 30.71000
C  36.51000 49.50200 32.26300
H  34.99800 49.48200 32.77700
N  34.98400 50.69300 24.71600
C  34.44200 51.65500 25.53100
C  33.80100 52.72900 24.75700
C  33.80800 52.20700 23.37500
C  34.51500 50.94800 23.42500
C  33.08900 53.86600 25.34800
C  33.13600 52.75200 22.14800
O  32.99000 52.16800 21.10500
C  32.50200 54.11100 22.23100
N  36.00100 48.20400 23.27400
C  35.36500 48.85300 22.31500
C  35.42100 48.06700 20.97900
C  36.24400 46.78800 21.38500
C  36.55500 47.08200 22.81300
C  34.10400 47.91800 20.17100
C  37.43300 46.59800 20.40500
C  38.77800 47.15800 20.81400
N  36.49000 47.01700 25.85500
C  36.89600 45.98000 25.04100
C  37.09200 44.85400 25.85300
C  36.85700 45.23600 27.19700
C  36.45900 46.59700 27.10300
C  37.51900 43.53600 25.39800
C  36.85900 44.83300 28.57500
O  37.07800 43.79600 29.16300
C  36.54400 46.15200 29.41900
C  35.48200 45.76900 30.32900
O  34.30200 45.76000 30.15800
O  35.99100 45.34100 31.57600
C  34.98500 45.21200 32.64000
H  34.04200 52.32500 27.51900
H  34.37700 50.42800 21.42100
H  37.19400 45.19600 22.96700
H  34.67100 48.57800 30.36500
H  35.38000 51.51300 29.53500
H  32.59200 51.17300 28.89800
H  33.24800 51.73700 30.40000
H  32.92700 50.02100 30.20300
H  37.12800 50.34100 30.40600
H  37.31700 48.56700 30.49000
H  36.91200 50.48700 32.49900
H  37.05900 48.64100 32.64500
H  33.73000 54.73800 25.21400
H  32.87700 53.75200 26.41100
H  32.10600 54.04100 24.91000
H  33.21900 54.79800 22.68000
H  31.54300 54.08100 22.74900
H  32.29800 54.44800 21.21500
H  35.99500 48.65000 20.25800
H  35.59000 45.91600 21.36700
H  33.92400 46.92300 19.76500
H  34.16300 48.57700 19.30500
H  33.23800 48.19100 20.77400
H  37.12300 46.97700 19.43100
H  37.56800 45.53200 20.22500
H  39.41900 46.39000 21.24600
H  38.61800 47.96900 21.52500
H  39.27000 47.69600 20.00300
H  38.54700 43.64500 25.05100
H  36.99000 43.03000 24.59200
H  37.62600 42.89400 26.27200
H  37.44200 46.36800 29.99900
H  35.69100 45.20000 33.47000
H  34.43400 44.27400 32.70800
H  34.25700 46.01900 32.56600
Mg 0.96000 42.95900 26.10500
C  2.08000 43.03600 29.43400
C  -2.25900 42.75100 27.35700
C  -0.13600 42.49900 22.92000
C  4.14400 43.05200 25.01800
N  0.08300 42.91000 28.27100
C  0.68600 42.99300 29.41200
C  -0.30700 42.79200 30.57500
C  -1.67600 42.82200 29.88800
C  -1.27700 42.80800 28.41000
C  -2.69000 41.74300 30.18200
C  -0.21300 43.89700 31.67000
C  -0.15600 43.36000 33.11600
H  -0.95300 42.10100 33.55200
N  -0.94700 42.73400 25.30000
C  -2.15000 42.72800 25.92800
C  -3.23500 42.54600 24.99400
C  -2.65500 42.60900 23.63500
C  -1.17600 42.66200 23.88900
C  -4.64200 42.47800 25.33200
C  -3.27900 42.46800 22.28400
O  -2.69800 42.58300 21.15400
C  -4.76900 42.24100 22.19500
N  1.82100 42.89600 24.17900
C  1.22300 42.65900 22.98200
C  2.24700 42.46100 21.85500
C  3.53900 42.87700 22.58100
C  3.19400 42.90600 24.04600
C  2.17500 40.94900 21.37600
C  4.11800 44.16000 22.01200
C  3.21200 45.42600 21.95200
N  2.75900 43.10800 26.95800
C  3.96300 43.16000 26.42800
C  5.03800 43.28000 27.40800
C  4.30700 43.24900 28.55900
C  2.92200 43.12800 28.30500
C  6.47600 43.37700 27.33200
C  4.45100 43.24300 29.99100
O  5.50800 43.30000 30.64200
C  3.07700 43.05800 30.66500
C  3.22100 41.76400 31.49100
O  3.48100 40.69400 31.00400
O  2.90900 41.92200 32.84000
C  3.05000 40.76200 33.73800
H  -3.31600 42.84500 27.61500
H  -0.35000 42.29800 21.86800
H  5.15200 43.17400 24.61400
H  -0.01200 41.85600 31.04900
H  -2.22000 43.73900 30.11100
H  -2.32600 40.75800 30.47500
H  -3.30000 41.56800 29.29600
H  -3.32800 42.18300 30.94800
H  -1.08700 44.54800 31.62700
H  0.63600 44.53700 31.42900
H  -0.46600 44.17400 33.77100
H  0.92100 43.23300 33.22000
H  -5.02400 41.47300 25.15400
H  -5.26900 43.15600 24.75200
H  -4.85700 42.87300 26.32400
H  -4.94000 42.26700 21.11900
H  -5.36100 43.07400 22.57700
H  -4.80200 41.25400 22.65600
H  1.94100 43.08500 21.01500
H  4.27000 42.07500 22.48100
H  3.10800 40.41500 21.20100
H  1.76200 40.97100 20.36700
H  1.62400 40.42200 22.15400
H  4.44900 44.01800 20.98300
H  4.94200 44.52200 22.62700
H  2.30800 45.22900 22.52800
H  3.03000 45.71200 20.91600
H  3.72900 46.32700 22.28200
H  6.75500 44.41000 27.12500
H  6.90200 42.78700 26.52000
H  6.77600 43.03300 28.32100
H  2.91500 43.93000 31.29900
H  2.94500 41.01200 34.79400
H  3.92200 40.13100 33.56500
H  2.14200 40.20600 33.50700

