158

Mg -0.96800 17.80700 27.37000
C  -1.85900 15.56600 29.85100
C  -1.84000 20.37000 29.37900
C  -0.85500 19.67800 24.60900
C  -0.62900 14.90900 25.15200
N  -1.72800 17.92200 29.44600
C  -1.79400 16.88100 30.32700
C  -2.22000 17.41100 31.75700
C  -2.14000 19.00800 31.53500
C  -1.87700 19.16500 30.00600
C  -3.44400 19.72900 32.02000
C  -1.63200 16.96000 33.07900
C  -2.56200 16.85600 34.31500
H  -1.96100 16.29200 35.58300
N  -1.23000 19.75800 27.00200
C  -1.45900 20.67100 28.00000
C  -1.40700 21.98800 27.45600
C  -1.31500 21.81500 25.99400
C  -1.13300 20.33700 25.79800
C  -1.37700 23.23100 28.31000
C  -1.17200 22.85400 24.84700
O  -1.01500 22.58200 23.65500
C  -1.08000 24.30000 25.29700
N  -0.80000 17.27900 25.18400
C  -0.67000 18.28500 24.26200
C  -0.64000 17.76200 22.84000
C  -0.21300 16.30800 23.05700
C  -0.57500 16.15500 24.54400
C  -1.92300 18.05400 21.99000
C  1.27500 15.97900 22.72200
C  2.42600 16.24600 23.71300
N  -1.15900 15.73700 27.39300
C  -0.97100 14.69200 26.46000
C  -1.25000 13.46100 27.09700
C  -1.66700 13.71300 28.38500
C  -1.55100 15.14300 28.54600
C  -1.27900 12.13100 26.44700
C  -2.06400 13.14100 29.66500
O  -2.05400 11.95700 30.04800
C  -2.30000 14.36100 30.63200
C  -1.44000 14.01600 31.91200
O  -0.21700 14.18200 32.05200
O  -2.26500 13.37400 32.87200
C  -1.45200 12.79600 33.96400
H  -1.84400 21.14500 30.14800
H  -0.88200 20.27500 23.69500
H  -0.30300 14.12700 24.46300
H  -3.23800 17.02200 31.80100
H  -1.29300 19.46300 32.04700
H  -3.15800 20.59800 32.61400
H  -4.08400 19.09600 32.63500
H  -4.11200 20.08500 31.23600
H  -0.95300 17.77600 33.32400
H  -1.01100 16.06400 33.10900
H  -3.21000 16.03000 34.02200
H  -3.12300 17.78100 34.44900
H  -0.54100 23.90700 28.13200
H  -1.37300 23.10700 29.39300
H  -2.32200 23.74800 28.14800
H  -1.00300 24.96700 24.43900
H  -0.11500 24.57500 25.72300
H  -1.91000 24.68600 25.88900
H  0.21700 18.19400 22.32400
H  -0.76500 15.57900 22.46400
H  -2.32100 17.07400 21.72800
H  -1.68600 18.64800 21.10700
H  -2.70200 18.59100 22.53200
H  1.61900 16.60100 21.89600
H  1.42800 14.93100 22.46300
H  2.06400 16.71600 24.62700
H  3.24600 16.87700 23.37000
H  2.93300 15.29500 23.87700
H  -0.71400 11.43700 27.06900
H  -0.83300 12.04800 25.45500
H  -2.31500 11.79300 26.46500
H  -3.37900 14.37400 30.78700
H  -0.53100 13.29500 34.26700
H  -1.21300 11.77000 33.68600
H  -2.08800 12.62400 34.83200
Mg 41.52000 41.21200 26.77500
C  40.61100 43.73400 29.08800
C  42.30300 39.24500 29.30400
C  42.50900 38.99500 24.49600
C  40.63600 43.46500 24.10600
N  41.68500 41.54300 28.92000
C  41.16300 42.60200 29.69000
C  41.17300 42.32100 31.24300
C  41.83200 40.91000 31.24700
C  41.92700 40.52100 29.73800
C  43.15300 40.86900 32.11000
C  39.76500 42.40300 31.86700
C  39.52400 43.21700 33.14200
H  39.14400 42.39000 34.31900
N  42.38400 39.42800 26.91100
C  42.55000 38.72800 28.05800
C  43.24500 37.43800 27.74500
C  43.31600 37.36600 26.35600
C  42.71000 38.66900 25.84400
C  43.83200 36.51800 28.80600
C  43.99500 36.30600 25.41300
O  44.10300 36.39000 24.16000
C  44.59700 35.11200 26.08500
N  41.57000 41.20800 24.59100
C  41.89100 40.13000 23.91600
C  41.82700 40.30200 22.41700
C  41.02500 41.65200 22.38100
C  41.15800 42.23300 23.74200
C  43.19000 40.34900 21.74400
C  39.54500 41.44200 21.96600
C  38.63900 40.50600 22.82400
N  40.87100 43.20500 26.61400
C  40.47200 43.98500 25.48500
C  39.97600 45.28500 25.88900
C  40.08100 45.24100 27.28900
C  40.54500 43.95900 27.68200
C  39.63100 46.38200 24.96600
C  39.89300 45.93100 28.54800
O  39.58000 47.09300 28.75400
C  40.11000 44.96300 29.75900
C  41.20200 45.56800 30.59700
O  42.37800 45.68000 30.27800
O  40.58600 46.33300 31.56200
C  41.43400 47.18000 32.39900
H  42.50100 38.44800 30.02500
H  42.66500 38.16400 23.80500
H  40.26700 44.08900 23.28800
H  41.79100 43.12700 31.64000
H  41.12100 40.20400 31.67600
H  44.00900 40.36600 31.66200
H  42.96500 40.39600 33.07400
H  43.41000 41.85500 32.49700
H  39.37600 41.39600 32.01900
H  39.02700 42.66800 31.11000
H  38.66600 43.86900 32.97900
H  40.41600 43.80500 33.36000
H  43.96400 37.16500 29.67300
H  44.85000 36.16700 28.63700
H  43.17500 35.66600 28.98400
H  43.87900 34.57000 26.70000
H  45.50600 35.33200 26.64600
H  44.88800 34.45600 25.26400
H  41.18200 39.48900 22.08300
H  41.42900 42.29800 21.60200
H  43.92600 40.52800 22.52800
H  43.19700 41.20900 21.07500
H  43.35200 39.51300 21.06300
H  39.56200 41.01600 20.96300
H  39.07300 42.42400 21.93900
H  37.64200 40.86800 23.07500
H  39.07900 40.14500 23.75300
H  38.40600 39.72500 22.10000
H  38.91500 45.92900 24.28000
H  40.25800 46.90100 24.24100
H  38.97400 47.04200 25.53300
H  39.22100 44.89100 30.38600
H  41.46300 46.85300 33.43900
H  41.01900 48.18200 32.28900
H  42.50600 47.21100 32.20600

