158

Mg 29.04500 59.29700 41.31500
C  26.28100 57.72300 40.17900
C  30.95100 56.73200 39.74300
C  31.98100 61.26100 41.29100
C  27.12400 62.13000 41.83700
N  28.64700 57.52400 40.10700
C  27.42700 57.11100 39.75800
C  27.46600 55.96500 38.71100
C  28.91500 55.36900 38.98700
C  29.55200 56.59700 39.64100
C  28.96900 54.16200 39.86200
C  27.29200 56.58100 37.24300
C  26.68800 55.54500 36.24200
H  26.39400 56.11400 34.85200
N  31.20500 58.97800 40.75200
C  31.72000 57.80900 40.24500
C  33.16800 57.94900 40.23300
C  33.50000 59.23800 40.76000
C  32.18100 59.91900 41.00300
C  34.02500 56.80100 39.80800
C  34.85300 59.80400 41.03200
O  35.81100 59.17500 40.62800
C  35.11600 61.11400 41.82100
N  29.52900 61.44400 41.66700
C  30.74800 61.96900 41.60400
C  30.68200 63.47300 41.73500
C  29.12500 63.78000 41.86200
C  28.53100 62.36600 41.83200
C  31.56500 64.03100 42.89900
C  28.43100 64.65400 40.70600
C  27.78900 66.00000 41.21400
N  27.06400 59.73900 41.42700
C  26.39200 60.92500 41.63900
C  24.94800 60.69500 41.53300
C  24.83800 59.44200 40.94100
C  26.14800 58.90300 40.85300
C  23.83400 61.58000 41.88700
C  23.94700 58.44300 40.36200
O  22.74200 58.38600 40.29300
C  24.84300 57.30000 39.86400
C  24.53000 56.07000 40.64700
O  24.70300 55.89100 41.84500
O  23.88700 55.16100 39.87000
C  23.52300 53.90000 40.42600
H  31.48500 55.86200 39.35500
H  32.81300 61.96500 41.34000
H  26.40400 62.94900 41.88700
H  26.55100 55.38000 38.80600
H  29.47100 55.21500 38.06200
H  27.98000 53.95000 40.26900
H  29.66400 54.21500 40.69900
H  29.26500 53.34600 39.20300
H  28.23200 56.96700 36.84700
H  26.70800 57.49900 37.30400
H  25.74400 55.17300 36.63900
H  27.38100 54.70700 36.16200
H  34.38500 56.78800 38.78000
H  33.58400 55.81500 39.95000
H  34.88700 56.84600 40.47400
H  34.94800 61.93400 41.12200
H  36.20000 61.08900 41.93600
H  34.48400 61.20500 42.70400
H  31.02000 63.80900 40.75500
H  28.87900 64.26500 42.80700
H  31.12800 64.08500 43.89600
H  32.07500 64.92900 42.54900
H  32.36100 63.31200 43.09100
H  27.54600 64.09600 40.40100
H  29.04100 64.71500 39.80500
H  26.70100 65.95000 41.18800
H  28.18000 66.69000 40.46600
H  28.21100 66.26400 42.18300
H  22.89600 61.18000 41.50300
H  24.06700 62.55600 41.46100
H  23.83400 61.79200 42.95600
H  24.68500 57.19000 38.79100
H  22.67900 54.00600 41.10800
H  24.40500 53.38700 40.81000
H  23.18800 53.24900 39.61800
Mg 25.98900 51.14100 26.91800
C  23.88600 52.03500 29.58700
C  28.17000 49.97700 29.32900
C  28.09100 50.53000 24.48800
C  23.72800 52.59600 24.66700
N  26.06600 51.02800 29.27200
C  25.04000 51.46800 30.11600
C  25.41200 51.15000 31.61000
C  26.97100 50.89700 31.49200
C  27.06600 50.50600 29.98100
C  27.89800 52.15100 31.89800
C  24.66500 49.91300 32.20600
C  23.85700 50.16800 33.48600
H  24.61300 50.91800 34.66300
N  27.89400 50.39600 26.91200
C  28.57200 49.83100 28.01400
C  29.85700 49.25100 27.49200
C  29.90500 49.64000 26.12800
C  28.50400 50.13400 25.78600
C  30.95200 48.74900 28.40500
C  31.06500 49.37900 25.16700
O  31.08900 49.82600 23.98100
C  32.37200 48.78600 25.70200
N  25.95900 51.60500 24.79400
C  26.97200 51.27000 24.06200
C  26.77700 51.63000 22.58000
C  25.26900 52.31300 22.61600
C  24.92200 52.17700 24.08200
C  27.90800 52.66300 22.10600
C  24.22700 51.72700 21.56500
C  23.50400 50.44100 21.92600
N  24.27500 52.22400 27.09700
C  23.44100 52.65100 26.04100
C  22.19200 53.22600 26.62200
C  22.33700 53.00800 28.01200
C  23.61400 52.36600 28.23100
C  21.01500 53.81600 25.83800
C  21.65400 53.03100 29.28500
O  20.54700 53.50900 29.51000
C  22.67800 52.50900 30.38600
C  22.90100 53.68800 31.26400
O  23.55500 54.67200 30.99000
O  22.23000 53.47600 32.44800
C  22.56000 54.43400 33.48400
H  28.87900 49.46800 29.98500
H  28.74300 50.30600 23.64100
H  23.08900 52.97700 23.86700
H  25.29200 52.08000 32.16500
H  27.19500 50.01800 32.09500
H  27.49400 53.04100 32.38200
H  28.22100 52.48600 30.91200
H  28.73600 51.78700 32.49100
H  25.30200 49.03200 32.28400
H  23.92100 49.77400 31.42100
H  23.44000 49.23900 33.87600
H  23.02100 50.77700 33.14300
H  31.31000 47.75300 28.14500
H  30.58600 48.63800 29.42500
H  31.62700 49.60200 28.47800
H  33.05200 48.71300 24.85300
H  32.25300 47.82000 26.19200
H  32.72700 49.57500 26.36500
H  26.78200 50.68300 22.04200
H  25.32800 53.38500 22.43200
H  28.50400 52.34300 21.25100
H  28.68300 52.77100 22.86500
H  27.43500 53.62100 21.89300
H  24.74200 51.53900 20.62300
H  23.57000 52.57000 21.35300
H  23.67700 49.84900 21.02700
H  22.42400 50.58200 21.91800
H  23.85500 49.94100 22.82800
H  21.41000 54.66600 25.28200
H  20.35400 54.26300 26.58100
H  20.52300 53.01300 25.29000
H  22.10200 51.70600 30.84600
H  22.42300 55.48000 33.21000
H  23.63500 54.32400 33.62900
H  22.07100 54.16100 34.41900

