158

Mg 44.39200 4.00000 47.49600
C  42.50900 6.76900 47.04700
C  41.57000 2.11700 46.75200
C  46.34400 1.14400 47.44700
C  47.21800 5.87400 47.58400
N  42.29800 4.43200 46.90900
C  41.70300 5.66900 46.80400
C  40.24100 5.64000 46.56800
C  39.92600 4.11500 46.80400
C  41.31800 3.49400 46.89400
C  39.14800 3.87700 48.06700
C  39.79900 6.17300 45.15600
C  40.53300 5.67900 43.85200
H  40.66200 6.71000 42.67700
N  43.95300 1.91200 47.13000
C  42.78200 1.38400 46.76000
C  42.91900 -0.02900 46.61000
C  44.29800 -0.39600 46.81000
C  44.94700 0.92300 47.20600
C  41.77100 -0.92000 46.19700
C  44.86700 -1.76200 46.77700
O  44.19600 -2.69400 46.31600
C  46.28500 -2.17400 47.18000
N  46.47400 3.62600 47.42400
C  47.01200 2.35400 47.55700
C  48.53900 2.37800 47.87100
C  48.82700 3.91900 47.96100
C  47.42100 4.52500 47.63700
C  49.03300 1.43700 49.10000
C  50.09100 4.41100 47.12000
C  50.99500 5.51400 47.78100
N  44.83700 5.95500 47.39200
C  46.03400 6.60200 47.43400
C  45.77700 8.01700 47.49800
C  44.33600 8.11400 47.43700
C  43.85600 6.82800 47.22200
C  46.81500 9.13900 47.51500
C  43.29700 9.03600 47.40500
O  43.33800 10.27200 47.46700
C  41.99400 8.21600 47.20900
C  41.11800 8.39600 48.40800
O  40.97400 7.67700 49.38100
O  40.55000 9.65200 48.23700
C  39.53600 9.98200 49.25200
H  40.69800 1.46300 46.68200
H  46.97200 0.25500 47.53200
H  48.15200 6.43400 47.65200
H  39.68600 6.35500 47.17500
H  39.31200 3.63700 46.04100
H  38.82700 4.87200 48.37600
H  39.78600 3.51000 48.87100
H  38.32500 3.18000 47.90600
H  39.63700 7.25100 45.19100
H  38.84500 5.69200 44.94100
H  40.07200 4.75600 43.50100
H  41.47400 5.42200 44.33900
H  40.99000 -0.28500 45.77800
H  41.45700 -1.46900 47.08500
H  42.09200 -1.56600 45.37900
H  46.38300 -3.25900 47.18700
H  46.43200 -1.76700 48.18100
H  47.02100 -1.70900 46.52400
H  48.99600 2.00200 46.95600
H  49.03100 4.19200 48.99600
H  49.35000 0.48200 48.68000
H  48.19900 1.25900 49.77800
H  49.89800 1.82100 49.64100
H  49.73500 4.97400 46.25700
H  50.79900 3.65600 46.78000
H  51.40800 6.26700 47.10900
H  51.86300 5.07200 48.27100
H  50.55200 6.01000 48.64400
H  46.30600 10.06900 47.26200
H  47.51200 8.96100 46.69600
H  47.37200 9.32600 48.43300
H  41.45300 8.54500 46.32200
H  39.00000 9.12700 49.66300
H  38.71900 10.63600 48.94600
H  40.11400 10.45400 50.04700
Mg 48.87900 45.44400 44.34800
C  45.68200 45.98900 42.90300
C  48.99400 42.34000 43.04500
C  52.12000 45.47500 45.26400
C  48.78700 48.98800 45.32000
N  47.51600 44.43600 42.86900
C  46.20000 44.66600 42.69800
C  45.48500 43.48400 42.07000
C  46.46900 42.25100 42.45300
C  47.71800 43.06400 42.81800
C  46.12100 41.37300 43.70700
C  45.14100 43.63700 40.56000
C  43.69400 43.34000 40.23300
H  43.50600 42.14800 39.21700
N  50.29600 44.06800 44.19700
C  50.19400 42.85300 43.69500
C  51.46100 42.13500 43.80700
C  52.42800 43.00600 44.37100
C  51.66100 44.27700 44.61500
C  51.50700 40.65800 43.33600
C  53.84000 42.66300 44.71300
O  54.23800 41.47500 44.51600
C  54.83000 43.63100 45.27400
N  50.25600 47.05600 45.16500
C  51.53300 46.69300 45.57600
C  52.27100 47.90600 46.22400
C  51.09800 48.96200 46.37300
C  50.00200 48.30700 45.52600
C  53.00600 47.45400 47.51300
C  51.45900 50.41700 45.95700
C  51.11400 51.42600 47.06500
N  47.47600 47.16500 44.21900
C  47.53100 48.44300 44.71900
C  46.35700 49.12100 44.33000
C  45.60300 48.11400 43.61600
C  46.34000 47.02200 43.56300
C  45.91100 50.50400 44.70500
C  44.30700 47.86900 43.02000
O  43.40200 48.67500 42.94300
C  44.31900 46.50500 42.48200
C  43.16600 45.78300 43.03400
O  43.00000 45.40800 44.15400
O  42.32300 45.39300 42.00400
C  41.01900 44.78700 42.40800
H  48.87100 41.29900 42.74000
H  53.20100 45.50900 45.41600
H  48.85800 50.03700 45.61600
H  44.56900 43.36700 42.64800
H  46.50700 41.56100 41.61000
H  46.87700 41.36900 44.49300
H  46.11800 40.34000 43.35900
H  45.11800 41.49400 44.11500
H  45.85400 43.05500 39.97500
H  45.26800 44.69500 40.33000
H  43.06200 44.16400 39.90100
H  43.19200 42.99100 41.13500
H  51.20900 40.76100 42.29300
H  50.68000 40.10100 43.77700
H  52.48100 40.17100 43.35800
H  54.37900 44.09200 46.15300
H  54.96300 44.48700 44.61200
H  55.82400 43.21200 45.42900
H  53.02000 48.26000 45.51500
H  50.74400 48.96100 47.40400
H  54.08800 47.33300 47.46000
H  52.62800 46.47100 47.79400
H  52.71600 48.04600 48.38100
H  50.90700 50.74300 45.07600
H  52.54400 50.46500 45.86100
H  50.67800 52.29900 46.57900
H  52.04300 51.57000 47.61700
H  50.35400 50.99400 47.71500
H  44.93500 50.73500 44.27700
H  46.58400 51.27700 44.33500
H  45.89600 50.65600 45.78400
H  44.31500 46.42600 41.39500
H  40.59800 45.11600 43.35800
H  41.09200 43.71400 42.58500
H  40.22300 44.87600 41.66800

