158

Mg 16.55900 -3.15100 27.65000
C  16.01500 -0.84300 30.31200
C  18.34800 -5.08400 29.79800
C  17.79700 -4.97000 24.93400
C  15.05900 -0.87900 25.47500
N  17.27900 -2.85700 29.79100
C  16.77100 -1.95200 30.71300
C  17.40700 -2.20100 32.09800
C  18.25600 -3.51900 31.88700
C  17.88100 -3.89000 30.40400
C  19.80200 -3.38800 32.12600
C  16.34900 -2.39000 33.16600
C  16.79100 -2.16200 34.55700
H  18.12500 -1.49800 34.96100
N  17.71000 -4.96800 27.43600
C  18.36300 -5.57100 28.44900
C  19.00400 -6.78800 27.90500
C  18.93300 -6.73800 26.48700
C  18.09100 -5.55200 26.24900
C  19.70200 -7.84800 28.74000
C  19.43100 -7.71900 25.36500
O  19.18300 -7.52600 24.21700
C  20.29600 -8.99300 25.65500
N  16.60300 -2.84000 25.52500
C  17.18400 -3.74000 24.64900
C  16.86300 -3.35300 23.17400
C  15.88700 -2.03200 23.39200
C  15.80800 -1.90300 24.92900
C  18.16000 -3.06500 22.36100
C  14.49900 -2.11700 22.64100
C  14.08000 -0.94200 21.72500
N  15.61700 -1.28500 27.81200
C  15.01900 -0.50600 26.84300
C  14.52800 0.65400 27.47700
C  14.88600 0.58800 28.82900
C  15.54800 -0.65200 28.99200
C  13.77400 1.64900 26.85300
C  14.74800 1.30700 30.10400
O  14.36000 2.40600 30.44300
C  15.47200 0.35400 31.14300
C  16.52300 1.08200 31.92900
O  17.68300 1.26300 31.58200
O  15.92100 1.44600 33.09900
C  16.78300 2.29400 33.99200
H  18.90600 -5.62500 30.56400
H  18.16500 -5.41700 24.00800
H  14.58900 -0.12400 24.84100
H  18.10500 -1.41900 32.39800
H  17.80700 -4.27400 32.53200
H  20.42100 -3.21900 31.24500
H  20.19200 -4.33900 32.48800
H  20.00700 -2.67600 32.92600
H  15.92200 -3.38900 33.08800
H  15.55800 -1.65900 33.00000
H  16.62800 -3.06300 35.14900
H  16.06700 -1.44200 34.93900
H  19.67500 -7.44500 29.75300
H  20.72000 -8.02100 28.39200
H  19.24000 -8.83300 28.67600
H  19.93200 -9.60600 26.48000
H  21.29800 -8.60000 25.82600
H  20.51500 -9.54900 24.74300
H  16.13200 -4.00300 22.69300
H  16.52000 -1.19300 23.10200
H  19.02200 -3.52900 22.84100
H  18.36500 -2.03300 22.07500
H  18.08500 -3.56000 21.39300
H  13.69900 -2.30100 23.35800
H  14.54800 -2.96300 21.95500
H  13.82700 -1.38700 20.76300
H  14.83800 -0.17500 21.56600
H  13.12900 -0.54600 22.08100
H  12.83400 1.17500 26.57000
H  14.31000 2.15200 26.04800
H  13.52100 2.41000 27.59200
H  14.79400 -0.00600 31.91700
H  16.19500 3.09100 34.44700
H  17.59100 2.80800 33.47100
H  17.20300 1.70000 34.80400
Mg 26.58700 52.26400 25.80100
C  24.00100 53.04000 28.19800
C  28.58400 51.66100 28.40900
C  29.07800 51.82700 23.59800
C  24.47100 53.45600 23.33600
N  26.32400 52.54500 28.12600
C  25.16300 52.73300 28.83800
C  25.41500 52.35900 30.35100
C  26.93900 51.97400 30.32000
C  27.34100 52.05100 28.85100
C  27.92900 52.78700 31.31300
C  24.50100 51.20200 30.83200
C  23.56800 51.55500 32.02300
H  23.62500 50.62100 33.25400
N  28.60300 51.70700 26.00100
C  29.22000 51.53500 27.17500
C  30.52200 51.05000 26.94600
C  30.73300 51.08600 25.49000
C  29.49800 51.52500 24.96200
C  31.42700 50.46500 27.99700
C  31.84800 50.54100 24.66200
O  31.83800 50.60300 23.43900
C  32.92900 49.73500 25.30900
N  26.75500 52.52200 23.78600
C  27.93000 52.29500 23.12300
C  27.74800 52.67000 21.66700
C  26.27400 53.21300 21.52600
C  25.78300 53.04600 22.92000
C  28.92000 53.50800 21.07100
C  25.41400 52.66600 20.35200
C  25.30700 53.43200 19.00500
N  24.58900 53.04200 25.77800
C  23.86700 53.42200 24.66200
C  22.48600 53.75700 25.01600
C  22.49600 53.60400 26.42900
C  23.76600 53.19800 26.78200
C  21.34300 54.09700 24.08400
C  21.73100 53.68100 27.68400
O  20.57900 53.92900 27.87700
C  22.65500 53.42800 28.83400
C  22.78600 54.78800 29.47400
O  23.03000 55.82300 28.91000
O  22.69600 54.68900 30.80800
C  22.60000 55.97600 31.51500
H  29.33000 51.32800 29.13300
H  29.81000 51.65200 22.80700
H  23.76200 53.68800 22.53900
H  25.34800 53.18800 31.05500
H  27.02700 50.94600 30.67100
H  28.85500 53.09500 30.82900
H  28.34500 52.05900 32.00900
H  27.48200 53.50300 32.00300
H  25.08800 50.32100 31.09400
H  23.80200 51.02400 30.01600
H  22.49400 51.55500 31.83500
H  23.88000 52.52700 32.40400
H  31.37700 49.40200 27.76000
H  31.14000 50.64900 29.03200
H  32.45500 50.80200 27.86700
H  32.54000 48.90700 25.90200
H  33.50900 50.32700 26.01700
H  33.55100 49.28100 24.53800
H  27.77000 51.73000 21.11600
H  26.23900 54.28900 21.36000
H  29.57200 54.04400 21.76000
H  28.52200 54.25200 20.38100
H  29.56600 52.85000 20.49000
H  24.38900 52.41400 20.62700
H  25.88000 51.74600 20.00000
H  24.33800 53.27300 18.53200
H  25.96000 53.20400 18.16300
H  25.54800 54.47800 19.19400
H  20.40900 54.01700 24.64100
H  21.29200 53.27400 23.37200
H  21.49100 55.04200 23.56100
H  22.26900 52.67300 29.51800
H  23.59900 56.32000 31.78200
H  22.01400 55.68400 32.38700
H  22.04200 56.77800 31.03300

