158

Mg 26.88100 50.50100 26.08400
C  24.87000 51.57700 28.77800
C  28.98500 49.03100 28.30300
C  28.81000 49.54700 23.45800
C  24.83700 52.29100 23.99800
N  26.85500 50.23200 28.28100
C  26.00900 50.86000 29.25300
C  26.41000 50.44400 30.67600
C  27.89800 49.94900 30.45200
C  27.94200 49.73200 28.90100
C  29.08400 50.84200 30.84300
C  25.42700 49.35200 31.25700
C  24.64800 49.70900 32.59700
H  24.72000 48.69300 33.81300
N  28.63500 49.32600 25.91700
C  29.30800 48.74800 26.96300
C  30.53200 48.07400 26.41600
C  30.58700 48.34900 25.01800
C  29.29000 49.02400 24.70200
C  31.48400 47.36900 27.33600
C  31.70100 47.95100 23.93400
O  31.57300 48.20600 22.77200
C  32.87500 47.13100 24.45600
N  26.89400 50.90100 23.99400
C  27.82300 50.49900 23.13400
C  27.41700 50.91400 21.71800
C  25.93500 51.42200 21.82900
C  25.92300 51.59100 23.37200
C  28.39700 51.97100 21.18600
C  24.81500 50.45200 21.44700
C  23.44800 50.99300 21.05200
N  25.21200 51.71300 26.24400
C  24.46600 52.35300 25.32000
C  23.29100 52.92000 25.91700
C  23.43300 52.68900 27.34000
C  24.54400 51.82800 27.46300
C  22.23900 53.65900 25.07800
C  22.84500 52.88000 28.62500
O  21.96500 53.59000 29.09000
C  23.79200 52.17200 29.59200
C  24.28900 53.15600 30.51500
O  25.22800 53.91000 30.33100
O  23.51600 53.13300 31.64800
C  24.06000 54.12800 32.58300
H  29.66200 48.64700 29.06900
H  29.34500 49.28500 22.54300
H  24.15600 52.63200 23.21500
H  26.37800 51.38900 31.21900
H  28.14200 49.02700 30.98100
H  29.78300 50.91500 30.01000
H  29.55500 50.39300 31.71800
H  28.65300 51.80600 31.11400
H  25.95700 48.44600 31.55400
H  24.59300 49.23700 30.56400
H  23.60800 49.79700 32.28500
H  24.99000 50.65100 33.02700
H  31.86900 46.41400 26.97600
H  31.17700 47.36900 28.38200
H  32.43200 47.90400 27.27200
H  33.65900 46.96600 23.71700
H  32.50200 46.18800 24.85600
H  33.44600 47.58800 25.26500
H  27.32600 49.99000 21.14700
H  25.86900 52.37400 21.30200
H  29.09300 52.19000 21.99500
H  28.01700 52.98200 21.03100
H  28.92100 51.58900 20.31000
H  24.73500 49.60200 22.12500
H  25.18100 50.08700 20.48700
H  22.59300 50.69100 21.65700
H  23.39200 50.83000 19.97500
H  23.48600 52.07500 21.17800
H  21.62300 52.94600 24.53100
H  22.72100 54.33200 24.37000
H  21.57400 54.25600 25.70300
H  23.11200 51.46400 30.06700
H  25.02400 53.73800 32.91000
H  23.42300 54.24700 33.45900
H  24.21500 55.10200 32.11900
Mg 9.65300 48.47200 25.53700
C  7.61200 48.79200 28.40800
C  12.32500 49.57700 27.47300
C  11.56700 48.32800 22.84100
C  6.81400 47.76200 23.63700
N  9.90100 49.27100 27.63400
C  8.99700 49.14900 28.62200
C  9.56600 49.45800 30.04100
C  11.03500 49.94900 29.65100
C  11.10800 49.54600 28.16200
C  11.25500 51.51100 29.79800
C  9.60600 48.23000 30.96300
C  9.42200 48.55900 32.46100
H  8.94000 47.37600 33.27200
N  11.64200 49.05300 25.15300
C  12.59200 49.30100 26.10500
C  13.89600 49.29500 25.48400
C  13.71200 48.90000 24.11600
C  12.28500 48.80400 23.95600
C  15.24700 49.64400 26.16700
C  14.76500 48.84400 22.99800
O  14.49000 48.69400 21.82300
C  16.24400 48.83100 23.28800
N  9.22000 48.30200 23.56600
C  10.23800 48.08100 22.69800
C  9.78300 47.59400 21.29400
C  8.33900 47.14600 21.64400
C  8.04700 47.76100 23.01500
C  9.86100 48.63400 20.14400
C  8.03000 45.62500 21.61700
C  7.89600 44.77900 22.88500
N  7.59300 48.29500 25.89600
C  6.52900 48.08300 24.98600
C  5.29700 48.13300 25.76500
C  5.66000 48.41400 27.08600
C  7.03100 48.52300 27.13400
C  3.86700 47.85200 25.22900
C  5.12300 48.51300 28.41800
O  3.95900 48.34400 28.82900
C  6.39800 48.60200 29.31000
C  6.29900 47.29600 30.05300
O  6.49500 46.16200 29.56700
O  5.68700 47.52900 31.28700
C  5.30500 46.33900 32.08900
H  13.18200 49.87900 28.07800
H  12.14500 48.16500 21.92900
H  5.95600 47.58800 22.98300
H  9.02800 50.22500 30.59800
H  11.86300 49.53200 30.22400
H  12.15900 51.73100 30.36600
H  10.42800 52.04600 30.26400
H  11.37000 51.93200 28.79900
H  10.61200 47.81400 30.91900
H  8.95400 47.46000 30.55100
H  8.61000 49.28000 32.55700
H  10.33200 48.96700 32.89900
H  15.01300 49.83600 27.21400
H  15.71900 50.52900 25.74000
H  15.88900 48.76400 26.19600
H  16.52400 49.78100 23.74500
H  16.75500 48.56900 22.36200
H  16.29800 48.05100 24.04700
H  10.34600 46.73400 20.93200
H  7.64000 47.65500 20.98000
H  10.69100 49.32800 20.27000
H  8.87300 49.07800 20.01800
H  10.17500 48.08800 19.25400
H  8.78500 45.13100 21.00500
H  7.09700 45.59700 21.05500
H  8.58800 45.13700 23.64700
H  8.12600 43.73100 22.69300
H  6.90300 44.79200 23.33300
H  3.44900 47.54100 26.18600
H  3.78400 46.97100 24.59200
H  3.23400 48.66600 24.87300
H  6.25400 49.37900 30.06100
H  5.97000 45.50700 31.85500
H  4.23800 46.15500 31.96300
H  5.43100 46.37300 33.17100

