158

Mg 41.57800 8.96700 29.39900
C  43.27000 10.27300 32.14500
C  39.31200 7.74400 31.64000
C  39.88300 7.61300 26.89900
C  44.00600 10.15100 27.35600
N  41.37400 8.96200 31.71800
C  42.09800 9.67800 32.60700
C  41.57300 9.52400 34.05200
C  40.42900 8.50400 33.85200
C  40.33600 8.41100 32.28100
C  40.56400 7.16400 34.54100
C  41.15600 10.83400 34.76800
C  40.24800 10.78700 36.09400
H  40.54000 11.73800 37.22400
N  39.82500 7.79100 29.24600
C  39.00300 7.45800 30.25100
C  37.84300 6.73300 29.79400
C  37.94400 6.68300 28.34200
C  39.25200 7.42100 28.09100
C  36.81100 6.13800 30.75300
C  37.03100 6.04600 27.36400
O  37.16600 6.28600 26.19400
C  35.86200 5.39200 27.75500
N  41.89800 8.95900 27.40900
C  41.05000 8.35400 26.52100
C  41.58700 8.45400 25.08700
C  42.81200 9.41900 25.20300
C  42.93900 9.54800 26.75200
C  41.89700 7.16800 24.29200
C  42.63500 10.78500 24.46900
C  43.86400 11.27900 23.70400
N  43.29000 9.95300 29.60600
C  44.19900 10.38200 28.67900
C  45.24900 11.15100 29.29000
C  44.92000 11.04900 30.70300
C  43.74600 10.34200 30.80800
C  46.25400 11.82700 28.47600
C  45.33200 11.51300 32.04700
O  46.33500 12.10000 32.45000
C  44.27300 11.04400 33.05500
C  45.01600 10.31500 34.18200
O  45.51500 9.21000 34.03500
O  44.94700 10.97500 35.33600
C  45.69500 10.42100 36.46700
H  38.59900 7.29200 32.33300
H  39.32900 7.16400 26.07100
H  44.66800 10.57900 26.60100
H  42.31200 9.13000 34.74900
H  39.47200 8.84600 34.24600
H  39.55200 6.84700 34.79200
H  41.16700 7.36600 35.42600
H  40.98600 6.39700 33.89200
H  40.66800 11.49800 34.05400
H  42.04300 11.41500 35.02200
H  40.41700 9.79200 36.50500
H  39.17400 10.87800 35.93200
H  36.91900 5.05400 30.74600
H  35.89600 6.49800 30.28300
H  36.96000 6.41200 31.79700
H  35.73700 4.53600 27.09200
H  34.99700 6.05400 27.79600
H  35.87100 4.95600 28.75400
H  40.80000 8.93600 24.50800
H  43.74300 8.93900 24.90200
H  42.20500 6.32300 24.90700
H  42.63500 7.25200 23.49500
H  40.91100 6.95100 23.88000
H  42.53100 11.55000 25.23900
H  41.80500 10.67500 23.77100
H  44.37500 10.42500 23.25900
H  44.51700 11.80600 24.40100
H  43.45900 12.00500 22.99900
H  47.06100 11.11200 28.31500
H  46.79300 12.57700 29.05500
H  45.90600 12.22800 27.52400
H  43.85100 11.98100 33.41600
H  45.15800 9.55800 36.86000
H  45.83600 11.20300 37.21400
H  46.68900 10.17300 36.09700
Mg 16.69700 52.21900 25.83300
C  18.38500 51.00600 28.59500
C  13.98600 52.85000 27.95300
C  14.88100 53.35300 23.15800
C  19.06000 51.01800 23.73700
N  16.28500 52.06800 28.00400
C  17.16000 51.69500 28.93700
C  16.65200 51.88800 30.36700
C  15.15600 52.13100 30.13100
C  15.11300 52.44700 28.65800
C  14.31800 50.89600 30.60100
C  17.42300 53.02100 31.12400
C  17.29800 52.95600 32.60400
H  16.18400 52.13000 33.31000
N  14.77100 53.06500 25.57300
C  13.75800 53.19100 26.58700
C  12.49800 53.62300 25.96700
C  12.85300 53.93300 24.61300
C  14.21900 53.42100 24.36300
C  11.23900 53.83100 26.79100
C  11.91700 54.49500 23.49900
O  12.38700 54.80600 22.43800
C  10.51800 54.83600 23.83800
N  16.77600 51.93600 23.66500
C  16.05100 52.64800 22.75700
C  16.65000 52.62600 21.37000
C  18.00300 52.05400 21.64000
C  17.99000 51.65900 23.08700
C  15.77900 51.81500 20.36700
C  19.22200 52.95600 21.38400
C  20.29100 52.21300 20.67600
N  18.38300 51.24600 26.10400
C  19.30200 50.82300 25.07900
C  20.35200 50.03500 25.70400
C  20.09800 50.13900 27.10300
C  18.82700 50.83500 27.25100
C  21.40700 49.28600 24.98300
C  20.56800 49.82400 28.42400
O  21.57800 49.17900 28.71600
C  19.49500 50.31200 29.38800
C  18.85200 49.17500 30.10900
O  18.00300 48.40000 29.63300
O  19.16700 49.21100 31.48100
C  18.37700 48.41000 32.50400
H  13.12200 53.09500 28.57400
H  14.51100 53.97500 22.34000
H  19.88200 50.65300 23.11900
H  16.92100 51.00000 30.94000
H  14.76200 53.01400 30.63500
H  14.80600 49.95700 30.86300
H  13.67400 50.57700 29.78100
H  13.66400 51.22100 31.41000
H  17.03000 53.96700 30.75300
H  18.46900 52.96400 30.82400
H  17.08000 53.94800 32.99900
H  18.26300 52.70200 33.04200
H  10.35000 53.30200 26.44600
H  11.21200 54.92000 26.83500
H  11.43900 53.63000 27.84300
H  10.02800 53.92700 24.18500
H  10.07200 55.14200 22.89100
H  10.50900 55.54800 24.66300
H  16.71600 53.67300 21.07100
H  18.04700 51.13500 21.05600
H  15.30200 51.01900 20.93900
H  16.33800 51.37700 19.53900
H  14.97500 52.37300 19.88600
H  19.77900 53.14800 22.30100
H  19.06300 53.89600 20.85500
H  20.60300 52.76800 19.79100
H  20.03800 51.20400 20.35000
H  21.14100 52.22300 21.35900
H  21.11000 48.91100 24.00400
H  21.65600 48.37800 25.53200
H  22.27100 49.94200 24.87500
H  19.98200 51.03100 30.04600
H  18.53300 47.34700 32.32000
H  17.34200 48.61700 32.23200
H  18.78200 48.67500 33.48000

