158

Mg -13.06700 38.29000 42.08200
C  -11.19300 35.41900 40.90600
C  -11.01300 40.32000 40.11400
C  -15.18000 40.90000 42.82100
C  -15.31300 36.06900 43.55600
N  -11.39300 37.84400 40.57500
C  -10.65500 36.64800 40.45500
C  -9.34900 36.80800 39.67900
C  -9.30700 38.43700 39.52500
C  -10.62700 38.92300 40.12900
C  -8.11100 39.09100 40.27800
C  -9.22200 36.00800 38.35800
C  -8.01400 34.95000 38.39100
H  -7.20200 34.77400 37.02500
N  -13.13300 40.28000 41.55800
C  -12.16400 40.89800 40.79700
C  -12.47600 42.28900 40.76000
C  -13.61200 42.56300 41.59100
C  -14.04900 41.23400 42.00800
C  -11.71000 43.33600 39.93000
C  -14.09600 43.99300 41.86500
O  -13.65000 44.99500 41.27400
C  -15.23300 44.17800 42.85100
N  -15.07500 38.46800 43.02300
C  -15.70400 39.65700 43.19300
C  -17.03000 39.38900 43.87600
C  -17.05600 37.85500 44.09000
C  -15.73900 37.42100 43.50800
C  -17.26400 40.09600 45.21500
C  -18.30800 37.11600 43.49800
C  -19.42800 36.91600 44.58000
N  -13.36600 36.13800 42.17600
C  -14.26700 35.39600 42.86700
C  -13.92200 33.96600 42.75000
C  -12.77100 33.97200 42.00000
C  -12.42800 35.31900 41.70800
C  -14.65400 32.87100 43.44500
C  -11.76700 33.14500 41.44500
O  -11.76700 31.92700 41.44000
C  -10.61800 34.01600 40.83600
C  -9.25700 33.72900 41.46400
O  -8.50000 32.75900 41.13600
O  -9.00700 34.59700 42.44300
C  -7.76600 34.34900 43.20500
H  -10.34800 40.99300 39.56900
H  -15.87900 41.71600 43.01400
H  -16.05900 35.36000 43.92100
H  -8.51400 36.50500 40.31100
H  -9.31900 38.86100 38.52100
H  -7.32600 39.09200 39.52200
H  -7.85400 38.41900 41.09700
H  -8.38400 40.04900 40.72000
H  -9.11000 36.52000 37.40200
H  -10.14400 35.42700 38.33600
H  -8.36300 33.94200 38.61600
H  -7.27900 35.29000 39.12100
H  -11.21200 44.10100 40.52400
H  -12.51800 43.77400 39.34400
H  -11.04600 42.81100 39.24300
H  -16.23000 44.27400 42.42200
H  -15.00300 45.13900 43.31100
H  -15.06200 43.41400 43.61000
H  -17.90300 39.67400 43.28800
H  -16.94500 37.59300 45.14200
H  -16.38500 40.65400 45.53600
H  -17.65100 39.43900 45.99400
H  -18.04200 40.85600 45.13100
H  -18.06200 36.09600 43.20400
H  -18.71500 37.50400 42.56500
H  -19.15300 37.60500 45.37900
H  -19.42600 35.95000 45.08500
H  -20.42400 37.10300 44.18000
H  -14.27300 31.94400 43.01700
H  -15.71000 32.91100 43.17800
H  -14.55400 32.92600 44.52900
H  -10.69000 33.57400 39.84300
H  -7.76800 33.34200 43.62400
H  -7.79000 35.07100 44.02100
H  -6.83000 34.61600 42.71300
Mg -2.13700 33.98700 27.10400
C  -3.93100 32.40100 29.49700
C  -1.06300 36.20100 29.53900
C  -0.64500 35.89600 24.65400
C  -3.74400 32.17100 24.64500
N  -2.49800 34.23900 29.25100
C  -3.20400 33.41000 30.03400
C  -3.11100 33.79700 31.53400
C  -2.39000 35.21600 31.46100
C  -1.99900 35.20400 29.97100
C  -3.17900 36.44300 31.98400
C  -2.35100 32.74500 32.35400
C  -3.17300 32.17000 33.53700
H  -2.49800 31.70800 34.87600
N  -0.92500 35.65500 27.15300
C  -0.54200 36.40300 28.25000
C  0.50500 37.27900 27.90900
C  0.57100 37.24200 26.46500
C  -0.38300 36.27300 25.98600
C  1.37400 38.06500 28.91500
C  1.64600 37.91300 25.63800
O  1.71400 37.71200 24.44600
C  2.72400 38.85300 26.15600
N  -2.28600 34.09900 24.98100
C  -1.53000 34.93100 24.19700
C  -1.44300 34.40100 22.75500
C  -2.52000 33.28800 22.71800
C  -2.83700 33.12300 24.21400
C  -1.47400 35.35200 21.59000
C  -1.92700 32.04000 21.90700
C  -1.03300 31.08900 22.78300
N  -3.61400 32.61200 26.97600
C  -4.11500 31.87300 25.94100
C  -5.09500 30.88600 26.51000
C  -4.99000 31.05700 27.88300
C  -4.06100 32.07000 28.15800
C  -5.87400 29.81100 25.79500
C  -5.59200 30.55700 29.13300
O  -6.44200 29.74900 29.29500
C  -4.91200 31.43300 30.22500
C  -5.92300 32.20600 30.92400
O  -6.72700 32.95000 30.40300
O  -6.10500 31.77700 32.21300
C  -7.32300 32.24800 32.94000
H  -0.80600 36.88000 30.35500
H  -0.20800 36.49100 23.84900
H  -4.05900 31.57300 23.78700
H  -4.12100 33.95000 31.91500
H  -1.47900 35.26400 32.05600
H  -4.13200 36.25300 32.47900
H  -3.35000 37.08900 31.12300
H  -2.60200 37.06800 32.66500
H  -1.53900 33.27000 32.85700
H  -1.98000 31.91300 31.75600
H  -3.70700 31.32900 33.09600
H  -3.96500 32.87400 33.79200
H  2.23300 37.44600 29.17600
H  0.80100 38.36400 29.79200
H  1.75100 38.95400 28.41000
H  2.28600 39.75700 26.58000
H  3.53400 39.04600 25.45300
H  3.29600 38.25400 26.86500
H  -0.44100 33.97800 22.68800
H  -3.37300 33.67100 22.15700
H  -2.32300 35.09800 20.95500
H  -0.59600 35.22300 20.95700
H  -1.61400 36.37100 21.95100
H  -1.37700 32.37500 21.02800
H  -2.82300 31.48400 21.62800
H  -0.23800 30.54500 22.27400
H  -1.64400 30.28600 23.19600
H  -0.65400 31.74000 23.57100
H  -5.79100 28.87100 26.34200
H  -5.43800 29.83500 24.79700
H  -6.91300 30.13900 25.77000
H  -4.38000 30.72100 30.85500
H  -7.87400 33.04900 32.44700
H  -6.96400 32.76900 33.82800
H  -7.84000 31.34000 33.25100

