158

Mg 26.15900 49.97500 26.34800
C  24.11600 51.17900 28.87500
C  28.48700 49.26900 28.71800
C  28.10700 48.73000 23.78700
C  23.78100 50.98200 23.94700
N  26.30500 50.32200 28.53400
C  25.29300 50.62700 29.38900
C  25.67500 50.41700 30.87700
C  27.16300 50.03500 30.72900
C  27.34400 49.89200 29.21600
C  28.08400 51.05600 31.44500
C  24.81800 49.19200 31.58200
C  24.17500 49.61800 32.93500
H  25.05900 50.52900 33.82300
N  28.06400 49.19200 26.24900
C  28.84500 49.00600 27.37700
C  30.10500 48.46700 26.89300
C  29.98800 48.24500 25.52000
C  28.71200 48.78600 25.08800
C  31.35800 48.33400 27.75000
C  31.06600 47.59800 24.55300
O  30.91000 47.60200 23.34200
C  32.36100 46.92400 25.09600
N  26.02800 50.01400 24.14600
C  26.94900 49.36500 23.36400
C  26.42200 49.23200 21.91500
C  25.01700 49.85100 21.97700
C  24.88900 50.28100 23.47400
C  27.42700 49.89500 20.93500
C  23.86300 48.78800 21.61000
C  23.84300 47.48700 22.44600
N  24.32400 50.96200 26.36200
C  23.47700 51.26400 25.31600
C  22.33200 51.91600 25.89200
C  22.46400 51.79700 27.31600
C  23.74600 51.29400 27.49300
C  21.10900 52.47900 25.21900
C  21.87400 52.13300 28.59900
O  20.81500 52.71500 28.91800
C  22.89000 51.68000 29.70700
C  23.31900 52.84700 30.53000
O  24.25500 53.62400 30.28800
O  22.42700 53.11600 31.55700
C  22.91600 54.11900 32.49200
H  29.33700 49.05400 29.36800
H  28.67300 48.27800 22.97000
H  23.00900 51.24400 23.22100
H  25.44500 51.40900 31.26500
H  27.38000 49.05700 31.15800
H  28.87900 51.46100 30.81800
H  28.50000 50.52600 32.30200
H  27.46100 51.91000 31.71100
H  25.50400 48.36300 31.75400
H  24.05400 48.86300 30.87800
H  23.96400 48.65000 33.38900
H  23.29700 50.18600 32.62400
H  31.41200 47.26200 27.94000
H  31.18200 48.90100 28.66400
H  32.27000 48.71300 27.28900
H  32.79300 46.25100 24.35400
H  32.20900 46.45100 26.06600
H  33.17200 47.61600 25.32300
H  26.40000 48.19600 21.57500
H  24.95700 50.76500 21.38600
H  28.28500 50.16600 21.55000
H  26.95400 50.84000 20.67000
H  27.71300 49.19600 20.14800
H  23.77700 48.48200 20.56700
H  22.96900 49.35500 21.87000
H  22.95700 47.37100 23.07000
H  24.75400 47.23800 22.98900
H  23.77200 46.68500 21.71000
H  20.18100 52.14500 25.68200
H  21.12500 52.10300 24.19600
H  21.23100 53.56200 25.20800
H  22.45800 50.89200 30.32400
H  23.36500 54.98000 31.99800
H  23.59800 53.66600 33.21200
H  22.10800 54.54500 33.08700
Mg -2.44500 35.24700 26.74100
C  -4.27000 33.62100 29.31100
C  -1.13100 37.38800 28.92500
C  -0.60700 36.53600 24.06800
C  -3.87000 32.91300 24.47300
N  -2.67500 35.42200 28.87000
C  -3.50300 34.66900 29.72600
C  -3.36700 35.22700 31.15700
C  -2.55900 36.55400 30.88200
C  -2.06300 36.42900 29.45400
C  -3.34600 37.81400 31.19700
C  -2.56000 34.32800 32.11700
C  -2.55100 34.80500 33.60800
H  -2.79900 33.79700 34.75700
N  -1.11200 36.83100 26.48100
C  -0.69100 37.63600 27.58300
C  0.21300 38.66500 27.09300
C  0.44400 38.31300 25.72000
C  -0.39400 37.14100 25.36100
C  0.87900 39.61800 28.05300
C  1.41400 38.95800 24.73500
O  1.57000 38.48600 23.63800
C  2.22800 40.25400 25.05600
N  -2.28500 34.86500 24.58900
C  -1.55200 35.60900 23.68800
C  -1.59400 35.05000 22.24500
C  -2.61300 33.85900 22.32900
C  -3.01400 33.87400 23.89800
C  -1.72900 36.18300 21.06500
C  -1.95300 32.48400 21.94300
C  -2.74300 31.39600 21.17300
N  -3.91100 33.70400 26.77600
C  -4.23800 32.73900 25.85200
C  -4.96200 31.63900 26.41100
C  -5.06900 32.01100 27.77900
C  -4.35500 33.21800 27.91300
C  -5.42700 30.34200 25.70100
C  -5.54500 31.58400 29.10700
O  -6.13100 30.53700 29.40100
C  -5.00300 32.57000 30.12700
C  -6.12900 33.01400 30.94500
O  -7.20400 33.40500 30.57000
O  -5.85100 32.76000 32.24600
C  -6.94900 32.89700 33.16100
H  -0.87900 38.12200 29.69300
H  -0.20900 37.13000 23.24100
H  -4.30300 32.22100 23.74700
H  -4.34600 35.49200 31.55700
H  -1.67900 36.56000 31.52500
H  -3.32800 38.40200 30.27900
H  -2.91700 38.25500 32.09700
H  -4.41100 37.75100 31.42300
H  -1.49200 34.27400 31.90300
H  -2.93000 33.30300 32.14700
H  -3.13900 35.71800 33.50800
H  -1.63600 35.34000 33.86300
H  1.94100 39.43500 27.88500
H  0.56700 39.43800 29.08200
H  0.76300 40.68700 27.87700
H  3.22000 39.94900 25.39000
H  1.74400 40.87300 25.81000
H  2.41800 40.84400 24.15900
H  -0.63100 34.59200 22.01800
H  -3.46100 34.09100 21.68500
H  -0.79700 36.29400 20.51000
H  -1.81800 37.16500 21.53000
H  -2.58000 36.09200 20.39100
H  -1.74300 32.10600 22.94400
H  -1.02100 32.60600 21.39200
H  -3.63800 31.79000 20.69200
H  -3.07000 30.66100 21.90800
H  -2.17000 30.75700 20.50100
H  -4.78800 30.14100 24.84100
H  -6.44600 30.55200 25.37400
H  -5.47700 29.54200 26.43900
H  -4.26000 31.99800 30.68300
H  -6.52200 33.40500 34.02500
H  -7.11500 31.85800 33.44500
H  -7.89900 33.30900 32.82100

