158

Mg 9.30100 3.95900 27.17000
C  10.33700 2.36800 30.03100
C  7.19200 5.85100 29.00600
C  7.89600 4.91400 24.30000
C  10.46200 1.01700 25.31500
N  8.65300 3.99600 29.29100
C  9.43700 3.43900 30.24800
C  9.09200 4.00800 31.61100
C  7.84400 4.95100 31.35900
C  7.89400 5.03200 29.82400
C  6.45700 4.48500 31.93900
C  10.36200 4.51100 32.33000
C  10.06300 5.26000 33.60500
H  11.14600 5.29400 34.68200
N  7.79600 5.29500 26.71300
C  6.98600 5.98100 27.62500
C  6.20300 6.94800 26.84300
C  6.50600 6.76300 25.50400
C  7.46500 5.57900 25.43200
C  5.22200 7.95200 27.48900
C  6.00300 7.54900 24.25700
O  6.49200 7.37000 23.17300
C  4.88200 8.55900 24.49100
N  9.19600 2.97800 25.07500
C  8.56600 3.70500 24.11000
C  8.88400 3.13900 22.72900
C  9.62300 1.85700 23.01000
C  9.81900 1.89800 24.52800
C  7.76100 3.22500 21.64700
C  10.88200 1.46200 22.25200
C  10.99300 0.07800 21.47700
N  10.30900 2.20100 27.56600
C  10.72500 1.18200 26.69400
C  11.46900 0.17900 27.46300
C  11.42500 0.65100 28.76900
C  10.62500 1.84200 28.79800
C  12.20700 -1.03000 26.89400
C  11.87300 0.42100 30.09300
O  12.56700 -0.44400 30.60800
C  11.10700 1.46600 30.97500
C  10.14900 0.79400 31.88300
O  9.14600 0.15300 31.55200
O  10.70500 0.90600 33.21800
C  9.90500 0.41700 34.30600
H  6.54800 6.46900 29.63400
H  7.69400 5.34500 23.31700
H  10.85500 0.20000 24.70700
H  8.86500 3.15100 32.24500
H  8.10000 5.88500 31.85800
H  6.47500 3.46700 32.32800
H  5.74700 4.46000 31.11200
H  5.95300 5.08800 32.69400
H  11.09100 5.04800 31.72400
H  10.96600 3.64700 32.60600
H  9.23500 4.75900 34.10700
H  9.78300 6.26800 33.30100
H  4.23900 7.68300 27.10300
H  5.53600 8.93800 27.14600
H  5.30500 7.83000 28.56900
H  4.12300 8.16600 25.16800
H  4.34000 8.69900 23.55600
H  5.31200 9.47000 24.90800
H  9.65300 3.75000 22.25600
H  8.89900 1.04400 22.94200
H  6.88700 3.63100 22.15700
H  7.38400 2.29900 21.21400
H  8.06600 3.86900 20.82200
H  11.67700 1.47900 22.99700
H  11.24200 2.27000 21.61600
H  10.00000 -0.36500 21.41300
H  11.75900 -0.55200 21.93000
H  11.32500 0.19800 20.44600
H  13.29000 -0.97800 27.00200
H  12.02100 -1.13300 25.82500
H  11.84100 -1.90500 27.43300
H  11.81300 2.01000 31.60300
H  10.06700 1.04300 35.18400
H  10.41600 -0.45100 34.72300
H  8.84100 0.20900 34.19400
Mg 48.02700 34.90500 26.85500
C  46.48800 33.37300 29.64900
C  48.63400 37.66700 28.74200
C  49.05100 36.24400 24.07400
C  46.92500 31.93900 25.01600
N  47.61800 35.46300 28.99600
C  47.05800 34.65300 29.97500
C  47.11900 35.40900 31.36900
C  47.45700 36.88400 30.92700
C  47.94600 36.64900 29.49200
C  46.24100 37.85500 30.89400
C  48.23600 34.81300 32.19700
C  47.87800 34.66700 33.65300
H  48.95800 34.96900 34.74400
N  48.87800 36.67000 26.43900
C  49.16400 37.66200 27.35200
C  49.93600 38.66100 26.69600
C  49.91400 38.40900 25.26400
C  49.16900 37.10300 25.24700
C  50.35900 39.94600 27.43100
C  50.48300 39.23700 24.18100
O  50.33400 39.02000 22.97000
C  51.37100 40.40500 24.53000
N  48.00000 34.11400 24.90400
C  48.47600 34.96800 23.92600
C  48.44100 34.29500 22.56000
C  47.86000 32.82800 22.89300
C  47.51000 32.96400 24.38700
C  47.72600 35.18300 21.56700
C  48.95500 31.73700 22.65000
C  48.41900 30.32800 22.39700
N  46.92500 32.99500 27.23900
C  46.62100 31.92000 26.33600
C  45.92500 30.83400 27.13900
C  45.77200 31.41100 28.39600
C  46.42300 32.71800 28.38000
C  45.43800 29.51300 26.67700
C  45.29600 31.14400 29.74700
O  44.73900 30.13200 30.19200
C  45.70400 32.47500 30.55700
C  46.31800 32.04900 31.89100
O  47.49200 31.70200 31.97300
O  45.45200 31.96300 32.93500
C  45.97300 31.13400 34.03100
H  48.76900 38.68300 29.11900
H  49.63500 36.63700 23.23900
H  46.58100 31.04000 24.49900
H  46.18900 35.46100 31.93500
H  48.28700 37.34600 31.46300
H  46.32700 38.59800 31.68600
H  45.35100 37.27700 31.14200
H  46.08800 38.41500 29.97200
H  49.07600 35.50600 32.22600
H  48.52500 33.86800 31.73600
H  47.69300 33.59300 33.66700
H  46.96900 35.20900 33.91600
H  50.01400 40.81300 26.86800
H  51.44200 39.85600 27.52500
H  50.01700 40.08500 28.45600
H  50.78500 41.26500 24.85700
H  51.91700 40.69800 23.63300
H  52.12200 40.09400 25.25600
H  49.49700 34.20000 22.30700
H  47.03400 32.68200 22.19700
H  47.22800 35.91400 22.20400
H  46.98000 34.62200 21.00400
H  48.36400 35.77300 20.90800
H  49.59100 31.58100 23.52100
H  49.55300 32.06300 21.79900
H  48.83100 29.58900 23.08400
H  48.56200 30.00200 21.36600
H  47.33200 30.33700 22.48400
H  45.81400 28.77300 27.38400
H  45.93600 29.34100 25.72200
H  44.38200 29.60400 26.42600
H  44.77500 33.00400 30.77100
H  45.40100 31.51500 34.87700
H  47.03100 31.35800 34.16700
H  45.76400 30.06600 33.96200

