158

Mg 35.76200 3.37200 29.99200
C  33.21000 4.34700 32.37400
C  38.03600 3.20700 32.74200
C  38.03700 2.27200 27.94300
C  33.28300 3.69900 27.58800
N  35.63800 3.85300 32.29400
C  34.47300 4.13800 33.00000
C  34.87000 4.27300 34.55300
C  36.41200 4.21000 34.47700
C  36.76400 3.64700 33.06500
C  37.15800 5.53300 34.82300
C  34.18800 3.10600 35.31200
C  34.32300 3.00700 36.83700
H  35.17700 3.90200 37.71300
N  37.84800 2.95700 30.24500
C  38.53600 2.82100 31.44100
C  39.76300 2.09400 31.21000
C  39.79500 1.84200 29.78300
C  38.52600 2.32600 29.27300
C  40.79300 1.68700 32.23200
C  40.87300 1.15400 28.92500
O  40.70100 0.82500 27.74900
C  42.28200 0.77200 29.49000
N  35.75300 3.21400 28.05100
C  36.82500 2.66500 27.38300
C  36.48500 2.50800 25.87600
C  34.88000 2.83400 25.84500
C  34.58200 3.26800 27.28900
C  37.30900 3.45900 24.98200
C  34.03900 1.64700 25.29800
C  33.40500 1.74200 23.83500
N  33.70800 4.02900 29.93700
C  32.83200 4.05800 28.80300
C  31.48200 4.30900 29.29100
C  31.58000 4.49700 30.67600
C  32.94900 4.35600 30.99000
C  30.23400 4.34600 28.55700
C  30.91600 4.90400 31.84000
O  29.75400 5.27200 32.00200
C  31.92600 4.80900 32.99700
C  31.95000 6.11800 33.72400
O  32.43800 7.17800 33.38300
O  31.39700 5.84500 34.94100
C  31.55100 6.96000 35.95000
H  38.67100 3.05500 33.61600
H  38.76200 1.99600 27.17400
H  32.54100 3.66900 26.78800
H  34.58300 5.22500 35.00000
H  36.72500 3.42200 35.16300
H  37.80000 5.40900 35.69500
H  36.39500 6.24000 35.14900
H  37.70000 5.86800 33.93900
H  34.53900 2.20700 34.80500
H  33.12200 3.16400 35.09100
H  34.44100 1.93800 37.01800
H  33.29900 3.32300 37.03500
H  41.80000 1.96500 31.92000
H  40.83100 0.60400 32.10900
H  40.55900 2.03500 33.23800
H  42.94700 0.34200 28.74100
H  42.06900 0.01100 30.24100
H  42.83900 1.59400 29.94000
H  36.67300 1.50200 25.50100
H  34.78100 3.78500 25.32100
H  36.69200 3.72900 24.12500
H  38.21100 2.98700 24.59100
H  37.62900 4.35800 25.50900
H  33.17700 1.65900 25.96500
H  34.54200 0.71100 25.54000
H  33.71700 2.61000 23.25500
H  32.33700 1.90600 23.98000
H  33.45000 0.87200 23.18100
H  30.17400 3.55900 27.80400
H  29.97900 5.34300 28.19700
H  29.52400 4.04100 29.32600
H  31.48100 4.08400 33.67900
H  30.69700 7.63800 35.97200
H  32.48600 7.52000 35.92400
H  31.56300 6.39600 36.88200
Mg -10.97300 38.54100 40.87200
C  -9.80600 35.20100 40.09400
C  -7.94700 39.71000 39.60000
C  -12.28500 41.62400 40.72100
C  -14.07700 37.20200 41.69800
N  -9.11900 37.47700 39.76800
C  -8.82100 36.16800 39.70400
C  -7.48600 35.95600 39.11900
C  -6.76900 37.36700 39.47300
C  -7.99400 38.24500 39.65200
C  -5.75700 37.40000 40.63700
C  -7.36800 35.47100 37.64200
C  -7.94700 36.50100 36.58400
H  -9.21300 36.21100 35.80300
N  -10.28100 40.34000 40.17900
C  -9.00100 40.69000 39.67300
C  -8.93200 42.12700 39.34000
C  -10.18200 42.65900 39.67600
C  -11.02100 41.53600 40.23200
C  -7.77600 42.78500 38.61200
C  -10.61600 44.10200 39.34600
O  -9.83400 44.86100 38.82200
C  -12.09200 44.58800 39.49100
N  -12.97000 39.32000 40.99500
C  -13.19800 40.59500 41.10100
C  -14.64200 40.95700 41.54600
C  -15.16600 39.46400 41.76900
C  -13.96300 38.59200 41.53900
C  -14.82600 41.87200 42.75300
C  -16.47200 39.10500 40.98900
C  -17.64500 38.61200 41.82800
N  -11.76800 36.67500 40.91000
C  -13.03000 36.27000 41.35200
C  -13.06500 34.84500 41.33900
C  -11.84200 34.36300 40.89200
C  -11.08900 35.53100 40.61700
C  -14.28300 34.06600 41.69100
C  -11.05300 33.18600 40.67500
O  -11.36300 32.01800 40.74900
C  -9.70800 33.66900 40.08800
C  -8.54900 33.00400 40.80600
O  -8.45800 32.76200 42.01700
O  -7.52200 32.74100 39.90500
C  -6.35700 32.29100 40.49600
H  -6.90600 40.03500 39.54300
H  -12.71500 42.61900 40.85100
H  -15.10500 37.00100 42.00900
H  -7.07100 35.11000 39.66700
H  -6.21900 37.77700 38.62600
H  -4.79400 37.76800 40.28400
H  -5.73700 36.41100 41.09600
H  -6.07200 38.08000 41.42800
H  -8.10100 34.66900 37.55600
H  -6.37200 35.23000 37.27300
H  -7.15200 36.67400 35.85900
H  -8.01800 37.52300 36.95600
H  -8.03800 43.41400 37.76200
H  -7.00600 42.06700 38.32900
H  -7.26900 43.49800 39.26200
H  -12.34900 44.83500 40.52100
H  -12.80500 43.83300 39.16100
H  -12.11000 45.56200 39.00200
H  -15.19900 41.31300 40.67900
H  -15.29600 39.39500 42.84900
H  -14.00900 42.58300 42.87700
H  -14.94300 41.33400 43.69400
H  -15.80900 42.33200 42.65700
H  -16.33900 38.27900 40.29000
H  -16.78600 39.93300 40.35300
H  -18.52700 39.25300 41.80900
H  -17.34400 38.53000 42.87200
H  -17.93700 37.61800 41.49000
H  -13.99300 33.11900 42.14600
H  -14.88000 33.74300 40.83800
H  -14.94700 34.48600 42.44600
H  -9.84700 33.24800 39.09300
H  -6.27900 31.24500 40.79500
H  -6.11700 32.80100 41.42900
H  -5.53500 32.43100 39.79400

