158

Mg 43.56300 4.29500 47.44400
C  41.32400 7.02100 47.08800
C  40.70800 2.27900 47.35700
C  45.52000 1.50400 47.22400
C  46.22700 6.34800 47.08200
N  41.31400 4.67100 47.28900
C  40.61700 5.85800 47.18400
C  39.05900 5.71300 47.32100
C  38.94500 4.22000 47.70600
C  40.39300 3.64800 47.45000
C  38.21200 3.83700 49.08500
C  38.21100 6.09700 46.04700
C  38.77700 5.62900 44.67300
H  39.14900 6.63100 43.55100
N  43.14200 2.17200 47.41700
C  41.93400 1.60100 47.23200
C  42.11200 0.19400 47.05500
C  43.50100 -0.14300 47.22800
C  44.10700 1.18000 47.24200
C  40.99900 -0.76700 46.84300
C  44.15500 -1.57900 47.32300
O  43.46500 -2.55800 47.31100
C  45.62600 -1.74900 47.48100
N  45.60700 3.94300 47.22200
C  46.19700 2.75300 47.23900
C  47.74600 2.81300 47.31700
C  47.91800 4.37200 47.24000
C  46.50300 4.95000 47.12300
C  48.41300 2.00100 48.48400
C  48.83200 4.94100 46.12900
C  50.12900 5.40400 46.63100
N  43.78100 6.31600 47.19000
C  44.92900 7.09600 47.09400
C  44.61600 8.52400 47.00400
C  43.25100 8.56100 47.05200
C  42.73900 7.19600 47.15400
C  45.61100 9.64300 46.84700
C  42.10400 9.49000 46.96500
O  42.04000 10.70400 47.03400
C  40.78100 8.50000 47.01900
C  40.00400 8.73500 48.21000
O  40.46000 8.60700 49.34400
O  38.70300 9.13400 47.84000
C  37.88900 9.57300 49.01600
H  39.82500 1.64400 47.44700
H  46.23800 0.69700 47.06200
H  47.06500 7.04300 46.99400
H  38.77700 6.36900 48.14400
H  38.34500 3.60900 47.03100
H  37.57000 4.70500 49.23300
H  38.90600 3.57900 49.88500
H  37.64600 2.91000 48.99500
H  38.19500 7.18600 46.02400
H  37.19400 5.77500 46.27200
H  38.00200 4.99400 44.24400
H  39.60600 4.93800 44.82500
H  40.74100 -1.24100 47.79000
H  41.38400 -1.61300 46.27300
H  40.21600 -0.22000 46.31700
H  46.06300 -1.09300 48.23300
H  46.00200 -1.70700 46.45800
H  45.75700 -2.78200 47.80400
H  48.13500 2.44200 46.36900
H  48.15700 4.77600 48.22400
H  47.84500 1.08300 48.63500
H  48.50900 2.55700 49.41700
H  49.35800 1.60700 48.10900
H  48.32400 5.78900 45.66900
H  49.03600 4.21100 45.34500
H  50.87800 5.53500 45.85000
H  50.62100 4.78900 47.38400
H  49.86400 6.39700 46.99500
H  46.50700 9.30800 46.32400
H  45.95200 10.13300 47.75900
H  45.23600 10.39400 46.15100
H  40.17400 8.74800 46.14800
H  38.41000 10.47600 49.33500
H  37.78700 8.93900 49.89700
H  36.87900 9.72800 48.63800
Mg -11.24800 38.45900 42.34400
C  -9.24300 35.73800 41.25700
C  -9.16200 40.57500 40.58900
C  -13.40600 40.97400 42.88200
C  -13.75200 36.09500 43.39300
N  -9.41500 38.18500 41.07700
C  -8.75300 36.98900 40.82000
C  -7.51300 37.21900 39.93600
C  -7.40100 38.79100 39.94300
C  -8.73800 39.26500 40.62300
C  -6.17800 39.27100 40.72000
C  -7.63300 36.57400 38.49700
C  -6.52800 35.68400 38.10900
H  -5.60000 36.23400 37.02100
N  -11.21700 40.55800 41.87800
C  -10.29700 41.20500 41.09800
C  -10.73500 42.59500 40.89800
C  -12.06700 42.64900 41.41800
C  -12.31100 41.36300 42.08500
C  -9.90100 43.59400 40.11400
C  -13.01400 43.78700 41.09800
O  -12.70900 44.72400 40.38000
C  -14.34300 43.85200 41.70700
N  -13.29700 38.48300 42.91700
C  -13.79500 39.70800 43.29500
C  -15.12700 39.47900 44.02700
C  -15.24000 37.98400 44.19800
C  -14.04600 37.44700 43.40900
C  -15.55700 40.27300 45.22700
C  -16.55200 37.22800 43.76200
C  -17.11600 36.31800 44.85200
N  -11.55700 36.36700 42.32900
C  -12.56800 35.54500 42.83400
C  -12.04300 34.18900 42.88900
C  -10.73500 34.17800 42.24500
C  -10.51200 35.54300 41.92200
C  -12.71000 33.04700 43.55400
C  -9.62300 33.41900 41.86400
O  -9.41500 32.19600 42.01700
C  -8.65000 34.36100 41.16200
C  -7.26600 34.26000 41.65500
O  -6.85600 34.87100 42.64200
O  -6.47700 33.42700 40.89600
C  -5.02500 33.52500 41.13900
H  -8.45100 41.24200 40.09700
H  -13.93200 41.81200 43.34600
H  -14.53200 35.44100 43.78700
H  -6.63600 36.73300 40.36500
H  -7.36400 39.15300 38.91600
H  -6.49100 40.03000 41.43700
H  -5.55600 39.80800 40.00400
H  -5.61600 38.48800 41.22900
H  -7.67700 37.29500 37.68000
H  -8.58600 36.04500 38.48700
H  -6.88300 34.70100 37.80100
H  -5.88200 35.29000 38.89500
H  -8.87900 43.26300 39.92800
H  -9.83500 44.53700 40.65600
H  -10.27200 43.81800 39.11300
H  -14.82300 42.87400 41.74000
H  -14.92800 44.52900 41.08500
H  -14.20700 44.12900 42.75200
H  -15.89600 39.71200 43.29100
H  -15.10100 37.73800 45.25100
H  -14.70000 40.78500 45.66400
H  -15.97800 39.59300 45.96800
H  -16.34800 40.98500 44.99300
H  -16.47600 36.60300 42.87200
H  -17.39300 37.87800 43.51900
H  -17.56900 35.44500 44.38400
H  -17.96300 36.74900 45.38600
H  -16.29000 35.90200 45.42900
H  -13.78100 33.24800 43.56700
H  -12.25200 32.92300 44.53600
H  -12.57200 32.15200 42.94700
H  -8.53900 34.07300 40.11600
H  -4.55900 33.70100 40.16900
H  -4.70600 32.60900 41.63700
H  -4.72400 34.34200 41.79600

