158

Mg 17.11700 -1.68400 27.81700
C  15.75200 0.32100 30.30800
C  19.26000 -3.01400 30.38400
C  18.96000 -3.34700 25.41800
C  15.66700 0.35600 25.45000
N  17.40400 -1.44800 30.11700
C  16.66700 -0.55800 30.80800
C  17.12000 -0.63900 32.30500
C  18.31900 -1.52300 32.24000
C  18.29600 -2.09000 30.84100
C  19.67400 -0.88700 32.66600
C  15.90600 -0.98700 33.28100
C  15.80200 -0.20600 34.54400
H  17.00700 0.58600 35.05200
N  18.80800 -3.05800 27.91200
C  19.49500 -3.48800 29.03000
C  20.40300 -4.55100 28.62300
C  20.26500 -4.75700 27.22900
C  19.30900 -3.72900 26.75900
C  21.24900 -5.25300 29.60400
C  20.91600 -5.73100 26.34200
O  20.63100 -5.74600 25.11000
C  21.98200 -6.69300 26.89500
N  17.39200 -1.48000 25.77000
C  18.08600 -2.36600 25.04200
C  17.89900 -2.06500 23.53500
C  16.81700 -0.92300 23.51800
C  16.67400 -0.53500 24.99000
C  19.23400 -1.66200 22.72500
C  15.46700 -1.36600 22.91800
C  14.87700 -0.47000 21.84000
N  15.82700 -0.00900 27.79200
C  15.32900 0.71600 26.78500
C  14.38400 1.68500 27.29000
C  14.53600 1.59300 28.70400
C  15.45500 0.56300 28.97100
C  13.43300 2.62600 26.56200
C  14.14100 2.10400 29.95900
O  13.36200 3.01300 30.26900
C  14.88700 1.33600 31.06800
C  15.75400 2.40200 31.81000
O  16.89300 2.72200 31.40600
O  15.07000 2.96400 32.78800
C  15.59700 4.21400 33.33600
H  19.87100 -3.43900 31.18300
H  19.33300 -3.92300 24.56800
H  14.98200 0.92900 24.82200
H  17.34700 0.38000 32.61700
H  18.06600 -2.38200 32.86300
H  20.31200 -0.64400 31.81600
H  20.20600 -1.64900 33.23600
H  19.55400 0.08000 33.15300
H  15.96400 -2.03000 33.59200
H  15.00100 -0.83200 32.69300
H  15.47800 -0.83700 35.37100
H  14.92000 0.40300 34.34800
H  22.24100 -5.28100 29.15200
H  20.91200 -6.19900 30.02800
H  21.47200 -4.53500 30.39400
H  22.12100 -7.46100 26.13500
H  21.52000 -7.17300 27.75800
H  22.95300 -6.21100 27.01300
H  17.45100 -2.91300 23.01800
H  17.20600 -0.04300 23.00600
H  18.98800 -1.54500 21.66900
H  19.87000 -2.53700 22.86100
H  19.61300 -0.77500 23.23100
H  14.74000 -1.48300 23.72200
H  15.48900 -2.36800 22.49100
H  15.23900 0.55700 21.80100
H  13.79900 -0.40100 21.98900
H  15.17100 -1.05900 20.97100
H  13.04200 1.99000 25.76800
H  14.07900 3.36100 26.08300
H  12.64400 3.02900 27.19600
H  14.19800 0.89200 31.78700
H  16.55000 3.79900 33.66300
H  14.98400 4.58800 34.15500
H  15.74500 4.96600 32.56000
Mg 49.77800 35.69400 28.04100
C  47.40300 34.34700 30.31900
C  49.87500 38.46300 30.01300
C  51.66100 37.22000 25.61200
C  49.00800 33.12900 25.79300
N  48.82700 36.21100 30.04500
C  48.00600 35.50000 30.87100
C  48.04500 36.19100 32.24300
C  48.30800 37.63200 31.79900
C  49.10400 37.46200 30.55800
C  47.06400 38.56500 31.56900
C  49.07300 35.48500 33.15200
C  48.69200 35.10700 34.63400
H  49.56300 35.69500 35.78200
N  50.77200 37.52400 27.87100
C  50.74000 38.45000 28.82200
C  51.54900 39.61900 28.44700
C  51.95200 39.35400 27.09700
C  51.44300 38.01400 26.78300
C  51.75300 40.80500 29.30800
C  52.57600 40.29000 26.01400
O  52.73500 39.96300 24.86000
C  53.01600 41.68800 26.50200
N  50.19400 35.29400 25.93100
C  51.13800 35.99500 25.24700
C  51.41600 35.38200 23.88700
C  50.78000 33.93100 24.08800
C  49.90600 34.11200 25.35400
C  50.75000 36.19700 22.69900
C  51.81200 32.79100 24.22000
C  51.81000 31.66500 23.13700
N  48.54900 34.03600 28.05900
C  48.38700 33.06200 27.05700
C  47.41900 32.10200 27.54800
C  46.96400 32.58900 28.75900
C  47.67500 33.77600 29.06300
C  46.82500 30.90400 26.82500
C  46.09700 32.22900 29.92700
O  45.32100 31.35800 30.16500
C  46.33100 33.44300 30.90700
C  46.60400 32.83300 32.21300
O  47.51200 32.12300 32.57000
O  45.63800 33.30100 33.12100
C  45.69900 32.61500 34.38100
H  49.95700 39.37800 30.60300
H  52.41800 37.64500 24.95000
H  48.87200 32.27400 25.12800
H  47.01400 36.09200 32.58500
H  48.95200 38.18900 32.47900
H  46.96400 39.36400 32.30400
H  46.07700 38.10700 31.50500
H  47.37300 39.18500 30.72700
H  50.02800 36.00700 33.21000
H  49.29700 34.54300 32.65100
H  48.53900 34.02800 34.64000
H  47.69200 35.48600 34.84600
H  52.68500 41.32400 29.08500
H  51.69000 40.62000 30.38000
H  50.91300 41.43600 29.01600
H  53.71800 41.69500 27.33600
H  52.10500 42.19100 26.82500
H  53.46600 42.24500 25.68000
H  52.50000 35.27800 23.83100
H  50.22600 33.68000 23.18400
H  50.06400 35.55100 22.15100
H  51.56400 36.51600 22.04900
H  50.34200 37.06500 23.21700
H  51.73400 32.51800 25.27200
H  52.77900 33.29200 24.17000
H  51.53500 30.70900 23.58100
H  52.80500 31.61200 22.69500
H  51.00200 31.85400 22.43000
H  46.27100 30.14400 27.37700
H  47.57600 30.44500 26.18100
H  46.23900 31.37300 26.03500
H  45.42100 34.04200 30.95600
H  45.53900 31.54100 34.47500
H  45.14300 33.21100 35.10400
H  46.67600 32.81000 34.82400

