158

Mg 41.82900 40.70500 26.43900
C  40.97000 43.08300 29.05700
C  42.83700 38.64600 29.01600
C  43.10300 38.70900 24.09800
C  41.25300 43.11200 24.10400
N  41.89700 40.93700 28.84200
C  41.41200 41.88800 29.69200
C  41.46100 41.49500 31.17100
C  42.42700 40.22500 31.03500
C  42.35800 39.82900 29.52700
C  43.88100 40.31300 31.52700
C  40.17300 41.34600 31.88200
C  39.96300 42.23300 33.17300
H  39.24500 41.61100 34.32700
N  42.66600 38.80900 26.47800
C  43.06800 38.21000 27.69200
C  43.59800 36.87100 27.23900
C  43.64700 36.86000 25.80100
C  43.03800 38.17100 25.40800
C  43.96100 35.78500 28.24300
C  44.22100 35.88000 24.78600
O  44.11100 35.95800 23.57400
C  44.88300 34.59000 25.30600
N  42.16800 40.93300 24.41200
C  42.69700 39.97300 23.61000
C  42.42500 40.19900 22.15500
C  41.71000 41.59200 22.16000
C  41.72500 41.96200 23.62800
C  43.63500 40.01700 21.24900
C  40.28200 41.71100 21.49800
C  39.94000 42.98700 20.67100
N  41.22300 42.71400 26.55100
C  41.00400 43.52900 25.43700
C  40.48000 44.76500 25.96000
C  40.41300 44.65300 27.34300
C  40.94600 43.41400 27.68400
C  40.01100 45.93100 25.10700
C  39.97500 45.30700 28.58800
O  39.39200 46.43000 28.74800
C  40.27000 44.19400 29.71700
C  41.13800 44.76000 30.76900
O  42.34200 44.60300 30.86200
O  40.32700 45.51000 31.59800
C  41.03800 46.02400 32.77800
H  43.05600 37.84300 29.72200
H  43.54000 38.18600 23.24500
H  40.96400 43.88100 23.38500
H  41.97200 42.29700 31.70300
H  42.02000 39.48100 31.71900
H  44.70900 40.45700 30.83300
H  44.05500 39.35900 32.02500
H  43.86500 41.09500 32.28600
H  40.04900 40.30700 32.18800
H  39.27500 41.50800 31.28600
H  39.41500 43.09000 32.78200
H  40.90400 42.63300 33.55100
H  43.64400 34.82200 27.84300
H  43.50500 35.86700 29.23000
H  45.03100 35.71000 28.43400
H  44.12600 34.00100 25.82300
H  45.84500 34.61300 25.81800
H  45.15200 34.03900 24.40500
H  41.62000 39.53000 21.85000
H  42.28800 42.34800 21.62800
H  43.29400 39.33100 20.47500
H  44.51400 39.68700 21.80300
H  43.97600 40.88800 20.68900
H  39.55400 41.58300 22.29900
H  40.16500 40.80500 20.90400
H  40.79000 43.65300 20.52600
H  39.11000 43.54300 21.10800
H  39.55700 42.54100 19.75300
H  39.79900 45.65900 24.07200
H  40.77200 46.71100 25.10100
H  39.03300 46.23900 25.47600
H  39.27700 43.96500 30.10500
H  41.27300 45.18500 33.43400
H  40.31100 46.70200 33.22500
H  41.91100 46.63100 32.53900
Mg -0.10200 42.75500 26.68700
C  1.63900 42.90100 29.98200
C  -2.76600 41.80900 28.32000
C  -1.16100 42.17400 23.79200
C  3.23600 43.56900 25.29800
N  -0.48100 42.50900 28.91700
C  0.28200 42.73400 30.04100
C  -0.58300 42.66500 31.31900
C  -1.92900 42.00400 30.79400
C  -1.73700 42.09900 29.27100
C  -2.27000 40.60100 31.27400
C  -0.65000 44.09300 31.98300
C  -0.18500 44.05600 33.41400
H  -1.33300 43.82900 34.52300
N  -1.83400 42.20500 26.09900
C  -2.91600 41.86300 26.94800
C  -4.00700 41.45000 26.11100
C  -3.49800 41.45200 24.78800
C  -2.15200 41.99100 24.80700
C  -5.42900 41.16400 26.70600
C  -4.16600 40.83200 23.50300
O  -3.62100 40.95200 22.40000
C  -5.37600 39.94800 23.58400
N  0.92300 42.88300 24.87700
C  0.15500 42.65200 23.77300
C  0.97800 42.72600 22.46600
C  2.28700 43.34500 22.99700
C  2.11700 43.32500 24.52500
C  1.02800 41.34700 21.77700
C  2.62900 44.80500 22.47900
C  2.48300 45.10800 20.95200
N  2.05300 43.17800 27.45100
C  3.20700 43.29400 26.68900
C  4.32300 43.24100 27.62200
C  3.74100 43.03500 28.88900
C  2.37500 43.01300 28.74500
C  5.70800 43.38000 27.19300
C  4.14200 42.76700 30.25700
O  5.26300 42.66600 30.75300
C  2.70800 42.81700 31.07100
C  2.59500 41.63300 31.93200
O  2.71300 40.47800 31.53800
O  2.54100 41.90900 33.24500
C  2.49700 40.76900 34.17500
H  -3.65900 41.43600 28.82600
H  -1.37800 41.96900 22.74200
H  4.19800 43.69100 24.79600
H  -0.09300 42.01600 32.04500
H  -2.83400 42.58600 30.96700
H  -1.67600 40.37300 32.15900
H  -1.99600 39.94700 30.44600
H  -3.33600 40.63800 31.49900
H  -1.69300 44.38300 32.11000
H  -0.13000 44.76600 31.30100
H  0.10000 45.08200 33.64600
H  0.65900 43.38900 33.59100
H  -5.64900 41.84700 27.52600
H  -5.26900 40.19500 27.17900
H  -6.27500 41.15600 26.01900
H  -5.44400 39.23900 22.75900
H  -6.27200 40.56800 23.60300
H  -5.40300 39.27300 24.43900
H  0.44400 43.45600 21.85700
H  3.13200 42.84900 22.51800
H  0.58500 41.42600 20.78400
H  0.45300 40.58500 22.30300
H  2.05600 40.99500 21.69100
H  3.63300 45.10000 22.78400
H  1.90900 45.43700 22.99900
H  3.48700 45.20100 20.53800
H  1.84100 45.97800 20.81300
H  2.15800 44.29300 20.30600
H  6.30200 42.86700 27.94900
H  5.86500 44.45800 27.18900
H  5.80300 42.93000 26.20400
H  2.67800 43.74100 31.64700
H  3.19800 40.03700 33.77200
H  1.52700 40.27900 34.24900
H  2.75100 41.01200 35.20600

