158

Mg 47.10700 24.65300 27.81000
C  48.11700 26.85100 30.32600
C  46.12300 22.43500 30.19900
C  46.29600 22.63700 25.24800
C  48.03300 27.11500 25.44100
N  47.04900 24.76000 29.95200
C  47.45100 25.74500 30.79500
C  47.02200 25.42700 32.28700
C  46.51000 23.97800 32.23400
C  46.53000 23.67600 30.70000
C  47.31200 22.98500 33.17100
C  46.09900 26.53300 32.95600
C  46.58800 26.91600 34.36600
H  45.68500 27.44100 35.48800
N  46.55100 22.79300 27.75500
C  46.16000 21.97000 28.84400
C  45.77400 20.64400 28.25600
C  45.78400 20.74200 26.84600
C  46.18300 22.15600 26.56400
C  45.45400 19.48600 29.09700
C  45.47100 19.71900 25.76300
O  45.65600 19.91200 24.58700
C  44.69300 18.44100 26.03700
N  47.43300 24.72500 25.65100
C  46.85900 23.78900 24.84700
C  46.80500 24.24000 23.42600
C  47.14300 25.73400 23.43200
C  47.62700 25.88400 24.92700
C  47.70700 23.43800 22.46000
C  45.93600 26.61700 23.23200
C  46.18600 28.06300 22.55800
N  48.02900 26.51100 27.76800
C  48.29100 27.41900 26.82400
C  48.92000 28.52900 27.33800
C  48.91400 28.39300 28.71900
C  48.29600 27.12300 28.94100
C  49.56400 29.61000 26.45400
C  49.23500 28.98400 29.92300
O  49.77200 30.06000 30.15400
C  48.57700 28.09300 31.02700
C  49.67500 27.87000 32.08800
O  50.61300 27.16700 32.02200
O  49.38800 28.70800 33.16200
C  50.18400 28.54100 34.38500
H  45.77000 21.65200 30.87400
H  45.92400 22.05400 24.40300
H  48.30500 27.87800 24.71000
H  47.97600 25.50600 32.80800
H  45.46200 23.96900 32.53400
H  47.81700 22.20800 32.59700
H  46.67500 22.46000 33.88300
H  48.01100 23.54400 33.79400
H  45.06800 26.18500 33.01300
H  46.10500 27.44900 32.36400
H  47.19900 27.81300 34.26300
H  47.11200 26.03900 34.74700
H  46.03600 19.64400 30.00500
H  45.87200 18.58700 28.64500
H  44.38100 19.29700 29.11800
H  43.91700 18.66800 26.76800
H  45.34500 17.79400 26.62400
H  44.38600 17.91100 25.13500
H  45.75900 24.05700 23.18300
H  47.91300 26.07400 22.73900
H  48.71600 23.38800 22.86900
H  47.89200 23.99800 21.54300
H  47.16900 22.51600 22.23900
H  45.37800 26.61600 24.16800
H  45.21300 26.13600 22.57300
H  45.94900 28.18500 21.50200
H  47.20400 28.44400 22.63900
H  45.53300 28.71000 23.14400
H  49.18000 29.76700 25.44500
H  50.55700 29.16100 26.46100
H  49.57300 30.48600 27.10200
H  47.80800 28.70900 31.49300
H  49.76400 27.69000 34.92100
H  50.02600 29.46200 34.94600
H  51.21900 28.23200 34.23800
Mg 9.25100 48.59300 25.64100
C  7.11800 49.28500 28.24500
C  11.82500 49.67000 27.54900
C  11.25700 47.73500 23.16900
C  6.48700 48.21200 23.53000
N  9.47600 49.34800 27.66500
C  8.46100 49.56000 28.58500
C  9.06100 49.94300 29.94900
C  10.38500 50.62300 29.49900
C  10.64000 49.78500 28.19100
C  10.33400 52.12100 29.07700
C  9.34800 48.79200 30.95000
C  8.84500 48.99600 32.38200
H  8.80200 47.82400 33.37200
N  11.29200 48.72900 25.38600
C  12.20300 49.11300 26.28500
C  13.51800 48.97500 25.73200
C  13.35000 48.36300 24.48900
C  11.94400 48.18900 24.31900
C  14.79500 49.30100 26.51400
C  14.33000 47.97300 23.37300
O  13.95900 47.46800 22.33600
C  15.85500 48.08100 23.53400
N  8.87300 48.25100 23.58400
C  9.88900 47.76300 22.76600
C  9.31000 46.93300 21.50300
C  7.85400 47.51900 21.45500
C  7.71400 47.98000 22.99000
C  10.12900 47.26400 20.23600
C  6.88300 46.46700 20.91800
C  7.14000 46.08100 19.41800
N  7.20600 48.68500 25.80500
C  6.19000 48.48700 24.86300
C  4.88100 48.54400 25.54500
C  5.21300 48.83500 26.90700
C  6.65300 48.92000 26.99100
C  3.53800 48.42300 24.97900
C  4.70300 49.02700 28.22200
O  3.54900 49.13800 28.58200
C  5.85800 49.38000 29.08000
C  5.84800 48.43500 30.28800
O  6.56100 47.47100 30.47900
O  5.01900 48.97700 31.29500
C  5.00800 48.17800 32.55100
H  12.62800 50.07400 28.16700
H  11.75600 47.17900 22.37300
H  5.67500 47.99400 22.83300
H  8.43100 50.69100 30.43300
H  11.18400 50.57600 30.24000
H  9.34800 52.54200 29.27400
H  10.67700 52.41000 28.08300
H  10.97500 52.59600 29.82000
H  10.39600 48.49700 30.98300
H  8.89100 47.92700 30.46900
H  7.90500 49.52900 32.24000
H  9.59400 49.68300 32.77500
H  15.08300 50.33900 26.34600
H  15.62800 48.77200 26.05200
H  14.61300 49.10100 27.57000
H  16.10600 47.35900 24.31000
H  16.22700 49.06300 23.82600
H  16.46700 47.66600 22.73300
H  9.47600 45.89700 21.79800
H  7.71200 48.41300 20.84800
H  10.96300 47.93000 20.45500
H  9.49500 47.87100 19.58900
H  10.56700 46.51800 19.57300
H  5.87500 46.87800 20.87700
H  6.97500 45.57200 21.53400
H  7.87200 45.28100 19.30500
H  7.62400 46.86300 18.83200
H  6.19400 45.77200 18.97300
H  3.50600 48.56900 23.89900
H  2.87300 49.09900 25.51700
H  3.12300 47.45900 25.27300
H  5.68100 50.38500 29.46200
H  5.73300 48.57500 33.26200
H  5.27000 47.15000 32.30200
H  3.99800 48.31500 32.93700

