158

Mg 47.42900 25.40700 28.69500
C  48.34600 27.54800 31.06500
C  46.49500 23.04500 31.08300
C  46.87400 23.12100 26.28100
C  49.07400 27.39700 26.18600
N  47.49200 25.28500 30.75400
C  47.77200 26.39700 31.53200
C  47.40700 26.17700 33.02900
C  47.07100 24.65100 32.94400
C  46.93100 24.31400 31.47100
C  48.05100 23.74600 33.74900
C  46.26600 27.09000 33.59500
C  45.75600 26.83800 35.03700
H  45.46000 27.85600 36.11600
N  46.61800 23.39200 28.68100
C  46.25400 22.62700 29.76600
C  45.92000 21.33400 29.30600
C  45.81200 21.43200 27.91800
C  46.45600 22.71000 27.55300
C  45.57700 20.20100 30.21700
C  45.28600 20.38100 26.96500
O  45.28900 20.56700 25.74900
C  44.48300 19.17200 27.56900
N  47.87000 25.30100 26.51200
C  47.41600 24.30700 25.76800
C  47.56100 24.51400 24.22900
C  48.14600 25.93300 24.25200
C  48.40700 26.28100 25.73400
C  48.43600 23.46600 23.42200
C  47.02800 26.92400 23.72000
C  47.64700 28.29900 23.18800
N  48.62800 27.02400 28.63900
C  49.22700 27.78600 27.54200
C  49.77900 28.94100 28.08600
C  49.50400 28.97200 29.49400
C  48.77600 27.74100 29.76300
C  50.67400 29.91100 27.30600
C  49.65800 29.68500 30.70300
O  50.27700 30.69300 30.95400
C  48.79200 28.85500 31.75600
C  49.60200 28.81300 32.99800
O  50.69700 28.26200 33.06400
O  48.94000 29.36800 34.07300
C  49.65500 29.43700 35.40100
H  46.19100 22.32000 31.84100
H  46.69500 22.39700 25.48400
H  49.33800 28.16100 25.45200
H  48.36300 26.36200 33.52000
H  46.17000 24.52300 33.54300
H  47.61300 23.48900 34.71400
H  48.96400 24.32700 33.88500
H  48.15800 22.83400 33.16300
H  45.45300 26.89700 32.89500
H  46.66900 28.10200 33.57800
H  46.48800 26.17100 35.49200
H  44.82400 26.31700 34.81700
H  46.00900 19.27700 29.83200
H  44.50000 20.03300 30.21900
H  46.01700 20.30300 31.20900
H  43.91500 18.55700 26.87100
H  43.76600 19.58700 28.27700
H  45.12800 18.41800 28.02000
H  46.60100 24.48000 23.71400
H  49.10600 26.01300 23.74100
H  49.24100 23.99300 22.90800
H  47.79000 23.00800 22.67300
H  48.84300 22.70200 24.08400
H  46.39600 27.15600 24.57700
H  46.46600 26.45700 22.91100
H  47.31700 28.39900 22.15400
H  48.72500 28.18500 23.07500
H  47.18900 29.13500 23.71700
H  51.53300 29.39900 26.87400
H  51.22900 30.38200 28.11700
H  50.14900 30.66100 26.71600
H  47.90800 29.46400 31.94900
H  50.06400 30.40400 35.69200
H  50.42000 28.66200 35.44000
H  48.89400 29.09500 36.10300
Mg 30.02500 57.82100 39.47800
C  27.44500 55.77500 38.13500
C  32.36100 55.47500 38.14300
C  32.43000 60.13800 39.78800
C  27.66100 60.32200 39.85700
N  29.92800 55.80000 38.22800
C  28.74400 55.21800 37.83200
C  29.10400 53.80400 37.29900
C  30.57900 53.64500 37.70300
C  31.02700 55.05200 38.00600
C  30.76800 52.74200 38.91100
C  28.73300 53.58200 35.85100
C  29.34500 54.41900 34.79000
H  28.45700 54.95000 33.76900
N  32.10600 57.71100 39.27400
C  32.88100 56.69200 38.74100
C  34.22000 57.10000 38.80200
C  34.35300 58.45600 39.40100
C  32.92700 58.85700 39.50200
C  35.34600 56.20300 38.35100
C  35.52200 59.26600 39.71500
O  36.65500 58.77800 39.43300
C  35.49500 60.65900 40.35400
N  29.99400 59.87100 39.99200
C  31.14200 60.59200 39.92600
C  30.97500 62.08500 40.15200
C  29.39500 62.16800 40.36100
C  29.00300 60.72100 40.04500
C  31.84900 62.80900 41.21000
C  28.73900 63.27400 39.47100
C  27.64600 64.05900 40.21300
N  27.95700 58.00500 39.24200
C  27.15600 59.05800 39.52000
C  25.76100 58.61800 39.26200
C  25.83700 57.31700 38.76400
C  27.17800 57.02600 38.71500
C  24.50300 59.45900 39.35900
C  25.04800 56.23900 38.20900
O  23.86100 56.21000 37.98900
C  26.05600 55.13600 37.90400
C  25.82600 53.87100 38.68900
O  26.37400 53.51500 39.74000
O  24.70700 53.21200 38.09400
C  24.09200 52.09000 38.86700
H  33.09600 54.80400 37.69200
H  33.12700 60.97900 39.79400
H  26.97500 61.15800 40.01400
H  28.47200 53.13600 37.88400
H  31.11800 53.28900 36.82600
H  31.01100 51.78900 38.44300
H  29.90600 52.49000 39.52900
H  31.50600 53.16500 39.59300
H  27.64700 53.60100 35.76100
H  28.78400 52.51000 35.65800
H  30.17000 53.84800 34.36500
H  29.76100 55.31800 35.24600
H  35.93200 55.79600 39.17600
H  35.90100 56.87200 37.69300
H  35.13500 55.28900 37.79500
H  36.38700 61.15700 40.73500
H  34.78000 60.72500 41.17400
H  35.28700 61.31000 39.50500
H  31.24900 62.54900 39.20400
H  29.01700 62.30000 41.37500
H  31.15800 63.16500 41.97400
H  32.30900 63.66900 40.72500
H  32.59200 62.15200 41.66400
H  28.25700 62.74000 38.65200
H  29.48000 64.03700 39.23200
H  28.02100 65.01500 40.57800
H  27.34000 63.43500 41.05200
H  26.78300 64.28800 39.58700
H  24.51500 60.15100 38.51700
H  24.42100 59.97300 40.31700
H  23.66400 58.78500 39.18900
H  25.86100 54.87100 36.86500
H  24.26900 52.33900 39.91300
H  24.64700 51.20100 38.56700
H  23.02200 52.08200 38.66000

