158

Mg 54.36200 24.23100 45.37400
C  51.86100 26.20900 44.32800
C  52.50200 21.39800 44.37200
C  57.12200 22.21000 45.82500
C  56.03200 27.00100 46.67800
N  52.56000 23.92200 44.27200
C  51.64600 24.89000 43.94700
C  50.35700 24.34700 43.32700
C  50.36400 22.85900 43.95000
C  51.89100 22.67500 44.25000
C  49.46000 22.49200 45.16500
C  50.41600 24.48300 41.76800
C  49.18300 23.98300 41.07500
H  48.94900 24.20700 39.62100
N  54.80200 22.14200 45.06400
C  53.88900 21.17400 44.64100
C  54.58700 19.87900 44.55200
C  55.99100 20.08200 44.92400
C  56.02000 21.49700 45.26800
C  53.82800 18.61700 44.18600
C  57.05000 19.00000 44.91200
O  56.83900 17.88100 44.47400
C  58.38300 19.31200 45.46200
N  56.33500 24.50500 45.86800
C  57.23600 23.53800 46.10800
C  58.58800 24.23000 46.61800
C  58.10900 25.73700 47.03800
C  56.71800 25.79800 46.47300
C  59.40300 23.64000 47.78200
C  59.04200 26.88200 46.41200
C  58.88600 27.15200 44.93200
N  54.07600 26.25800 45.55800
C  54.77400 27.32200 46.14300
C  54.01200 28.53400 46.05800
C  52.84900 28.09800 45.38300
C  52.96400 26.73100 45.02800
C  54.31900 29.88700 46.48300
C  51.55500 28.55400 44.96500
O  51.06600 29.64100 45.15400
C  50.87800 27.36300 44.26600
C  50.53700 27.84500 42.91100
O  51.35200 28.36200 42.19500
O  49.23400 27.56900 42.57100
C  48.72000 28.04600 41.35900
H  51.93400 20.46600 44.33300
H  58.07200 21.69800 45.99100
H  56.50500 27.72900 47.34000
H  49.52100 24.83300 43.82900
H  50.09800 22.18400 43.13700
H  50.03400 21.93400 45.90400
H  48.66800 21.87800 44.73600
H  49.05000 23.40900 45.58800
H  51.23900 23.87800 41.38800
H  50.49900 25.54100 41.52000
H  48.26100 24.33600 41.53800
H  49.21500 22.90300 41.21200
H  53.51000 18.63800 43.14300
H  52.95900 18.51900 44.83700
H  54.23600 17.62000 44.35200
H  59.00900 18.42300 45.38400
H  58.46200 19.37300 46.54700
H  58.89600 20.03300 44.82600
H  59.27900 24.09500 45.78600
H  58.03600 25.77600 48.12500
H  60.38200 23.29600 47.45000
H  58.87500 22.75300 48.13300
H  59.61000 24.25900 48.65500
H  60.00300 26.39200 46.56800
H  59.06200 27.70500 47.12600
H  57.86500 27.35200 44.60900
H  59.23500 26.27700 44.38400
H  59.45200 28.03000 44.62100
H  53.47800 30.42900 46.91700
H  54.58900 30.52400 45.64100
H  54.94600 29.90400 47.37500
H  49.93100 27.03600 44.69600
H  48.78600 27.35200 40.52100
H  49.19800 28.97500 41.05000
H  47.73100 28.38000 41.67200
Mg 0.64800 42.63400 25.75500
C  1.87500 42.68600 29.03400
C  -2.31300 41.46700 27.01500
C  -0.48100 42.18900 22.64600
C  3.85000 43.40700 24.58400
N  -0.17500 42.35500 27.78700
C  0.53500 42.58800 28.97400
C  -0.38600 42.27200 30.16600
C  -1.77600 41.81500 29.50400
C  -1.42500 41.88900 27.98900
C  -2.33500 40.39400 29.90100
C  -0.54900 43.63500 31.02900
C  -0.97900 43.49000 32.47200
H  -1.41000 42.07100 33.05600
N  -1.21800 42.01500 24.94400
C  -2.28700 41.57600 25.62900
C  -3.37100 41.36600 24.66000
C  -2.84200 41.41100 23.32100
C  -1.42400 41.81200 23.54900
C  -4.67400 40.71800 25.03200
C  -3.43100 41.08900 22.05300
O  -2.92300 41.15700 20.95600
C  -4.79900 40.49300 22.00400
N  1.60000 42.63200 23.91500
C  0.84500 42.61900 22.77900
C  1.64500 43.03000 21.52400
C  3.00300 43.45500 22.19000
C  2.78700 43.23300 23.67300
C  1.72300 41.89900 20.45900
C  3.65500 44.78900 21.73900
C  2.89300 46.14700 21.59000
N  2.52900 42.96600 26.62300
C  3.76300 43.21800 26.02200
C  4.74500 43.15900 27.06700
C  4.09800 43.01600 28.27600
C  2.72000 42.91000 27.94600
C  6.18300 43.40600 26.89100
C  4.25900 42.99800 29.75600
O  5.25300 43.26500 30.35500
C  2.84400 42.59200 30.30000
C  2.91900 41.24100 30.74400
O  3.42600 40.31500 30.10800
O  2.33700 41.10200 31.96200
C  1.98700 39.76600 32.47400
H  -3.23700 41.03400 27.40500
H  -0.83100 42.05800 21.62000
H  4.87600 43.65900 24.30600
H  -0.15500 41.40600 30.78700
H  -2.59600 42.48900 29.75300
H  -1.61600 39.91300 30.56500
H  -2.51300 39.79200 29.01000
H  -3.18700 40.53000 30.56800
H  -1.29400 44.32100 30.62900
H  0.37500 44.21300 31.06200
H  -1.81700 44.10500 32.80000
H  -0.11500 43.72100 33.09500
H  -5.02900 39.94700 24.34900
H  -5.46300 41.47100 25.02700
H  -4.59800 40.09200 25.92100
H  -5.55600 41.08000 22.52400
H  -4.88600 39.44400 22.28800
H  -5.12100 40.48700 20.96300
H  1.15100 43.93000 21.16000
H  3.76500 42.71100 21.95500
H  1.13100 42.25200 19.61400
H  1.28600 41.00100 20.89400
H  2.77000 41.69600 20.23200
H  4.08900 44.49600 20.78300
H  4.47500 44.95100 22.43900
H  2.92600 46.42800 20.53800
H  3.44500 46.95800 22.06600
H  1.86300 46.05000 21.93200
H  6.33900 44.48000 26.98300
H  6.63200 43.11400 25.94200
H  6.65200 42.81400 27.67800
H  2.50700 43.24500 31.10500
H  2.26800 39.57100 33.50900
H  2.47500 38.95900 31.92800
H  0.89900 39.72000 32.45100

