158

Mg -1.84500 17.26200 26.40900
C  -2.14600 14.67300 28.83400
C  -2.36100 19.56800 28.85500
C  -2.04300 19.84700 24.06700
C  -2.34300 14.80300 24.02200
N  -2.18800 17.06800 28.54300
C  -2.14100 15.98400 29.42600
C  -2.39800 16.33700 30.91400
C  -2.28800 17.91700 30.78000
C  -2.25200 18.19600 29.32500
C  -3.37700 18.67200 31.63300
C  -1.30000 15.78800 31.93600
C  -1.15600 16.47200 33.26500
H  -1.36500 15.67200 34.54600
N  -2.12300 19.38800 26.50400
C  -2.30700 20.12300 27.55200
C  -2.47400 21.53800 27.28300
C  -2.14900 21.61300 25.90800
C  -2.06700 20.25800 25.44100
C  -2.67300 22.59800 28.40000
C  -2.01100 22.91200 25.04600
O  -1.55200 22.96100 23.89300
C  -2.41800 24.18400 25.75200
N  -2.34100 17.39400 24.40300
C  -2.20300 18.48700 23.59000
C  -2.33300 18.10700 22.06700
C  -2.36600 16.59100 22.09300
C  -2.35000 16.20800 23.59100
C  -3.45200 18.88900 21.45000
C  -1.21100 15.91100 21.32200
C  -1.42000 15.65400 19.82500
N  -2.02500 15.14100 26.35700
C  -2.29600 14.33700 25.32000
C  -2.47500 12.97900 25.76100
C  -2.46300 13.08600 27.13900
C  -2.13100 14.40900 27.47100
C  -2.63600 11.69300 25.02900
C  -2.61200 12.31100 28.34000
O  -2.92100 11.09800 28.39900
C  -2.40700 13.32600 29.49800
C  -1.33600 12.85200 30.41400
O  -0.19000 13.17400 30.36500
O  -1.87800 11.87000 31.17500
C  -1.03400 11.39500 32.26600
H  -2.53300 20.29500 29.65100
H  -2.06600 20.70000 23.38500
H  -2.41500 14.07400 23.21200
H  -3.44000 16.19000 31.19900
H  -1.32600 18.20900 31.20100
H  -3.03200 19.51600 32.23100
H  -3.84800 17.97100 32.32200
H  -4.19100 18.97500 30.97600
H  -0.34300 15.73100 31.41800
H  -1.73400 14.80600 32.12200
H  -1.77600 17.36000 33.38800
H  -0.15200 16.88900 33.34600
H  -1.77000 23.20800 28.42700
H  -2.88900 22.20200 29.39300
H  -3.54300 23.24500 28.29400
H  -2.39600 25.01200 25.04400
H  -1.75100 24.31700 26.60500
H  -3.38000 24.00600 26.23200
H  -1.40700 18.34200 21.54200
H  -3.29000 16.23400 21.63700
H  -3.87300 19.48500 22.26000
H  -4.30100 18.33500 21.04900
H  -3.09000 19.38500 20.54900
H  -1.10000 14.86900 21.62100
H  -0.27700 16.44500 21.49500
H  -2.22800 16.22900 19.37300
H  -1.60800 14.60300 19.60300
H  -0.49300 15.93900 19.32700
H  -3.45000 11.07100 25.40200
H  -1.63500 11.28900 25.17600
H  -2.95300 11.87200 24.00200
H  -3.33400 13.30800 30.07200
H  -1.22400 12.19000 32.98800
H  0.03000 11.37000 32.03100
H  -1.34900 10.43700 32.68000
Mg 42.32100 41.18700 25.89700
C  41.66900 43.74100 28.38600
C  42.99900 38.92900 28.43500
C  42.97400 39.05700 23.53800
C  41.89500 43.75900 23.58100
N  42.49000 41.43000 28.14500
C  41.96700 42.42600 28.95400
C  41.80800 41.98500 30.43400
C  42.25300 40.51400 30.37700
C  42.54400 40.20600 28.88400
C  43.32000 40.06300 31.34400
C  40.38300 42.32100 31.15000
C  39.98300 41.62500 32.44700
H  39.45600 42.43700 33.62000
N  43.00500 39.28000 25.99700
C  43.19000 38.52900 27.11700
C  43.67700 37.24300 26.75400
C  43.60600 37.16800 25.33800
C  43.24100 38.54600 24.87400
C  44.10100 36.22600 27.74800
C  43.79800 36.02500 24.35300
O  43.48900 36.18300 23.19200
C  44.19200 34.66800 24.79800
N  42.61700 41.46600 23.83800
C  42.69900 40.38100 23.10300
C  42.54200 40.75400 21.64600
C  42.03400 42.24300 21.71800
C  42.28700 42.52100 23.13400
C  43.88200 40.57800 20.85400
C  40.50900 42.39000 21.38700
C  39.55300 41.67400 22.37100
N  41.93300 43.32900 25.86300
C  41.90700 44.23300 24.88700
C  41.73100 45.52900 25.33800
C  41.54700 45.41200 26.74000
C  41.68700 44.04600 26.99600
C  41.55500 46.70300 24.52800
C  41.22200 46.14800 27.96500
O  41.04800 47.31500 28.20400
C  41.21100 45.03300 29.09600
C  42.07600 45.42900 30.19100
O  43.28000 45.68600 30.04100
O  41.40100 45.55600 31.35800
C  42.31500 45.74200 32.48300
H  42.94200 38.13900 29.18600
H  42.98900 38.31500 22.73700
H  41.63100 44.44300 22.77200
H  42.53900 42.53500 31.02700
H  41.44600 39.82400 30.62200
H  44.28800 39.92400 30.86200
H  43.04900 39.08300 31.73500
H  43.30300 40.71500 32.21700
H  39.72400 42.23900 30.28500
H  40.51600 43.36100 31.44900
H  40.61400 40.81700 32.81500
H  39.10900 41.02600 32.18900
H  43.30000 35.57000 28.08900
H  44.39200 36.61700 28.72200
H  44.90800 35.58000 27.40400
H  43.48500 34.26400 25.52300
H  45.22400 34.69700 25.14800
H  44.35400 33.98500 23.96400
H  41.78300 40.22600 21.07000
H  42.64200 42.94800 21.15100
H  44.54700 39.89700 21.38500
H  44.41900 41.52200 20.76300
H  43.76300 40.45500 19.77800
H  40.30100 41.95700 20.40800
H  40.26600 43.44500 21.51000
H  40.05000 41.58300 23.33700
H  39.25200 40.70800 21.96500
H  38.71300 42.35100 22.53000
H  42.18500 47.53500 24.84500
H  40.54500 47.08400 24.68000
H  41.64800 46.65100 23.44300
H  40.21700 44.88900 29.52000
H  42.89000 46.66700 32.49800
H  42.92900 44.84600 32.57500
H  41.75900 45.78400 33.41900

