158

Mg 1.86900 -0.97600 43.40200
C  5.26000 -0.51500 43.05500
C  1.27900 1.88900 41.64400
C  -1.45500 -1.78700 43.41700
C  2.54600 -4.21200 44.71500
N  3.12400 0.49500 42.49100
C  4.51800 0.48100 42.42900
C  5.03500 1.47400 41.47600
C  3.75700 2.34400 41.08100
C  2.63900 1.50900 41.78100
C  3.79800 3.90600 41.39400
C  5.66700 0.86200 40.21300
C  7.08900 1.36200 39.86400
H  7.27700 2.42700 38.75400
N  0.15200 -0.00100 42.79800
C  0.13500 1.14200 42.04600
C  -1.19100 1.57600 41.86400
C  -1.97200 0.48500 42.31900
C  -1.07900 -0.50000 42.89900
C  -1.47100 2.81600 41.13100
C  -3.49800 0.38500 42.25200
O  -4.19500 1.25200 41.83100
C  -4.42100 -0.80800 42.77000
N  0.68900 -2.80100 43.88900
C  -0.62600 -2.83600 43.80900
C  -1.22600 -4.15000 44.25700
C  0.02700 -4.90400 44.82600
C  1.20800 -3.91300 44.44200
C  -2.46100 -4.18900 45.22300
C  0.29800 -6.41600 44.39000
C  0.70000 -7.35800 45.53500
N  3.57400 -2.08200 44.03900
C  3.66300 -3.34600 44.48900
C  5.04100 -3.69300 44.73800
C  5.79900 -2.58200 44.13400
C  4.79400 -1.64800 43.71700
C  5.52000 -4.94600 45.40100
C  7.12400 -2.06500 43.66200
O  8.25300 -2.48900 43.82900
C  6.74800 -0.68500 42.98700
C  7.38400 0.27600 43.74600
O  7.02000 0.69100 44.86000
O  8.43400 0.86600 42.98600
C  8.93700 1.99900 43.69300
H  1.13600 2.85200 41.14900
H  -2.49400 -2.08300 43.26100
H  2.77300 -5.20300 45.11100
H  5.72200 2.15200 41.98300
H  3.52900 2.29100 40.01700
H  3.44800 4.44600 40.51400
H  4.85200 4.16100 41.50400
H  3.27300 4.29300 42.26700
H  5.03100 1.00500 39.34000
H  5.73400 -0.21600 40.36100
H  7.71600 0.50100 39.63300
H  7.45200 1.85600 40.76500
H  -1.02300 2.88300 40.13900
H  -0.99200 3.60100 41.71500
H  -2.54800 2.95100 41.03700
H  -5.46800 -0.50300 42.75500
H  -4.12800 -1.03500 43.79400
H  -4.32500 -1.69100 42.13700
H  -1.62500 -4.79400 43.47300
H  -0.01500 -4.90800 45.91500
H  -2.34400 -4.57400 46.23600
H  -3.23300 -4.77800 44.72800
H  -2.86500 -3.18400 45.34900
H  0.93600 -6.34800 43.50900
H  -0.57000 -6.83500 43.88100
H  0.41600 -6.89700 46.48100
H  1.75900 -7.61100 45.56400
H  0.13700 -8.29100 45.49100
H  4.81000 -5.65700 45.82400
H  6.19600 -4.65600 46.20400
H  6.07800 -5.51200 44.65500
H  7.22500 -0.69000 42.00700
H  9.47200 1.77100 44.61500
H  8.10800 2.67400 43.90500
H  9.75900 2.36600 43.07700
Mg 53.10300 23.41100 45.28300
C  50.56300 25.63300 44.19600
C  51.30300 20.81200 44.27200
C  55.93000 21.66000 45.69300
C  54.77800 26.37000 46.37700
N  51.28000 23.25300 44.07200
C  50.29800 24.23800 43.85700
C  49.00000 23.65800 43.26400
C  49.16100 22.23100 43.84600
C  50.67400 22.03400 44.08100
C  48.32600 21.97900 45.09600
C  49.06200 23.79800 41.68000
C  47.73600 24.34000 41.03100
H  47.10300 23.43200 39.88100
N  53.56000 21.49100 44.90000
C  52.66200 20.51900 44.53200
C  53.26600 19.23700 44.43100
C  54.58100 19.36000 44.94500
C  54.75700 20.89000 45.23000
C  52.63100 18.01900 43.89500
C  55.71100 18.31700 45.12600
O  55.46400 17.14400 44.87400
C  57.09400 18.52600 45.60600
N  55.04000 23.94600 45.85300
C  56.04000 23.02600 45.90400
C  57.36800 23.70500 46.32900
C  56.98200 25.13600 46.45100
C  55.46900 25.14300 46.24400
C  58.12100 23.02600 47.51100
C  57.72500 26.17100 45.53300
C  58.77200 26.99900 46.30100
N  52.78400 25.53200 45.40100
C  53.47500 26.56400 45.96200
C  52.67900 27.79000 46.00100
C  51.53200 27.49600 45.22800
C  51.63900 26.12400 44.90400
C  53.05600 29.06600 46.67200
C  50.41500 28.03900 44.59700
O  49.99500 29.17400 44.54600
C  49.73700 26.79400 43.86000
C  49.73600 27.15300 42.34700
O  50.74000 27.41300 41.70000
O  48.48200 27.52700 41.94500
C  48.48800 28.24500 40.63300
H  50.66300 19.94400 44.10100
H  56.88500 21.13800 45.78300
H  55.42400 27.17200 46.73900
H  48.07300 24.12000 43.60200
H  48.79900 21.61100 43.02600
H  48.99200 21.63500 45.88700
H  47.62500 21.19900 44.79900
H  47.81600 22.84600 45.51500
H  49.30800 22.85500 41.19000
H  49.92400 24.38800 41.37000
H  48.04300 25.25200 40.51900
H  46.93300 24.57300 41.73000
H  51.55600 17.99400 44.07500
H  52.97100 17.13700 44.43800
H  52.85600 17.80700 42.85000
H  57.60200 18.82400 44.68900
H  57.51300 17.58500 45.96400
H  57.33300 19.22600 46.40600
H  57.98800 23.49300 45.45800
H  57.19300 25.32200 47.50400
H  57.53600 22.28200 48.05200
H  58.45100 23.73000 48.27600
H  59.10000 22.61600 47.26200
H  57.01800 26.80400 44.99600
H  58.35200 25.75100 44.74600
H  58.34600 28.00100 46.24700
H  59.63300 26.99900 45.63300
H  59.04900 26.68800 47.30800
H  52.17000 29.51100 47.12500
H  53.34600 29.75200 45.87600
H  53.79600 29.00100 47.47000
H  48.68700 26.73700 44.14800
H  47.55400 28.78500 40.78500
H  48.43100 27.54800 39.79700
H  49.30400 28.92000 40.37700

