158

Mg 25.10900 1.25200 30.27300
C  27.56000 1.19700 32.65800
C  22.64900 1.63200 32.71200
C  22.73400 1.25200 27.84800
C  27.54200 1.04300 27.86500
N  25.08700 1.47200 32.45200
C  26.27800 1.52900 33.17900
C  25.98900 1.91700 34.59600
C  24.33500 2.15000 34.56900
C  23.98700 1.74700 33.21600
C  23.65900 1.34700 35.67200
C  26.82700 2.98600 35.33600
C  26.12600 3.53400 36.56000
H  26.00700 2.74600 37.86800
N  22.99200 1.24700 30.29500
C  22.15200 1.45300 31.37500
C  20.74900 1.44100 30.88700
C  20.74600 1.23300 29.47700
C  22.20300 1.21900 29.12400
C  19.63100 1.40200 31.88000
C  19.61700 1.07800 28.52300
O  19.74300 0.77900 27.29500
C  18.25500 1.27400 29.02700
N  25.13600 1.12300 28.18700
C  24.03300 1.17400 27.40700
C  24.42900 1.60600 25.97000
C  25.93600 1.29400 25.93300
C  26.24600 1.23900 27.42700
C  23.63000 1.00600 24.80300
C  26.84300 2.37900 25.16200
C  26.96000 3.77900 25.80700
N  27.17200 0.96000 30.22400
C  28.05900 0.87700 29.17400
C  29.32700 0.58200 29.65500
C  29.19200 0.84400 31.02200
C  27.84500 0.95000 31.29200
C  30.51600 0.29400 28.77800
C  29.97400 0.99900 32.20000
O  31.17000 1.06900 32.32900
C  28.94700 1.29300 33.34600
C  29.07900 0.24300 34.31600
O  28.86500 -0.96400 34.15000
O  29.42800 0.88500 35.53800
C  29.27200 0.11900 36.77000
H  21.94300 1.87000 33.51000
H  22.01600 1.58900 27.09700
H  28.25100 1.16600 27.04300
H  26.18000 1.03800 35.21100
H  24.11600 3.21800 34.57100
H  23.30300 2.12100 36.35200
H  24.39700 0.65900 36.08300
H  22.83000 0.74400 35.30100
H  27.03000 3.73600 34.57100
H  27.73000 2.43200 35.59200
H  25.14400 3.99200 36.43500
H  26.63300 4.44900 36.86600
H  19.06500 2.33200 31.94400
H  19.88000 1.11100 32.90000
H  19.02400 0.53900 31.60700
H  17.99100 0.35700 29.55500
H  17.55800 1.45800 28.21000
H  18.12900 2.05300 29.77900
H  24.18500 2.66600 25.91100
H  26.04200 0.32800 25.43900
H  24.35900 0.71600 24.04600
H  22.92600 1.64000 24.26400
H  23.15000 0.08000 25.11900
H  26.18800 2.57000 24.31300
H  27.75700 1.85400 24.88200
H  26.24800 3.87500 26.62700
H  26.75700 4.59700 25.11600
H  27.91800 3.91600 26.30700
H  31.14100 -0.57100 29.00100
H  31.23800 1.10200 28.88900
H  30.16300 0.28600 27.74700
H  29.21900 2.22100 33.84800
H  28.85500 -0.85100 36.49800
H  28.75300 0.66100 37.56100
H  30.26600 -0.09800 37.16000
Mg 29.24500 57.89200 42.02700
C  26.45500 56.16600 40.60300
C  31.31800 55.99900 40.11700
C  31.76900 59.92200 42.95100
C  26.93400 60.11900 43.31500
N  28.92600 56.36900 40.46300
C  27.69800 55.80300 40.08200
C  27.95200 54.88200 38.86500
C  29.51100 54.55000 38.95800
C  29.95500 55.72900 39.88500
C  29.87800 53.24400 39.78000
C  27.52200 55.67500 37.55200
C  26.53100 54.85800 36.67100
H  27.01500 54.67300 35.21000
N  31.36300 57.87200 41.65800
C  31.99400 56.94600 40.90300
C  33.41100 57.18400 40.91500
C  33.59800 58.40000 41.68800
C  32.24400 58.82300 42.17900
C  34.45600 56.29400 40.27000
C  34.92700 59.05600 41.98600
O  35.92000 58.67800 41.41800
C  35.02700 60.19000 42.88800
N  29.28800 59.81600 42.89700
C  30.48800 60.34500 43.28700
C  30.19100 61.70600 44.08500
C  28.67400 61.56800 44.45100
C  28.26200 60.41300 43.46800
C  31.03400 61.98900 45.38300
C  27.84200 62.93600 44.38800
C  27.33300 63.48200 45.73400
N  27.08700 58.11000 42.09500
C  26.31000 59.04600 42.68800
C  24.89100 58.76000 42.44900
C  24.87800 57.64000 41.62300
C  26.26000 57.24000 41.51200
C  23.62600 59.37800 42.94300
C  24.10900 56.71500 40.76500
O  22.93600 56.71800 40.38800
C  25.09000 55.62900 40.25800
C  24.70800 54.32700 40.85500
O  24.42100 54.25100 42.05700
O  24.90300 53.28200 39.99800
C  24.71300 51.96300 40.57800
H  31.91100 55.27100 39.55900
H  32.54700 60.60000 43.31200
H  26.21800 60.76100 43.83200
H  27.33300 54.00300 39.04500
H  29.96100 54.65100 37.97000
H  29.79400 52.42400 39.06600
H  29.12900 52.98500 40.52900
H  30.89800 53.39300 40.13200
H  28.39500 55.95100 36.96000
H  26.95600 56.58800 37.73700
H  25.57900 55.38300 36.59200
H  26.17100 53.98200 37.21000
H  35.21400 56.18000 41.04500
H  34.92200 56.88100 39.47900
H  34.06800 55.29400 40.07600
H  34.39000 60.92900 42.40100
H  36.06400 60.52500 42.87600
H  34.64300 59.98900 43.88800
H  30.40800 62.53800 43.41500
H  28.47000 61.02500 45.37400
H  31.71300 61.16800 45.61300
H  30.27700 61.99800 46.16700
H  31.44500 62.99600 45.31500
H  26.99100 62.83400 43.71400
H  28.44300 63.77000 44.02700
H  26.45000 64.11300 45.63400
H  28.16900 63.95100 46.25300
H  27.12100 62.67100 46.43000
H  22.68000 59.23500 42.42100
H  23.91900 60.42800 42.94500
H  23.45600 58.99100 43.94800
H  24.97800 55.52500 39.17900
H  25.08600 51.82200 41.59200
H  25.03300 51.18700 39.88300
H  23.63500 51.81900 40.65200

