158

Mg -1.79500 17.59700 27.55400
C  -2.82700 15.40700 30.35900
C  -2.26300 20.26100 29.58200
C  -1.24700 19.48000 24.95900
C  -2.13600 14.69100 25.47400
N  -2.56900 17.78400 29.75900
C  -2.62700 16.77500 30.69000
C  -2.71600 17.48100 32.02500
C  -2.78700 18.97600 31.73300
C  -2.49200 19.03700 30.25700
C  -4.09600 19.44600 32.26100
C  -1.71700 17.10700 33.18700
C  -2.41400 16.56900 34.52600
H  -1.40200 16.28400 35.57300
N  -1.82600 19.64800 27.25000
C  -1.92000 20.58500 28.26800
C  -1.76700 21.91000 27.66800
C  -1.33300 21.67800 26.32000
C  -1.44300 20.25700 26.07500
C  -1.70800 23.21500 28.43800
C  -0.97400 22.67700 25.29800
O  -0.63600 22.36400 24.15600
C  -0.90700 24.16300 25.60100
N  -1.78100 17.16700 25.48400
C  -1.48000 18.14600 24.61400
C  -1.29700 17.58100 23.21600
C  -1.41700 15.98700 23.38100
C  -1.73700 15.91400 24.85800
C  -2.35200 18.10800 22.20800
C  -0.14800 15.30400 22.91400
C  1.21900 15.78700 23.58500
N  -2.39700 15.47700 27.81800
C  -2.38700 14.44400 26.88300
C  -2.93900 13.22300 27.56200
C  -3.01400 13.57000 28.90300
C  -2.73100 14.92400 29.03000
C  -3.19400 11.90800 26.92700
C  -3.35500 13.05300 30.28000
O  -3.61000 11.91200 30.67300
C  -3.10900 14.21500 31.29400
C  -1.87500 13.80500 32.05900
O  -0.73000 13.93700 31.69200
O  -2.26700 13.30800 33.28400
C  -1.19200 13.07300 34.23700
H  -2.17100 21.05400 30.32700
H  -0.98500 20.12500 24.11800
H  -2.04800 13.90000 24.72600
H  -3.68800 17.13500 32.37700
H  -2.08600 19.50200 32.38100
H  -4.81300 19.70600 31.48200
H  -3.91700 20.43600 32.68200
H  -4.53900 18.87700 33.07800
H  -0.96300 17.89200 33.24500
H  -1.03000 16.37000 32.77200
H  -2.98300 15.64400 34.43700
H  -3.01000 17.40900 34.88200
H  -2.51400 23.88200 28.13300
H  -0.77100 23.77100 28.41300
H  -1.82300 23.01800 29.50300
H  -0.17600 24.29800 26.39800
H  -1.92600 24.42700 25.88600
H  -0.57300 24.74100 24.73900
H  -0.34000 17.94400 22.84100
H  -2.27400 15.52800 22.88700
H  -2.90400 18.96800 22.58700
H  -3.01600 17.29000 21.92700
H  -1.87400 18.39400 21.27100
H  -0.15700 15.48300 21.83900
H  -0.26800 14.26400 23.21700
H  1.05900 15.95500 24.65000
H  1.61700 16.69300 23.12800
H  1.95200 14.98000 23.57100
H  -3.38500 11.10700 27.64100
H  -2.37600 11.58300 26.28500
H  -4.07200 11.99100 26.28500
H  -3.97600 14.25600 31.95400
H  -1.40100 13.53400 35.20300
H  -0.24400 13.54800 33.98200
H  -1.13300 11.98500 34.21800
Mg 23.88100 -5.54100 46.01800
C  26.12500 -3.57400 44.19800
C  21.37400 -4.70500 43.83600
C  22.23700 -8.37400 46.98100
C  26.56900 -6.61400 48.03200
N  23.77500 -4.42900 44.20800
C  24.79600 -3.67800 43.61700
C  24.29800 -2.77000 42.50000
C  22.75800 -3.12000 42.55500
C  22.55200 -4.09600 43.59200
C  21.86100 -1.86800 42.74300
C  25.06600 -3.06600 41.13400
C  25.69600 -1.91000 40.43800
H  25.91600 -2.00200 38.90600
N  21.94000 -6.27900 45.63600
C  21.08000 -5.76200 44.77100
C  19.76200 -6.46100 44.95300
C  19.99800 -7.44000 45.95400
C  21.46300 -7.38600 46.24500
C  18.48100 -6.07800 44.21900
C  18.98800 -8.44700 46.53800
O  17.84800 -8.51500 46.09800
C  19.28800 -9.31300 47.71000
N  24.41900 -7.32200 47.22800
C  23.57600 -8.38300 47.42200
C  24.19600 -9.47900 48.37700
C  25.32800 -8.69200 48.98200
C  25.44100 -7.45700 48.09700
C  23.29500 -10.25800 49.37200
C  26.74900 -9.46300 49.12100
C  27.62600 -9.03200 50.27700
N  25.92800 -5.17100 46.17400
C  26.91700 -5.68400 47.06400
C  28.11300 -4.95100 46.89500
C  27.92000 -4.05600 45.80900
C  26.53400 -4.32500 45.33500
C  29.26500 -5.15300 47.83900
C  28.45200 -3.02300 44.93800
O  29.54200 -2.48100 44.99200
C  27.34700 -2.72800 43.85900
C  27.11300 -1.25000 43.96900
O  26.38900 -0.73700 44.80500
O  27.95000 -0.62800 43.10300
C  28.00300 0.80400 43.31100
H  20.50400 -4.38500 43.25900
H  21.76000 -9.34700 47.11200
H  27.28500 -6.85600 48.82000
H  24.43300 -1.71900 42.75400
H  22.37800 -3.53200 41.62100
H  21.14500 -1.93500 43.56200
H  21.28900 -1.74800 41.82300
H  22.39100 -0.91600 42.76200
H  24.33000 -3.49300 40.45200
H  25.78300 -3.88500 41.19500
H  26.61200 -1.87200 41.02700
H  25.25000 -0.92900 40.60100
H  18.13100 -6.79600 43.47700
H  18.58200 -5.15800 43.64400
H  17.75600 -5.86400 45.00400
H  18.36200 -9.62900 48.19000
H  19.96100 -8.69500 48.30400
H  19.68800 -10.23700 47.29500
H  24.50000 -10.27300 47.69400
H  24.95000 -8.41700 49.96700
H  22.38600 -9.70300 49.60400
H  23.78100 -10.37200 50.34100
H  23.03800 -11.23400 48.96000
H  27.27300 -9.21700 48.19800
H  26.56100 -10.53000 49.24300
H  27.90600 -9.80000 50.99800
H  27.01000 -8.31400 50.81800
H  28.48200 -8.44900 49.93800
H  30.00200 -4.50300 47.36800
H  29.45900 -6.22500 47.88500
H  29.08600 -4.89300 48.88200
H  27.62200 -2.98700 42.83600
H  26.96100 1.11600 43.37700
H  28.47300 1.31900 42.47200
H  28.60500 1.01800 44.19400

