158

Mg 23.82600 -6.58600 47.46600
C  26.44900 -4.30800 46.39200
C  22.01200 -5.38500 44.95100
C  21.85500 -9.11600 48.12400
C  26.34500 -8.00600 49.56100
N  24.25600 -4.95900 45.92500
C  25.29200 -4.19900 45.63100
C  25.01300 -3.16900 44.48000
C  23.49600 -3.36600 44.19700
C  23.17300 -4.63700 45.09800
C  22.66600 -2.03700 44.57500
C  25.85100 -3.45000 43.17900
C  26.60300 -2.19800 42.57800
H  26.54300 -1.99600 41.05000
N  22.08700 -7.28200 46.60000
C  21.52000 -6.66500 45.56200
C  20.33000 -7.34300 45.26900
C  20.14500 -8.33900 46.30700
C  21.38200 -8.31600 47.07200
C  19.45500 -6.92600 44.07500
C  18.87700 -9.10800 46.47600
O  17.86000 -8.90600 45.83600
C  18.80400 -10.13400 47.49500
N  24.14000 -8.37700 48.56800
C  23.13400 -9.26700 48.73800
C  23.38100 -10.19600 50.04200
C  24.88500 -9.90900 50.28000
C  25.16600 -8.66500 49.44200
C  22.38000 -9.87000 51.17500
C  25.98200 -11.03200 49.90100
C  27.19000 -11.16700 50.81400
N  25.90000 -6.19000 48.07100
C  26.71400 -6.88500 48.88500
C  28.04800 -6.24600 48.92600
C  27.92600 -5.18900 47.99600
C  26.65100 -5.26500 47.43300
C  29.18000 -6.73800 49.72800
C  28.63300 -3.99000 47.49800
O  29.75000 -3.51500 47.72200
C  27.69900 -3.40700 46.36800
C  27.40100 -2.03800 46.87900
O  26.73900 -1.79500 47.86900
O  27.80400 -1.03800 45.91800
C  27.56600 0.33300 46.43400
H  21.35900 -4.91700 44.21100
H  21.18000 -9.89800 48.47900
H  27.03300 -8.49400 50.25500
H  25.24400 -2.16100 44.82700
H  23.29700 -3.67400 43.17100
H  23.30600 -1.34200 45.11900
H  21.71400 -2.20400 45.07700
H  22.49500 -1.52900 43.62500
H  25.31500 -3.94600 42.36900
H  26.73800 -4.03500 43.42000
H  27.67100 -2.25600 42.78600
H  26.17600 -1.31600 43.05600
H  19.85500 -7.41500 43.18700
H  19.53100 -5.85400 43.89100
H  18.40100 -7.17300 44.20500
H  18.63800 -9.67700 48.47000
H  19.69000 -10.74100 47.30600
H  17.98100 -10.79100 47.21200
H  23.32600 -11.22700 49.69300
H  25.08700 -9.53700 51.28400
H  21.77600 -10.72900 51.46600
H  21.64300 -9.14600 50.82700
H  22.97300 -9.38600 51.95200
H  26.41300 -10.83800 48.91900
H  25.57800 -12.04100 49.81900
H  27.16100 -12.17900 51.21800
H  27.04300 -10.36500 51.53800
H  28.12700 -10.96400 50.29700
H  29.11700 -7.79800 49.97300
H  29.27800 -6.05600 50.57300
H  30.05600 -6.55500 49.10700
H  28.21500 -3.29300 45.41400
H  27.75800 0.38700 47.50500
H  26.53200 0.57600 46.19000
H  28.24400 0.92900 45.82300
Mg 30.32900 58.58000 40.27400
C  27.55200 56.91400 39.32700
C  32.29600 56.06400 38.83000
C  33.12500 60.45000 40.55400
C  28.36600 61.47300 40.93900
N  29.95700 56.72000 39.28300
C  28.70600 56.22500 38.97800
C  28.80100 54.96300 38.14600
C  30.21200 54.48200 38.52400
C  30.89800 55.80700 38.86200
C  30.28100 53.49400 39.78700
C  28.52800 55.24100 36.62100
C  27.50000 54.24900 35.90900
H  26.56200 54.82300 34.95300
N  32.49000 58.28400 39.94200
C  33.09000 57.18600 39.28400
C  34.55000 57.37600 39.24700
C  34.84200 58.66700 39.74200
C  33.50000 59.17700 40.08300
C  35.47400 56.33200 38.71200
C  36.18200 59.30400 39.91600
O  37.20800 58.69100 39.57900
C  36.36600 60.68300 40.59200
N  30.67300 60.66700 40.68800
C  31.92000 61.12600 40.89300
C  31.96700 62.63000 41.31000
C  30.43100 62.99400 41.31000
C  29.78200 61.64900 40.94500
C  32.60100 62.82100 42.80000
C  30.11000 64.05300 40.23500
C  29.96500 65.54800 40.70100
N  28.33900 59.05600 40.25700
C  27.69800 60.25700 40.56000
C  26.27500 60.03400 40.49300
C  26.17900 58.75800 39.91800
C  27.46400 58.19700 39.83800
C  25.10300 60.95300 40.89200
C  25.29300 57.73300 39.47800
O  24.06900 57.70200 39.40900
C  26.14200 56.55600 39.02000
C  25.61900 55.36900 39.71400
O  25.99100 55.04300 40.83400
O  24.74700 54.65700 38.97300
C  24.14000 53.39600 39.48300
H  32.98600 55.28500 38.50200
H  33.97700 61.12300 40.67400
H  27.71700 62.30000 41.23500
H  28.15400 54.20200 38.58400
H  30.66600 53.92700 37.70300
H  30.75100 54.02700 40.61400
H  30.84000 52.61800 39.45600
H  29.27900 53.13300 40.01800
H  29.40500 55.16600 35.97900
H  28.01100 56.18700 36.46500
H  26.97500 53.74100 36.71800
H  28.01600 53.51900 35.28600
H  36.45500 56.72800 38.45300
H  35.09000 55.88300 37.79600
H  35.65200 55.59900 39.49900
H  37.42800 60.71600 40.83600
H  35.64600 60.74600 41.40800
H  36.05400 61.41800 39.85000
H  32.63700 63.20500 40.67100
H  30.12600 63.40000 42.27400
H  32.75800 63.89100 42.93500
H  33.46100 62.25000 43.15300
H  31.84900 62.41900 43.47800
H  29.23100 63.73900 39.67100
H  30.95700 63.92200 39.56100
H  29.07400 66.05000 40.32400
H  30.84000 66.11100 40.37800
H  29.87700 65.54800 41.78800
H  25.47200 61.72500 41.56700
H  24.28500 60.42800 41.38600
H  24.70400 61.56400 40.08200
H  25.90900 56.45800 37.96000
H  24.41900 53.27600 40.53000
H  24.51700 52.52800 38.94100
H  23.05200 53.45100 39.51000

