158

Mg -11.81800 37.91700 42.83100
C  -9.66900 35.32100 41.90200
C  -9.57700 40.15700 41.45200
C  -14.06200 40.42300 43.26600
C  -14.31600 35.52600 43.63300
N  -9.89700 37.76300 41.57500
C  -9.18500 36.57200 41.42300
C  -7.89500 36.86200 40.63900
C  -7.81300 38.41900 40.64100
C  -9.12700 38.82500 41.35600
C  -6.60000 39.11500 41.35300
C  -7.88900 36.17000 39.14000
C  -6.68800 35.31600 38.76300
H  -6.52400 34.81000 37.34700
N  -11.75600 39.95700 42.49900
C  -10.75200 40.69100 41.93500
C  -11.05700 42.00200 41.95100
C  -12.42100 42.15100 42.40000
C  -12.79400 40.78800 42.82400
C  -10.14400 43.12600 41.30500
C  -13.26100 43.42200 42.34300
O  -12.77100 44.42600 41.90300
C  -14.75200 43.52200 42.79800
N  -13.85000 37.88800 43.25000
C  -14.53400 39.11000 43.46900
C  -15.91100 38.86700 44.12700
C  -16.04800 37.32600 44.00700
C  -14.71500 36.88400 43.54100
C  -15.87000 39.41200 45.54700
C  -17.24600 36.82700 43.04100
C  -18.39000 36.09700 43.80800
N  -12.05500 35.89800 42.70200
C  -13.05300 35.07000 43.18100
C  -12.62800 33.68400 43.15400
C  -11.29700 33.78500 42.68700
C  -11.01700 35.10200 42.36900
C  -13.47600 32.45800 43.56800
C  -10.06600 33.00700 42.42000
O  -9.81600 31.79500 42.59900
C  -8.99200 33.95600 41.94500
C  -7.86200 33.89900 42.92900
O  -7.98100 34.20500 44.09600
O  -6.71100 33.52400 42.34600
C  -5.61000 33.25000 43.33600
H  -8.83300 40.89000 41.13300
H  -14.76400 41.17100 43.64100
H  -15.06000 34.80800 43.98500
H  -7.15600 36.47300 41.34000
H  -7.78600 38.72200 39.59400
H  -5.94200 39.28500 40.50000
H  -6.15900 38.32900 41.96700
H  -6.89900 40.00600 41.90300
H  -7.90200 36.99900 38.43300
H  -8.83600 35.66300 38.95500
H  -6.64500 34.39800 39.35000
H  -5.81400 35.80900 39.18700
H  -10.23600 42.90000 40.24300
H  -9.16000 42.96100 41.74400
H  -10.34200 44.18500 41.46600
H  -15.41400 42.73500 42.43600
H  -15.27600 44.34900 42.31900
H  -14.78000 43.51100 43.88700
H  -16.65500 39.33800 43.48400
H  -16.18600 36.95400 45.02300
H  -16.26500 40.42500 45.61900
H  -14.88700 39.15500 45.94400
H  -16.62600 38.85000 46.09500
H  -16.79400 36.06600 42.40600
H  -17.62800 37.64000 42.42300
H  -19.34800 36.60700 43.70400
H  -18.16700 35.96300 44.86600
H  -18.46500 35.10600 43.36000
H  -12.80600 31.61300 43.72300
H  -14.24700 32.12700 42.87200
H  -13.91100 32.70900 44.53500
H  -8.62600 33.84800 40.92400
H  -4.73900 32.89800 42.78400
H  -5.92500 32.49300 44.05500
H  -5.23900 34.07600 43.94300
Mg -11.37700 16.00100 41.29700
C  -8.17500 14.59800 41.08600
C  -10.14300 18.81600 39.73000
C  -14.52400 17.24200 41.04000
C  -12.47800 12.93000 42.34500
N  -9.42200 16.60900 40.51800
C  -8.28600 15.91100 40.52200
C  -7.11300 16.65100 39.74500
C  -7.77500 18.10700 39.51000
C  -9.22600 17.76400 39.84000
C  -7.15900 19.05800 40.52400
C  -6.74000 15.97300 38.44400
C  -5.26400 15.85700 38.00500
H  -4.87300 16.72700 36.87900
N  -12.23400 17.71500 40.38000
C  -11.52300 18.79800 39.88100
C  -12.41100 19.88700 39.52900
C  -13.73900 19.54400 39.94200
C  -13.57900 18.10500 40.46700
C  -12.00600 21.23200 39.06900
C  -15.04400 20.39100 39.90600
O  -14.95600 21.54400 39.56500
C  -16.35200 19.92400 40.40800
N  -13.29600 15.12000 41.50600
C  -14.39900 15.94100 41.57400
C  -15.64100 15.16100 42.08700
C  -14.97000 13.83300 42.65100
C  -13.52300 13.92900 42.07000
C  -16.48500 16.06900 43.11000
C  -15.69900 12.54700 42.35100
C  -16.56300 11.89200 43.46200
N  -10.52800 14.11400 41.65900
C  -11.12600 12.95900 42.12100
C  -10.12800 11.94100 42.31300
C  -8.99900 12.53000 41.87900
C  -9.26500 13.85100 41.51000
C  -10.32100 10.61600 42.83600
C  -7.56400 12.32600 41.73600
O  -6.94400 11.33100 41.88400
C  -6.91100 13.72700 41.24300
C  -5.95200 14.34600 42.18600
O  -6.21100 15.03700 43.16500
O  -4.72500 13.79600 41.90900
C  -3.63400 14.28600 42.67500
H  -9.79600 19.67300 39.14900
H  -15.55600 17.57900 41.16000
H  -12.78500 12.01600 42.85800
H  -6.18600 16.68300 40.31600
H  -7.71300 18.43100 38.47100
H  -7.98300 19.44700 41.12200
H  -6.63600 19.89400 40.05900
H  -6.54900 18.52500 41.25300
H  -7.24800 16.44200 37.60100
H  -7.07900 14.93800 38.48200
H  -4.93900 14.82400 37.88200
H  -4.63500 16.35100 38.74500
H  -11.85100 21.94500 39.87900
H  -12.70800 21.78200 38.44200
H  -11.08300 21.12700 38.50000
H  -17.11300 20.67600 40.19900
H  -16.20700 19.70400 41.46600
H  -16.65600 18.98100 39.95400
H  -16.33500 14.88800 41.29100
H  -14.81700 13.96300 43.72200
H  -17.50000 16.24000 42.75300
H  -16.10900 17.09200 43.12900
H  -16.44000 15.51200 44.04700
H  -14.93500 11.85700 41.99400
H  -16.28300 12.80500 41.46700
H  -16.22900 10.87000 43.64000
H  -17.56900 11.78000 43.05800
H  -16.47200 12.33400 44.45400
H  -11.35400 10.29300 42.70300
H  -10.23900 10.70400 43.91900
H  -9.58600 9.89200 42.48400
H  -6.39200 13.58700 40.29500
H  -3.22700 15.14200 42.13700
H  -2.93800 13.47500 42.89100
H  -3.92200 14.58700 43.68300

