158

Mg 2.11700 -1.75900 43.27600
C  5.34300 -0.82200 43.02800
C  1.15400 1.00600 41.44200
C  -1.02600 -3.05800 43.13600
C  3.24000 -4.90300 44.60700
N  3.20800 -0.22500 42.11300
C  4.53300 0.01100 42.20400
C  4.93300 1.20200 41.34100
C  3.56400 1.97200 41.23200
C  2.54600 0.85000 41.63200
C  3.43200 3.29700 42.12300
C  5.60300 0.90800 39.96900
C  6.47900 2.08200 39.46800
H  6.05000 2.68400 38.07100
N  0.33300 -1.07100 42.46900
C  0.07100 0.11100 41.78300
C  -1.35100 0.37500 41.63800
C  -2.01700 -0.76200 42.22000
C  -0.91900 -1.70200 42.60100
C  -1.94700 1.61800 40.96900
C  -3.55900 -0.90300 42.32900
O  -4.23500 0.02500 41.81600
C  -4.19500 -1.93700 43.21800
N  1.17200 -3.66400 43.91800
C  -0.12000 -3.93600 43.75100
C  -0.52800 -5.29400 44.24700
C  0.91200 -5.96600 44.64100
C  1.86500 -4.78300 44.32300
C  -1.43800 -5.32500 45.52200
C  1.30400 -7.28800 43.95900
C  0.40300 -8.51200 44.32300
N  3.82100 -2.65400 43.83500
C  4.14700 -3.84900 44.44000
C  5.54700 -3.87200 44.81100
C  6.09700 -2.72700 44.33000
C  4.99800 -2.02800 43.72900
C  6.39400 -4.93900 45.46200
C  7.29100 -1.92500 44.15200
O  8.45400 -2.08100 44.45300
C  6.84500 -0.63900 43.24700
C  7.28500 0.58500 43.99600
O  7.03900 0.73400 45.15700
O  7.88600 1.58400 43.24500
C  8.47600 2.72800 43.99800
H  0.89500 1.97800 41.01700
H  -2.04400 -3.44200 43.04200
H  3.50300 -5.81900 45.14000
H  5.72700 1.77800 41.81600
H  3.44400 2.35800 40.21900
H  4.24500 3.44100 42.83500
H  2.47000 3.21900 42.62800
H  3.43500 4.15100 41.44500
H  4.87200 0.69100 39.18900
H  6.16100 -0.01800 40.11000
H  7.41700 1.54500 39.32300
H  6.48900 2.94000 40.14000
H  -2.18400 1.49200 39.91300
H  -1.33500 2.50200 41.14600
H  -2.79700 1.87000 41.60300
H  -4.57300 -2.82300 42.70700
H  -4.94600 -1.39100 43.78900
H  -3.49600 -2.16900 44.02100
H  -0.98600 -5.75100 43.37000
H  0.99200 -6.24800 45.69100
H  -1.38700 -4.27000 45.79400
H  -1.08300 -6.01800 46.28500
H  -2.48200 -5.50400 45.26400
H  2.29500 -7.57300 44.31400
H  1.40800 -7.16200 42.88100
H  0.92400 -9.22200 44.96500
H  0.19900 -8.99900 43.37000
H  -0.53100 -8.27700 44.83400
H  6.38200 -5.76600 44.75300
H  6.05200 -5.23100 46.45500
H  7.39300 -4.55400 45.67100
H  7.24100 -0.74600 42.23700
H  7.75600 3.53100 43.84200
H  9.35800 3.12700 43.49700
H  8.72300 2.41300 45.01200
Mg 47.91400 25.83100 28.38600
C  48.89800 27.85000 31.11400
C  47.07500 23.37200 30.66600
C  46.90900 23.83000 25.82800
C  49.00100 28.16900 26.26500
N  47.95400 25.69000 30.59700
C  48.31300 26.63400 31.52600
C  47.88200 26.25500 32.89200
C  47.43600 24.78400 32.73900
C  47.50900 24.62000 31.23900
C  48.13400 23.59500 33.46800
C  46.78600 27.25000 33.57800
C  47.16700 27.66300 35.03900
H  46.05000 28.05300 35.95900
N  47.11700 23.90500 28.26300
C  46.93500 23.06800 29.30700
C  46.58500 21.73100 28.81000
C  46.33500 21.88100 27.40400
C  46.72200 23.29600 27.11600
C  46.72300 20.47000 29.69000
C  45.92300 20.93700 26.32900
O  45.56400 21.24200 25.21900
C  45.94900 19.45600 26.60900
N  47.89900 25.98200 26.37400
C  47.37500 25.07400 25.46900
C  47.64900 25.43400 24.00400
C  48.37000 26.77700 24.22600
C  48.43300 27.01200 25.74700
C  48.56300 24.43700 23.21900
C  47.58300 28.03400 23.55000
C  48.40100 28.85400 22.63400
N  48.81000 27.68600 28.50900
C  49.22400 28.51300 27.58900
C  50.02200 29.56000 28.23000
C  49.79800 29.36500 29.59400
C  49.11300 28.21600 29.73100
C  50.74800 30.67900 27.64900
C  50.07800 29.98100 30.88300
O  50.60900 31.06100 31.08400
C  49.35600 29.03300 31.98300
C  50.24200 28.61300 32.97600
O  50.78800 27.52300 32.93700
O  50.43200 29.57700 33.94100
C  51.34500 29.24400 35.00800
H  46.89800 22.53900 31.35000
H  46.56800 23.27900 24.94900
H  49.42700 28.84500 25.52100
H  48.81300 26.07200 33.42900
H  46.39200 24.66300 33.02800
H  48.88400 24.03100 34.12700
H  48.75500 23.04400 32.76100
H  47.45200 22.93000 33.99700
H  45.78600 26.81700 33.55300
H  46.70900 28.08200 32.87800
H  47.86700 28.49900 35.04400
H  47.67100 26.78700 35.44700
H  47.15400 20.73600 30.65500
H  47.30400 19.67600 29.22100
H  45.75200 20.17900 30.09000
H  45.56300 19.34800 27.62200
H  46.98500 19.12500 26.54400
H  45.39700 18.77200 25.96400
H  46.66700 25.56200 23.54900
H  49.37300 26.74200 23.80000
H  48.95800 23.58600 23.77400
H  49.46900 24.83100 22.75900
H  47.94700 23.99100 22.43800
H  47.11500 28.65700 24.31200
H  46.71400 27.61400 23.04300
H  49.35800 28.37000 22.43900
H  48.57500 29.82900 23.08900
H  47.84000 28.97900 21.70700
H  51.73600 30.22600 27.56000
H  50.75900 31.59700 28.23500
H  50.30400 30.97100 26.69700
H  48.57600 29.61700 32.47300
H  50.92200 28.46300 35.64100
H  51.62900 30.05200 35.68200
H  52.26100 28.88100 34.54100

