158

Mg 7.88900 3.20500 27.84500
C  9.41300 1.62300 30.64400
C  6.31900 5.38900 30.17300
C  6.33400 4.76800 25.28400
C  8.95000 0.63200 25.85200
N  7.85200 3.44000 30.15400
C  8.61300 2.70500 31.01500
C  8.41200 3.26200 32.49800
C  7.36300 4.37600 32.32700
C  7.12600 4.40100 30.81600
C  6.06200 4.27900 33.13100
C  9.77800 3.71100 33.14300
C  9.92200 3.49800 34.69000
H  10.49700 4.61200 35.55300
N  6.58800 4.84300 27.75800
C  6.13100 5.59100 28.79500
C  5.38200 6.68400 28.22100
C  5.23200 6.46200 26.83000
C  6.02900 5.25600 26.59000
C  4.84000 7.78700 29.11000
C  4.65000 7.35900 25.72600
O  4.72200 7.11500 24.52100
C  4.01900 8.61600 26.07100
N  7.53500 2.64600 25.90400
C  7.07500 3.50800 24.96900
C  7.38200 3.20100 23.48600
C  8.02200 1.72500 23.75200
C  8.23600 1.65300 25.25400
C  6.05100 3.31100 22.67100
C  9.32500 1.60900 22.89800
C  10.55200 2.43400 23.39100
N  8.92000 1.42400 28.14100
C  9.18400 0.41100 27.29800
C  9.87400 -0.65500 27.99500
C  10.07400 -0.11200 29.27200
C  9.40800 1.05800 29.30900
C  10.57300 -1.83600 27.51700
C  10.75000 -0.36100 30.52700
O  11.48800 -1.25100 30.89700
C  10.25900 0.71700 31.43600
C  9.47600 0.13700 32.52000
O  8.49400 -0.55800 32.34300
O  10.15300 0.32400 33.73200
C  9.35300 -0.18400 34.86700
H  5.85900 6.13500 30.82400
H  6.06100 5.48100 24.50300
H  9.29400 -0.22900 25.27500
H  7.96300 2.44100 33.05800
H  7.79700 5.31700 32.66900
H  5.23900 3.86700 32.54600
H  5.77200 5.28100 33.44700
H  6.11700 3.64300 34.01500
H  9.89000 4.77300 32.92800
H  10.53400 3.10000 32.65000
H  10.64800 2.70300 34.86300
H  8.94800 3.24500 35.11000
H  5.40600 7.96800 30.02400
H  3.77200 7.67000 29.29700
H  4.90600 8.72700 28.56200
H  3.32000 8.44600 26.89000
H  3.54900 8.81800 25.10800
H  4.82400 9.29500 26.35400
H  8.11700 3.84700 23.00700
H  7.37800 0.88000 23.50800
H  5.16600 3.50300 23.27800
H  5.94400 2.34700 22.17500
H  6.04100 4.03200 21.85400
H  9.10100 1.95400 21.88900
H  9.54300 0.54200 22.84300
H  11.13200 1.80500 24.06700
H  10.25100 3.33800 23.92000
H  11.10900 2.78100 22.52000
H  11.59000 -1.69200 27.15300
H  9.97100 -2.36400 26.77800
H  10.67300 -2.56400 28.32200
H  11.13800 1.20800 31.85300
H  9.24600 -1.26800 34.91200
H  8.35700 0.23700 34.99900
H  9.80800 0.09500 35.81700
Mg 47.75000 16.68200 28.98100
C  45.74800 16.50300 32.01100
C  49.95400 18.63100 30.86800
C  49.41700 17.20100 26.26000
C  45.23700 14.96700 27.28800
N  47.77500 17.60100 31.20800
C  46.93400 17.20500 32.24900
C  47.60300 17.51600 33.65700
C  48.91200 18.33400 33.26400
C  48.98200 18.08900 31.71700
C  48.85100 19.80400 33.70800
C  47.86500 16.18600 34.54900
C  47.36500 16.19900 35.96500
H  47.12300 17.53900 36.70900
N  49.41600 17.80100 28.55100
C  50.21300 18.46400 29.44900
C  51.41600 18.85600 28.78600
C  51.37400 18.41100 27.39100
C  49.98700 17.77700 27.34000
C  52.67400 19.44100 29.48500
C  52.36700 18.57500 26.25200
O  52.29900 18.17700 25.04500
C  53.63900 19.33400 26.58000
N  47.23700 16.34000 27.03100
C  48.17400 16.57500 26.03500
C  47.53300 16.18800 24.71300
C  46.43500 15.13400 25.08800
C  46.21000 15.51200 26.50400
C  47.07100 17.47800 24.01400
C  46.93400 13.61000 24.90000
C  45.95500 12.80700 23.90200
N  45.82700 15.94800 29.52000
C  44.96000 15.25700 28.71200
C  43.88500 14.75900 29.50400
C  44.05400 15.30600 30.79600
C  45.26600 15.97700 30.75300
C  42.69000 14.02300 28.95200
C  43.57100 15.44000 32.08500
O  42.52300 14.96900 32.47500
C  44.66400 16.21000 32.97500
C  43.89800 17.32500 33.54900
O  43.46700 18.27900 32.91800
O  43.64000 17.10700 34.89500
C  42.82000 18.03600 35.67800
H  50.69800 19.13600 31.48800
H  50.16800 17.12200 25.47100
H  44.51500 14.33800 26.76200
H  46.99100 18.19600 34.25000
H  49.79600 17.90100 33.73200
H  47.87300 20.03500 34.13100
H  48.94600 20.57600 32.94400
H  49.60300 19.98600 34.47600
H  48.90500 15.88400 34.41900
H  47.32500 15.35700 34.09300
H  48.04400 15.67000 36.63400
H  46.46300 15.60200 36.10100
H  53.00200 20.38100 29.04100
H  53.47800 18.71800 29.34600
H  52.52700 19.57800 30.55600
H  54.34300 19.24700 25.75200
H  54.23600 18.89700 27.38100
H  53.35300 20.36800 26.76800
H  48.30400 15.76900 24.06600
H  45.62300 15.22800 24.36600
H  45.99700 17.59000 24.16500
H  47.42900 17.61300 22.99400
H  47.43600 18.30000 24.63200
H  46.96500 13.09900 25.86200
H  47.92400 13.63900 24.44400
H  46.30200 12.99600 22.88600
H  44.94100 13.20100 23.97800
H  45.98200 11.73200 24.08300
H  42.82300 13.06800 28.44500
H  42.33500 14.69900 28.17400
H  41.86900 13.87600 29.65400
H  44.87400 15.61700 33.86500
H  42.71800 19.01800 35.21600
H  43.28200 18.13000 36.66000
H  41.77700 17.73300 35.77700

