158

Mg 48.11800 34.96600 27.86000
C  46.08400 33.25500 30.28700
C  48.43800 37.42100 30.07200
C  49.37200 36.70300 25.42900
C  47.42400 32.18800 25.67700
N  47.44000 35.23800 29.90800
C  46.73600 34.35600 30.76000
C  46.73100 34.87000 32.19400
C  47.10300 36.34500 31.96100
C  47.73800 36.33500 30.58600
C  45.87900 37.40000 32.04600
C  47.71300 34.10300 33.21300
C  47.69600 34.45100 34.66400
H  47.01500 35.64600 35.16200
N  48.88400 36.86400 27.81300
C  49.04600 37.74100 28.83600
C  49.58700 38.89400 28.31400
C  49.78200 38.78000 26.95100
C  49.30400 37.40900 26.62600
C  49.76100 40.17100 29.23000
C  50.32900 39.80200 25.94300
O  50.45800 39.55300 24.73500
C  50.99900 41.07800 26.38900
N  48.28900 34.53000 25.85800
C  48.97200 35.44500 25.07200
C  49.11400 34.93700 23.60400
C  48.52000 33.42800 23.66100
C  48.09300 33.33600 25.16900
C  48.46600 35.83700 22.50600
C  49.54600 32.24000 23.39300
C  49.06300 31.02000 22.60400
N  47.01500 33.04800 27.86200
C  46.81700 32.03900 26.91900
C  46.03500 30.95100 27.51000
C  45.69800 31.43600 28.79600
C  46.37400 32.71600 29.00000
C  45.68700 29.57500 26.92300
C  44.89400 31.08200 29.95000
O  44.31600 30.04100 30.24100
C  44.99400 32.37600 30.86000
C  45.22200 31.84000 32.16600
O  46.20300 31.20900 32.50700
O  44.18500 32.12400 32.99800
C  44.42900 31.83600 34.40100
H  48.56900 38.24300 30.77800
H  49.77200 37.21600 24.55200
H  47.29500 31.29200 25.06600
H  45.72200 34.79300 32.59900
H  47.85100 36.63700 32.69800
H  45.91300 38.12700 31.23500
H  45.92500 38.01300 32.94700
H  44.90900 36.90600 32.09900
H  48.73900 34.25300 32.87700
H  47.40100 33.07500 33.03100
H  48.73200 34.61900 34.95700
H  47.30700 33.66300 35.30800
H  50.78400 40.53300 29.33300
H  49.37800 39.99700 30.23600
H  49.09800 40.88800 28.74400
H  51.19600 41.25000 27.44800
H  50.46500 41.86400 25.85500
H  52.00900 41.00100 25.98600
H  50.16500 34.93200 23.31400
H  47.63000 33.35200 23.03600
H  48.02000 36.73000 22.94500
H  47.77500 35.32200 21.83800
H  49.25600 36.24100 21.87300
H  49.84700 31.97100 24.40600
H  50.34600 32.78600 22.89300
H  49.70900 30.91700 21.73200
H  48.03300 31.24800 22.32700
H  49.05000 30.05800 23.11600
H  45.56600 28.95100 27.80900
H  46.56700 29.27200 26.35500
H  44.83600 29.60200 26.24300
H  44.01800 32.85800 30.91900
H  44.42400 30.76600 34.60600
H  43.62800 32.24700 35.01600
H  45.33400 32.33900 34.74100
Mg 26.86800 49.73700 26.98300
C  24.79200 50.84400 29.50200
C  29.25300 48.94300 29.30800
C  29.01300 49.03600 24.39800
C  24.67400 51.24100 24.56700
N  27.02200 49.83500 29.13800
C  25.94200 50.13500 29.98100
C  26.23300 49.98600 31.51800
C  27.80200 49.52300 31.39400
C  28.05000 49.41600 29.88400
C  28.92800 50.43400 32.06900
C  25.27100 48.94400 32.08700
C  24.60700 49.45900 33.44600
H  24.43300 48.49800 34.60300
N  28.79200 48.90300 26.87900
C  29.60700 48.58400 27.95600
C  30.81700 48.07700 27.42700
C  30.81400 48.21600 26.02500
C  29.45100 48.66400 25.67100
C  31.94000 47.61000 28.34700
C  31.88100 47.94300 25.03900
O  31.75300 48.02600 23.81600
C  33.22700 47.56600 25.54900
N  26.85500 50.04700 24.79600
C  27.87000 49.67300 23.99600
C  27.44000 49.90100 22.46600
C  25.99700 50.47400 22.56600
C  25.81600 50.59400 24.07300
C  28.46200 50.64800 21.50900
C  24.85800 49.69200 21.83200
C  24.62900 48.28600 22.38400
N  25.14000 50.88700 27.02100
C  24.31500 51.45900 25.97200
C  23.22800 52.13900 26.51800
C  23.38400 51.91800 27.87600
C  24.44400 51.07500 28.12000
C  22.25600 52.95500 25.77300
C  22.81500 52.21700 29.18600
O  21.84300 52.90400 29.37800
C  23.63000 51.57300 30.28200
C  24.01200 52.56000 31.27500
O  24.93800 53.36200 31.19400
O  23.13600 52.47100 32.35600
C  23.37600 53.43400 33.43700
H  29.96700 48.64000 30.07700
H  29.58300 48.64900 23.55100
H  23.93700 51.62000 23.85700
H  26.18900 50.96500 31.99600
H  27.96800 48.58500 31.92300
H  29.55800 50.92300 31.32700
H  29.56400 49.77700 32.66200
H  28.40800 51.14500 32.71200
H  25.78900 48.06200 32.46500
H  24.54500 48.68500 31.31600
H  23.64500 49.91600 33.21100
H  25.19700 50.27900 33.85500
H  32.90200 48.08700 28.16000
H  32.14700 46.54200 28.27700
H  31.61700 47.73100 29.38100
H  33.99900 47.41100 24.79500
H  33.07300 46.63100 26.08700
H  33.56300 48.30900 26.27200
H  27.40600 48.92400 21.98200
H  26.00600 51.53300 22.30600
H  28.04100 51.38400 20.82400
H  28.91300 49.94800 20.80600
H  29.23500 51.20500 22.03800
H  25.06000 49.54500 20.77100
H  23.96300 50.30700 21.92900
H  25.33600 48.05900 23.18200
H  24.73800 47.46100 21.68100
H  23.61600 48.24700 22.78500
H  21.32800 52.40800 25.94100
H  22.38200 53.07400 24.69700
H  22.18700 53.91600 26.28300
H  22.95600 50.80700 30.66400
H  23.47000 54.48800 33.17400
H  24.30300 53.06500 33.87700
H  22.57400 53.37400 34.17300

