158

Mg 35.65300 0.93100 28.74200
C  33.53800 2.29800 31.39400
C  38.20600 1.04700 31.00500
C  37.68000 0.55200 26.15600
C  33.01000 1.55800 26.52200
N  35.87800 1.70400 30.86700
C  34.87900 2.11300 31.77500
C  35.47500 2.34900 33.13800
C  36.97100 2.10900 32.90800
C  37.02700 1.58300 31.53200
C  37.90200 3.25500 33.17500
C  34.81300 1.38600 34.21000
C  34.85300 2.03000 35.56600
H  35.74200 3.12700 35.96000
N  37.61300 0.45200 28.67000
C  38.53900 0.57500 29.73000
C  39.78100 0.17200 29.16900
C  39.60100 -0.09700 27.80000
C  38.23900 0.34700 27.45000
C  41.02600 0.10000 30.07400
C  40.59200 -0.57600 26.77300
O  40.38700 -0.61500 25.58400
C  41.99800 -0.96300 27.31700
N  35.32300 0.76600 26.64800
C  36.33000 0.62700 25.80900
C  35.92700 0.86100 24.36700
C  34.35100 0.86600 24.39900
C  34.20000 1.08400 25.94300
C  36.62200 2.00400 23.70100
C  33.56100 -0.49600 23.87900
C  32.56900 -0.31000 22.76600
N  33.65100 1.63900 28.95800
C  32.73800 1.85700 27.90500
C  31.48400 2.39200 28.46200
C  31.74400 2.54300 29.87800
C  33.04500 2.11800 30.05500
C  30.19100 2.62000 27.70700
C  31.24800 2.93700 31.06500
O  30.15200 3.43900 31.35900
C  32.37600 2.74500 32.17700
C  32.59500 4.01300 33.00400
O  33.42800 4.86500 32.69800
O  31.75000 4.01800 34.09500
C  31.85100 5.22500 34.87500
H  39.06700 1.07600 31.67500
H  38.33800 0.48200 25.28800
H  32.16400 1.80500 25.87600
H  35.24700 3.34300 33.52300
H  37.31500 1.28900 33.53800
H  38.76800 3.05500 33.80600
H  37.38900 4.15600 33.51100
H  38.17300 3.62200 32.18500
H  35.44900 0.51200 34.35000
H  33.79800 1.09200 33.94500
H  35.06200 1.24500 36.29300
H  33.90000 2.47700 35.85100
H  40.79600 0.26500 31.12700
H  41.73000 0.87900 29.78000
H  41.45800 -0.90000 30.02000
H  42.45100 -1.71000 26.66500
H  41.84100 -1.60600 28.18200
H  42.65900 -0.11300 27.49100
H  36.19700 -0.06200 23.85400
H  34.05600 1.65700 23.70800
H  35.94700 2.70000 23.20300
H  37.32600 1.59800 22.97500
H  37.19400 2.60500 24.40700
H  33.10400 -0.87000 24.79600
H  34.29900 -1.21500 23.52400
H  31.54100 -0.55600 23.03300
H  32.75300 -0.99400 21.93800
H  32.65900 0.72700 22.44300
H  29.61600 1.70900 27.86900
H  30.31000 2.73900 26.63000
H  29.64300 3.51000 28.01600
H  32.16100 1.85900 32.77500
H  31.74600 6.04100 34.16000
H  32.71600 5.36900 35.52300
H  31.01200 5.22500 35.57100
Mg 0.21500 43.63100 26.08700
C  2.45500 43.42900 28.87200
C  -2.33300 43.21900 28.24200
C  -1.79800 43.06400 23.48900
C  3.04300 43.61900 24.03900
N  0.08900 43.33200 28.30900
C  1.07200 43.45100 29.23200
C  0.50800 43.52900 30.64600
C  -1.01200 43.31200 30.43100
C  -1.14200 43.40800 28.87500
C  -1.65700 41.84100 30.81700
C  0.86100 44.88100 31.24800
C  0.89200 44.84700 32.80200
H  0.49500 43.63100 33.55000
N  -1.85800 43.35300 25.88800
C  -2.72800 43.13900 26.92200
C  -3.99000 43.02200 26.41800
C  -3.92200 42.92300 24.97500
C  -2.50700 43.13600 24.68000
C  -5.29600 43.23400 27.38000
C  -4.90600 42.67100 23.99600
O  -4.76000 42.80700 22.80800
C  -6.27900 42.23200 24.44600
N  0.63000 43.47500 24.09400
C  -0.43000 43.26400 23.21000
C  0.15100 43.22600 21.77200
C  1.69600 43.53900 21.91000
C  1.80800 43.58200 23.44000
C  -0.23500 41.95300 20.99400
C  2.07500 44.84500 21.18100
C  1.41500 46.17800 21.67200
N  2.40200 43.49800 26.31300
C  3.39800 43.62900 25.40300
C  4.69600 43.56700 26.05100
C  4.40000 43.42800 27.44000
C  2.98200 43.53200 27.52500
C  6.01100 43.58800 25.31100
C  4.91000 43.34400 28.78200
O  6.08300 43.35000 29.11700
C  3.67800 43.40900 29.78600
C  3.71500 42.31600 30.75700
O  3.63400 41.10000 30.51100
O  3.93500 42.92800 31.95300
C  4.15800 42.01600 33.10100
H  -3.09200 42.93500 28.97400
H  -2.43800 42.88000 22.62300
H  3.86600 43.61000 23.32200
H  0.84700 42.70600 31.27600
H  -1.61300 44.12400 30.84000
H  -2.27300 41.34900 30.06500
H  -2.39000 41.95000 31.61700
H  -0.82600 41.17600 31.05100
H  0.09800 45.61100 30.97600
H  1.81500 45.14300 30.79100
H  0.21400 45.66400 33.04800
H  1.94500 45.09100 32.94600
H  -6.15800 42.61800 27.12100
H  -5.62000 44.27400 27.35700
H  -5.13900 42.94000 28.41800
H  -6.18500 41.54700 25.28800
H  -6.91000 41.86200 23.63800
H  -6.65600 43.12900 24.93500
H  -0.39900 44.01100 21.25100
H  2.28400 42.68200 21.58400
H  -0.63800 41.19100 21.66000
H  0.66100 41.42700 20.66300
H  -0.96900 42.16700 20.21700
H  1.76900 44.66000 20.15200
H  3.16300 44.84100 21.25300
H  0.54000 46.20600 22.32100
H  1.07700 46.75300 20.81000
H  2.10900 46.84400 22.18400
H  6.39500 44.60600 25.24600
H  5.88400 43.27500 24.27400
H  6.73800 42.91400 25.76400
H  3.77100 44.38800 30.25700
H  3.80600 42.59500 33.95500
H  5.23000 41.85200 33.21200
H  3.66400 41.05700 33.26100

