158

Mg 30.51700 59.66400 40.47800
C  27.73500 57.89000 39.39600
C  32.44500 56.82500 39.72100
C  33.24500 61.49600 40.92000
C  28.44400 62.30600 41.10000
N  30.16500 57.69400 39.51400
C  28.92100 57.20100 39.14300
C  29.01000 55.81600 38.42400
C  30.46800 55.40300 38.91600
C  31.11600 56.72700 39.35100
C  30.48600 54.22100 39.97900
C  28.87900 55.96800 36.90000
C  27.89000 55.06100 36.19200
H  26.87600 55.72800 35.27600
N  32.62500 59.24600 40.19200
C  33.19000 57.98200 40.10700
C  34.57200 58.09200 40.27600
C  34.86800 59.46600 40.60000
C  33.54700 60.15000 40.62200
C  35.57800 56.96100 39.95200
C  36.30700 59.95600 40.75700
O  37.32700 59.21500 40.71900
C  36.60500 61.41900 40.91900
N  30.83600 61.62800 40.64500
C  32.07700 62.12700 40.93800
C  32.05400 63.58500 41.31400
C  30.49700 63.83100 41.43300
C  29.90400 62.47600 41.04100
C  32.99200 64.10800 42.44400
C  30.05500 65.05300 40.53200
C  29.14200 66.11100 41.11000
N  28.49900 60.03900 40.48200
C  27.78300 61.17200 40.74400
C  26.32100 60.92600 40.63800
C  26.27000 59.66700 40.01100
C  27.61800 59.16800 40.00900
C  25.21500 61.96700 40.87400
C  25.36200 58.63100 39.47200
O  24.14200 58.65900 39.40300
C  26.27100 57.46500 39.08000
C  25.77100 56.35900 39.94700
O  26.16000 56.16700 41.10300
O  24.77700 55.67100 39.28400
C  24.25700 54.51500 39.95600
H  32.99400 55.90100 39.52400
H  34.07200 62.03400 41.39000
H  27.82100 63.15700 41.38200
H  28.20600 55.18600 38.80500
H  31.03200 55.00400 38.07200
H  30.79900 53.26300 39.56500
H  29.47100 54.05100 40.33700
H  31.03400 54.59700 40.84300
H  29.84700 55.61300 36.54600
H  28.79200 57.01000 36.59300
H  27.35400 54.47000 36.93400
H  28.46400 54.35400 35.59300
H  36.08900 56.74800 40.89100
H  36.38200 57.18600 39.25100
H  35.00200 56.06000 39.73900
H  37.62100 61.66300 40.60900
H  36.26200 61.81600 41.87500
H  36.02900 61.94200 40.15600
H  32.42100 64.10500 40.42900
H  30.05000 64.01200 42.41100
H  32.27900 64.68400 43.03400
H  33.75900 64.81000 42.11800
H  33.40000 63.32200 43.07900
H  29.64600 64.71100 39.58100
H  30.98600 65.53800 40.23900
H  28.52700 66.54400 40.32200
H  29.70900 66.97200 41.46400
H  28.49600 65.72800 41.90000
H  24.84100 62.44700 39.96900
H  25.61300 62.78100 41.48100
H  24.35800 61.57000 41.41700
H  26.10500 57.34500 38.01000
H  24.99200 54.17800 40.68800
H  24.10700 53.70700 39.24000
H  23.35900 54.82700 40.48800
Mg 6.60700 56.88700 41.39300
C  4.93700 53.70100 41.74200
C  9.23500 55.25600 40.20400
C  8.07300 59.92900 40.79000
C  3.56600 58.45200 42.36000
N  6.91500 54.70100 40.86800
C  6.17700 53.62300 41.09800
C  6.86800 52.38300 40.80500
C  8.29500 52.85300 40.47700
C  8.16300 54.35000 40.48600
C  9.45500 52.32100 41.28800
C  6.29500 51.60200 39.60200
C  6.90100 50.22500 39.30200
H  6.11400 49.38900 38.26100
N  8.44800 57.48200 40.46700
C  9.36900 56.59000 40.02500
C  10.49000 57.33800 39.47400
C  10.15500 58.76400 39.57100
C  8.83900 58.77700 40.33600
C  11.66100 56.72500 38.75300
C  10.90900 59.94100 39.08000
O  12.01700 59.76900 38.61800
C  10.46500 61.41500 39.13400
N  5.97300 58.85800 41.53600
C  6.74400 59.96900 41.26600
C  6.12700 61.22400 41.82400
C  4.65500 60.82600 42.18900
C  4.69300 59.25700 42.07500
C  6.88600 61.93600 42.95500
C  3.50000 61.40400 41.29400
C  2.45200 62.28600 42.04400
N  4.62700 56.23300 41.89900
C  3.50800 57.03500 42.27800
C  2.49100 56.12800 42.70900
C  3.02900 54.83900 42.59500
C  4.35800 54.98000 42.04100
C  1.19300 56.41800 43.23400
C  2.73400 53.48700 42.94600
O  1.81900 52.94400 43.49700
C  4.04300 52.64800 42.51800
C  3.51900 51.53400 41.75800
O  2.79600 51.63300 40.79500
O  3.78500 50.35900 42.40100
C  3.63700 49.10200 41.58900
H  10.24200 54.84600 40.10600
H  8.42800 60.95700 40.69200
H  2.72000 59.06700 42.67300
H  6.88500 51.80400 41.72800
H  8.44500 52.56400 39.43700
H  9.86400 53.13400 41.88700
H  10.23400 52.06300 40.57000
H  9.16300 51.55900 42.01000
H  6.36500 52.12600 38.64900
H  5.23700 51.50000 39.84500
H  6.86000 49.73300 40.27400
H  7.96000 50.30900 39.06200
H  11.68100 56.87400 37.67300
H  11.65400 55.64200 38.87600
H  12.64100 57.01200 39.13300
H  10.33900 61.74700 40.16400
H  9.52800 61.56900 38.59800
H  11.27400 61.93800 38.62500
H  6.00300 61.95200 41.02200
H  4.35700 61.01800 43.21900
H  6.30000 62.08900 43.86100
H  7.00800 62.95800 42.59700
H  7.88000 61.49100 42.99900
H  2.83500 60.62800 40.91400
H  3.83600 61.93300 40.40200
H  2.55200 63.26200 41.57000
H  2.69000 62.38100 43.10300
H  1.44800 61.87100 41.94800
H  1.20100 56.18000 44.29700
H  0.53800 55.65900 42.80400
H  0.81700 57.42700 43.06800
H  4.56700 52.27100 43.39600
H  4.64900 48.69700 41.56900
H  3.29200 49.05600 40.55700
H  3.07900 48.37200 42.17600

