158

Mg 6.59800 53.96900 41.79200
C  5.71200 50.72300 41.16600
C  9.71700 53.43600 40.42100
C  7.13300 57.35200 41.81100
C  3.20900 54.67200 42.74400
N  7.53100 52.31800 40.81900
C  7.02800 51.05900 40.60600
C  8.11200 50.09000 40.10100
C  9.44800 50.90500 40.35500
C  8.89600 52.29300 40.51800
C  10.32400 50.49900 41.58100
C  7.92500 49.60900 38.65600
C  6.95800 50.46800 37.77000
H  7.51900 51.39400 36.71400
N  8.13900 55.18000 41.31000
C  9.38800 54.72900 40.82400
C  10.28200 55.88800 40.60100
C  9.54700 57.00900 41.04000
C  8.22600 56.56900 41.40300
C  11.59600 55.87100 39.93100
C  10.18200 58.38200 41.23800
O  11.27100 58.73900 40.88400
C  9.43900 59.50900 41.92500
N  5.28700 55.75500 42.07500
C  5.81600 56.97400 42.10700
C  4.77900 58.08700 42.43400
C  3.42300 57.26400 42.44700
C  3.95600 55.79200 42.36800
C  5.05700 58.80000 43.79200
C  2.49100 57.65000 41.27200
C  0.96600 57.73400 41.53500
N  4.81300 52.98000 41.81700
C  3.51700 53.32200 42.39200
C  2.76200 52.12100 42.59000
C  3.53400 51.12500 41.99800
C  4.77700 51.74100 41.62100
C  1.42100 51.97800 43.21800
C  3.57200 49.70300 41.74400
O  2.75200 48.80900 41.99900
C  5.02700 49.37200 41.30300
C  4.97000 48.55400 40.04800
O  4.63200 48.87800 38.94400
O  5.28800 47.30400 40.38200
C  5.32500 46.25100 39.38000
H  10.72700 53.21000 40.07400
H  7.25900 58.43400 41.73600
H  2.22500 54.93300 43.14100
H  8.10200 49.25600 40.80300
H  10.14600 50.85400 39.51800
H  11.32700 50.27900 41.21600
H  9.95600 49.60000 42.07600
H  10.43800 51.30500 42.30700
H  7.67500 48.56000 38.81300
H  8.90700 49.54900 38.18700
H  6.25100 50.99800 38.40800
H  6.44500 49.66700 37.23800
H  11.48900 54.99300 39.29400
H  12.49700 55.70400 40.52000
H  11.64300 56.73600 39.26900
H  8.72200 59.97900 41.25200
H  10.23500 60.22800 42.11900
H  8.97300 59.19400 42.85800
H  4.80500 58.76500 41.58100
H  2.81400 57.35500 43.34700
H  4.24300 58.57800 44.48300
H  5.26300 59.85100 43.59100
H  5.94400 58.29900 44.18000
H  2.54200 56.84000 40.54500
H  2.79900 58.54900 40.73900
H  0.42900 57.53000 40.60900
H  0.72400 58.74500 41.86400
H  0.70200 56.99300 42.28900
H  1.40300 50.95700 43.60000
H  0.53200 52.00600 42.58800
H  1.30900 52.78600 43.94000
H  5.48700 48.85900 42.14700
H  4.42600 45.64400 39.48500
H  6.24100 45.66700 39.47200
H  5.42800 46.65700 38.37300
Mg 16.94700 51.54600 26.25500
C  18.77700 50.41100 28.87100
C  14.42700 52.52400 28.56900
C  15.02300 52.66500 23.62600
C  19.12200 50.22300 23.95600
N  16.63900 51.41500 28.50400
C  17.56400 50.97900 29.35000
C  17.27400 51.25400 30.84800
C  15.70800 51.67900 30.68500
C  15.52200 51.88900 29.16000
C  14.71700 50.63700 31.26900
C  18.17800 52.35500 31.54100
C  18.68900 52.06400 32.92200
H  17.75000 51.46900 33.98600
N  15.00900 52.46100 26.16600
C  14.13900 52.77300 27.18100
C  13.01100 53.50200 26.62900
C  13.23400 53.58000 25.23500
C  14.42400 52.83600 24.96800
C  11.94200 54.17300 27.47000
C  12.35800 54.30900 24.17800
O  12.70800 54.50200 23.01200
C  11.16400 55.10700 24.76300
N  17.02100 51.50200 24.08700
C  16.22500 52.11300 23.25700
C  16.59800 51.90300 21.82700
C  18.06700 51.39500 21.97800
C  18.07400 50.96700 23.39500
C  15.73100 51.01100 20.97700
C  19.13600 52.51700 21.81300
C  20.34800 52.06500 20.95700
N  18.53800 50.58800 26.32200
C  19.38600 50.04900 25.32500
C  20.47100 49.36400 25.95400
C  20.19700 49.52900 27.29000
C  19.06900 50.26600 27.47800
C  21.54400 48.70900 25.21600
C  20.76500 49.09500 28.53500
O  21.71600 48.36200 28.84300
C  19.96700 49.95700 29.63300
C  19.71400 48.94000 30.69600
O  18.79700 48.13900 30.68900
O  20.68200 48.94200 31.66800
C  20.53300 48.09100 32.83600
H  13.74900 52.93800 29.31800
H  14.58700 53.25300 22.81600
H  19.83700 49.76000 23.27200
H  17.33500 50.28000 31.33300
H  15.54300 52.64300 31.16600
H  14.18700 51.17300 32.05700
H  15.27800 49.84300 31.76300
H  14.04400 50.17400 30.54700
H  17.59100 53.27300 31.58500
H  19.12100 52.41600 30.99900
H  18.97800 53.08400 33.17400
H  19.67100 51.59400 32.87100
H  10.91800 53.91500 27.19900
H  12.17300 55.23800 27.45900
H  11.99200 53.94500 28.53500
H  11.31400 55.75400 25.62800
H  10.39900 54.34800 24.92300
H  10.75600 55.81800 24.04500
H  16.46200 52.86400 21.33100
H  18.33700 50.56900 21.32000
H  14.78100 50.71700 21.42500
H  16.29600 50.18000 20.55500
H  15.43100 51.71600 20.20200
H  19.61800 52.81900 22.74300
H  18.64000 53.38400 21.37600
H  20.72000 52.80300 20.24700
H  20.07500 51.26100 20.27300
H  21.28700 51.79000 21.43900
H  21.17200 48.24500 24.30300
H  22.11300 47.98100 25.79400
H  22.16600 49.58600 25.03900
H  20.56100 50.78200 30.02500
H  20.16000 48.81900 33.55800
H  21.56100 47.90600 33.14800
H  19.73200 47.35400 32.77400

