158

Mg 40.13100 9.78100 29.07700
C  42.23800 10.68700 31.75400
C  37.92500 8.54700 31.22000
C  38.26500 8.81000 26.44800
C  42.66500 10.79300 26.91100
N  40.21400 9.55400 31.22000
C  40.97600 10.18700 32.10700
C  40.40600 10.13900 33.57100
C  39.05100 9.38100 33.32200
C  39.04900 9.07200 31.81800
C  38.96300 8.06600 34.11200
C  40.27900 11.51500 34.31300
C  39.46300 11.45300 35.63900
H  40.34800 11.72700 36.87400
N  38.28400 8.82200 28.88900
C  37.54500 8.37300 29.87200
C  36.47200 7.56100 29.33000
C  36.54400 7.72300 27.97600
C  37.72600 8.46000 27.72100
C  35.46000 6.78900 30.19300
C  35.58400 7.23400 26.92700
O  35.83600 7.21600 25.72900
C  34.33800 6.60600 27.35100
N  40.44600 9.60000 26.91900
C  39.55100 9.28700 26.04200
C  39.99900 9.45400 24.55700
C  41.27700 10.34300 24.79900
C  41.51300 10.23800 26.30000
C  40.32300 8.06400 23.96000
C  41.18200 11.77200 24.18700
C  39.83900 12.56700 24.48400
N  42.10500 10.54200 29.22800
C  42.97500 10.98800 28.28000
C  44.14200 11.67100 28.93100
C  43.81500 11.58800 30.28000
C  42.60500 10.88000 30.39800
C  45.29100 12.24800 28.25700
C  44.32200 11.95200 31.56100
O  45.35800 12.52000 31.87300
C  43.24000 11.48800 32.57600
C  43.83100 10.54100 33.53700
O  44.26400 9.41700 33.33200
O  43.85100 11.03700 34.83800
C  43.91800 10.03300 35.92500
H  37.22800 8.08000 31.91900
H  37.60000 8.60300 25.60700
H  43.32000 11.15800 26.11700
H  41.02900 9.53600 34.23200
H  38.24900 10.02300 33.68700
H  39.75600 7.89100 34.84000
H  39.14000 7.22900 33.43600
H  37.92300 7.95600 34.41800
H  39.84800 12.34300 33.75000
H  41.29000 11.87000 34.51300
H  38.87500 10.53900 35.73200
H  38.72700 12.25400 35.57400
H  34.43600 7.16100 30.21500
H  35.85400 6.72900 31.20700
H  35.43400 5.75400 29.85100
H  33.76000 7.31100 27.94800
H  34.48200 5.71800 27.96700
H  33.65500 6.35300 26.54000
H  39.25900 9.97700 23.95200
H  42.15900 9.81300 24.43900
H  39.66900 7.85600 23.11300
H  40.31000 7.19700 24.62100
H  41.38900 7.96200 23.75900
H  41.40900 11.68100 23.12500
H  41.98200 12.31900 24.68500
H  39.29700 12.77300 23.56100
H  39.93400 13.58700 24.85600
H  39.20000 12.00200 25.16300
H  45.00800 12.79800 27.35900
H  46.01600 11.44000 28.16100
H  45.46400 13.04300 28.98200
H  42.80200 12.41500 32.94800
H  44.86200 9.49000 35.89100
H  43.17200 9.29500 35.63000
H  43.64000 10.41000 36.90900
Mg -11.79000 37.28400 41.79200
C  -9.72100 34.70600 40.76900
C  -9.54400 39.55100 40.60800
C  -14.25200 39.56800 42.03200
C  -14.14200 34.84600 42.95600
N  -9.98200 37.10500 40.58900
C  -9.24100 35.96600 40.38100
C  -7.91800 36.19900 39.57100
C  -7.82400 37.76200 39.84800
C  -9.18200 38.23500 40.38600
C  -6.62000 38.40600 40.68500
C  -7.99700 35.75100 38.04400
C  -6.82500 34.92300 37.41300
H  -6.24600 35.53600 36.17800
N  -11.83400 39.34100 41.34500
C  -10.73900 40.06900 40.95700
C  -11.21800 41.51100 40.93300
C  -12.66100 41.49600 41.25700
C  -12.97000 40.09400 41.60200
C  -10.33400 42.66800 40.60500
C  -13.56300 42.72300 41.35400
O  -13.11800 43.82100 41.06800
C  -15.01900 42.75400 41.85000
N  -13.93800 37.14100 42.29600
C  -14.70200 38.33800 42.31800
C  -16.23300 37.98800 42.65800
C  -16.12800 36.52400 43.13000
C  -14.64700 36.11600 42.80400
C  -16.94400 38.84200 43.69200
C  -17.23800 35.56200 42.43600
C  -18.22400 34.96400 43.48400
N  -11.95800 35.20100 41.84200
C  -12.88500 34.33400 42.48600
C  -12.30900 33.03000 42.52800
C  -11.00100 33.10600 41.94500
C  -10.90400 34.39800 41.42100
C  -12.97700 31.74100 43.07600
C  -9.75000 32.38000 41.70100
O  -9.38800 31.28700 42.06300
C  -8.90400 33.38000 40.74400
C  -7.59900 33.60500 41.25300
O  -7.29300 34.00300 42.32900
O  -6.70900 33.29200 40.29000
C  -5.33100 33.39700 40.80100
H  -8.74700 40.21800 40.27300
H  -15.03800 40.32600 42.04300
H  -14.89800 34.22500 43.44100
H  -7.08800 35.74500 40.11100
H  -7.65300 38.24300 38.88500
H  -6.08100 39.08600 40.02600
H  -5.86100 37.64000 40.84400
H  -6.99100 38.97600 41.53700
H  -8.16900 36.62300 37.41300
H  -8.90000 35.16300 37.87800
H  -7.26800 33.93900 37.26100
H  -6.04700 34.77700 38.16200
H  -10.67300 43.34400 39.82000
H  -9.35800 42.21600 40.42900
H  -10.13900 43.22200 41.52300
H  -15.70700 42.43000 41.06900
H  -15.18200 43.79900 42.11200
H  -15.17500 42.17900 42.76200
H  -16.82900 38.14600 41.75900
H  -16.24700 36.49800 44.21300
H  -17.65200 39.49300 43.17800
H  -16.29200 39.53200 44.22700
H  -17.57500 38.24900 44.35400
H  -16.72700 34.82900 41.81200
H  -17.77000 36.11400 41.66200
H  -17.86500 33.96400 43.72600
H  -19.24200 34.96800 43.09400
H  -18.29000 35.66300 44.31800
H  -12.29200 31.23300 43.75500
H  -13.04900 31.07500 42.21700
H  -13.89700 31.95900 43.61900
H  -8.85400 33.13400 39.68300
H  -4.99800 34.43400 40.78200
H  -4.66900 32.84800 40.13100
H  -5.05300 33.09200 41.81000

