158

Mg 41.23700 40.30200 26.89300
C  40.62200 43.14600 29.02300
C  42.02700 38.44800 29.72300
C  42.17500 37.90700 24.83100
C  40.85300 42.52700 24.14600
N  41.40200 40.76100 29.11600
C  41.00400 41.98500 29.78000
C  41.05000 41.74900 31.22200
C  41.51500 40.31100 31.46500
C  41.64900 39.78000 30.01200
C  42.68200 40.02500 32.46300
C  39.84200 42.27500 31.97300
C  39.59400 41.61500 33.36400
H  38.83800 42.51100 34.33500
N  41.84800 38.42700 27.23500
C  42.09200 37.86000 28.46400
C  42.50500 36.50500 28.25400
C  42.49000 36.33500 26.82400
C  42.24800 37.59300 26.20900
C  42.88900 35.55400 29.35600
C  42.87000 34.99200 26.04600
O  42.98400 34.89200 24.81600
C  43.08000 33.73000 26.81700
N  41.27400 40.19700 24.81900
C  41.83000 39.15400 24.19600
C  41.82600 39.35500 22.67600
C  41.08600 40.71500 22.46700
C  41.03100 41.18600 23.92000
C  43.18600 39.24500 22.00000
C  39.59700 40.64400 22.03300
C  38.59800 39.90200 22.95000
N  40.82300 42.41300 26.60400
C  40.75800 43.17200 25.40400
C  40.37300 44.47200 25.76700
C  40.25100 44.51300 27.13800
C  40.60400 43.27600 27.59300
C  40.08300 45.52100 24.84400
C  39.93300 45.39000 28.31500
O  39.42300 46.51300 28.39800
C  40.31100 44.59300 29.53400
C  41.49600 45.14300 30.22100
O  42.69300 44.97700 29.91000
O  41.10100 45.80700 31.33100
C  42.21000 46.26800 32.20400
H  42.15200 37.78000 30.57800
H  42.36200 37.12500 24.09300
H  40.68100 43.14500 23.26300
H  41.81000 42.43500 31.59500
H  40.69100 39.75600 31.91500
H  43.48000 39.69300 31.79900
H  42.32100 39.33100 33.22200
H  42.92400 40.91600 33.04200
H  38.99500 42.04600 31.32600
H  39.87600 43.36100 32.06600
H  40.46300 41.11600 33.79100
H  39.02900 40.77100 32.96700
H  42.44200 34.56400 29.44400
H  42.57800 35.82700 30.36400
H  43.97200 35.55300 29.48000
H  43.91200 33.83100 27.51400
H  43.33800 32.98200 26.06700
H  42.17700 33.46200 27.36600
H  41.28000 38.55900 22.16900
H  41.63700 41.36700 21.78900
H  44.07500 39.23000 22.63100
H  43.38900 40.08100 21.33100
H  43.24300 38.27600 21.50400
H  39.60100 40.09100 21.09400
H  39.13600 41.63100 22.05500
H  39.10000 39.04700 23.40200
H  37.82900 39.45100 22.32300
H  38.06400 40.62800 23.56300
H  40.96500 45.98800 24.40600
H  39.65900 46.37800 25.36600
H  39.43300 45.17500 24.04100
H  39.49800 44.47400 30.25100
H  42.58200 45.45000 32.82000
H  41.87900 47.05400 32.88400
H  42.91700 46.88700 31.65200
Mg -9.92100 17.55800 42.03100
C  -6.49600 16.88100 41.63800
C  -9.36000 20.73900 40.86500
C  -13.22600 17.95100 41.77700
C  -10.44800 14.05300 42.35700
N  -8.13200 18.63200 41.21900
C  -6.83600 18.17200 41.19300
C  -5.90200 19.32900 40.88500
C  -6.80300 20.58000 40.81800
C  -8.18100 19.97600 41.05800
C  -6.30200 21.73300 41.77400
C  -4.91300 19.07100 39.67700
C  -5.33100 18.22900 38.39800
H  -4.92000 18.85800 37.07300
N  -11.13300 19.16400 41.43700
C  -10.73800 20.40500 41.02700
C  -11.86600 21.27200 40.92600
C  -13.01200 20.49700 41.12500
C  -12.48400 19.15600 41.47400
C  -11.71200 22.78500 40.62000
C  -14.52100 21.02500 41.07100
O  -14.80300 22.08000 40.52500
C  -15.62800 20.21400 41.71700
N  -11.59800 16.14900 42.02000
C  -12.88800 16.60700 42.10700
C  -13.89300 15.46900 42.15900
C  -12.90200 14.28000 42.49300
C  -11.57300 14.85800 42.24300
C  -14.99500 15.77500 43.25300
C  -13.40400 13.07800 41.59100
C  -13.39500 11.71200 42.28100
N  -8.76200 15.78300 41.99800
C  -9.10700 14.47000 42.22000
C  -7.88800 13.66100 42.21600
C  -6.85100 14.58800 42.12500
C  -7.42200 15.84900 41.97300
C  -7.76100 12.17000 42.34700
C  -5.45900 14.69300 42.02500
O  -4.55800 13.83900 42.05900
C  -5.16300 16.21900 41.86000
C  -4.35600 16.59400 43.09900
O  -3.19600 16.33600 43.29300
O  -5.17400 17.18800 44.06200
C  -4.65800 17.32000 45.45300
H  -9.19500 21.78100 40.58500
H  -14.31500 17.98500 41.70300
H  -10.58000 12.99000 42.56700
H  -5.28500 19.37300 41.78200
H  -6.77700 21.04000 39.83000
H  -6.06200 22.57900 41.12900
H  -5.53100 21.35300 42.44400
H  -7.14700 22.07700 42.36900
H  -4.06700 18.57000 40.14700
H  -4.46200 19.99000 39.30300
H  -6.35400 17.86200 38.31800
H  -4.68500 17.35300 38.44600
H  -12.66300 23.27700 40.41700
H  -11.15700 22.86100 39.68500
H  -11.05100 23.19500 41.38300
H  -15.85100 19.40900 41.01700
H  -16.53300 20.81000 41.84100
H  -15.33500 19.73200 42.65000
H  -14.36100 15.33400 41.18400
H  -13.01400 14.19100 43.57300
H  -15.05300 15.01600 44.03300
H  -15.95200 15.80400 42.73200
H  -14.70700 16.73700 43.67600
H  -12.73100 13.17300 40.73800
H  -14.36400 13.27800 41.11500
H  -14.26100 11.10000 42.02800
H  -13.33400 11.60500 43.36400
H  -12.55600 11.10700 41.93900
H  -8.68300 11.69500 42.68200
H  -6.93100 11.90600 43.00200
H  -7.51100 11.72800 41.38300
H  -4.39600 16.28500 41.08800
H  -5.45100 17.33600 46.20100
H  -4.05300 18.22300 45.53500
H  -4.14900 16.43500 45.83700

