158

Mg 34.75900 2.50600 29.29900
C  32.87400 3.50800 31.94500
C  37.46700 1.89800 31.48600
C  36.86800 1.88700 26.68000
C  32.33200 3.60200 27.06100
N  35.13800 2.76300 31.51200
C  34.17400 3.20900 32.42300
C  34.82000 3.11000 33.82900
C  36.33200 2.67200 33.57800
C  36.36800 2.44700 32.11900
C  37.40900 3.61800 34.14400
C  34.04600 2.20700 34.77700
C  33.93700 2.72400 36.21500
H  35.04600 3.76300 36.73100
N  36.87400 1.81600 29.14300
C  37.73800 1.70800 30.18800
C  38.98900 1.23800 29.57400
C  38.86200 1.21500 28.15800
C  37.48000 1.64500 27.94300
C  40.22300 1.18500 30.37500
C  39.89000 0.70600 27.10600
O  39.61900 0.63400 25.92300
C  41.25800 0.20900 27.54400
N  34.56900 2.57500 27.17400
C  35.57800 2.28500 26.33100
C  35.15900 2.74300 24.90100
C  33.65200 3.14000 24.99100
C  33.47200 3.14400 26.49000
C  36.05000 3.83700 24.34000
C  32.58300 2.19100 24.34700
C  32.10600 0.87500 25.04800
N  32.96700 3.33800 29.43900
C  31.99000 3.62500 28.43400
C  30.77800 4.07900 29.05800
C  31.04500 4.04900 30.42200
C  32.40400 3.63100 30.67100
C  29.51200 4.49400 28.41700
C  30.51600 4.29400 31.78800
O  29.36500 4.54700 32.15600
C  31.64800 4.00800 32.79900
C  31.97200 5.31000 33.46900
O  32.64800 6.22600 32.95100
O  31.45800 5.27100 34.73400
C  31.51200 6.55500 35.51100
H  38.19500 1.53600 32.21600
H  37.50900 1.64500 25.83000
H  31.47000 3.85900 26.44200
H  34.76200 4.16500 34.10000
H  36.51000 1.70300 34.04500
H  37.99400 4.03900 33.32600
H  38.02800 3.04400 34.83400
H  37.07400 4.52500 34.64700
H  34.48100 1.22900 34.57200
H  33.07700 2.01000 34.31900
H  34.05600 1.88800 36.90400
H  32.96800 3.19500 36.37800
H  40.95900 1.78900 29.84400
H  40.60500 0.16500 30.34100
H  40.07000 1.63300 31.35700
H  41.17500 -0.68300 28.16500
H  41.92100 0.95200 27.98700
H  41.76300 0.09400 26.58500
H  35.07900 1.89900 24.21600
H  33.40100 4.09700 24.53400
H  36.95800 4.00600 24.91900
H  35.56500 4.81000 24.25600
H  36.50700 3.58200 23.38400
H  32.95900 1.86700 23.37700
H  31.69000 2.71900 24.01300
H  32.89500 0.35400 25.59100
H  31.83900 0.16700 24.26400
H  31.27300 1.01800 25.73700
H  29.71300 5.03500 27.49200
H  29.08300 5.22300 29.10500
H  28.87100 3.63100 28.23700
H  31.45100 3.27300 33.57900
H  31.57900 6.20800 36.54200
H  30.56800 7.03000 35.24600
H  32.43600 7.10800 35.34200
Mg 47.69600 25.50200 27.72900
C  48.71600 27.79400 30.24300
C  46.61100 23.40900 30.17500
C  47.26700 23.32400 25.48800
C  49.88500 27.23400 25.43400
N  47.71600 25.70100 29.95900
C  47.97100 26.74200 30.75300
C  47.35500 26.58500 32.16300
C  46.92300 25.11400 32.04800
C  46.95000 24.71000 30.59700
C  47.43100 24.13700 33.14900
C  46.22700 27.64500 32.44600
C  46.36300 28.45300 33.80300
H  45.23200 28.14800 34.78700
N  46.94700 23.68000 27.79600
C  46.62800 22.88700 28.87100
C  45.89800 21.68900 28.37400
C  45.90300 21.74000 27.03900
C  46.70400 22.99800 26.70400
C  45.27800 20.71800 29.35500
C  45.25200 20.83800 26.06800
O  45.37400 21.01100 24.85000
C  44.59000 19.54000 26.60800
N  48.59000 25.20200 25.79600
C  47.99400 24.31800 25.04300
C  48.47500 24.32800 23.59200
C  49.09700 25.72200 23.53100
C  49.23200 26.07200 24.99800
C  49.54100 23.26800 23.35400
C  48.21400 26.74800 22.84300
C  48.45400 26.95400 21.35200
N  49.01900 27.15500 27.74800
C  49.75800 27.76500 26.74800
C  50.33700 28.98400 27.33600
C  49.98200 29.05500 28.61400
C  49.17700 27.91900 28.86000
C  51.20700 29.91400 26.56000
C  50.02700 29.86900 29.76400
O  50.55400 30.94300 29.99700
C  49.17600 29.15000 30.90500
C  49.92800 29.07800 32.20800
O  51.02800 28.69000 32.32800
O  49.20900 29.75800 33.13800
C  49.85000 29.91600 34.44100
H  46.36000 22.68900 30.95800
H  47.09700 22.62000 24.67200
H  50.41600 27.79300 24.66000
H  48.08900 26.71600 32.95800
H  45.84400 25.05900 32.19400
H  46.57700 23.55600 33.49500
H  47.80100 24.58600 34.07100
H  48.20500 23.52500 32.68500
H  45.27900 27.11900 32.55500
H  46.15300 28.34200 31.61100
H  46.34600 29.53600 33.68100
H  47.28600 28.12500 34.28100
H  44.20200 20.74500 29.18800
H  45.61700 20.81200 30.38700
H  45.64800 19.75700 28.99700
H  43.80100 19.77700 27.32200
H  45.39800 18.98300 27.08300
H  44.26400 18.92700 25.76800
H  47.60500 24.18900 22.94900
H  50.05200 25.83400 23.01800
H  50.47300 23.76100 23.07700
H  49.18600 22.47300 22.69700
H  49.70200 22.71900 24.28200
H  48.19900 27.73900 23.29500
H  47.18000 26.47700 23.05200
H  47.53500 26.86700 20.77200
H  49.16100 26.21100 20.98400
H  48.95900 27.91800 21.29200
H  50.86500 29.93700 25.52500
H  52.21200 29.49400 26.55000
H  51.37200 30.88500 27.02700
H  48.27500 29.75000 31.02900
H  49.59700 29.09900 35.11700
H  49.46200 30.87000 34.79600
H  50.92500 30.07600 34.34900

