158

Mg 43.96800 42.36800 26.36700
C  42.93200 44.74500 28.82300
C  44.72800 40.20400 28.81600
C  45.02500 40.42400 24.04000
C  43.48000 44.98000 23.88800
N  43.62800 42.48200 28.65800
C  43.36500 43.54700 29.39200
C  43.28800 43.11300 30.87600
C  44.14700 41.76200 30.80500
C  44.17400 41.42400 29.30200
C  45.63400 41.81700 31.35100
C  41.80400 42.93900 31.31500
C  41.23400 43.83800 32.48100
H  42.08400 44.24300 33.69100
N  44.69400 40.50900 26.43000
C  44.99000 39.79300 27.51900
C  45.52200 38.52200 27.17300
C  45.62700 38.54600 25.76900
C  45.11600 39.89200 25.34100
C  45.93000 37.54800 28.23000
C  46.07300 37.45000 24.79200
O  46.13400 37.61700 23.58400
C  46.41500 36.15600 25.29900
N  44.28100 42.68000 24.25900
C  44.66100 41.66800 23.47500
C  44.68100 41.99500 21.98100
C  43.99200 43.38800 21.99200
C  43.92500 43.76600 23.48200
C  46.03800 41.80700 21.37200
C  42.59800 43.47800 21.22600
C  41.43200 42.75300 21.78800
N  43.29400 44.37500 26.31500
C  43.18800 45.30400 25.24700
C  42.74200 46.53500 25.77700
C  42.60900 46.35900 27.12000
C  42.91300 45.04200 27.43900
C  42.61400 47.81700 25.07400
C  42.37300 47.00600 28.34200
O  41.95800 48.14300 28.46900
C  42.49900 46.01000 29.47900
C  43.53600 46.66600 30.43800
O  44.70000 46.88600 30.29300
O  43.03900 46.87600 31.69800
C  43.97700 47.41900 32.73900
H  44.87600 39.58800 29.70500
H  45.34700 39.71600 23.27400
H  43.42200 45.81700 23.18900
H  43.94200 43.82200 31.38200
H  43.59300 41.04800 31.41500
H  46.34800 41.61900 30.55000
H  45.78000 41.09400 32.15300
H  45.83900 42.83400 31.68500
H  41.70600 41.91800 31.68500
H  41.08800 43.10500 30.51000
H  40.32800 43.27300 32.70100
H  40.84900 44.77100 32.07000
H  46.61300 36.78600 27.85400
H  45.14100 36.95300 28.69100
H  46.23000 38.10100 29.12000
H  45.81000 35.89700 26.16800
H  47.42800 36.29200 25.67800
H  46.26300 35.36200 24.56700
H  44.13800 41.20800 21.45800
H  44.65800 44.12000 21.53500
H  46.47500 42.80600 21.36200
H  45.94100 41.48100 20.33600
H  46.73700 41.27600 22.01800
H  42.81500 43.18500 20.19800
H  42.36700 44.54300 21.22000
H  40.55400 43.39600 21.74300
H  41.63100 42.47400 22.82300
H  40.93400 41.91100 21.30700
H  43.48100 48.02000 24.44500
H  42.52300 48.59200 25.83500
H  41.69900 47.81400 24.48100
H  41.58700 45.90600 30.06700
H  44.87700 46.84300 32.95300
H  43.51400 47.36700 33.72400
H  44.28800 48.44600 32.54500
Mg 27.49700 50.26900 26.98500
C  25.31700 51.44000 29.40500
C  29.77600 49.61100 29.40900
C  29.65000 49.56500 24.50200
C  25.33300 51.51700 24.58500
N  27.54900 50.56200 29.24500
C  26.43100 50.82600 30.01900
C  26.73300 50.68800 31.52700
C  28.28800 50.18500 31.47800
C  28.54200 50.11600 29.95500
C  29.38200 50.89900 32.34200
C  25.78700 49.64600 32.25400
C  25.12600 50.21900 33.45000
H  24.82900 49.31100 34.66000
N  29.40800 49.51400 26.96800
C  30.20100 49.36100 28.06200
C  31.52500 48.91900 27.66900
C  31.50900 48.99600 26.19800
C  30.17900 49.34500 25.81600
C  32.62700 48.64600 28.61800
C  32.71000 48.77900 25.26600
O  32.56300 48.83500 24.06400
C  34.08600 48.42400 25.78800
N  27.50500 50.46700 24.80700
C  28.46500 50.06800 24.00400
C  28.18900 50.43600 22.58300
C  26.68800 50.92600 22.60300
C  26.46300 50.92500 24.14200
C  29.29700 51.43800 22.08600
C  25.58200 50.11000 21.84600
C  24.90300 50.99000 20.72200
N  25.69900 51.24400 26.92000
C  24.94900 51.71300 25.91600
C  23.72700 52.26800 26.42700
C  23.81300 52.17600 27.78700
C  25.01000 51.54100 28.01900
C  22.61100 52.82400 25.57300
C  23.16500 52.47300 28.98800
O  22.05300 52.87500 29.25600
C  24.10600 52.03200 30.09700
C  24.36100 53.24700 30.90300
O  25.29800 54.02500 30.74500
O  23.43500 53.36000 31.97000
C  23.73200 54.35600 32.93100
H  30.47900 49.44000 30.22700
H  30.31700 49.40400 23.65200
H  24.59800 51.74400 23.81000
H  26.63800 51.65600 32.01900
H  28.31700 49.15500 31.83400
H  29.90000 51.58600 31.67400
H  30.05700 50.19400 32.82700
H  29.08800 51.53900 33.17400
H  26.28800 48.76300 32.65100
H  24.96700 49.37500 31.59000
H  24.15800 50.66500 33.22200
H  25.69400 51.09700 33.75900
H  32.44800 49.22700 29.52300
H  33.57300 49.01700 28.22400
H  32.72800 47.57300 28.77900
H  34.07000 47.62300 26.52700
H  34.42600 49.31800 26.31100
H  34.65900 48.21400 24.88400
H  28.30300 49.52000 22.00300
H  26.74000 51.96900 22.29300
H  28.78200 52.38800 21.94700
H  29.76300 51.12500 21.15200
H  30.07200 51.43100 22.85300
H  24.84100 49.87900 22.61100
H  25.81400 49.16900 21.34700
H  25.30600 51.99800 20.82600
H  23.84500 50.86100 20.94600
H  25.03700 50.67000 19.68900
H  22.89900 52.61400 24.54300
H  22.68100 53.91100 25.61200
H  21.60000 52.61600 25.92200
H  23.50700 51.34600 30.69500
H  23.81800 55.35000 32.49100
H  24.59800 54.15300 33.56000
H  22.82800 54.34800 33.54100

