158

Mg 2.02800 -1.82700 44.50700
C  5.32000 -1.06000 43.75700
C  1.06000 0.83500 42.42700
C  -1.14900 -2.73300 44.96300
C  3.04500 -4.96400 45.72000
N  3.09400 -0.32100 43.17800
C  4.43400 -0.21800 43.04600
C  4.85100 0.86800 42.00600
C  3.47200 1.47900 41.61900
C  2.45500 0.70300 42.49100
C  3.29400 3.03100 41.60900
C  5.67500 0.39700 40.75500
C  6.67400 1.47700 40.28400
H  6.30000 2.17300 39.01800
N  0.19100 -0.92400 43.96200
C  -0.03300 0.11400 43.10700
C  -1.48600 0.40800 43.02900
C  -2.11900 -0.62200 43.80100
C  -0.99300 -1.47900 44.30500
C  -1.91600 1.58400 42.26400
C  -3.64400 -0.78400 43.91600
O  -4.36200 -0.06600 43.29900
C  -4.26800 -1.86900 44.69400
N  1.07200 -3.68100 45.10600
C  -0.23900 -3.71800 45.38800
C  -0.70100 -5.07300 45.96800
C  0.70900 -5.77500 46.16200
C  1.66600 -4.82800 45.52800
C  -1.56200 -5.10700 47.23900
C  0.84100 -7.24100 45.53500
C  1.19000 -8.35500 46.51800
N  3.78500 -2.86300 44.80300
C  4.11100 -4.06500 45.38800
C  5.54500 -4.13400 45.56500
C  6.02900 -2.97000 44.94200
C  4.92700 -2.26800 44.45300
C  6.34300 -5.25100 46.09100
C  7.28800 -2.25700 44.60900
O  8.40100 -2.58100 44.97400
C  6.86900 -0.96500 43.76000
C  7.38700 0.17600 44.46200
O  7.00000 0.59700 45.53600
O  8.36400 0.74900 43.70300
C  9.07800 1.83100 44.38400
H  0.69700 1.62900 41.77100
H  -2.19200 -3.01700 45.11900
H  3.39600 -5.85100 46.25100
H  5.49600 1.54700 42.56400
H  3.27000 1.34200 40.55700
H  2.74300 3.46200 42.44500
H  3.09500 3.37800 40.59500
H  4.29200 3.37900 41.87400
H  5.03500 0.23400 39.88800
H  6.16200 -0.54600 41.00300
H  7.61500 0.94600 40.14000
H  6.73100 2.22600 41.07400
H  -2.06400 1.33600 41.21400
H  -1.23200 2.43100 42.32400
H  -2.88900 1.85000 42.67700
H  -5.35700 -1.84700 44.75100
H  -3.80700 -1.76900 45.67700
H  -3.97700 -2.80400 44.21600
H  -1.33100 -5.48200 45.17800
H  0.92100 -5.82200 47.23000
H  -1.75000 -4.08600 47.57000
H  -1.04700 -5.64700 48.03300
H  -2.58800 -5.35200 46.96200
H  1.63800 -7.17000 44.79500
H  0.01500 -7.44200 44.85200
H  1.44100 -7.98400 47.51200
H  2.13200 -8.76100 46.15000
H  0.40600 -9.11000 46.56700
H  7.40200 -5.04000 46.24200
H  6.23700 -6.09800 45.41300
H  6.04700 -5.36000 47.13400
H  7.40700 -1.10600 42.82300
H  8.39800 2.50600 44.90300
H  9.55200 2.46300 43.63300
H  9.77400 1.44000 45.12700
Mg 8.55800 4.35600 27.52900
C  9.79300 2.52700 30.37800
C  6.64900 6.22700 29.43700
C  7.38700 5.92400 24.72100
C  10.45000 2.09100 25.47900
N  8.23900 4.27400 29.70500
C  9.03400 3.62500 30.68000
C  8.64400 4.14500 32.05900
C  7.57500 5.22100 31.73400
C  7.48500 5.29600 30.19500
C  6.14500 4.98600 32.44700
C  9.78500 4.51600 33.06200
C  9.35300 4.70500 34.48700
H  10.16600 3.94100 35.55300
N  7.09700 5.81000 27.15100
C  6.55500 6.56600 28.06100
C  5.69400 7.64000 27.53200
C  5.85200 7.50600 26.11300
C  6.82500 6.41500 25.89200
C  4.80300 8.55300 28.38200
C  5.24900 8.28700 24.93700
O  5.42900 8.08600 23.72500
C  4.46900 9.49200 25.26900
N  8.82500 3.98800 25.43700
C  8.31600 4.80700 24.46500
C  8.91300 4.56100 23.03400
C  9.83700 3.34000 23.31500
C  9.76700 3.13000 24.84600
C  7.80000 4.30400 22.00700
C  11.30300 3.65900 22.95400
C  12.09500 2.47500 22.44700
N  9.91200 2.71900 27.77800
C  10.50800 1.85300 26.83900
C  11.25400 0.79300 27.51100
C  10.96000 1.02200 28.89200
C  10.12500 2.15800 29.04100
C  12.05600 -0.23800 26.87900
C  11.24300 0.53100 30.23700
O  11.84100 -0.45900 30.65700
C  10.54900 1.54800 31.20400
C  9.67900 0.94100 32.26800
O  8.75100 0.17400 32.04400
O  10.24500 1.27900 33.48800
C  9.54400 0.63300 34.61300
H  6.18900 6.86900 30.19100
H  7.21500 6.45900 23.78500
H  11.08000 1.45800 24.85100
H  8.13600 3.30000 32.52200
H  7.80800 6.21200 32.12500
H  5.60900 4.20900 31.90200
H  5.62100 5.94100 32.40500
H  6.29800 4.65800 33.47500
H  10.19400 5.45500 32.68900
H  10.65900 3.86600 33.05900
H  8.32400 4.35200 34.55800
H  9.42800 5.76500 34.72800
H  4.72300 8.36200 29.45200
H  3.78400 8.27000 28.11500
H  4.82400 9.62400 28.17900
H  4.13200 10.09700 24.42700
H  5.07700 10.19000 25.84500
H  3.58500 9.23900 25.85400
H  9.49400 5.47000 22.87300
H  9.45100 2.48500 22.76100
H  6.79300 4.52500 22.36000
H  7.70300 3.23400 21.82100
H  8.02900 4.89600 21.12200
H  11.84500 3.95800 23.85100
H  11.29100 4.47100 22.22700
H  11.59300 1.50800 22.44900
H  12.91900 2.30400 23.14000
H  12.41400 2.53600 21.40700
H  13.05500 0.18200 26.76400
H  11.75200 -0.50300 25.86700
H  12.10600 -1.09900 27.54600
H  11.39500 2.04400 31.67900
H  8.67400 1.14600 35.02500
H  10.38600 0.74300 35.29600
H  9.31600 -0.40200 34.35700

