158

Mg 26.50400 50.93600 26.76100
C  24.21400 51.85100 29.42300
C  28.70400 50.10500 29.06500
C  28.74800 50.38600 24.13200
C  24.37500 52.34800 24.63800
N  26.53800 51.21000 29.04600
C  25.48300 51.39300 29.90400
C  25.90900 51.33700 31.36700
C  27.48300 51.03400 31.25900
C  27.58800 50.72200 29.72400
C  28.49000 52.13200 31.69100
C  25.11300 50.13200 32.11700
C  24.62400 50.31700 33.61900
H  25.58700 50.53800 34.83400
N  28.47500 50.27300 26.62700
C  29.25900 49.95500 27.71900
C  30.57300 49.50100 27.25500
C  30.52600 49.64500 25.88300
C  29.22400 50.14200 25.46000
C  31.60800 49.02700 28.27500
C  31.66300 49.26100 24.92800
O  31.55400 49.46900 23.73700
C  32.97500 48.67700 25.51400
N  26.60500 51.25100 24.69300
C  27.49700 50.91500 23.83400
C  27.06800 51.20500 22.38400
C  25.62600 51.63400 22.53400
C  25.57600 51.81400 24.05900
C  28.03000 52.23000 21.57500
C  24.47900 50.68600 22.18100
C  23.29800 51.31400 21.50200
N  24.74400 51.90000 26.92200
C  24.00500 52.48700 25.93600
C  22.73500 53.00300 26.38200
C  22.84200 52.80300 27.78100
C  24.03500 52.09300 28.08500
C  21.61800 53.41700 25.52600
C  22.12100 52.91000 29.01800
O  20.99000 53.26900 29.23300
C  22.93200 52.21900 30.03800
C  23.13900 53.16600 31.13000
O  23.74900 54.20700 30.99000
O  22.37100 52.89100 32.27400
C  22.44600 53.84300 33.40700
H  29.37200 49.83200 29.88500
H  29.44600 50.20100 23.31300
H  23.64900 52.73100 23.91800
H  25.65400 52.25100 31.90300
H  27.72900 50.09800 31.76100
H  28.00200 52.66500 32.50700
H  28.78400 52.79900 30.88100
H  29.28600 51.46200 32.01600
H  25.71400 49.22300 32.15300
H  24.27400 49.86200 31.47600
H  24.12800 49.38100 33.87700
H  23.86700 51.08900 33.75700
H  32.62200 49.39000 28.10600
H  31.75100 47.94800 28.22900
H  31.26500 49.26800 29.28100
H  33.71000 48.48600 24.73200
H  32.76800 47.66800 25.86900
H  33.34400 49.39900 26.24200
H  27.05500 50.20100 21.96100
H  25.45800 52.48700 21.87600
H  28.93900 52.58500 22.06100
H  27.48700 53.11400 21.24100
H  28.39700 51.69300 20.70000
H  24.11300 50.12400 23.04000
H  24.85100 49.92000 21.50000
H  23.07300 50.67800 20.64600
H  23.41800 52.37600 21.29000
H  22.38700 51.26500 22.09700
H  20.82700 53.83900 26.14600
H  21.28900 52.57500 24.91600
H  21.97300 54.24300 24.91000
H  22.39500 51.34600 30.40900
H  23.42200 53.73500 33.88000
H  21.63000 53.69300 34.11500
H  22.30600 54.87700 33.09300
Mg 16.52500 52.07000 26.31400
C  18.52000 50.60200 28.85400
C  14.24700 52.93700 28.69300
C  14.77000 53.39000 23.82200
C  18.96900 50.98900 24.00400
N  16.44800 51.84200 28.52300
C  17.33600 51.11800 29.34700
C  16.88000 51.31500 30.88500
C  15.42700 51.88900 30.72300
C  15.43700 52.31300 29.23800
C  14.24000 50.87400 31.00600
C  17.81100 52.42700 31.53500
C  18.19600 52.06900 32.95400
H  17.37500 52.65000 34.09200
N  14.73800 52.97400 26.24900
C  13.94200 53.31300 27.36300
C  12.77800 54.06500 26.87000
C  12.93200 54.17200 25.46400
C  14.11800 53.40900 25.14400
C  11.69200 54.52300 27.89600
C  12.07100 54.97200 24.43100
O  12.19000 54.82100 23.22700
C  11.06500 55.86400 24.82900
N  16.76500 52.16300 24.26300
C  16.00100 52.93600 23.45100
C  16.40800 52.82100 21.98500
C  17.78000 52.12600 22.07800
C  17.91600 51.83100 23.52500
C  15.37000 52.23900 20.91200
C  18.95900 52.92600 21.42200
C  18.86800 52.79900 19.83300
N  18.33800 50.91200 26.35600
C  19.23100 50.70400 25.40100
C  20.39100 50.06800 25.88800
C  20.13700 50.00600 27.25400
C  18.90700 50.54400 27.52900
C  21.62400 49.57400 25.16300
C  20.65500 49.49900 28.55800
O  21.65300 48.83400 28.69600
C  19.62000 49.99900 29.68800
C  19.08800 48.91100 30.53600
O  18.38700 47.94500 30.19900
O  19.63300 49.15900 31.72900
C  19.45100 48.08200 32.73300
H  13.44200 53.23600 29.36800
H  14.24800 53.76300 22.93900
H  19.72900 50.76000 23.25400
H  16.93200 50.36000 31.40900
H  15.34100 52.77600 31.35000
H  14.60800 49.86600 31.20000
H  13.58800 50.78000 30.13700
H  13.57200 51.17600 31.81200
H  17.35600 53.40500 31.69100
H  18.64000 52.61800 30.85300
H  19.23000 52.32200 33.18500
H  18.20300 50.98000 32.96400
H  11.63500 53.96900 28.83300
H  10.70100 54.47400 27.44400
H  11.76600 55.57900 28.15700
H  11.54500 56.63600 25.43000
H  10.45000 55.20100 25.43600
H  10.58500 56.30800 23.95700
H  16.57000 53.85300 21.67200
H  17.74600 51.13500 21.62500
H  14.46400 51.97300 21.45700
H  15.82300 51.40900 20.36900
H  15.08100 53.04300 20.23600
H  19.90900 52.49100 21.73100
H  18.84400 53.98400 21.65800
H  18.71200 53.78600 19.39700
H  17.93500 52.24200 19.74300
H  19.67400 52.24900 19.34600
H  21.34100 49.23600 24.16600
H  21.91800 48.76400 25.83100
H  22.30800 50.41700 25.06100
H  20.01100 50.79400 30.32300
H  19.86900 47.11900 32.44000
H  18.44700 47.87600 33.10400
H  20.02000 48.32900 33.63000

