158

Mg 47.09300 16.20200 28.62200
C  44.87200 15.55000 31.29500
C  48.66900 18.48900 30.59200
C  48.75600 17.19900 25.84000
C  44.79100 14.47000 26.41800
N  46.71300 16.99800 30.79300
C  45.83600 16.45800 31.69000
C  46.16700 17.09800 33.07900
C  47.34900 18.04100 32.77500
C  47.57900 17.87100 31.29800
C  47.20700 19.60300 33.11200
C  46.43100 16.09500 34.20300
C  46.44000 16.56500 35.59600
H  47.66900 16.35000 36.56100
N  48.63600 17.49900 28.28200
C  49.14100 18.33400 29.24500
C  50.19000 19.13100 28.65300
C  50.23900 18.89100 27.23900
C  49.13300 17.82900 27.00000
C  51.11300 20.03300 29.44200
C  51.05000 19.53200 26.12200
O  50.88300 19.23900 24.91200
C  52.08300 20.56900 26.29200
N  46.86900 15.77300 26.52500
C  47.71400 16.31300 25.61000
C  47.24600 15.90600 24.18100
C  46.07900 14.94700 24.39900
C  45.85100 15.12700 25.85900
C  47.01400 17.08800 23.24000
C  46.26200 13.49200 23.93000
C  47.16800 12.46900 24.78600
N  45.21000 15.17700 28.77900
C  44.42600 14.52100 27.80700
C  43.26300 13.87800 28.47000
C  43.39300 14.19700 29.84600
C  44.57200 15.02100 29.95700
C  42.22400 13.11800 27.74500
C  42.86700 13.92800 31.16000
O  41.88700 13.25900 31.56300
C  43.84400 14.77000 32.12800
C  42.96000 15.68000 32.94500
O  42.23100 16.56700 32.51500
O  43.11200 15.32600 34.25700
C  42.23000 15.92600 35.29800
H  49.24900 19.18300 31.20400
H  49.36000 17.49100 24.97900
H  44.18400 13.90600 25.70700
H  45.40700 17.77700 33.46800
H  48.24600 17.81200 33.34900
H  48.15200 19.96200 33.52100
H  46.42600 19.73000 33.86200
H  46.94800 20.20100 32.23800
H  47.44800 15.75500 34.00600
H  45.83300 15.18500 34.14800
H  45.59400 16.19600 36.17600
H  46.38100 17.65100 35.67800
H  51.15100 19.79800 30.50600
H  50.86000 21.09100 29.37600
H  52.11000 19.72800 29.12600
H  51.54700 21.51100 26.40800
H  52.77400 20.61200 25.45000
H  52.66500 20.40700 27.19900
H  48.08900 15.33700 23.78900
H  45.17500 15.18100 23.83500
H  47.64300 17.94000 23.50000
H  46.02200 17.53800 23.20000
H  47.25500 16.85700 22.20300
H  46.77000 13.47100 22.96600
H  45.30200 13.02800 23.70600
H  47.52500 12.83900 25.74700
H  47.99400 12.12600 24.16300
H  46.59900 11.54900 24.92000
H  42.44600 12.05100 27.76500
H  42.19200 13.47600 26.71600
H  41.35100 13.51700 28.26000
H  44.41300 14.03000 32.69100
H  41.69000 15.15200 35.84200
H  41.50100 16.66100 34.95900
H  42.91400 16.34400 36.03700
Mg 47.63000 46.71800 44.50700
C  44.26500 46.29100 43.17800
C  48.49500 43.77500 43.09000
C  50.76300 47.65900 44.95100
C  46.47600 50.16300 45.15700
N  46.45900 45.25900 43.13500
C  45.15500 45.30100 42.74100
C  44.89400 43.95200 41.95600
C  46.13100 43.07300 42.19700
C  47.14500 44.10400 42.82700
C  45.90500 41.84900 43.09400
C  44.47800 44.19700 40.46400
C  43.07500 43.62800 39.95400
H  42.96900 42.31600 39.16000
N  49.40600 45.77300 44.24700
C  49.57600 44.51900 43.73000
C  50.99900 44.14600 43.90200
C  51.69800 45.31100 44.43600
C  50.65900 46.32600 44.53500
C  51.51000 42.81000 43.58300
C  53.21600 45.32000 44.74000
O  53.87200 44.28700 44.66600
C  53.85500 46.68600 44.95700
N  48.47100 48.64500 44.85800
C  49.84300 48.73800 44.95600
C  50.23000 50.14200 45.59800
C  48.85300 50.88200 45.72100
C  47.86400 49.83200 45.19700
C  50.91700 50.08100 46.97900
C  48.73900 52.24500 44.97900
C  48.45500 53.49600 45.82600
N  45.76500 47.90900 44.33000
C  45.52800 49.27300 44.61400
C  44.11700 49.48100 44.58400
C  43.52100 48.39600 43.95000
C  44.59100 47.49100 43.82300
C  43.43800 50.63500 45.16200
C  42.27800 47.69200 43.53500
O  41.11100 48.06000 43.56000
C  42.74900 46.26300 43.10000
C  42.18200 45.19700 43.94300
O  41.67800 44.18900 43.45900
O  42.23200 45.29500 45.27700
C  41.99000 44.11300 46.16700
H  48.79300 42.75100 42.85600
H  51.75300 48.02900 45.22400
H  46.15900 51.09400 45.63100
H  44.07600 43.43100 42.45200
H  46.59700 42.68300 41.29200
H  45.10700 41.15100 42.84100
H  45.65100 42.29700 44.05500
H  46.76000 41.18700 43.23200
H  45.25500 43.84900 39.78500
H  44.35700 45.28000 40.43200
H  42.88400 44.42800 39.24000
H  42.28500 43.68200 40.70400
H  51.80800 42.44000 44.56400
H  52.40400 42.91600 42.96800
H  50.81900 42.17400 43.03000
H  53.73800 47.43300 44.17200
H  54.91200 46.48800 45.13500
H  53.55300 47.05000 45.93900
H  50.83500 50.72900 44.90700
H  48.56500 50.94100 46.77000
H  51.93800 50.46100 46.93300
H  50.80700 49.05800 47.33700
H  50.45000 50.73000 47.72000
H  47.94800 52.24300 44.22900
H  49.66500 52.50600 44.46700
H  48.15700 53.22300 46.83800
H  47.74800 54.12600 45.28600
H  49.38100 54.04800 45.98800
H  43.89800 50.93400 46.10400
H  42.40600 50.31900 45.31100
H  43.29900 51.50200 44.51600
H  42.38300 46.03200 42.10000
H  40.99400 44.31000 46.56500
H  42.75800 43.93200 46.91900
H  41.80600 43.16800 45.65800

