158

Mg -10.39200 17.49200 40.96000
C  -6.69400 17.52700 40.62800
C  -10.17700 20.80600 40.25500
C  -13.64400 17.35200 40.21600
C  -10.21800 13.97400 41.07600
N  -8.56200 18.97100 40.59200
C  -7.22900 18.81200 40.49600
C  -6.51300 20.14100 40.13100
C  -7.57800 21.19500 40.50000
C  -8.87400 20.27000 40.47400
C  -7.39700 21.85700 41.86600
C  -5.98300 20.18200 38.62100
C  -4.55700 19.88500 38.37400
H  -4.33300 18.90600 37.29300
N  -11.76100 18.87600 40.42600
C  -11.50700 20.21600 40.17800
C  -12.72600 20.87500 39.88400
C  -13.76600 19.89300 39.87100
C  -13.06700 18.61200 40.12000
C  -12.66100 22.36800 39.44300
C  -15.26800 20.18700 39.61500
O  -15.69200 21.30200 39.55800
C  -16.28300 19.07500 39.60600
N  -11.78300 15.82500 40.73500
C  -13.06000 16.08700 40.52600
C  -13.84600 14.74800 40.43100
C  -12.72800 13.70800 40.82500
C  -11.45600 14.52700 40.83000
C  -15.09000 14.71300 41.28000
C  -12.52900 12.58800 39.74700
C  -13.74000 11.66800 39.51200
N  -8.82800 16.03500 40.99300
C  -9.00100 14.63100 41.07000
C  -7.67600 13.98000 41.10100
C  -6.73600 15.06900 41.05000
C  -7.52100 16.30000 40.87300
C  -7.30800 12.47400 41.15500
C  -5.31200 15.52000 41.17800
O  -4.34500 14.90700 41.53000
C  -5.23900 17.08100 40.85400
C  -4.50900 17.86200 41.81700
O  -3.45300 18.45100 41.60700
O  -5.18800 17.80500 43.02100
C  -4.59000 18.50100 44.21100
H  -10.11900 21.89000 40.38100
H  -14.70500 17.31100 39.96200
H  -10.14200 12.88500 41.10500
H  -5.64400 20.25300 40.77900
H  -7.75500 21.96400 39.74800
H  -6.43200 21.61900 42.31400
H  -8.27800 21.68200 42.48300
H  -7.28300 22.93400 41.74600
H  -6.10200 21.23300 38.35900
H  -6.65700 19.55300 38.04000
H  -3.99400 19.39700 39.17000
H  -3.98500 20.75100 38.04100
H  -13.63200 22.77100 39.15500
H  -12.01300 22.61000 38.60000
H  -12.26200 22.95100 40.27200
H  -16.02700 18.54500 38.68800
H  -17.23700 19.58900 39.49200
H  -16.14800 18.49700 40.51900
H  -14.11000 14.72700 39.37300
H  -12.92400 13.26500 41.80100
H  -15.96700 14.72400 40.63300
H  -15.04100 15.58700 41.93000
H  -15.17300 13.75100 41.78700
H  -11.71600 11.91600 40.02200
H  -12.29000 13.06900 38.79900
H  -13.98400 11.63000 38.45000
H  -14.62600 11.89900 40.10300
H  -13.60900 10.63300 39.82900
H  -6.89700 12.04300 40.24200
H  -8.17100 11.86900 41.43500
H  -6.55300 12.29500 41.92000
H  -4.79300 17.16000 39.86300
H  -5.41500 18.51700 44.92300
H  -4.05200 19.41300 43.95600
H  -3.77500 17.91900 44.64300
Mg -4.96800 25.94700 26.72900
C  -3.80400 27.52300 29.55900
C  -6.65200 23.83100 28.57200
C  -5.71200 24.32800 23.84200
C  -2.69400 27.97400 24.78900
N  -5.19500 25.75100 28.89600
C  -4.74600 26.53100 29.88400
C  -5.37400 26.18800 31.22000
C  -6.08900 24.78100 30.87300
C  -6.03000 24.78400 29.30800
C  -5.43200 23.50900 31.52500
C  -6.33100 27.27800 31.79200
C  -6.14000 27.67900 33.20400
H  -5.72700 26.66000 34.29600
N  -6.15100 24.39600 26.26700
C  -6.74300 23.64000 27.16300
C  -7.62900 22.65200 26.45300
C  -7.44000 22.84300 25.11900
C  -6.42900 23.97200 24.97500
C  -8.41500 21.56500 27.14400
C  -8.06800 22.10700 23.92200
O  -7.81000 22.53000 22.78900
C  -9.02000 20.93800 24.17200
N  -4.21600 26.12700 24.64200
C  -4.65700 25.25400 23.66900
C  -3.95500 25.42200 22.33500
C  -3.03900 26.62400 22.61800
C  -3.40100 27.01300 24.08400
C  -3.29600 24.18700 21.78700
C  -3.28100 27.79900 21.63300
C  -1.97900 28.12200 20.96300
N  -3.51400 27.51700 27.07700
C  -2.71600 28.22000 26.18600
C  -1.99500 29.17100 26.97900
C  -2.39000 28.97400 28.31500
C  -3.28300 27.93100 28.30300
C  -1.03000 30.23700 26.46200
C  -2.28400 29.38200 29.75000
O  -1.57700 30.26800 30.20800
C  -3.17300 28.43200 30.58400
C  -2.22800 27.68700 31.54000
O  -1.57800 26.67500 31.22900
O  -2.19500 28.29300 32.75300
C  -1.20000 27.71900 33.72900
H  -7.07400 23.01300 29.16000
H  -5.81400 23.71300 22.94600
H  -2.18800 28.74700 24.20700
H  -4.61700 25.99300 31.97900
H  -7.15800 24.73800 31.08400
H  -6.16200 22.89500 32.05300
H  -4.57600 23.84000 32.11300
H  -5.02800 22.88800 30.72600
H  -7.34900 26.91600 31.64300
H  -6.11000 28.18900 31.23500
H  -7.14200 27.98100 33.50900
H  -5.30500 28.37300 33.10600
H  -8.01400 20.58500 26.88300
H  -9.47400 21.73600 26.94700
H  -8.42900 21.72500 28.22200
H  -8.59900 20.26300 24.91600
H  -9.05400 20.45500 23.19500
H  -9.92400 21.48000 24.44900
H  -4.76400 25.69500 21.65800
H  -2.01200 26.26200 22.67000
H  -4.00000 23.74600 21.08100
H  -3.28000 23.47800 22.61400
H  -2.29600 24.32800 21.37700
H  -3.72600 28.63300 22.17400
H  -3.81800 27.46100 20.74600
H  -1.40100 28.73300 21.65600
H  -2.08100 28.35900 19.90400
H  -1.19100 27.37200 21.02800
H  -1.49200 30.97900 25.81000
H  -0.39000 29.78000 25.70700
H  -0.51200 30.67200 27.31700
H  -3.84700 29.06900 31.15600
H  -1.60400 26.74000 33.99000
H  -1.37400 28.25200 34.66400
H  -0.19600 27.69800 33.30700

