158

Mg 47.52300 25.40900 28.24800
C  48.23300 27.54900 30.95900
C  46.96300 22.79000 30.55200
C  47.24000 23.32400 25.61600
C  48.90900 27.84600 26.16300
N  47.55800 25.24800 30.44500
C  47.69600 26.29100 31.30900
C  47.38700 25.92900 32.72300
C  47.17500 24.33700 32.61600
C  47.25600 24.02100 31.10700
C  48.02000 23.38000 33.51200
C  46.24200 26.73200 33.30400
C  45.90400 26.54900 34.76100
H  45.83800 27.86100 35.63400
N  47.01700 23.37600 28.04900
C  46.85800 22.45000 29.13000
C  46.41200 21.27700 28.57100
C  46.43700 21.41700 27.09600
C  46.90700 22.75400 26.84200
C  46.00800 20.08200 29.36700
C  46.01500 20.46300 26.01200
O  46.07400 20.70600 24.77100
C  45.44200 19.14600 26.38600
N  48.16800 25.56900 26.19200
C  47.79200 24.61500 25.29100
C  48.01000 25.03300 23.90400
C  48.61600 26.40500 24.04300
C  48.57000 26.68900 25.52400
C  48.73700 23.92400 23.01500
C  47.87400 27.48400 23.24200
C  48.66100 28.77800 22.82500
N  48.33100 27.34700 28.40100
C  48.86600 28.19300 27.50600
C  49.44600 29.41000 28.17400
C  49.15700 29.22400 29.51900
C  48.50900 27.95300 29.59600
C  50.22600 30.50600 27.59500
C  49.24900 29.81400 30.86700
O  49.81600 30.82200 31.22900
C  48.50200 28.83100 31.81600
C  49.48600 28.55500 32.93000
O  50.61200 28.17300 32.83700
O  48.80200 28.76800 34.01300
C  49.53800 28.53500 35.27500
H  46.77900 22.06100 31.34500
H  47.10400 22.72800 24.71100
H  49.32200 28.58500 25.47200
H  48.30100 26.20800 33.24700
H  46.14100 24.23600 32.94700
H  47.42200 22.54800 33.88400
H  48.62000 23.93700 34.23200
H  48.73800 22.77600 32.95700
H  45.32700 26.44700 32.78600
H  46.42400 27.80000 33.17600
H  46.46000 25.76900 35.28300
H  44.92200 26.07800 34.78200
H  46.72000 19.28500 29.15600
H  44.96900 19.78900 29.21400
H  46.06900 20.22300 30.44600
H  44.50700 19.18900 26.94400
H  46.18000 18.51700 26.88400
H  45.26700 18.70900 25.40300
H  46.96500 25.03800 23.59400
H  49.66700 26.40800 23.75400
H  48.96300 23.20100 23.79800
H  49.69800 24.23200 22.60300
H  48.02300 23.59400 22.26100
H  46.96700 27.78600 23.76600
H  47.40500 27.06700 22.35100
H  49.73600 28.66100 22.96600
H  48.24700 29.60600 23.39900
H  48.59700 29.01400 21.76200
H  51.26000 30.56000 27.93600
H  49.62000 31.35500 27.91200
H  50.40000 30.49900 26.51900
H  47.56500 29.29300 32.12900
H  49.12700 29.18700 36.04600
H  50.56800 28.88700 35.33000
H  49.35100 27.50100 35.56400
Mg -5.15900 25.23100 26.87500
C  -4.15300 26.88000 29.87900
C  -7.05900 23.06300 28.89900
C  -5.58100 23.32600 24.11600
C  -2.92400 27.24800 25.19200
N  -5.64700 25.14400 29.08500
C  -5.07900 25.83200 30.13200
C  -5.54300 25.38300 31.53600
C  -6.24900 24.03200 31.16800
C  -6.44900 24.11600 29.63600
C  -5.44700 22.75200 31.55800
C  -6.51200 26.33800 32.17600
C  -6.55500 26.32500 33.71400
H  -5.84500 25.17700 34.53700
N  -6.31300 23.68800 26.59400
C  -7.06200 22.93600 27.45900
C  -7.98500 22.07500 26.66000
C  -7.52500 22.08300 25.32300
C  -6.30900 22.96900 25.32300
C  -9.15500 21.29100 27.26200
C  -8.17200 21.46700 24.09300
O  -7.72200 21.57200 22.91700
C  -9.44400 20.58500 24.18100
N  -4.36900 25.28500 24.95300
C  -4.63700 24.34200 23.99100
C  -4.08800 24.80500 22.60400
C  -3.39000 26.15100 22.94300
C  -3.62000 26.28700 24.42600
C  -3.14800 23.75100 21.98500
C  -3.75400 27.38800 22.02200
C  -2.79600 27.61100 20.77700
N  -3.83300 26.77900 27.37200
C  -3.06600 27.56400 26.54700
C  -2.45000 28.63000 27.31800
C  -2.82800 28.40600 28.67800
C  -3.62200 27.27900 28.65900
C  -1.65200 29.70500 26.78300
C  -2.71100 28.80700 30.10100
O  -2.07900 29.74300 30.58900
C  -3.52000 27.77900 30.89600
C  -2.53000 27.03500 31.71100
O  -1.62400 26.29500 31.34500
O  -2.72000 27.40900 33.01300
C  -1.89000 26.74300 33.95100
H  -7.69700 22.37700 29.46000
H  -5.73700 22.70400 23.23200
H  -2.32900 28.05200 24.75400
H  -4.70900 25.10400 32.18000
H  -7.25400 23.86700 31.55800
H  -5.97900 22.17800 32.31700
H  -4.43000 23.08800 31.76100
H  -5.39300 22.05100 30.72500
H  -7.46200 25.91900 31.84200
H  -6.35600 27.30300 31.69200
H  -7.56200 26.28600 34.12800
H  -6.23000 27.25900 34.17300
H  -8.99600 20.21300 27.26600
H  -10.07200 21.33400 26.67400
H  -9.32000 21.65900 28.27500
H  -9.51100 19.85700 24.99000
H  -9.52400 19.96400 23.28900
H  -10.33800 21.19600 24.30200
H  -4.98000 25.01200 22.01200
H  -2.30500 26.04500 22.94900
H  -2.10300 23.92700 21.73300
H  -3.55300 23.54100 20.99500
H  -3.20700 22.88600 22.64600
H  -3.82300 28.21700 22.72600
H  -4.77400 27.39500 21.63900
H  -2.31500 26.69400 20.43800
H  -2.04100 28.34100 21.06800
H  -3.29700 28.18300 19.99500
H  -1.90800 30.21200 25.85300
H  -0.64000 29.32000 26.65300
H  -1.79100 30.36800 27.63700
H  -4.30400 28.21700 31.51400
H  -0.82500 26.97000 33.89100
H  -2.07000 25.67000 33.89400
H  -2.18900 26.89000 34.98800

