158

Mg 16.79300 52.56000 25.40200
C  18.21400 51.43500 28.32400
C  14.34800 53.94000 27.31400
C  15.09400 53.06900 22.56000
C  19.15500 50.66400 23.54300
N  16.36100 52.54300 27.63600
C  17.23000 52.29900 28.61300
C  16.60100 52.57900 30.01600
C  15.30600 53.44200 29.60100
C  15.33500 53.39700 28.09400
C  13.94500 52.88600 30.19700
C  17.58100 53.32700 31.02500
C  17.37800 53.40900 32.55300
H  16.27000 52.41400 33.07600
N  15.05200 53.45400 24.97600
C  14.14300 53.91700 25.91500
C  12.98300 54.46600 25.22000
C  13.17500 54.25300 23.81900
C  14.45300 53.53300 23.73900
C  11.83400 55.27400 25.97600
C  12.30400 54.71500 22.66600
O  12.50000 54.43200 21.47500
C  11.08200 55.59000 22.97000
N  17.18800 52.11600 23.33700
C  16.29100 52.37800 22.37800
C  16.68400 51.72400 21.08100
C  18.11000 51.14900 21.30700
C  18.15000 51.31300 22.84400
C  15.69700 50.58000 20.61900
C  19.39500 51.83800 20.68500
C  19.83000 51.20700 19.40900
N  18.33800 51.30900 25.81700
C  19.30100 50.68600 24.97700
C  20.32400 50.06500 25.77900
C  19.85600 50.25100 27.09000
C  18.71600 51.07900 27.04700
C  21.56400 49.30700 25.38800
C  20.17200 50.06400 28.53200
O  21.10700 49.44400 29.02000
C  19.12300 50.77700 29.35700
C  18.58500 49.72900 30.37100
O  17.90700 48.68500 30.12400
O  19.03900 50.03100 31.60500
C  18.94600 49.03300 32.60700
H  13.54400 54.30900 27.95300
H  14.67800 53.25800 21.56800
H  19.85400 50.01500 23.01000
H  16.31300 51.60200 30.40400
H  15.24200 54.49000 29.89400
H  13.19000 52.55600 29.48400
H  13.45500 53.62000 30.83600
H  14.16800 52.02100 30.82200
H  17.43900 54.33800 30.64400
H  18.63200 53.10100 30.84500
H  17.25300 54.44900 32.85400
H  18.28100 53.02200 33.02500
H  11.45100 56.15400 25.45800
H  12.15000 55.49600 26.99600
H  11.01600 54.56800 26.11900
H  10.55400 55.80800 22.04200
H  11.41800 56.56300 23.32800
H  10.45200 55.09300 23.70800
H  16.68900 52.52400 20.34100
H  18.01400 50.08600 21.08800
H  14.64200 50.75200 20.83400
H  15.99800 49.61000 21.01500
H  15.77200 50.46600 19.53800
H  20.14500 51.92300 21.47100
H  19.03500 52.85200 20.51100
H  20.78500 50.71400 19.58800
H  20.16700 51.98300 18.72000
H  19.07800 50.52300 19.01500
H  21.58800 49.18100 24.30600
H  21.49900 48.28700 25.76800
H  22.45600 49.86000 25.68100
H  19.49100 51.52600 30.05800
H  19.53200 49.44200 33.42900
H  19.36700 48.08200 32.27700
H  17.92700 48.84300 32.94300
Mg -10.63400 16.64600 43.11600
C  -7.12800 17.23600 42.86700
C  -11.14800 19.94400 42.58900
C  -13.76100 15.97800 43.32500
C  -9.94700 13.20400 43.58600
N  -9.23000 18.42100 42.60100
C  -7.91500 18.42800 42.63600
C  -7.36600 19.83900 42.31400
C  -8.61200 20.76500 42.56100
C  -9.72600 19.70800 42.49000
C  -8.62600 21.56000 43.91700
C  -6.82100 20.04500 40.89900
C  -5.47200 20.84000 40.91700
H  -4.28800 20.08300 40.26500
N  -12.25400 17.73800 42.77100
C  -12.30300 19.11100 42.55400
C  -13.65600 19.52000 42.47400
C  -14.45900 18.40100 42.87300
C  -13.50400 17.32400 43.08000
C  -14.06900 20.91700 42.02000
C  -16.03700 18.36800 42.94000
O  -16.64300 19.28600 42.42400
C  -16.81100 17.21400 43.49800
N  -11.77000 14.72100 43.14700
C  -12.97300 14.83500 43.49800
C  -13.59800 13.46100 43.76700
C  -12.38600 12.50100 43.65500
C  -11.28200 13.49500 43.43100
C  -14.43400 13.41000 45.09400
C  -12.36700 11.48400 42.43400
C  -12.49500 10.00100 42.73400
N  -8.91100 15.37700 43.15700
C  -8.80900 14.02300 43.40100
C  -7.36500 13.72200 43.51400
C  -6.68200 14.89400 43.25300
C  -7.64200 15.94800 43.10000
C  -6.86900 12.31400 43.86300
C  -5.36000 15.51200 43.11700
O  -4.22900 15.00500 43.22700
C  -5.58600 17.01400 43.01000
C  -5.06800 17.50400 44.29500
O  -5.62900 17.35300 45.40100
O  -3.90600 18.15600 44.05500
C  -3.34800 18.65700 45.30400
H  -11.37600 20.97800 42.32400
H  -14.83200 15.77400 43.26200
H  -9.81000 12.20200 43.99900
H  -6.65900 20.25500 43.03200
H  -8.72200 21.52900 41.79200
H  -7.91500 21.08200 44.59100
H  -9.61600 21.62900 44.36800
H  -8.32600 22.58900 43.71900
H  -7.53700 20.66500 40.36000
H  -6.66600 19.03300 40.52600
H  -5.07200 21.09000 41.90000
H  -5.68200 21.79800 40.44100
H  -14.88300 21.28800 42.64300
H  -14.41000 20.69800 41.00800
H  -13.33200 21.71500 41.93300
H  -17.81900 17.47800 43.82100
H  -16.32700 16.85100 44.40500
H  -16.90800 16.42100 42.75700
H  -14.23700 13.30700 42.89800
H  -12.26200 12.02400 44.62700
H  -15.28400 14.07100 44.92600
H  -13.89400 13.82100 45.94700
H  -14.61900 12.35900 45.31800
H  -11.35200 11.61200 42.05700
H  -13.03100 11.80700 41.63200
H  -13.47900 9.75300 43.13100
H  -11.56500 9.80100 43.26700
H  -12.37300 9.52600 41.76000
H  -6.06900 12.40800 44.59700
H  -6.53200 11.73100 43.00500
H  -7.71300 11.83500 44.35800
H  -5.01600 17.42700 42.17800
H  -2.33900 19.04700 45.17700
H  -3.23000 17.82000 45.99100
H  -4.01000 19.46400 45.61700

