158

Mg -2.51400 17.09100 26.11200
C  -2.96500 14.90800 28.84800
C  -2.96500 19.74200 28.05700
C  -2.17400 18.88400 23.26700
C  -2.72200 14.12100 23.91200
N  -3.00500 17.29000 28.27700
C  -3.02500 16.24800 29.18900
C  -3.30400 16.85100 30.60500
C  -3.28100 18.41400 30.32700
C  -3.05600 18.50300 28.77900
C  -4.49600 19.20100 30.78200
C  -2.42300 16.30100 31.77000
C  -2.20600 17.28000 32.94200
H  -2.27000 16.70500 34.36500
N  -2.55800 19.04300 25.78300
C  -2.74300 20.02900 26.69500
C  -2.81400 21.33300 26.10600
C  -2.50300 21.04900 24.67600
C  -2.32900 19.57400 24.52500
C  -3.08800 22.67000 26.73800
C  -2.53000 22.06100 23.49300
O  -2.09400 21.79300 22.39700
C  -2.78500 23.52900 23.73700
N  -2.53800 16.53800 23.80400
C  -2.23600 17.50500 22.94600
C  -2.08700 16.98200 21.56300
C  -2.01400 15.42100 21.76900
C  -2.49200 15.30800 23.28600
C  -3.18700 17.43500 20.55100
C  -0.58300 14.86900 21.33200
C  0.62000 15.25900 22.26100
N  -2.61100 15.00100 26.33000
C  -2.77100 13.98600 25.32800
C  -3.09800 12.68800 26.01500
C  -3.08500 13.08200 27.37000
C  -2.81000 14.43500 27.50400
C  -3.40000 11.34900 25.38200
C  -3.28500 12.56300 28.73700
O  -3.53900 11.37500 29.07100
C  -3.10300 13.70300 29.71300
C  -1.97300 13.39000 30.64000
O  -0.78400 13.50900 30.44800
O  -2.53400 12.82700 31.73300
C  -1.61600 12.43700 32.81500
H  -2.97000 20.58900 28.74500
H  -1.91100 19.47400 22.38700
H  -2.71400 13.24400 23.26100
H  -4.35000 16.57600 30.73800
H  -2.41500 18.95500 30.70800
H  -4.24800 20.18300 31.18400
H  -5.06500 18.54500 31.44000
H  -5.25100 19.22500 29.99600
H  -1.43500 16.16600 31.32800
H  -2.88600 15.35300 32.04600
H  -2.93500 18.09000 32.94600
H  -1.26800 17.82500 32.82900
H  -2.18100 23.18700 27.05000
H  -3.54400 22.59400 27.72500
H  -3.64700 23.31400 26.05900
H  -3.85200 23.46400 23.94800
H  -2.63200 23.93900 22.73800
H  -2.19200 24.00700 24.51700
H  -1.07000 17.26700 21.29100
H  -2.71200 14.78800 21.22000
H  -3.76100 18.24400 21.00400
H  -3.92400 16.66900 20.30800
H  -2.80700 17.81300 19.60200
H  -0.33900 15.39500 20.40900
H  -0.56800 13.77900 21.32000
H  1.06000 14.29500 22.51600
H  0.29600 15.80700 23.14600
H  1.39500 15.69400 21.63000
H  -4.22600 10.86700 25.90600
H  -2.52400 10.72900 25.57300
H  -3.75100 11.40500 24.35200
H  -4.01300 13.78600 30.30700
H  -0.93100 13.24800 33.05900
H  -1.05600 11.56900 32.46700
H  -2.26500 12.09200 33.62000
Mg -0.68400 7.64900 25.39400
C  0.49700 9.21300 28.30600
C  -0.98400 4.67400 27.05600
C  -1.21400 6.08600 22.40900
C  -0.02500 10.54400 23.66800
N  -0.17100 6.97100 27.40300
C  0.04200 7.88100 28.41300
C  -0.11500 7.17800 29.74300
C  -0.47700 5.61100 29.40500
C  -0.61800 5.76000 27.87600
C  0.65300 4.57100 29.74500
C  -1.06000 7.72900 30.83900
C  -0.32600 7.71000 32.27400
H  0.75900 6.59800 32.50400
N  -1.03300 5.64300 24.77700
C  -1.16000 4.52000 25.62700
C  -1.50800 3.30300 24.93900
C  -1.46300 3.67700 23.58000
C  -1.24600 5.17600 23.53100
C  -1.72500 1.98700 25.68800
C  -1.69000 2.86500 22.34200
O  -1.58300 3.35200 21.24900
C  -2.01500 1.43400 22.36400
N  -0.58500 8.24500 23.30100
C  -1.02000 7.47800 22.32000
C  -1.20100 8.27400 21.04100
C  -1.01200 9.75000 21.46000
C  -0.50400 9.53000 22.90600
C  -0.12600 7.85800 19.86100
C  -2.29800 10.69700 21.51600
C  -2.49000 11.59600 20.33000
N  0.12000 9.53500 25.87400
C  0.35800 10.60700 25.06800
C  0.90100 11.70600 25.85300
C  0.86500 11.15200 27.19900
C  0.41600 9.87700 27.13400
C  1.19900 13.11900 25.41900
C  1.23200 11.49200 28.53900
O  1.70500 12.51200 29.01400
C  0.93800 10.15800 29.33800
C  2.18000 9.62600 30.01600
O  3.08100 9.17300 29.36300
O  2.16400 9.89200 31.37200
C  3.43100 9.72100 32.10300
H  -0.95300 3.71100 27.57000
H  -1.51100 5.67300 21.44200
H  -0.02200 11.50400 23.14700
H  0.90600 7.09700 30.11600
H  -1.41400 5.30700 29.87300
H  1.48800 4.90400 30.36200
H  1.11400 4.30500 28.79300
H  0.12000 3.72000 30.16800
H  -1.98100 7.14500 30.83200
H  -1.16100 8.78300 30.58100
H  -1.01500 7.61100 33.11300
H  0.05900 8.71600 32.44800
H  -1.92400 2.28400 26.71800
H  -0.79800 1.43600 25.53100
H  -2.54200 1.41000 25.25600
H  -1.41900 0.91700 23.11700
H  -1.76000 0.95900 21.41700
H  -3.08400 1.36200 22.56300
H  -2.18900 8.10700 20.61200
H  -0.24600 10.27700 20.89100
H  0.75900 7.35600 20.25100
H  0.15300 8.72700 19.26600
H  -0.58700 7.15700 19.16500
H  -2.28400 11.30200 22.42200
H  -3.18300 10.06500 21.58900
H  -3.26400 11.14100 19.71100
H  -1.61100 11.62700 19.68700
H  -2.80400 12.57200 20.70100
H  0.24700 13.60500 25.20500
H  1.99400 13.13100 24.67400
H  1.59400 13.74600 26.21800
H  0.14700 10.32800 30.06800
H  3.63600 10.72000 32.48700
H  4.26000 9.41800 31.46300
H  3.46600 9.02800 32.94400

