158

Mg -12.59100 16.80400 41.34200
C  -9.76800 14.81400 40.81600
C  -10.91000 19.43700 39.97600
C  -15.34000 18.50000 41.26100
C  -14.32100 13.75600 42.13600
N  -10.51500 17.15400 40.46200
C  -9.58900 16.11700 40.37300
C  -8.32300 16.69000 39.78200
C  -8.59000 18.25500 39.52600
C  -10.09500 18.32500 39.99000
C  -7.78000 19.29000 40.32100
C  -7.92400 15.93700 38.46100
C  -6.51800 15.28600 38.38100
H  -5.69100 15.64200 37.12200
N  -13.07200 18.75900 40.79700
C  -12.20000 19.68300 40.29000
C  -12.91300 20.95300 39.97500
C  -14.27800 20.75400 40.40500
C  -14.30800 19.30200 40.83700
C  -12.24900 22.08300 39.35300
C  -15.43000 21.69900 40.49900
O  -15.37300 22.83600 40.08000
C  -16.69200 21.35200 41.15000
N  -14.61200 16.09900 41.47000
C  -15.59300 17.14700 41.55000
C  -16.96900 16.58900 41.91200
C  -16.49000 15.11400 42.37400
C  -15.09500 14.93500 41.90500
C  -17.70800 17.44700 42.95800
C  -17.48000 14.00600 41.90200
C  -18.36200 13.23900 42.93700
N  -12.18900 14.73500 41.48900
C  -12.98400 13.62500 41.76300
C  -12.19300 12.46300 41.69300
C  -10.89100 12.83400 41.30700
C  -10.95800 14.21100 41.19800
C  -12.54200 11.07000 41.99300
C  -9.54200 12.29700 41.07200
O  -8.99500 11.18200 41.32000
C  -8.76100 13.65800 40.73800
C  -7.62500 13.83500 41.79900
O  -7.72900 13.77000 43.02500
O  -6.41200 14.17000 41.19100
C  -5.18300 14.28900 42.06000
H  -10.36700 20.30500 39.59400
H  -16.29400 19.02800 41.19800
H  -14.77500 12.82100 42.47000
H  -7.59200 16.74200 40.58900
H  -8.53500 18.46600 38.45800
H  -7.26000 19.87400 39.56100
H  -7.04400 18.86400 41.00200
H  -8.36000 20.00000 40.91000
H  -8.07600 16.62100 37.62700
H  -8.68600 15.19900 38.21000
H  -6.55700 14.19700 38.38800
H  -5.91100 15.55500 39.24500
H  -11.63300 21.85100 38.48400
H  -11.41100 22.37800 39.98400
H  -12.78300 23.01400 39.16500
H  -16.57300 20.87400 42.12300
H  -17.28600 20.69700 40.51300
H  -17.25700 22.27500 41.28400
H  -17.49200 16.52700 40.95700
H  -16.73400 15.17900 43.43400
H  -18.01500 16.79900 43.77900
H  -18.60500 17.87700 42.51300
H  -17.02100 18.22200 43.29700
H  -16.82700 13.37800 41.29600
H  -18.20000 14.49100 41.24400
H  -18.20200 12.19100 42.68600
H  -19.37500 13.63300 42.86200
H  -17.96700 13.44000 43.93300
H  -13.29600 10.81500 41.24800
H  -13.01700 11.08200 42.97300
H  -11.77300 10.30300 41.89800
H  -8.23100 13.50900 39.79800
H  -4.63900 13.35100 42.17600
H  -5.40700 14.68600 43.05000
H  -4.48100 15.01800 41.65600
Mg -5.91300 25.62100 25.65600
C  -4.15500 26.66300 28.51800
C  -7.92300 23.70700 27.66400
C  -7.28300 24.09600 22.84900
C  -3.75100 27.32300 23.62500
N  -5.98800 25.19300 27.86300
C  -5.19800 25.79900 28.79900
C  -5.75500 25.30400 30.16800
C  -6.74400 24.15400 29.85900
C  -6.92600 24.35400 28.37900
C  -6.24000 22.71400 30.10100
C  -6.30900 26.52800 30.99600
C  -5.58100 26.79600 32.38600
H  -4.81700 25.56600 32.96500
N  -7.44500 24.20600 25.29500
C  -8.22600 23.64800 26.30200
C  -9.15700 22.72900 25.74500
C  -9.04200 22.80100 24.32200
C  -7.91200 23.76200 24.07100
C  -10.20000 21.95800 26.58000
C  -9.82400 22.11700 23.27400
O  -9.63900 22.25400 22.05100
C  -10.85700 21.12200 23.64400
N  -5.71400 25.84700 23.56400
C  -6.26800 25.01900 22.56600
C  -5.63400 25.18000 21.23000
C  -4.72400 26.38700 21.40600
C  -4.75100 26.62600 22.97000
C  -4.99600 23.86200 20.61900
C  -5.06200 27.65300 20.53700
C  -4.26700 27.66800 19.17000
N  -4.25400 26.71200 25.94000
C  -3.45400 27.36700 25.01900
C  -2.45100 28.23100 25.71100
C  -2.73500 27.89500 27.08400
C  -3.83200 26.96000 27.18700
C  -1.46100 29.15200 25.10400
C  -2.33500 28.28000 28.46900
O  -1.60100 29.15800 28.81500
C  -3.14800 27.31600 29.48500
C  -2.12500 26.37900 29.95800
O  -1.99500 25.15600 29.58900
O  -1.42200 26.99400 30.98400
C  -0.65500 26.07300 31.79600
H  -8.45700 23.01900 28.32300
H  -7.56500 23.55000 21.94600
H  -3.09500 27.79400 22.89000
H  -4.79900 24.93300 30.53900
H  -7.68200 24.32400 30.38800
H  -5.25600 22.84300 30.55100
H  -6.10900 22.22100 29.13800
H  -6.98000 22.19200 30.70700
H  -7.32100 26.24000 31.28200
H  -6.32200 27.41000 30.35700
H  -6.35200 27.00000 33.12900
H  -4.99200 27.71200 32.37800
H  -11.15000 22.28000 26.15400
H  -10.21100 22.13400 27.65600
H  -9.93800 20.90400 26.48400
H  -10.36300 20.42100 24.31800
H  -10.97200 20.56700 22.71300
H  -11.77500 21.64800 23.90500
H  -6.47100 25.51400 20.61700
H  -3.67700 26.12800 21.24600
H  -3.94300 23.94400 20.35000
H  -5.66200 23.50200 19.83500
H  -5.00500 23.22700 21.50500
H  -4.76200 28.51500 21.13200
H  -6.12600 27.72500 20.31300
H  -4.96200 27.92600 18.37200
H  -3.81400 26.69400 18.98700
H  -3.39500 28.30200 19.33000
H  -1.26400 28.85900 24.07300
H  -0.46800 29.01700 25.53400
H  -1.83500 30.17300 25.03500
H  -3.50100 27.88300 30.34600
H  -1.39200 25.71000 32.51300
H  -0.01800 26.76900 32.34300
H  -0.11000 25.29400 31.26300

