158

Mg -2.26600 18.51300 27.16500
C  -2.96300 16.24000 29.88600
C  -3.22100 21.02400 29.25500
C  -1.96500 20.40800 24.45200
C  -2.21300 15.60800 25.07500
N  -3.07600 18.59100 29.34200
C  -3.10000 17.59400 30.26700
C  -3.45000 18.08000 31.62900
C  -3.67900 19.61600 31.38700
C  -3.30900 19.74200 29.90700
C  -5.01800 20.30100 31.70100
C  -2.34600 17.91100 32.68600
C  -2.80600 17.23200 34.01300
H  -1.73300 17.21600 35.15300
N  -2.47600 20.40700 26.90700
C  -2.85700 21.32300 27.87600
C  -2.79100 22.64600 27.20200
C  -2.22800 22.48800 25.89500
C  -2.26800 21.05700 25.67500
C  -3.16700 23.88500 28.03900
C  -1.69700 23.58800 24.98900
O  -1.36300 23.36900 23.80700
C  -1.57600 25.01700 25.49500
N  -2.08200 18.06200 25.07700
C  -1.90900 19.03600 24.18900
C  -1.88100 18.36300 22.79700
C  -1.63600 16.91000 23.07300
C  -2.11000 16.85200 24.44700
C  -3.22400 18.58300 22.07100
C  -0.19800 16.32500 22.91700
C  0.92000 17.20900 23.64500
N  -2.54900 16.38900 27.34300
C  -2.41800 15.37600 26.35200
C  -2.71700 14.07600 27.09100
C  -2.87000 14.38000 28.44400
C  -2.81200 15.75600 28.54600
C  -2.85800 12.80200 26.35600
C  -3.04100 13.80700 29.77900
O  -3.22800 12.66200 30.05300
C  -3.15000 15.02300 30.79000
C  -2.06200 14.87100 31.76200
O  -0.94200 15.37300 31.71500
O  -2.37900 13.97500 32.69600
C  -1.34000 13.68500 33.66800
H  -3.49900 21.87800 29.87600
H  -1.90000 20.93300 23.49700
H  -2.03700 14.66200 24.55900
H  -4.38600 17.55100 31.80200
H  -2.85700 20.15000 31.86300
H  -5.59500 19.69200 32.39700
H  -5.76100 20.30900 30.90300
H  -4.86400 21.28100 32.15400
H  -2.15100 18.91100 33.07200
H  -1.42700 17.53200 32.23900
H  -3.34100 16.29300 33.87500
H  -3.53400 17.91300 34.45200
H  -3.45300 23.63600 29.06100
H  -3.99500 24.35200 27.50500
H  -2.46400 24.69900 28.21300
H  -2.63900 25.23700 25.59500
H  -0.97300 25.58200 24.78500
H  -0.99300 25.03300 26.41600
H  -1.07000 18.79900 22.21400
H  -2.28800 16.28200 22.46600
H  -4.00100 19.02700 22.69400
H  -3.72500 17.67100 21.74800
H  -3.07200 19.33400 21.29500
H  0.16400 16.15700 21.90300
H  -0.23400 15.29400 23.26700
H  0.57700 17.15600 24.67800
H  0.88600 18.25200 23.32900
H  1.94700 16.84500 23.65700
H  -1.93400 12.46400 25.88700
H  -3.58700 12.87000 25.54900
H  -3.21200 12.06900 27.08200
H  -4.16700 14.98900 31.18100
H  -1.73700 12.97900 34.39800
H  -1.12400 14.56300 34.27700
H  -0.44700 13.44800 33.08900
Mg 47.59500 24.94300 28.03600
C  48.30900 27.17100 30.55300
C  46.47100 22.67900 30.26200
C  46.93000 22.83500 25.45200
C  48.83200 27.26000 25.67500
N  47.23700 25.00200 30.18000
C  47.67000 26.02100 31.02800
C  47.43900 25.58200 32.53100
C  47.06700 24.07000 32.32700
C  46.90900 23.89600 30.83500
C  47.94300 23.01200 32.95700
C  46.32100 26.43700 33.29700
C  46.69700 27.07800 34.59300
H  45.69300 27.07400 35.79100
N  46.92200 23.03700 27.92300
C  46.45700 22.21200 28.96800
C  46.04000 20.96000 28.45000
C  46.39600 20.94300 27.05300
C  46.67800 22.33400 26.75700
C  45.24800 19.99200 29.29900
C  46.42000 19.77800 26.01200
O  46.62500 19.87400 24.77700
C  45.99300 18.38400 26.57200
N  47.82900 25.02600 25.82400
C  47.44600 24.07700 24.97000
C  47.45000 24.59100 23.50300
C  47.93100 26.04500 23.56900
C  48.26000 26.12600 25.11600
C  48.24700 23.68800 22.44100
C  46.91300 27.15800 23.09700
C  47.55400 28.35000 22.28100
N  48.54300 26.73700 28.07400
C  49.01500 27.55500 27.02600
C  49.66800 28.74900 27.59700
C  49.34800 28.61300 28.93900
C  48.60200 27.44000 29.17500
C  50.38500 29.81900 26.90500
C  49.56500 29.30100 30.22200
O  50.11900 30.32500 30.48700
C  49.00600 28.32200 31.28800
C  49.93300 27.79600 32.32500
O  50.82600 27.09600 32.06700
O  49.67000 28.21600 33.61900
C  50.64100 27.79700 34.65600
H  46.19400 21.90600 30.98200
H  46.80000 22.25800 24.53400
H  49.04200 28.01400 24.91400
H  48.41900 25.60300 33.00800
H  46.02700 23.92900 32.62000
H  48.72000 22.77600 32.23000
H  47.28900 22.14500 33.05300
H  48.24800 23.18400 33.99000
H  45.49800 25.76800 33.54800
H  45.93000 27.20600 32.63100
H  46.92200 28.11600 34.34800
H  47.58700 26.57000 34.96500
H  45.76900 19.03400 29.29600
H  44.22700 19.86800 28.93900
H  45.17900 20.22700 30.36100
H  46.66000 18.18900 27.41200
H  46.09600 17.60500 25.81700
H  44.97400 18.38200 26.96000
H  46.42100 24.72900 23.17100
H  48.92900 26.12100 23.13600
H  47.95100 24.07300 21.46600
H  47.98900 22.63800 22.58400
H  49.32700 23.79000 22.54100
H  46.47400 27.63600 23.97300
H  46.09500 26.70900 22.53300
H  48.58500 28.13600 22.00100
H  47.63700 29.14900 23.01700
H  46.86500 28.69100 21.50800
H  51.35300 29.81400 27.40400
H  49.89800 30.79400 26.88500
H  50.51300 29.49300 25.87200
H  48.32100 28.88100 31.92600
H  50.35100 26.79200 34.96400
H  50.54100 28.49300 35.48900
H  51.69400 27.68600 34.40000

