158

Mg 47.27000 24.23300 28.34100
C  48.23200 26.53200 30.69400
C  46.34200 22.08400 30.99000
C  47.11500 21.68900 26.20100
C  48.51600 26.31000 25.83900
N  47.46200 24.18700 30.53500
C  47.67900 25.35100 31.24100
C  47.37800 25.24900 32.71200
C  46.96100 23.70000 32.88100
C  46.81700 23.34900 31.41300
C  47.99700 22.75800 33.59600
C  46.20700 26.20900 33.12500
C  46.36500 26.71600 34.68700
H  45.23200 26.52000 35.66500
N  46.65600 22.25500 28.54500
C  46.26300 21.62400 29.67100
C  45.89300 20.26700 29.29500
C  46.05200 20.12900 27.84200
C  46.63000 21.40500 27.48300
C  45.47300 19.12200 30.38300
C  45.82500 18.85100 27.05100
O  46.00200 18.81500 25.84000
C  45.21000 17.60000 27.77900
N  48.02700 23.96500 26.36200
C  47.77800 22.81300 25.65000
C  47.89400 23.06300 24.13200
C  48.15900 24.59100 23.97400
C  48.34100 25.00000 25.45700
C  48.89900 22.07400 23.51200
C  47.17100 25.32400 23.15100
C  45.88100 25.72200 23.78100
N  48.23400 26.06200 28.24900
C  48.65300 26.81800 27.17600
C  49.04200 28.16000 27.63000
C  48.85300 28.13000 29.04400
C  48.44200 26.81600 29.32800
C  49.67800 29.26400 26.85200
C  48.92600 28.93500 30.27400
O  49.12800 30.17000 30.45800
C  48.64100 27.82700 31.38600
C  49.82700 27.69100 32.23500
O  50.91300 27.29100 31.88100
O  49.45700 27.99500 33.50900
C  50.46000 27.68100 34.53100
H  45.91000 21.53100 31.82700
H  46.93600 20.97200 25.39700
H  48.65400 27.09900 25.09700
H  48.28200 25.49700 33.26800
H  45.94000 23.51600 33.21400
H  48.60200 23.38600 34.25000
H  48.71400 22.23500 32.96400
H  47.49500 21.95600 34.13700
H  45.22500 25.75700 32.99000
H  46.04200 27.10400 32.52500
H  46.45200 27.80200 34.65600
H  47.32000 26.28600 34.99100
H  44.53100 18.81400 29.92900
H  45.16500 19.58100 31.32300
H  46.23300 18.36200 30.56500
H  45.07600 16.79700 27.05500
H  44.23500 17.84200 28.20400
H  45.76800 17.06400 28.54600
H  46.87300 22.87000 23.80300
H  49.20100 24.71500 23.68000
H  49.33500 21.41300 24.26100
H  49.60300 22.64700 22.91000
H  48.51100 21.41300 22.73700
H  46.93900 24.71400 22.27800
H  47.72900 26.23300 22.92500
H  45.22700 25.28600 23.02600
H  45.80500 26.80400 23.89500
H  45.72900 25.33200 24.78800
H  50.18500 28.76700 26.02400
H  50.35300 29.72000 27.57600
H  48.99000 30.02700 26.48800
H  47.79600 28.32700 31.85900
H  49.87600 27.34200 35.38600
H  50.92600 28.62200 34.82200
H  51.19700 26.95800 34.17800
Mg 6.90500 53.90700 41.43000
C  6.53200 50.51500 40.90200
C  10.14100 53.67200 40.08200
C  6.83700 57.21600 40.86800
C  3.57700 54.04700 42.49000
N  8.05900 52.35100 40.47500
C  7.75000 50.96400 40.50300
C  9.00900 50.07700 40.19500
C  10.10600 51.09300 40.30900
C  9.39200 52.50500 40.36200
C  11.03800 50.83600 41.57100
C  8.92500 49.27800 38.85100
C  8.80500 50.22600 37.61600
H  7.37100 50.51400 37.04700
N  8.27600 55.26800 40.56700
C  9.53800 54.99300 40.12100
C  10.21600 56.22700 39.82800
C  9.30000 57.24800 40.16600
C  8.05700 56.59500 40.57400
C  11.61900 56.27200 39.19900
C  9.61200 58.76600 40.24200
O  10.69100 59.13400 39.77900
C  8.66900 59.80200 40.79300
N  5.36800 55.46700 41.71000
C  5.62000 56.79400 41.38000
C  4.35200 57.74300 41.67600
C  3.35200 56.66800 42.17800
C  4.15600 55.32200 42.15900
C  4.53600 58.92500 42.61800
C  2.09500 56.52900 41.21100
C  0.78800 56.86300 41.96500
N  5.38300 52.59000 41.79900
C  4.09900 52.78200 42.26900
C  3.48800 51.50100 42.47800
C  4.40700 50.64000 41.95500
C  5.51700 51.30400 41.48000
C  2.10300 51.17700 42.90400
C  4.66400 49.24400 41.66100
O  3.88600 48.31000 41.81000
C  6.05900 49.09700 40.95900
C  5.75600 48.47700 39.73500
O  5.10600 49.05100 38.85300
O  6.28200 47.15000 39.65700
C  5.96000 46.44500 38.39600
H  11.17700 53.50000 39.78400
H  6.71300 58.20200 40.41400
H  2.51400 54.07300 42.73800
H  9.04300 49.37300 41.02600
H  10.78400 50.86300 39.48700
H  11.49100 51.77400 41.89200
H  11.85400 50.21400 41.20300
H  10.60300 50.22500 42.36300
H  8.11400 48.55000 38.86300
H  9.84400 48.69900 38.76700
H  9.48400 49.92200 36.82000
H  9.22300 51.18600 37.91800
H  11.75800 55.44600 38.50000
H  12.39600 56.17900 39.95800
H  11.72500 57.20300 38.64300
H  7.88700 60.14700 40.11700
H  9.22000 60.72200 40.98600
H  8.13400 59.51800 41.69900
H  4.16900 58.06300 40.65100
H  3.07300 56.82900 43.22000
H  4.74000 59.79700 41.99700
H  5.31000 58.84800 43.38100
H  3.59000 59.03600 43.14800
H  1.88500 55.52100 40.85300
H  2.23800 57.29500 40.44900
H  -0.09600 56.70200 41.34800
H  0.65000 57.89900 42.27300
H  0.59200 56.23900 42.83700
H  2.04700 50.86100 43.94500
H  1.78600 50.34000 42.28200
H  1.43800 52.02300 42.72800
H  6.66200 48.55000 41.68300
H  4.95700 46.01900 38.43800
H  6.65300 45.65300 38.11200
H  6.13300 47.02800 37.49100

