158

Mg 24.81200 -8.98000 46.28700
C  27.10800 -6.77300 44.74400
C  22.25800 -7.78200 44.33900
C  22.95600 -11.65700 47.19500
C  27.68900 -10.75000 47.46100
N  24.72100 -7.54800 44.62500
C  25.74400 -6.64300 44.34300
C  25.21900 -5.66600 43.28800
C  23.70800 -6.00400 43.23600
C  23.52700 -7.15500 44.13400
C  22.89800 -4.79000 43.86300
C  25.99800 -5.91000 42.01900
C  26.33700 -4.62700 41.18700
H  25.69800 -4.58400 39.71600
N  22.82600 -9.56900 45.83300
C  21.92000 -8.94800 45.04900
C  20.68100 -9.61600 45.11900
C  20.91100 -10.84100 45.83700
C  22.28900 -10.70400 46.41300
C  19.45900 -9.10300 44.39000
C  19.95500 -12.04100 46.02700
O  18.84100 -11.99800 45.48700
C  20.24800 -13.26300 46.82700
N  25.25100 -10.88400 47.13400
C  24.31400 -11.80100 47.58900
C  24.92000 -13.08300 48.23700
C  26.42400 -12.79800 48.09700
C  26.50000 -11.40600 47.46300
C  24.49100 -13.36300 49.71900
C  27.25000 -13.81600 47.28600
C  28.72900 -13.99900 47.85000
N  26.88500 -8.75800 46.34800
C  27.89900 -9.52800 46.88300
C  29.20200 -8.84100 46.69000
C  28.87300 -7.71500 46.00300
C  27.50600 -7.76000 45.70100
C  30.49200 -9.44600 47.19600
C  29.50700 -6.49800 45.49700
O  30.65200 -6.07700 45.52700
C  28.30300 -5.79200 44.62200
C  27.99300 -4.54100 45.38200
O  28.43900 -3.41600 45.07000
O  27.19700 -4.76100 46.54200
C  26.81300 -3.56500 47.33700
H  21.49600 -7.27000 43.74800
H  22.44800 -12.41700 47.79200
H  28.59800 -11.27000 47.76800
H  25.38700 -4.69500 43.75500
H  23.25000 -6.33000 42.30200
H  22.04800 -4.51000 43.24100
H  23.50400 -3.88400 43.91000
H  22.44600 -5.06900 44.81400
H  25.38400 -6.48900 41.32900
H  26.95000 -6.42200 42.16000
H  27.38700 -4.33600 41.17800
H  25.91100 -3.78000 41.72500
H  19.39200 -9.57300 43.40900
H  19.44500 -8.02500 44.22700
H  18.59900 -9.34100 45.01500
H  20.42900 -12.87500 47.83000
H  21.10200 -13.74600 46.35200
H  19.41100 -13.96000 46.80600
H  24.55200 -13.89300 47.60600
H  26.86800 -12.59400 49.07100
H  24.09100 -14.37500 49.78900
H  23.69000 -12.66600 49.96400
H  25.19800 -13.19600 50.53100
H  27.26900 -13.51800 46.23800
H  26.70200 -14.75400 47.37500
H  29.44200 -13.39800 47.28600
H  28.97800 -15.05200 47.71100
H  28.92500 -13.64400 48.86200
H  30.63300 -10.36800 46.63300
H  30.53900 -9.59200 48.27500
H  31.22200 -8.68600 46.91400
H  28.57600 -5.54300 43.59700
H  27.69300 -3.05800 47.73200
H  26.26000 -3.94700 48.19600
H  26.21500 -2.91900 46.69500
Mg 29.30200 59.77500 40.84200
C  26.24000 58.36500 40.06200
C  30.81700 56.90000 39.78100
C  32.29900 61.33200 41.11900
C  27.62900 62.77200 41.50300
N  28.59700 57.87100 40.12500
C  27.35100 57.63500 39.70000
C  27.41300 56.28700 38.88900
C  28.69500 55.56400 39.35500
C  29.41500 56.83100 39.73900
C  28.54700 54.53100 40.46400
C  27.26500 56.48100 37.36400
C  26.70600 55.28600 36.57800
H  25.92100 55.70100 35.39100
N  31.28500 59.17300 40.47200
C  31.73200 57.98000 40.05200
C  33.16800 57.95400 39.93000
C  33.62800 59.19200 40.30600
C  32.36600 59.91900 40.69800
C  33.96200 56.73800 39.48000
C  35.05700 59.58300 40.49600
O  35.93600 58.75100 40.31000
C  35.43600 60.98000 40.85700
N  29.85900 61.79800 41.29400
C  31.19700 62.13700 41.39000
C  31.33400 63.66600 41.71600
C  29.79300 63.96600 42.02300
C  29.01000 62.78900 41.54300
C  32.28000 64.05200 42.84400
C  29.17100 65.31500 41.49000
C  28.28400 66.15200 42.42100
N  27.25300 60.41600 41.10000
C  26.79200 61.67700 41.26700
C  25.40400 61.61400 41.18500
C  25.11500 60.29400 40.65500
C  26.27800 59.62900 40.62500
C  24.40300 62.61800 41.44000
C  24.01900 59.37200 40.23400
O  22.81200 59.43500 40.26700
C  24.71800 58.05600 39.84300
C  24.27900 56.91300 40.84900
O  24.32700 57.14600 42.04800
O  23.78200 55.81900 40.21500
C  23.49300 54.73000 41.17100
H  31.18400 55.92300 39.46100
H  33.25600 61.84300 41.24300
H  27.13100 63.70100 41.78700
H  26.58100 55.66100 39.21500
H  29.16200 55.09200 38.49100
H  28.80700 54.94100 41.44000
H  29.19100 53.66100 40.33300
H  27.51200 54.19400 40.40400
H  28.23200 56.76200 36.94700
H  26.52900 57.24900 37.12800
H  26.10200 54.58600 37.15600
H  27.57000 54.69700 36.27000
H  33.34000 55.97900 39.00400
H  34.61200 56.25500 40.20900
H  34.63600 57.17000 38.74000
H  34.95000 61.62600 40.12600
H  36.49400 61.23300 40.92900
H  35.14800 61.08000 41.90300
H  31.76300 64.21000 40.87500
H  29.77200 63.92700 43.11200
H  32.97000 63.26700 43.15500
H  31.72900 64.15100 43.77900
H  32.94100 64.86800 42.55100
H  28.58800 65.03800 40.61200
H  30.02700 65.89200 41.14000
H  28.57700 67.20100 42.37400
H  28.41800 65.85200 43.46000
H  27.21900 66.06000 42.20800
H  23.46200 62.55700 40.89300
H  24.71500 63.54000 40.95100
H  24.38100 62.82200 42.51000
H  24.52200 57.68600 38.83700
H  24.46800 54.29500 41.39000
H  22.90900 53.89000 40.79400
H  23.00900 54.99100 42.11200

