158

Mg 54.95600 24.36300 44.17300
C  52.27000 26.27100 43.22300
C  53.37700 21.50100 43.27900
C  58.05700 22.68600 44.13900
C  56.90700 27.38000 44.50400
N  53.06200 24.00600 43.25400
C  52.03900 24.90800 43.01000
C  50.75800 24.18600 42.53200
C  51.11300 22.74000 43.08900
C  52.61700 22.71400 43.22800
C  50.34000 22.54700 44.44000
C  50.63200 24.12600 41.00600
C  49.24200 24.01500 40.44600
H  49.04100 23.73100 38.94300
N  55.58800 22.32600 43.79900
C  54.75500 21.30400 43.45700
C  55.44300 20.09900 43.51900
C  56.82100 20.40500 43.80300
C  56.86100 21.87800 43.96500
C  54.73700 18.86700 43.09000
C  57.86400 19.37500 43.90100
O  57.53800 18.23900 43.69500
C  59.27800 19.65200 44.35900
N  57.15900 24.92800 44.17900
C  58.16200 24.04600 44.23200
C  59.53300 24.71500 44.44900
C  59.21900 26.21000 44.57800
C  57.61600 26.17400 44.35000
C  60.38700 24.12800 45.55600
C  59.97800 27.05300 43.54100
C  60.69100 28.23800 44.10100
N  54.66200 26.45500 43.92000
C  55.48700 27.54100 44.23800
C  54.61500 28.68200 44.42000
C  53.31900 28.22400 43.98900
C  53.49000 26.86700 43.67000
C  54.98800 30.02900 44.90900
C  51.93700 28.63100 43.94400
O  51.36300 29.60600 44.30200
C  51.17200 27.39400 43.34400
C  50.69300 27.86700 42.03100
O  51.46000 28.27600 41.12100
O  49.32500 27.79000 41.84300
C  48.70200 28.24700 40.58200
H  52.85200 20.55200 43.40700
H  58.96600 22.08100 44.12600
H  57.50100 28.25000 44.79300
H  49.83900 24.62500 42.92000
H  50.77700 21.97800 42.38600
H  51.02200 22.24800 45.23500
H  49.63900 21.74100 44.22200
H  49.84200 23.44600 44.80200
H  51.16500 23.21700 40.72800
H  51.18900 24.93000 40.52400
H  48.73000 24.97600 40.48500
H  48.70200 23.30300 41.07100
H  54.34700 19.04700 42.08800
H  53.83500 18.82400 43.70100
H  55.25100 17.91700 43.23100
H  59.83400 20.23500 43.62500
H  59.74700 18.73600 44.72000
H  59.29600 20.18300 45.31100
H  60.09500 24.54800 43.53000
H  59.46300 26.61700 45.55900
H  60.60400 24.89400 46.30100
H  61.24600 23.57800 45.17300
H  59.67000 23.42500 45.98000
H  59.30400 27.42000 42.76800
H  60.78400 26.58300 42.97700
H  61.65800 28.34900 43.60900
H  60.86700 28.18600 45.17500
H  60.11400 29.15200 43.95700
H  55.57700 29.88100 45.81400
H  54.13400 30.69600 45.01900
H  55.58000 30.49700 44.12200
H  50.33900 27.12000 43.99100
H  48.76100 27.53100 39.76200
H  49.34900 29.08100 40.30900
H  47.66300 28.57500 40.58100
Mg 47.90900 34.00800 25.91200
C  46.00900 32.91300 28.60200
C  48.45900 36.87400 27.47400
C  49.58800 34.84600 23.15200
C  46.87800 31.04300 24.18700
N  47.33300 34.85700 27.84300
C  46.66300 34.17300 28.82900
C  46.85600 34.99700 30.21100
C  47.07300 36.44300 29.63100
C  47.57700 36.07200 28.20000
C  45.91800 37.48300 29.62500
C  48.01500 34.41700 30.92900
C  48.00800 34.41800 32.50000
H  47.29600 35.56400 33.22100
N  48.88400 35.69200 25.36700
C  49.04500 36.76800 26.15100
C  49.87000 37.75100 25.46400
C  49.97700 37.31000 24.12800
C  49.48000 35.88900 24.17500
C  50.40200 39.01500 26.19200
C  50.62300 37.94400 22.87200
O  50.55000 37.41500 21.76900
C  51.41900 39.25800 23.00800
N  48.00900 33.11600 23.85300
C  48.87700 33.71400 22.93700
C  48.95000 32.84200 21.66100
C  48.46900 31.42500 22.15400
C  47.72800 31.86000 23.45500
C  48.29000 33.30800 20.29500
C  49.41400 30.33300 22.51900
C  50.47900 30.02900 21.42400
N  46.69900 32.33100 26.29100
C  46.35200 31.23900 25.50700
C  45.47500 30.42900 26.23300
C  45.26500 31.02700 27.47900
C  46.02000 32.20500 27.45100
C  44.89500 29.05500 25.76700
C  44.48400 30.98500 28.71300
O  43.80300 30.08900 29.09300
C  44.92300 32.31600 29.47400
C  45.25700 32.04100 30.89600
O  45.89400 31.14800 31.33800
O  44.50100 32.92200 31.69900
C  44.35100 32.41700 33.07500
H  48.74400 37.82000 27.94000
H  50.31900 35.18900 22.41500
H  46.57200 30.16300 23.61600
H  45.92500 35.07000 30.77400
H  47.94000 36.97500 30.02300
H  45.39200 37.68400 28.69200
H  46.29000 38.46200 29.92800
H  45.30900 37.07700 30.43400
H  48.90800 34.95300 30.60700
H  48.07700 33.36500 30.64900
H  49.06600 34.32100 32.74500
H  47.48700 33.52200 32.83900
H  51.48100 39.03500 26.04400
H  50.18800 39.13100 27.25500
H  49.98400 39.91300 25.73600
H  52.06400 39.15000 23.88000
H  50.73800 40.10500 23.08900
H  51.92100 39.34500 22.04500
H  50.00300 32.59800 21.51800
H  47.62000 30.93900 21.67300
H  47.27900 32.94900 20.10600
H  48.98500 32.84900 19.59200
H  48.24800 34.38300 20.11900
H  48.73000 29.49900 22.67800
H  49.84300 30.58000 23.49000
H  51.43300 30.27500 21.89100
H  50.32100 30.70300 20.58200
H  50.53400 28.96700 21.18500
H  45.02200 28.32600 26.56800
H  45.54700 28.73100 24.95600
H  43.85200 29.15900 25.46700
H  43.98000 32.85500 29.37400
H  44.25500 31.33500 33.16600
H  43.43100 32.84700 33.47200
H  45.16100 32.79600 33.69800

