158

Mg 47.35400 44.85600 43.03000
C  43.88600 44.47400 42.83800
C  47.61400 41.43900 42.60300
C  50.56500 45.30800 42.25300
C  46.85800 48.38300 42.65100
N  45.88100 43.18900 42.86300
C  44.54300 43.24400 42.83600
C  43.93400 41.89200 42.55300
C  45.11800 40.94000 42.79000
C  46.28300 41.85300 42.66400
C  45.15100 39.95800 44.02100
C  43.30500 41.67100 41.10300
C  44.22200 41.98000 39.91100
H  44.91300 40.86400 39.17700
N  48.86600 43.56600 42.64900
C  48.81700 42.15600 42.60500
C  50.18100 41.62700 42.41100
C  51.06700 42.72100 42.15000
C  50.17400 43.93400 42.32800
C  50.51300 40.16300 42.45500
C  52.56700 42.64900 41.71600
O  53.13400 41.56300 41.57300
C  53.36400 43.85500 41.35100
N  48.49500 46.52900 42.35500
C  49.86600 46.47900 42.29100
C  50.58500 47.87300 42.09100
C  49.30200 48.82500 42.10800
C  48.12200 47.89200 42.46000
C  51.68200 48.14200 43.20700
C  49.00300 49.65400 40.83300
C  49.37200 51.16200 40.89800
N  45.69500 46.17600 42.91900
C  45.67500 47.57600 42.82300
C  44.32100 47.98200 42.78300
C  43.47500 46.81300 42.85200
C  44.41000 45.77700 42.87400
C  43.86700 49.32000 42.35300
C  42.18200 46.24900 42.87200
O  41.08900 46.79800 42.93300
C  42.40300 44.69400 42.89300
C  41.75700 44.29300 44.15800
O  42.33300 44.33800 45.23800
O  40.45700 43.83500 43.93100
C  39.68400 43.39500 45.13400
H  47.83400 40.38500 42.41700
H  51.63300 45.49500 42.12000
H  46.78600 49.46900 42.56500
H  43.10400 41.78100 43.25000
H  45.13500 40.32100 41.89300
H  45.94900 40.16900 44.73200
H  45.32600 38.94300 43.66200
H  44.16800 39.88600 44.48600
H  42.37700 42.22000 40.94600
H  42.97500 40.63700 40.99700
H  45.08400 42.60100 40.15500
H  43.71700 42.67400 39.23800
H  49.92400 39.64900 43.21400
H  51.56400 39.97300 42.67300
H  50.30700 39.77000 41.45900
H  52.74700 44.43500 40.66400
H  54.31000 43.59700 40.87700
H  53.56200 44.48800 42.21700
H  51.07400 47.84200 41.11700
H  49.34000 49.53400 42.93500
H  51.80500 47.21900 43.77300
H  51.46900 48.83400 44.02200
H  52.61400 48.36700 42.68900
H  47.92000 49.61600 40.71900
H  49.58000 49.32000 39.97100
H  49.76100 51.60100 41.81700
H  48.47800 51.72000 40.61900
H  50.11100 51.38300 40.12800
H  43.07700 49.17300 41.61700
H  44.69500 49.86100 41.89400
H  43.54300 49.90100 43.21700
H  41.84200 44.16000 42.12600
H  39.49000 44.20300 45.83900
H  40.27300 42.62100 45.62600
H  38.66200 43.10400 44.89200
Mg 6.82000 54.46500 40.58700
C  6.54200 50.89400 40.46200
C  10.12700 54.09400 39.49200
C  6.97800 57.87900 39.68300
C  3.39600 54.62800 40.81800
N  8.07700 52.70900 40.07800
C  7.83500 51.32900 40.11800
C  9.03300 50.49800 39.73500
C  10.19200 51.55700 39.83100
C  9.42100 52.90600 39.71800
C  11.14200 51.41000 41.09300
C  8.91100 49.87000 38.33700
C  8.61700 50.77500 37.23400
H  7.29400 50.65600 36.54400
N  8.38900 55.81800 39.75800
C  9.66400 55.45100 39.47700
C  10.38300 56.65900 39.03700
C  9.52900 57.76400 39.42000
C  8.21900 57.17500 39.63800
C  11.83700 56.74300 38.57700
C  9.92800 59.20800 39.55400
O  11.09000 59.53800 39.32400
C  8.88800 60.22400 39.76500
N  5.42700 56.03800 40.25900
C  5.70800 57.36500 40.12800
C  4.44800 58.24400 40.26500
C  3.28200 57.13300 40.46900
C  4.08300 55.84000 40.48400
C  4.53700 59.32700 41.37500
C  2.09400 57.10100 39.36000
C  0.64500 57.53100 39.77100
N  5.25200 53.12700 40.85300
C  3.90700 53.35600 40.96300
C  3.23500 52.09500 41.22300
C  4.21500 51.20300 41.03800
C  5.41900 51.80300 40.81100
C  1.79100 51.82000 41.36300
C  4.40300 49.75700 41.13000
O  3.67400 48.81800 41.44400
C  5.96200 49.56400 40.69000
C  5.86400 48.72500 39.46000
O  5.54000 49.08500 38.34900
O  6.16000 47.45100 39.77400
C  5.74500 46.45700 38.81100
H  11.15700 53.94400 39.16300
H  6.83700 58.86500 39.23600
H  2.35200 54.76000 41.11000
H  9.17800 49.70700 40.47000
H  10.80100 51.43600 38.93500
H  10.62500 50.79700 41.83200
H  11.37400 52.40700 41.46700
H  12.11200 50.98700 40.83400
H  8.15400 49.09200 38.23700
H  9.86300 49.40200 38.08700
H  9.34400 50.72000 36.42400
H  8.68000 51.82200 37.53100
H  11.97900 57.20300 37.59900
H  12.27200 55.74500 38.52100
H  12.52000 57.30200 39.21700
H  8.26500 60.50500 38.91600
H  9.26500 61.22700 39.96300
H  8.31700 60.05600 40.67800
H  4.24200 58.75800 39.32600
H  2.79300 57.25900 41.43400
H  5.17400 59.01700 42.20300
H  3.51800 59.35900 41.75900
H  4.97200 60.25600 41.00600
H  2.03400 56.03900 39.12200
H  2.35400 57.64400 38.45100
H  -0.12700 56.79600 39.54400
H  0.35700 58.38100 39.15200
H  0.63700 57.78500 40.83000
H  1.79700 50.89000 41.93200
H  1.21700 51.78700 40.43700
H  1.35400 52.62200 41.95800
H  6.47300 48.96000 41.44000
H  4.98500 46.82100 38.12000
H  5.35400 45.53400 39.24000
H  6.69800 46.16600 38.37000

