158

Mg 46.81600 44.21200 42.17400
C  43.31200 43.68600 41.99700
C  47.11800 40.88700 42.06600
C  50.07600 44.82000 42.02400
C  46.11400 47.64600 42.17700
N  45.33300 42.53000 41.76900
C  44.02500 42.47700 41.86600
C  43.39000 41.08400 41.83000
C  44.63200 40.21200 41.89200
C  45.76400 41.28100 41.82800
C  44.67600 39.22400 43.00400
C  42.38000 40.74300 40.61100
C  42.55400 41.47900 39.26500
H  42.71600 40.66900 38.00200
N  48.40900 42.97800 42.07900
C  48.34300 41.62300 42.08600
C  49.72400 41.12500 42.13700
C  50.60600 42.24000 42.29400
C  49.68400 43.42900 42.15800
C  50.03500 39.66300 42.09700
C  52.20100 42.11400 42.55800
O  52.77500 41.01500 42.64000
C  53.13200 43.32300 42.66900
N  47.94700 46.00200 41.93400
C  49.29300 45.98700 41.98700
C  49.87200 47.41400 42.00500
C  48.59500 48.20600 42.23000
C  47.47400 47.26700 42.04200
C  51.04100 47.64800 43.05500
C  48.48300 49.45500 41.26400
C  48.14100 50.82200 41.87000
N  45.15700 45.45100 41.98300
C  45.00100 46.83300 42.03200
C  43.63900 47.27500 42.08700
C  42.95700 46.00000 42.07400
C  43.90000 44.93400 41.98100
C  43.03700 48.65700 42.06800
C  41.58600 45.43500 42.10900
O  40.48100 45.92400 42.12400
C  41.84600 43.85700 42.19500
C  41.44000 43.20500 43.50500
O  40.65800 42.26800 43.60400
O  42.05000 43.76900 44.55200
C  41.99300 42.84000 45.67000
H  47.20400 39.81300 42.24700
H  51.16200 44.91500 41.97400
H  46.02700 48.69700 42.46200
H  42.89300 40.95200 42.79100
H  44.57200 39.64100 40.96600
H  45.15100 39.55300 43.92800
H  45.18900 38.32500 42.66000
H  43.68100 38.87500 43.28000
H  41.40800 41.06100 40.99000
H  42.42900 39.66500 40.45700
H  43.52300 41.97600 39.29500
H  41.76400 42.21000 39.09700
H  49.14700 39.21300 41.65300
H  50.28500 39.33900 43.10800
H  50.95000 39.46200 41.53900
H  53.12000 43.73400 41.66000
H  54.16500 43.12800 42.95800
H  52.65200 44.08800 43.27900
H  50.36300 47.58800 41.04800
H  48.69600 48.56400 43.25400
H  51.98500 47.43800 42.55200
H  50.98500 46.81100 43.75100
H  51.08500 48.59200 43.59700
H  47.69300 49.23900 40.54500
H  49.39800 49.55300 40.68000
H  48.99600 51.47800 41.71300
H  47.76700 50.71900 42.88900
H  47.27500 51.10000 41.27000
H  43.73600 49.35400 41.60500
H  42.95200 48.92300 43.12200
H  42.10300 48.64600 41.50700
H  41.19100 43.50600 41.39800
H  42.31700 43.35600 46.57400
H  42.52000 41.93200 45.37700
H  41.02600 42.45100 45.99000
Mg -4.41700 24.70100 26.44300
C  -3.25700 26.38400 29.10200
C  -5.88400 22.45600 28.52000
C  -6.02100 23.24400 23.79300
C  -2.79000 26.82400 24.37100
N  -4.55800 24.44900 28.54900
C  -4.13400 25.39000 29.49800
C  -4.64800 25.04400 30.88600
C  -5.25200 23.62000 30.77900
C  -5.23900 23.44200 29.20500
C  -4.57200 22.48400 31.58900
C  -5.50700 26.19300 31.39800
C  -5.18400 26.61800 32.85200
H  -4.92300 25.55600 33.92000
N  -5.65000 23.04900 26.20400
C  -6.13600 22.26700 27.19600
C  -6.90900 21.16100 26.64500
C  -6.86900 21.34400 25.29900
C  -6.13300 22.59500 25.03900
C  -7.36100 20.06600 27.59700
C  -7.53500 20.40600 24.23800
O  -7.47600 20.54100 23.00100
C  -8.18400 19.13200 24.66400
N  -4.25900 24.91600 24.38200
C  -5.08400 24.25100 23.51300
C  -4.98700 24.89800 22.07500
C  -4.03100 26.05500 22.25900
C  -3.53600 25.88000 23.74400
C  -4.56500 23.86300 20.97700
C  -4.76400 27.44300 22.04400
C  -3.82100 28.60600 21.54800
N  -3.24400 26.26800 26.67600
C  -2.59200 27.01900 25.69900
C  -1.91500 28.18100 26.40400
C  -2.07400 27.86500 27.76000
C  -2.87600 26.76600 27.81900
C  -1.16900 29.37700 25.82900
C  -1.73800 28.23500 29.10100
O  -1.05800 29.21600 29.45500
C  -2.47800 27.36500 30.06400
C  -1.50800 26.70000 30.98400
O  -0.87800 25.61900 30.83500
O  -1.47400 27.40900 32.18900
C  -0.97600 26.59700 33.32000
H  -6.49700 21.85300 29.19400
H  -6.60000 22.78400 22.99000
H  -2.38300 27.56000 23.67400
H  -3.82300 24.96700 31.59400
H  -6.26500 23.64700 31.18200
H  -5.31600 22.09200 32.28200
H  -3.77100 22.87100 32.21800
H  -4.20500 21.70300 30.92200
H  -6.58300 26.02700 31.35800
H  -5.41000 27.11500 30.82600
H  -5.93800 27.24400 33.32800
H  -4.27500 27.21900 32.87700
H  -8.22700 19.54700 27.18700
H  -7.76100 20.41400 28.54900
H  -6.55000 19.35400 27.75500
H  -7.53500 18.60000 25.36000
H  -8.27700 18.54400 23.75100
H  -9.19400 19.35800 25.00700
H  -6.02100 25.23600 21.99600
H  -3.12700 26.03800 21.64900
H  -4.53500 22.86800 21.42200
H  -3.72600 24.31000 20.44500
H  -5.33200 23.90900 20.20400
H  -5.15600 27.77800 23.00500
H  -5.62100 27.36300 21.37400
H  -3.91600 28.83000 20.48600
H  -2.80800 28.32900 21.84100
H  -4.05300 29.40800 22.24900
H  -0.10800 29.25400 25.60800
H  -1.27100 30.32400 26.35800
H  -1.53900 29.48900 24.81000
H  -3.24700 27.96300 30.55400
H  0.06000 26.92000 33.42300
H  -1.04700 25.51000 33.27900
H  -1.56700 26.94200 34.16900

