158

Mg 35.86400 0.77700 29.93100
C  33.33800 1.69400 32.19800
C  38.20400 1.26000 32.42000
C  38.25500 0.70200 27.51200
C  33.37900 1.16400 27.28300
N  35.82600 1.24500 32.06000
C  34.62700 1.57100 32.75500
C  34.92800 1.72400 34.24900
C  36.49300 1.94700 34.25200
C  36.92100 1.50800 32.84600
C  36.79200 3.48900 34.46800
C  34.32500 0.47200 35.00200
C  33.94100 0.41100 36.47400
H  34.83200 1.42200 37.29500
N  37.92000 0.68000 29.97500
C  38.65800 0.86300 31.12500
C  39.98700 0.36200 30.74700
C  40.09800 0.33300 29.36200
C  38.69500 0.57700 28.87900
C  41.15400 0.33300 31.75100
C  41.25500 0.12400 28.42100
O  41.21900 0.23100 27.16900
C  42.60800 -0.13000 28.92600
N  35.79500 0.89200 27.76400
C  36.95800 0.91100 26.99800
C  36.68700 0.77400 25.51700
C  35.11000 0.86200 25.40600
C  34.71300 0.87600 26.91400
C  37.47200 1.67700 24.49300
C  34.28900 -0.07900 24.49500
C  33.15900 0.63800 23.75100
N  33.76600 1.27800 29.68600
C  32.89300 1.37000 28.60200
C  31.56200 1.60200 29.02000
C  31.72700 1.75300 30.39200
C  33.08800 1.55300 30.76700
C  30.37400 1.79000 28.21000
C  30.98100 2.04100 31.65500
O  29.79900 2.18400 31.81400
C  32.02700 2.11000 32.86700
C  32.05400 3.46100 33.46200
O  32.35000 4.47000 32.83000
O  31.55500 3.50500 34.72100
C  31.49700 4.76700 35.35700
H  38.97100 1.34000 33.19300
H  39.02600 0.52200 26.76000
H  32.59300 1.10500 26.52700
H  34.36700 2.58400 34.61600
H  36.92300 1.32600 35.03800
H  37.41500 3.53400 35.36200
H  35.90800 4.07000 34.73200
H  37.38200 3.91700 33.65800
H  35.12700 -0.26500 35.05100
H  33.47500 -0.01200 34.52200
H  34.00600 -0.61900 36.82300
H  32.91000 0.76000 36.52000
H  42.03600 0.82400 31.34100
H  41.52200 -0.66000 32.01000
H  40.94100 0.89900 32.65800
H  43.35000 -0.47700 28.20700
H  42.52700 -0.85700 29.73500
H  43.00200 0.82400 29.27400
H  36.98600 -0.25900 25.33600
H  34.86000 1.89300 25.15700
H  38.12400 2.30400 25.10100
H  36.79200 2.26700 23.87900
H  37.94200 0.91100 23.87600
H  33.86500 -0.91300 25.05300
H  34.95900 -0.41900 23.70500
H  33.56600 1.30300 22.98900
H  32.47100 1.24300 24.34200
H  32.62300 -0.16300 23.24100
H  30.61900 2.20600 27.23300
H  29.73700 2.57300 28.62100
H  29.80300 0.89100 27.97600
H  31.78000 1.38000 33.63700
H  32.28400 4.68700 36.10600
H  30.55100 4.82500 35.89600
H  31.56700 5.54900 34.60100
Mg 46.54000 43.41100 42.66700
C  43.13400 42.61300 42.05200
C  47.31900 40.21100 41.77000
C  49.67900 44.49600 42.28000
C  45.50700 46.88600 42.02500
N  45.35600 41.64400 42.09900
C  43.97800 41.49500 42.04500
C  43.55100 40.07600 41.75500
C  44.84700 39.27700 41.94700
C  45.96600 40.38800 41.93400
C  44.82900 38.27500 43.17700
C  42.84500 39.85600 40.45000
C  43.20900 40.78300 39.23600
H  43.34600 40.16700 37.88800
N  48.32600 42.41300 42.25700
C  48.43900 41.10300 41.96200
C  49.86200 40.87400 41.61400
C  50.60900 42.06200 41.75700
C  49.55600 43.07000 42.06200
C  50.28400 39.45900 41.31500
C  52.06600 42.20100 41.55800
O  52.73000 41.17800 41.42000
C  52.83400 43.57400 41.66700
N  47.55500 45.44000 42.25200
C  48.82600 45.57400 42.25800
C  49.24100 47.02700 42.16900
C  47.90700 47.74000 42.14800
C  46.84800 46.61200 42.09600
C  50.10100 47.45600 43.31100
C  47.70400 48.86300 41.12100
C  47.50100 48.42500 39.60300
N  44.65700 44.57700 42.40100
C  44.42100 45.97000 42.15600
C  42.95200 46.24800 42.01900
C  42.44500 44.93200 42.05900
C  43.50900 43.97400 42.15800
C  42.35000 47.65700 41.88400
C  41.24200 44.16000 42.11500
O  40.08500 44.55000 42.12700
C  41.61200 42.62600 42.26800
C  41.19200 42.16000 43.65400
O  40.36000 41.31200 43.82700
O  41.72000 42.98900 44.63300
C  41.09900 42.95600 45.98300
H  47.49900 39.15600 41.55300
H  50.69200 44.79200 42.00100
H  45.27400 47.95200 41.98600
H  42.78000 39.89100 42.50400
H  45.03200 38.68100 41.05300
H  45.37000 38.75800 43.99100
H  45.35300 37.34600 42.94800
H  43.88100 38.08800 43.68100
H  41.83500 40.18800 40.69000
H  42.91600 38.78700 40.25000
H  44.06500 41.44600 39.36000
H  42.31100 41.38600 39.10500
H  50.73600 39.59100 40.33200
H  49.46800 38.74400 41.42300
H  51.08700 39.30000 42.03400
H  52.55800 44.17400 40.80000
H  53.90300 43.40800 41.53900
H  52.64200 44.08400 42.61100
H  49.77800 47.11100 41.22400
H  47.78000 48.17400 43.14000
H  49.98700 46.84400 44.20500
H  49.80500 48.41100 43.74700
H  51.11500 47.45700 42.91200
H  48.60600 49.47200 41.17800
H  46.87000 49.51800 41.37300
H  48.22900 48.87700 38.92800
H  46.52000 48.86700 39.42700
H  47.52100 47.33800 39.52500
H  43.01200 48.43300 41.49800
H  41.84300 48.02800 42.77400
H  41.56500 47.47200 41.15000
H  41.12100 42.17100 41.40700
H  40.40700 42.12700 46.13300
H  40.52300 43.86200 46.17200
H  41.73900 42.87300 46.86200

