158

Mg 35.47700 1.68200 28.75100
C  33.51900 3.12700 31.22800
C  38.06200 1.35700 31.03300
C  37.35600 0.71200 26.20800
C  32.93900 2.36900 26.35200
N  35.84600 2.41800 30.91500
C  34.78200 2.82600 31.76900
C  35.27200 2.91600 33.22900
C  36.87700 2.62200 33.04500
C  36.94200 2.05900 31.62000
C  37.69800 3.91300 33.28700
C  34.49700 1.90600 34.08800
C  33.74200 2.38400 35.35800
H  34.35500 3.54300 36.21900
N  37.46700 1.11200 28.66300
C  38.35900 1.05400 29.66300
C  39.63100 0.63000 29.13800
C  39.47200 0.36600 27.74100
C  38.08400 0.82700 27.46000
C  40.81000 0.37300 30.09600
C  40.43900 -0.29300 26.72700
O  40.18100 -0.45100 25.54800
C  41.81600 -0.63300 27.21300
N  35.19400 1.50500 26.53300
C  36.11500 0.95200 25.76900
C  35.70900 0.86000 24.24400
C  34.19700 1.26400 24.34300
C  34.08300 1.74200 25.78300
C  36.47000 1.82600 23.25300
C  33.27400 0.08000 23.99600
C  32.24500 0.36000 22.85300
N  33.58100 2.40500 28.77400
C  32.66200 2.67100 27.73800
C  31.50700 3.48300 28.26400
C  31.82100 3.55200 29.64200
C  33.08700 2.93000 29.86600
C  30.28900 3.87400 27.46500
C  31.21800 4.00000 30.87700
O  30.09600 4.51000 31.08500
C  32.30000 3.61700 31.92800
C  32.57700 4.82100 32.78000
O  33.27600 5.75700 32.43700
O  31.72300 4.83100 33.82600
C  31.62700 6.02000 34.67200
H  38.85400 1.24500 31.77600
H  37.98400 0.14700 25.51600
H  32.23600 2.79200 25.63100
H  35.07700 3.94600 33.52700
H  37.13800 1.78000 33.68600
H  38.30100 3.74400 34.17900
H  37.05200 4.78700 33.37000
H  38.30100 4.15700 32.41200
H  35.26700 1.22000 34.44000
H  33.83500 1.31700 33.45400
H  33.75000 1.52200 36.02600
H  32.73900 2.74000 35.12700
H  40.83100 1.27900 30.70400
H  41.84800 0.32900 29.76700
H  40.55000 -0.49800 30.69700
H  42.44900 -0.90900 26.37000
H  41.77700 -1.39900 27.98900
H  42.10200 0.28200 27.73100
H  35.88500 -0.15000 23.87400
H  33.96800 2.11200 23.69800
H  35.67900 2.09200 22.55200
H  37.14100 1.18200 22.68500
H  36.92600 2.64400 23.81200
H  32.76800 -0.22500 24.91100
H  33.89700 -0.76000 23.68700
H  31.28600 0.16100 23.33000
H  32.33400 -0.41600 22.09200
H  32.22700 1.40200 22.53500
H  30.58500 4.20700 26.47000
H  29.78300 4.64100 28.05000
H  29.62500 3.00900 27.45100
H  31.97700 2.79500 32.56700
H  32.33400 6.81000 34.41900
H  31.65800 5.83500 35.74600
H  30.60600 6.35800 34.49400
Mg 30.35100 57.59300 41.16400
C  27.34200 55.89800 40.21200
C  32.07200 54.81900 40.16800
C  32.95500 59.53100 41.42600
C  28.23500 60.50700 41.64100
N  29.74200 55.57800 40.27800
C  28.48500 55.16200 39.92500
C  28.58800 53.95100 39.15200
C  30.01600 53.35500 39.46900
C  30.68100 54.61000 40.08200
C  30.07500 52.21200 40.53200
C  28.26300 54.18700 37.61700
C  27.00800 53.50200 36.96400
H  26.47700 54.22200 35.65700
N  32.29000 57.24500 40.84200
C  32.83700 56.02300 40.45900
C  34.24400 56.16400 40.60900
C  34.52400 57.49700 41.14600
C  33.25600 58.13800 41.20100
C  35.33200 55.18500 40.06100
C  35.89700 58.04900 41.51000
O  36.87400 57.37800 41.30900
C  36.16100 59.40400 42.09400
N  30.53000 59.77000 41.54500
C  31.79500 60.27200 41.57300
C  31.76700 61.87300 41.60500
C  30.20500 62.16500 41.80600
C  29.62800 60.75000 41.66400
C  32.78100 62.58300 42.61500
C  29.50800 63.23000 40.87000
C  28.81600 64.43600 41.56100
N  28.24600 58.09300 41.15500
C  27.57000 59.26300 41.42200
C  26.12600 59.06700 41.48700
C  26.00200 57.72300 40.99000
C  27.33300 57.23700 40.78300
C  25.07200 60.09400 41.90000
C  25.04200 56.62400 40.60200
O  23.82900 56.55400 40.65400
C  25.82500 55.49500 39.98000
C  25.49100 54.16000 40.54600
O  25.96400 53.78400 41.64900
O  24.43800 53.49300 39.91300
C  24.21000 52.15800 40.44900
H  32.72500 53.96100 39.99200
H  33.79900 60.22200 41.47500
H  27.70700 61.43400 41.87500
H  27.90700 53.15000 39.43900
H  30.66500 53.00600 38.66600
H  30.94300 51.56600 40.40500
H  29.21200 51.55200 40.43700
H  30.16600 52.61100 41.54200
H  29.12900 53.71900 37.14700
H  28.31100 55.27400 37.56300
H  26.24900 53.50900 37.74600
H  27.28900 52.46600 36.77700
H  34.88500 54.45000 39.39300
H  35.95900 54.64300 40.76900
H  36.05300 55.71800 39.44100
H  35.41000 59.63000 42.85100
H  36.10100 60.18000 41.33100
H  37.17200 59.52700 42.48000
H  32.07100 62.13800 40.59300
H  29.99700 62.42100 42.84500
H  32.57000 62.36000 43.66100
H  32.65900 63.66600 42.59300
H  33.78100 62.23400 42.35700
H  28.77900 62.69000 40.26500
H  30.32100 63.61600 40.25600
H  27.74700 64.23000 41.50400
H  28.95500 65.39400 41.06000
H  29.12700 64.53200 42.60200
H  24.53000 60.51700 41.05400
H  25.55900 60.99200 42.28000
H  24.37200 59.63700 42.60000
H  25.67100 55.34800 38.91100
H  23.14000 52.11800 40.24600
H  24.23000 52.02000 41.53000
H  24.71900 51.40600 39.84700

