158

Mg 41.65700 9.00300 29.42500
C  43.57100 10.41000 31.95200
C  39.55500 7.65600 31.84100
C  39.85900 7.67700 26.95000
C  44.16100 9.87500 27.20400
N  41.78900 8.70200 31.71500
C  42.47100 9.62500 32.48900
C  41.97800 9.50700 33.97400
C  40.73100 8.49900 33.89700
C  40.69900 8.21500 32.41600
C  40.58000 7.35000 34.95900
C  41.78500 10.89900 34.65200
C  41.10100 10.84500 36.01100
H  41.90400 11.21500 37.19400
N  39.94600 7.85200 29.35700
C  39.21500 7.43600 30.48700
C  38.00700 6.76000 30.01500
C  38.08800 6.72500 28.57800
C  39.29300 7.46000 28.25100
C  37.17100 5.96500 30.98200
C  37.09500 6.13100 27.63400
O  37.39500 5.79600 26.44800
C  35.73400 5.84000 28.04100
N  41.99800 8.79300 27.38600
C  41.05500 8.32100 26.47900
C  41.56100 8.25900 25.01800
C  42.87700 9.13700 25.10800
C  43.07600 9.20900 26.67800
C  41.75500 6.85900 24.36800
C  42.81900 10.43500 24.28100
C  42.43200 11.77800 24.97500
N  43.51000 9.89100 29.54100
C  44.38000 10.20000 28.53200
C  45.48500 10.97900 29.02500
C  45.12700 11.15700 30.35000
C  44.00000 10.39100 30.62600
C  46.64900 11.44400 28.22700
C  45.50900 11.84300 31.58700
O  46.47600 12.57800 31.88100
C  44.52600 11.36000 32.73200
C  45.32000 10.58400 33.70500
O  45.77800 9.50800 33.40400
O  45.34200 11.18100 34.97800
C  45.95500 10.41800 36.07500
H  38.83700 7.44000 32.63500
H  39.25800 7.36700 26.09200
H  44.91600 10.09600 26.44800
H  42.78900 9.02000 34.51500
H  39.87700 9.14100 34.11100
H  41.33100 7.34700 35.75000
H  40.55400 6.33100 34.57200
H  39.61200 7.45400 35.44900
H  41.20500 11.40300 33.87800
H  42.76200 11.38200 34.67800
H  40.61600 9.89500 36.23200
H  40.32600 11.60900 35.95500
H  37.86400 5.58200 31.73100
H  36.76800 5.07200 30.50500
H  36.39200 6.57200 31.44300
H  35.37800 6.62300 28.71100
H  35.87800 4.93800 28.63600
H  35.14200 5.65000 27.14600
H  40.93000 8.74500 24.27400
H  43.73600 8.66200 24.63300
H  41.82900 6.07600 25.12300
H  42.64100 6.83900 23.73500
H  40.89200 6.66800 23.73000
H  42.22500 10.28400 23.38000
H  43.86200 10.49000 23.96900
H  41.93900 11.54600 25.92000
H  41.84300 12.43500 24.33600
H  43.35300 12.30000 25.23600
H  47.55900 11.21800 28.78200
H  46.44100 12.47700 27.94800
H  46.82500 10.80700 27.36100
H  44.07800 12.28400 33.09700
H  47.04100 10.49600 36.13200
H  45.70400 9.35700 36.05000
H  45.56500 10.79500 37.02100
Mg -11.01100 17.19700 41.24600
C  -7.47300 16.75900 41.60400
C  -10.30600 20.43800 40.67600
C  -14.11400 17.50500 40.47400
C  -11.26300 13.59000 41.44900
N  -9.10600 18.44300 41.09900
C  -7.80900 18.12600 41.34800
C  -6.84800 19.35500 41.21000
C  -7.86000 20.51900 41.44400
C  -9.20100 19.78500 41.01100
C  -7.95100 21.01500 42.93900
C  -6.15100 19.42700 39.78500
C  -4.68700 19.28700 39.83700
H  -4.10600 18.47200 38.68100
N  -12.09100 18.73100 40.51700
C  -11.60300 19.99000 40.38100
C  -12.71800 20.79100 39.95900
C  -13.90400 20.05900 39.86800
C  -13.44400 18.72800 40.31300
C  -12.54600 22.26100 39.67200
C  -15.29100 20.47100 39.37100
O  -15.55500 21.61000 38.97200
C  -16.47200 19.52200 39.47900
N  -12.34900 15.68400 40.75600
C  -13.63500 16.22800 40.80100
C  -14.61700 15.07900 40.90000
C  -13.79500 13.80900 41.20900
C  -12.34700 14.34700 41.15500
C  -15.81100 15.33800 41.81800
C  -14.01700 12.61000 40.18400
C  -14.70500 11.31200 40.67700
N  -9.73700 15.48900 41.61800
C  -10.01200 14.14200 41.64100
C  -8.77100 13.44300 41.93200
C  -7.68900 14.37400 41.96000
C  -8.34100 15.61800 41.73700
C  -8.75700 11.85900 42.19200
C  -6.28500 14.63700 42.17100
O  -5.37200 13.89000 42.48300
C  -6.06300 16.18200 41.89200
C  -5.36600 16.71200 43.13800
O  -4.14900 16.98700 43.21500
O  -6.18100 16.72800 44.26600
C  -5.61700 16.92500 45.58300
H  -10.11700 21.51100 40.76200
H  -15.18400 17.45100 40.26400
H  -11.56700 12.55000 41.59000
H  -6.17000 19.18800 42.04700
H  -7.46300 21.33300 40.83700
H  -7.38100 20.25900 43.48000
H  -8.96700 21.15700 43.30700
H  -7.43900 21.96000 43.11500
H  -6.25000 20.44900 39.42200
H  -6.49900 18.75300 39.00200
H  -4.32000 18.81100 40.74500
H  -4.09400 20.19600 39.93500
H  -12.28000 22.30100 38.61500
H  -11.75500 22.72700 40.25900
H  -13.50900 22.75300 39.80800
H  -16.31000 18.61200 38.90200
H  -17.31100 20.03500 39.00800
H  -16.55100 19.33400 40.55000
H  -15.17000 15.13200 39.96200
H  -13.96900 13.52100 42.24600
H  -16.24000 14.33600 41.82000
H  -16.48600 16.05800 41.35700
H  -15.54000 15.85700 42.73800
H  -13.07500 12.26600 39.75700
H  -14.56700 13.01700 39.33500
H  -14.70000 11.34600 41.76700
H  -14.10600 10.42700 40.46400
H  -15.77100 11.28000 40.45200
H  -8.35400 11.29400 41.35100
H  -9.71700 11.45900 42.51600
H  -8.04100 11.67600 42.99300
H  -5.29200 16.25400 41.12500
H  -6.41000 16.91300 46.33200
H  -5.27300 17.95900 45.57800
H  -4.84600 16.16800 45.72600

