158

Mg 15.98800 -2.08400 28.68400
C  14.84500 0.06200 31.20900
C  18.08700 -3.52300 31.16700
C  17.81500 -3.60700 26.33200
C  14.20400 -0.25300 26.32000
N  16.43000 -1.69900 30.79500
C  15.81800 -0.82100 31.63300
C  16.23600 -1.01900 33.07100
C  17.38800 -1.94500 32.98400
C  17.29100 -2.46400 31.57400
C  18.85600 -1.37400 33.41000
C  15.08800 -1.37800 33.99400
C  15.06900 -0.81800 35.46100
H  16.34600 -0.12700 36.00300
N  17.65500 -3.48500 28.78100
C  18.33900 -3.94400 29.81400
C  19.33000 -4.97000 29.46000
C  19.15600 -5.12100 28.00000
C  18.21200 -4.05000 27.65000
C  20.17400 -5.71500 30.43600
C  19.88000 -6.13900 27.07000
O  19.60700 -6.02900 25.91500
C  20.92700 -7.10200 27.54400
N  15.96000 -1.98900 26.71000
C  16.83400 -2.72100 25.90200
C  16.63300 -2.36500 24.36000
C  15.40000 -1.40600 24.38900
C  15.14700 -1.23800 25.93000
C  17.90600 -1.81400 23.68900
C  14.18800 -1.98100 23.58700
C  13.49800 -0.93400 22.68600
N  14.62100 -0.51100 28.66200
C  13.95300 0.13700 27.66400
C  13.19600 1.24800 28.20800
C  13.44800 1.20400 29.60800
C  14.37100 0.18200 29.83900
C  12.39900 2.20300 27.41000
C  13.13200 1.85800 30.93400
O  12.36300 2.77700 31.17200
C  14.05400 1.13700 32.03400
C  14.86400 2.18000 32.78600
O  16.03200 2.42500 32.61200
O  14.04800 2.76400 33.72100
C  14.68300 3.86900 34.51700
H  18.69700 -3.94100 31.97100
H  18.28700 -4.10700 25.48300
H  13.72800 0.32200 25.52300
H  16.55700 -0.03300 33.40900
H  17.31600 -2.80000 33.65500
H  19.05500 -1.90500 34.34100
H  18.71300 -0.32500 33.67000
H  19.60700 -1.45600 32.62500
H  14.89200 -2.45000 33.97300
H  14.15000 -0.97600 33.61200
H  14.88700 -1.62600 36.16900
H  14.16900 -0.23000 35.64000
H  21.11500 -6.00700 29.96900
H  19.65100 -6.63100 30.70800
H  20.41000 -5.12500 31.32100
H  20.52500 -7.86000 28.21500
H  21.74600 -6.58000 28.03900
H  21.34000 -7.64800 26.69600
H  16.32900 -3.30700 23.90400
H  15.78400 -0.44000 24.06100
H  18.63100 -1.49300 24.43600
H  17.59900 -1.07000 22.95300
H  18.34300 -2.65600 23.15200
H  13.42100 -2.43400 24.21600
H  14.44200 -2.87600 23.01900
H  13.41300 -1.44000 21.72500
H  14.18700 -0.09100 22.62700
H  12.57300 -0.58600 23.14700
H  11.66500 1.74500 26.74800
H  13.00500 2.79700 26.72600
H  11.86600 2.72300 28.20600
H  13.29200 0.79200 32.73300
H  15.19200 4.55900 33.84500
H  15.35800 3.50600 35.29200
H  13.88200 4.35500 35.07500
Mg 44.72800 4.09100 46.51900
C  42.69000 7.06100 46.29900
C  41.60200 2.47400 45.66000
C  46.39700 1.30600 45.97800
C  47.55300 6.11400 46.52900
N  42.41300 4.69200 46.06900
C  41.89400 5.96900 46.04200
C  40.40900 5.96500 45.82400
C  40.03800 4.45800 45.78200
C  41.42100 3.80700 45.84900
C  38.99500 3.97000 46.86900
C  39.96200 6.70900 44.53100
C  40.99700 6.89300 43.36600
H  40.52300 7.21300 41.93100
N  44.11100 2.13900 46.07700
C  42.79300 1.67600 45.76000
C  42.88000 0.23500 45.47600
C  44.28600 -0.17700 45.53800
C  44.98800 1.11600 45.84600
C  41.62300 -0.57300 45.15200
C  44.83000 -1.59400 45.22300
O  44.05900 -2.49200 44.85700
C  46.32700 -1.88400 45.41500
N  46.69300 3.79700 46.47100
C  47.13700 2.49600 46.20300
C  48.68500 2.50300 46.18100
C  49.03700 4.02700 46.34000
C  47.70900 4.70600 46.41200
C  49.31600 1.55600 47.18500
C  49.92100 4.68800 45.15800
C  51.20900 5.44600 45.58300
N  45.16300 6.13300 46.57600
C  46.37200 6.79800 46.55400
C  46.12000 8.24600 46.65700
C  44.72200 8.40200 46.60000
C  44.12400 7.07500 46.49100
C  47.02200 9.44600 46.70600
C  43.66500 9.33900 46.73400
O  43.68700 10.54000 46.93700
C  42.34700 8.58100 46.48900
C  41.51100 8.71600 47.65400
O  41.68900 8.17700 48.75500
O  40.46500 9.56100 47.40600
C  39.55900 9.74800 48.52800
H  40.78900 1.83500 45.30800
H  47.13800 0.51600 45.83800
H  48.42800 6.76300 46.46400
H  40.02800 6.42500 46.73600
H  39.55600 4.22500 44.83300
H  38.55900 4.77900 47.45600
H  39.54200 3.22600 47.44900
H  38.15200 3.53500 46.33200
H  39.78900 7.69300 44.96700
H  39.07000 6.23900 44.11700
H  41.61400 5.99500 43.32500
H  41.71200 7.69100 43.56600
H  40.77700 -0.18700 45.72100
H  41.73100 -1.65200 45.25800
H  41.50800 -0.52000 44.06900
H  46.24200 -2.93500 45.69000
H  46.80600 -1.35500 46.24000
H  46.88600 -1.68900 44.50000
H  48.87000 2.27600 45.13100
H  49.53700 4.24400 47.28500
H  50.27400 2.01500 47.42900
H  49.44100 0.55400 46.77300
H  48.68000 1.50100 48.06800
H  49.31400 5.20100 44.41100
H  50.26300 3.80600 44.61700
H  51.95400 4.81900 45.09500
H  51.58500 5.43200 46.60600
H  51.07800 6.47300 45.24300
H  46.56500 10.25700 46.13800
H  47.94200 9.18800 46.18100
H  47.31400 9.81000 47.69100
H  41.83200 8.90300 45.58500
H  39.71100 10.75700 48.91200
H  39.62400 8.97500 49.29400
H  38.59500 9.56500 48.05300

