158

Mg 17.70600 -1.51300 26.84900
C  16.48100 0.50500 29.31300
C  19.61500 -3.31900 29.17900
C  18.99100 -3.21800 24.31700
C  16.21200 0.73600 24.30100
N  18.16400 -1.28700 28.90300
C  17.35700 -0.53800 29.76700
C  17.72000 -0.75300 31.20900
C  18.75700 -1.82200 31.12700
C  18.90300 -2.20400 29.68400
C  20.16500 -1.52000 31.73300
C  16.55000 -1.07500 32.06500
C  16.50900 -0.39100 33.52800
H  17.88700 0.12500 34.17200
N  18.98200 -3.18400 26.73500
C  19.70300 -3.79400 27.79600
C  20.42500 -4.91500 27.21500
C  20.15300 -4.93300 25.80200
C  19.24900 -3.80900 25.59600
C  21.27100 -5.80400 28.14000
C  20.67100 -5.88400 24.70700
O  20.44500 -5.75600 23.49200
C  21.61500 -6.98500 25.06700
N  17.39500 -1.40500 24.52800
C  18.20400 -2.17900 23.77600
C  18.21300 -1.77200 22.23200
C  17.31500 -0.55100 22.30800
C  16.88200 -0.36700 23.79200
C  19.66700 -1.49900 21.69900
C  16.14000 -0.57100 21.27700
C  14.70800 -0.94300 21.69400
N  16.51400 0.23600 26.74900
C  15.99400 1.00100 25.71700
C  15.22800 2.10300 26.30500
C  15.46400 1.99700 27.71700
C  16.16800 0.81100 27.96800
C  14.41300 3.13100 25.58600
C  15.28700 2.60800 28.95600
O  14.80300 3.64000 29.35300
C  15.82100 1.64300 30.08000
C  16.80600 2.52200 30.73900
O  17.90700 2.80300 30.31700
O  16.28600 2.95800 31.99000
C  17.14900 3.70700 32.86500
H  20.21300 -3.83200 29.93500
H  19.58800 -3.70600 23.54400
H  15.87900 1.43600 23.53200
H  18.12600 0.18400 31.59000
H  18.39200 -2.72300 31.61900
H  20.27100 -0.48300 32.05000
H  21.00200 -1.78900 31.08900
H  20.34500 -2.22700 32.54400
H  16.34300 -2.13400 32.21800
H  15.72400 -0.64600 31.49800
H  16.23700 -1.16800 34.24200
H  15.69300 0.33100 33.54600
H  21.55600 -5.22800 29.02000
H  22.14500 -6.20700 27.62800
H  20.64600 -6.64200 28.44800
H  21.21200 -7.80800 25.65700
H  22.41500 -6.58400 25.69000
H  21.90200 -7.41800 24.10900
H  17.55600 -2.48300 21.73200
H  17.88500 0.32200 21.98900
H  20.42300 -1.61900 22.47400
H  19.74800 -0.44900 21.41700
H  19.83500 -2.22000 20.89900
H  16.50800 -1.09300 20.39400
H  15.94500 0.43700 20.91100
H  14.36300 -0.15900 22.37000
H  14.66500 -1.88300 22.24400
H  14.19500 -1.02800 20.73600
H  14.00300 2.71700 24.66500
H  15.06200 3.93400 25.23500
H  13.64300 3.52200 26.25000
H  15.11700 1.26300 30.82000
H  18.19400 3.64800 32.56200
H  16.98000 3.36500 33.88500
H  16.94800 4.77400 32.76400
Mg 30.26200 57.52300 40.21200
C  27.44000 55.73000 39.26400
C  32.14000 54.67000 39.41900
C  33.05300 59.26300 40.35600
C  28.36900 60.39800 40.27100
N  29.82700 55.34900 39.53300
C  28.57800 54.89100 39.26900
C  28.62100 53.38500 38.83500
C  30.14800 53.00100 38.93100
C  30.78000 54.36700 39.34200
C  30.50300 51.88200 39.91800
C  28.05300 52.99800 37.44900
C  28.57900 53.80200 36.29900
H  27.64300 54.11800 35.12200
N  32.33300 57.01300 40.03900
C  32.91400 55.75900 39.75500
C  34.40000 55.88800 39.80000
C  34.64700 57.27600 40.09800
C  33.30600 57.93400 40.24700
C  35.29300 54.75100 39.56900
C  36.03700 57.96500 40.27800
O  36.97500 57.17400 40.05800
C  36.29700 59.41800 40.59200
N  30.59900 59.55400 40.25600
C  31.93700 60.04500 40.33700
C  31.88400 61.61000 40.35900
C  30.35300 62.00300 40.38700
C  29.72500 60.61600 40.33800
C  32.75700 62.18400 41.47000
C  29.94900 62.96800 39.28600
C  29.75400 64.39600 39.68600
N  28.31300 58.02200 39.82000
C  27.64300 59.24900 40.08900
C  26.21200 59.02300 39.84600
C  26.12100 57.63500 39.54500
C  27.44400 57.08500 39.53700
C  25.09900 60.02700 39.94200
C  25.14900 56.62700 39.16500
O  23.96200 56.77500 39.01800
C  25.96600 55.34000 38.85000
C  25.36200 54.32300 39.76100
O  25.48200 54.29200 40.99500
O  24.62400 53.45000 38.94700
C  23.84900 52.35700 39.57300
H  32.66700 53.74400 39.17600
H  33.90400 59.93800 40.46800
H  27.72100 61.27200 40.36700
H  27.96600 52.87300 39.54100
H  30.50200 52.73700 37.93400
H  31.06600 52.25300 40.77500
H  31.17000 51.19200 39.40100
H  29.55900 51.43900 40.23400
H  26.97300 53.11900 37.53000
H  28.14500 51.96000 37.13000
H  29.40000 53.18300 35.93600
H  29.01200 54.73200 36.66700
H  35.73300 54.76100 38.57200
H  34.63700 53.88100 39.59300
H  35.97800 54.57000 40.39700
H  35.92400 60.05000 39.78600
H  37.37400 59.52700 40.46400
H  35.99800 59.67600 41.60800
H  32.34700 61.90200 39.41700
H  30.06300 62.45300 41.33700
H  33.42600 62.96400 41.10500
H  33.37800 61.46200 42.00000
H  32.21700 62.63500 42.30300
H  29.01800 62.58600 38.86600
H  30.68700 63.08600 38.49300
H  29.77400 64.47300 40.77300
H  28.78300 64.77600 39.36600
H  30.42400 65.05700 39.13600
H  25.10700 60.53600 40.90600
H  24.16000 59.50600 39.75900
H  25.14800 60.72000 39.10200
H  25.81400 55.01800 37.82000
H  23.03800 52.68400 40.22500
H  24.44400 51.66900 40.17300
H  23.47800 51.69800 38.78800

