158

Mg 2.76000 -1.09800 44.19200
C  6.07600 -0.63700 43.45600
C  1.98100 1.39800 41.88400
C  -0.52500 -2.01400 44.54000
C  3.64600 -4.23100 45.71000
N  3.89300 0.10200 42.75200
C  5.24000 0.26600 42.79600
C  5.70600 1.54800 42.05600
C  4.38300 2.07200 41.41100
C  3.32200 1.15100 42.09000
C  4.16600 3.52800 41.75800
C  6.77900 1.30600 40.84500
C  7.67200 2.56600 40.52200
H  7.37800 3.39200 39.23900
N  0.99500 -0.17500 43.49000
C  0.88800 0.69600 42.53000
C  -0.59300 0.89500 42.26400
C  -1.28600 0.11200 43.10000
C  -0.31400 -0.75600 43.76500
C  -1.05900 1.87200 41.19800
C  -2.80600 -0.05100 43.19600
O  -3.60400 0.58800 42.50600
C  -3.50200 -1.06400 43.96600
N  1.70800 -2.84000 45.03700
C  0.34400 -2.93200 45.11000
C  -0.14200 -4.24300 45.66300
C  1.20300 -5.11800 45.84400
C  2.30000 -4.04200 45.49200
C  -0.95100 -4.01800 46.93100
C  1.35600 -6.37500 44.90700
C  2.33400 -7.50600 45.27800
N  4.44400 -2.20700 44.58900
C  4.65800 -3.37200 45.22800
C  6.08500 -3.60800 45.40300
C  6.69600 -2.53800 44.81000
C  5.64900 -1.74500 44.22900
C  6.81700 -4.75800 46.08500
C  7.94600 -1.83100 44.54800
O  9.06100 -2.13100 44.87700
C  7.59200 -0.58900 43.67000
C  7.97100 0.57600 44.41000
O  7.56100 0.69800 45.54300
O  8.68700 1.47500 43.67800
C  9.08700 2.75100 44.40900
H  1.71800 2.16700 41.15500
H  -1.55500 -2.37400 44.51100
H  3.82400 -5.19000 46.20000
H  6.19300 2.31400 42.66000
H  4.45600 1.95000 40.33000
H  4.99000 4.12200 41.36200
H  4.10400 3.63300 42.84100
H  3.23100 3.82600 41.28300
H  6.26100 0.92500 39.96500
H  7.48100 0.52500 41.13600
H  8.66200 2.11200 40.48200
H  7.75300 3.25300 41.36500
H  -0.50600 1.58500 40.30400
H  -0.88000 2.88100 41.57000
H  -2.11100 1.85000 40.91400
H  -4.52000 -0.76300 44.21300
H  -3.16400 -1.10600 45.00100
H  -3.43000 -2.07700 43.57100
H  -0.74000 -4.67700 44.86100
H  1.34500 -5.44200 46.87600
H  -2.01800 -4.15300 46.75800
H  -0.82900 -2.95700 47.14900
H  -0.70900 -4.73900 47.71200
H  1.79400 -5.98800 43.98700
H  0.34100 -6.71300 44.69900
H  1.77000 -8.42300 45.11100
H  2.42800 -7.53100 46.36400
H  3.33800 -7.46800 44.85500
H  6.21500 -5.29600 46.81800
H  7.50200 -4.16300 46.68900
H  7.31200 -5.47600 45.43200
H  7.99100 -0.67700 42.65900
H  9.03000 3.57700 43.70000
H  10.13500 2.68200 44.70000
H  8.32200 2.99800 45.14500
Mg -11.36700 15.93500 42.86500
C  -7.96000 16.63700 42.67700
C  -12.06400 19.33400 42.56500
C  -14.52800 15.17900 42.14700
C  -10.50700 12.49500 42.72400
N  -10.12700 17.73300 42.77300
C  -8.76500 17.81600 42.70800
C  -8.31700 19.27400 42.54200
C  -9.60100 19.97800 43.08900
C  -10.73000 18.95600 42.73200
C  -9.63700 20.26200 44.62200
C  -7.81500 19.69500 41.07300
C  -6.31800 20.13400 40.96400
H  -5.48700 19.51200 39.90300
N  -13.07600 17.10500 42.42400
C  -13.14600 18.50400 42.32200
C  -14.48200 18.90700 41.91500
C  -15.25800 17.65400 41.73000
C  -14.35600 16.58900 42.17800
C  -14.99200 20.26500 41.76400
C  -16.67700 17.68000 41.32800
O  -17.24400 18.74900 41.02900
C  -17.56900 16.45000 41.32100
N  -12.29100 14.07500 42.54000
C  -13.65200 14.12600 42.42400
C  -14.26700 12.67200 42.50500
C  -12.99300 11.80100 42.68800
C  -11.85700 12.78800 42.60400
C  -15.27800 12.50700 43.62800
C  -12.79400 10.74000 41.56300
C  -12.80700 9.28100 42.06900
N  -9.63700 14.74100 42.80000
C  -9.41500 13.37100 42.79600
C  -8.00500 13.10000 42.83000
C  -7.46000 14.35800 42.84500
C  -8.47100 15.31100 42.73900
C  -7.29400 11.83500 42.97500
C  -6.13700 14.98800 42.96700
O  -5.04900 14.47200 42.99300
C  -6.45100 16.54900 42.81200
C  -6.01900 17.13100 44.14600
O  -6.50200 16.93600 45.27900
O  -4.99500 17.91900 43.93700
C  -4.33900 18.51900 45.12600
H  -12.11300 20.42500 42.54800
H  -15.53700 14.82300 41.92700
H  -10.35500 11.41300 42.71800
H  -7.48500 19.40200 43.23300
H  -9.80600 20.90700 42.55700
H  -8.62900 20.05800 44.98300
H  -10.43000 19.74500 45.16300
H  -9.80100 21.33900 44.64900
H  -8.46700 20.49200 40.71800
H  -8.05900 18.86300 40.41200
H  -5.91500 19.81500 41.92600
H  -6.31500 21.22300 40.90800
H  -14.99900 20.56100 40.71500
H  -14.36400 21.03700 42.20900
H  -15.96000 20.41600 42.24000
H  -18.62000 16.73500 41.36000
H  -17.55100 15.90300 42.26400
H  -17.28000 15.78800 40.50400
H  -14.68000 12.36800 41.54400
H  -12.93000 11.34400 43.67600
H  -15.29300 13.45400 44.16900
H  -14.93300 11.71200 44.29000
H  -16.27000 12.47000 43.17900
H  -11.95800 11.02500 40.92500
H  -13.65000 10.73900 40.88700
H  -12.86100 9.10000 43.14300
H  -11.96800 8.67100 41.73500
H  -13.68200 8.74100 41.70400
H  -6.60500 11.97400 43.80800
H  -6.65600 11.71700 42.09900
H  -7.97000 10.98100 43.02000
H  -5.80000 16.88800 42.00600
H  -4.07700 17.81900 45.91900
H  -4.83600 19.39400 45.54400
H  -3.33500 18.68100 44.73500

