158

Mg 46.12400 24.41600 28.58900
C  46.99800 26.71600 31.11600
C  45.83900 22.02400 30.99600
C  45.50500 22.18700 26.07800
C  47.21000 26.74300 26.24000
N  46.19800 24.46200 30.78200
C  46.53500 25.51200 31.56800
C  46.42900 25.12400 33.04300
C  46.52900 23.51700 33.03500
C  46.10600 23.30400 31.51400
C  47.92300 22.92900 33.44700
C  45.12800 25.69100 33.61500
C  45.37700 26.84000 34.64800
H  44.68700 26.75500 35.99000
N  45.58000 22.39800 28.59200
C  45.54300 21.57400 29.72800
C  45.29500 20.18600 29.27100
C  45.33300 20.23100 27.79000
C  45.46200 21.60300 27.40200
C  45.39300 19.00300 30.18500
C  45.38900 18.99600 26.82000
O  45.44600 19.07800 25.59400
C  45.48900 17.65500 27.41200
N  46.38600 24.42300 26.52800
C  45.96200 23.48200 25.69800
C  46.17600 23.80800 24.19300
C  46.49800 25.28700 24.30500
C  46.71100 25.50900 25.74900
C  47.30500 22.83000 23.67600
C  45.37400 26.14300 23.74500
C  45.72400 27.39000 23.00500
N  47.02300 26.25900 28.58900
C  47.34300 27.11300 27.56000
C  47.67600 28.42700 28.04900
C  47.57600 28.30400 29.45600
C  47.18800 26.98600 29.71100
C  48.17500 29.52500 27.25000
C  47.77400 28.96200 30.78700
O  48.30400 30.04500 30.95000
C  47.37400 27.98400 31.91500
C  48.66000 27.74000 32.75100
O  49.60500 27.29700 32.25000
O  48.56400 28.17900 34.05300
C  49.78000 28.07200 34.85500
H  45.82700 21.30100 31.81400
H  45.24600 21.54100 25.23700
H  47.47900 27.42100 25.42700
H  47.29400 25.52300 33.57200
H  45.77200 23.06100 33.67300
H  48.30000 22.34700 32.60600
H  47.69400 22.40500 34.37500
H  48.63300 23.75400 33.51500
H  44.48100 24.94800 34.08200
H  44.54600 26.01700 32.75300
H  44.83400 27.69600 34.24700
H  46.45600 26.94600 34.76900
H  45.49400 19.30600 31.22800
H  46.31500 18.42700 30.11000
H  44.49000 18.39400 30.16400
H  46.46800 17.56400 27.88200
H  45.46800 16.88100 26.64400
H  44.63800 17.43600 28.05700
H  45.17900 23.64800 23.78200
H  47.41800 25.50900 23.76400
H  48.22300 23.41000 23.58900
H  47.04100 22.60000 22.64400
H  47.31700 21.92100 24.27800
H  44.66000 26.34200 24.54400
H  44.90900 25.58500 22.93300
H  45.59500 27.30300 21.92600
H  46.80400 27.52400 23.07500
H  45.20200 28.24900 23.42600
H  47.71300 29.45900 26.26500
H  49.25900 29.50000 27.14200
H  47.82200 30.43100 27.74200
H  46.56800 28.22800 32.60700
H  49.57100 27.56200 35.79500
H  50.02900 29.11800 35.03200
H  50.59800 27.60600 34.30700
Mg -2.24400 34.92100 26.20700
C  -4.20800 33.49100 28.53600
C  -1.33300 37.36400 28.47000
C  -0.39600 36.51600 23.76200
C  -3.93100 33.17900 23.66500
N  -2.63000 35.23800 28.32700
C  -3.36100 34.45600 29.08100
C  -3.30800 34.90200 30.55200
C  -2.51600 36.24400 30.46700
C  -2.17700 36.31600 28.96600
C  -3.33900 37.56000 30.89900
C  -2.71600 33.78000 31.45400
C  -2.31900 34.16900 32.93100
H  -2.86600 33.28000 34.02700
N  -0.99800 36.68900 26.13700
C  -0.83500 37.54600 27.18600
C  0.13400 38.61500 26.81900
C  0.46400 38.37800 25.42200
C  -0.27800 37.12100 25.02600
C  0.62800 39.61600 27.79100
C  1.27200 39.21600 24.42200
O  1.44500 38.95100 23.21000
C  1.88300 40.45300 24.91500
N  -2.18800 34.90700 23.98800
C  -1.20100 35.52100 23.23500
C  -1.19200 34.94700 21.81100
C  -2.51000 34.11900 21.81000
C  -2.89000 34.05400 23.21000
C  -1.13100 35.93800 20.59700
C  -2.35500 32.73200 21.16800
C  -3.41700 32.30000 20.16100
N  -3.72100 33.59000 26.03900
C  -4.22600 32.85800 24.97500
C  -5.16600 31.85000 25.41700
C  -5.14500 32.08200 26.84300
C  -4.25500 33.12300 27.16800
C  -5.98100 30.95100 24.56400
C  -5.76800 31.56900 28.10700
O  -6.47100 30.59800 28.25200
C  -5.21100 32.59400 29.21400
C  -6.43900 33.29200 29.76100
O  -7.25600 34.02800 29.18500
O  -6.56900 33.05400 31.10000
C  -7.56600 33.75800 31.93000
H  -0.99100 38.10800 29.19300
H  0.26200 36.93400 22.99700
H  -4.57300 32.64400 22.96300
H  -4.35400 35.08100 30.80500
H  -1.68900 36.35400 31.16900
H  -4.31800 37.25400 31.26700
H  -3.48300 38.32600 30.13800
H  -2.73100 38.06300 31.65200
H  -1.90800 33.29800 30.90400
H  -3.57000 33.11100 31.56000
H  -2.60100 35.21300 33.06500
H  -1.23100 34.18500 32.99300
H  -0.02300 40.48900 27.82100
H  1.62400 39.88400 27.43700
H  0.77000 39.16500 28.77300
H  1.23000 40.94700 25.63300
H  2.15800 40.96600 23.99300
H  2.87300 40.18600 25.28700
H  -0.37800 34.22100 21.80700
H  -3.22300 34.72500 21.25100
H  -0.10900 36.15500 20.28800
H  -1.40600 36.88500 21.06000
H  -1.86400 35.63300 19.85100
H  -2.36400 31.99300 21.96800
H  -1.43600 32.63200 20.59100
H  -2.90700 32.10900 19.21800
H  -4.05500 33.15200 19.92500
H  -3.99500 31.45200 20.52600
H  -6.79100 31.53600 24.12800
H  -6.26700 29.99700 25.00600
H  -5.31800 30.61300 23.76700
H  -4.74300 32.02800 30.01900
H  -7.00900 34.22200 32.74400
H  -8.13900 32.94800 32.38100
H  -8.16500 34.53600 31.45600

