158

Mg 8.19200 2.88600 27.13700
C  9.63700 1.15800 30.03100
C  6.51600 4.81300 29.35300
C  6.95900 4.32200 24.44400
C  9.99000 0.55900 25.18000
N  8.14400 2.95600 29.52200
C  8.80700 2.20100 30.42800
C  8.52300 2.72600 31.87700
C  7.32300 3.73900 31.58800
C  7.19800 3.80300 30.05200
C  6.01900 3.35000 32.20600
C  9.79300 3.24300 32.55200
C  9.62500 4.22600 33.81200
H  10.61000 4.22700 34.90600
N  6.96900 4.46500 26.97500
C  6.33100 5.15000 27.98400
C  5.49400 6.23800 27.39300
C  5.73500 6.12800 25.94600
C  6.58600 4.89000 25.73400
C  4.60600 7.12700 28.18300
C  5.11600 6.98300 24.86500
O  5.08100 6.66700 23.69100
C  4.46100 8.24700 25.12000
N  8.40200 2.45800 25.15400
C  7.78600 3.19400 24.19200
C  7.97100 2.55600 22.80600
C  9.11400 1.58200 23.00700
C  9.24900 1.55100 24.56100
C  6.64600 1.95200 22.15000
C  10.34300 2.11000 22.31200
C  11.43500 1.07100 21.82100
N  9.40000 1.03100 27.43700
C  10.18900 0.33600 26.55000
C  11.04000 -0.63800 27.20200
C  10.83800 -0.33400 28.60300
C  9.81200 0.72800 28.67400
C  11.91400 -1.58900 26.60100
C  11.33800 -0.61800 29.88500
O  12.24300 -1.36600 30.22200
C  10.54400 0.28300 30.94100
C  9.60400 -0.46700 31.81400
O  8.82100 -1.31200 31.39700
O  9.89000 -0.22100 33.14800
C  9.38500 -1.22200 34.14100
H  5.90800 5.33400 30.09600
H  6.48000 4.71900 23.54600
H  10.51900 -0.13200 24.52100
H  8.10200 1.89600 32.44500
H  7.52800 4.70800 32.04200
H  5.34900 2.97000 31.43400
H  5.46900 4.21600 32.57300
H  6.12100 2.57800 32.96900
H  10.43100 3.83900 31.90000
H  10.28700 2.36200 32.96200
H  8.62000 4.12100 34.22200
H  9.62900 5.16600 33.26000
H  4.65700 6.92500 29.25300
H  3.54600 7.07100 27.93600
H  4.94800 8.14700 28.00800
H  5.11100 8.94900 25.64200
H  3.56700 8.11100 25.73000
H  4.18600 8.72500 24.18000
H  8.20900 3.32800 22.07500
H  8.95700 0.53600 22.74300
H  5.81400 2.18800 22.81500
H  6.59900 0.89800 21.87500
H  6.51500 2.53200 21.23700
H  10.82900 2.72400 23.07000
H  10.11200 2.69100 21.41900
H  10.93600 0.10300 21.78700
H  12.23800 0.98600 22.55400
H  11.90000 1.23800 20.84900
H  12.86800 -1.70400 27.11600
H  12.19800 -1.48600 25.55400
H  11.52800 -2.60400 26.50600
H  11.23700 0.76800 31.62800
H  8.98300 -0.58200 34.92600
H  10.26200 -1.75900 34.50300
H  8.60900 -1.83200 33.67900
Mg 47.29400 25.32400 28.81000
C  48.51100 27.61200 31.24000
C  46.11700 23.40200 31.39300
C  46.94700 22.68200 26.75200
C  49.08800 26.93900 26.46000
N  47.31200 25.50900 31.04700
C  47.73500 26.58300 31.80500
C  47.26100 26.41000 33.22500
C  46.74400 24.96300 33.29400
C  46.62900 24.64300 31.82300
C  47.45100 23.84100 34.23900
C  46.31500 27.63600 33.65600
C  45.46800 27.54900 34.90400
H  46.09400 27.86300 36.19500
N  46.44200 23.47900 28.96800
C  45.98800 22.83600 30.11200
C  45.37400 21.58800 29.80200
C  45.46300 21.40500 28.45000
C  46.32800 22.53200 27.99700
C  44.77500 20.67000 30.88500
C  44.85700 20.29100 27.51600
O  44.96900 20.25200 26.32200
C  44.13900 19.10200 28.13000
N  47.93400 24.92600 26.82500
C  47.59900 23.78600 26.18300
C  48.15700 23.75400 24.73300
C  48.51500 25.28600 24.55600
C  48.47600 25.74600 26.01800
C  49.40100 22.87100 24.51600
C  47.43400 26.18500 23.78700
C  47.99100 27.07800 22.67000
N  48.44100 27.03900 28.72300
C  49.16400 27.53300 27.70900
C  49.87500 28.71200 28.11100
C  49.60600 28.86400 29.51700
C  48.82100 27.73700 29.86100
C  50.62400 29.61700 27.13000
C  49.85300 29.65100 30.69200
O  50.43300 30.69100 30.86300
C  49.16000 28.86500 31.88400
C  50.27400 28.55900 32.81200
O  51.39600 28.11800 32.49100
O  49.85600 28.68700 34.13700
C  50.77200 28.08700 35.17700
H  45.70400 22.72200 32.14200
H  46.64400 21.96700 25.98400
H  49.51200 27.43400 25.58300
H  48.17500 26.44600 33.81800
H  45.69800 25.04500 33.59100
H  48.39100 24.19200 34.66400
H  47.72800 22.92300 33.72000
H  46.66300 23.54500 34.93200
H  45.69000 27.57500 32.76500
H  46.80900 28.60700 33.65200
H  45.00300 26.56300 34.92200
H  44.60200 28.20800 34.84000
H  44.90800 21.01500 31.91100
H  45.28200 19.71200 31.00500
H  43.70900 20.51200 30.72600
H  43.19000 19.41400 28.56500
H  44.62200 18.72700 29.03200
H  43.98100 18.36800 27.34000
H  47.30200 23.53300 24.09400
H  49.52900 25.47200 24.20200
H  49.75600 22.29400 25.36900
H  50.26600 23.37600 24.08600
H  49.21700 22.16900 23.70200
H  46.92000 26.81200 24.51600
H  46.71100 25.50900 23.33000
H  47.17100 27.06700 21.95200
H  48.93400 26.73900 22.24200
H  48.13900 28.07800 23.07700
H  51.19700 30.36400 27.67900
H  49.92800 30.08200 26.43300
H  51.32400 28.93700 26.64500
H  48.49600 29.60300 32.33400
H  50.29100 27.58200 36.01400
H  51.33400 28.90900 35.62000
H  51.54600 27.46400 34.72900

