158

Mg 8.99600 2.59600 27.31400
C  10.29800 1.01800 30.28300
C  7.16100 4.67600 29.31300
C  7.23400 3.43500 24.70200
C  10.40500 -0.16800 25.58700
N  8.70800 2.72500 29.49200
C  9.44400 2.12500 30.50800
C  9.13800 2.88300 31.83300
C  7.99100 3.89100 31.52500
C  7.88700 3.68600 30.01000
C  6.63500 3.78200 32.26600
C  10.50900 3.62200 32.32500
C  10.50500 4.54900 33.52700
H  10.93300 4.03000 34.96500
N  7.51600 4.02200 27.00600
C  6.91600 4.80300 27.93400
C  6.01500 5.71600 27.26200
C  5.95400 5.30300 25.92400
C  6.98100 4.22700 25.84200
C  5.19700 6.72300 28.02900
C  5.01700 5.79900 24.83800
O  5.17100 5.37400 23.73000
C  4.03900 6.94200 25.08600
N  9.00800 1.87600 25.36600
C  8.05100 2.39300 24.48700
C  8.33200 1.76300 23.16400
C  9.26200 0.56200 23.43100
C  9.56900 0.68000 24.88500
C  7.08800 1.23100 22.32800
C  10.54800 0.56700 22.53400
C  10.55100 -0.66300 21.58700
N  10.15900 0.74400 27.76000
C  10.67000 -0.27400 26.96200
C  11.42400 -1.12900 27.74400
C  11.40300 -0.65200 29.02900
C  10.52000 0.46300 28.97400
C  12.09500 -2.34900 27.16900
C  11.86100 -0.83200 30.39900
O  12.65900 -1.63300 30.86800
C  11.26100 0.31200 31.29800
C  10.60900 -0.47000 32.36300
O  9.56900 -1.14000 32.21200
O  11.27000 -0.20400 33.53900
C  10.77700 -0.88300 34.73100
H  6.69200 5.46500 29.90400
H  6.62200 3.62600 23.81700
H  10.73000 -0.99300 24.95000
H  8.76800 2.07400 32.46200
H  8.37700 4.89300 31.71300
H  6.90600 3.20500 33.15000
H  5.81500 3.31300 31.72300
H  6.29700 4.71800 32.71200
H  10.85600 4.20000 31.46900
H  11.20200 2.79800 32.49500
H  9.44500 4.78800 33.61500
H  11.17400 5.38200 33.31100
H  5.58400 7.01800 29.00400
H  4.27100 6.21800 28.30700
H  4.93300 7.62100 27.47000
H  3.45400 7.15500 24.19100
H  4.52300 7.87500 25.37400
H  3.38500 6.67300 25.91600
H  8.80700 2.55100 22.57900
H  8.87200 -0.42200 23.16900
H  6.33500 1.64100 23.00200
H  7.03100 0.14400 22.27800
H  6.94100 1.71200 21.36200
H  11.42800 0.49300 23.17300
H  10.61300 1.48200 21.94500
H  9.57600 -1.06900 21.32000
H  11.07700 -1.46000 22.11300
H  11.26300 -0.38300 20.81100
H  12.68200 -2.19000 26.26400
H  11.29300 -3.05200 26.94400
H  12.85300 -2.73500 27.85100
H  12.03000 0.95800 31.72200
H  10.27300 -1.84700 34.65600
H  10.25900 -0.11300 35.30200
H  11.64600 -1.08100 35.35900
Mg -0.60100 44.62300 26.36900
C  1.67900 43.43500 28.86800
C  -3.14500 43.95500 28.51600
C  -2.70700 45.05700 23.80500
C  2.15800 44.47600 24.06600
N  -0.67500 43.74500 28.48200
C  0.36300 43.42300 29.32700
C  -0.11400 43.21000 30.76600
C  -1.69000 43.16300 30.54500
C  -1.87600 43.72200 29.08300
C  -2.42100 41.87000 30.80900
C  0.32600 44.48000 31.68600
C  0.67200 44.15500 33.19400
H  0.44700 42.76200 33.78100
N  -2.63600 44.60400 26.25100
C  -3.52600 44.38500 27.23600
C  -4.86800 44.61900 26.73700
C  -4.70900 45.10500 25.42600
C  -3.24300 44.94800 25.08700
C  -6.05600 44.46900 27.62300
C  -5.76700 45.61900 24.38200
O  -5.48300 45.99500 23.25800
C  -7.26000 45.55600 24.63300
N  -0.30800 44.72300 24.17300
C  -1.35800 45.00100 23.32300
C  -0.87300 45.08700 21.90000
C  0.66300 45.18100 22.06600
C  0.90200 44.83200 23.50000
C  -1.38900 43.97700 21.03700
C  1.27500 46.55200 21.64600
C  1.35300 47.66800 22.69500
N  1.51600 44.17300 26.40800
C  2.49800 44.14500 25.42000
C  3.78400 43.88400 26.05400
C  3.50600 43.56800 27.37600
C  2.13400 43.72600 27.53500
C  5.18100 43.71900 25.41100
C  4.15600 43.08900 28.60400
O  5.24700 42.61100 28.81300
C  2.91200 43.11400 29.62500
C  3.01000 41.89500 30.45600
O  2.54100 40.79600 30.13200
O  3.77000 42.22400 31.54900
C  4.05300 41.15700 32.50200
H  -3.98700 43.81100 29.19700
H  -3.35000 45.27200 22.94900
H  2.94300 44.64000 23.32400
H  0.10900 42.17200 31.01600
H  -2.13800 43.82500 31.28600
H  -1.76700 41.29600 31.46500
H  -2.70800 41.34200 29.89900
H  -3.32600 42.05200 31.38900
H  -0.35000 45.33500 31.68500
H  1.21400 44.87800 31.19500
H  0.06500 44.81900 33.81000
H  1.74400 44.23800 33.37000
H  -6.05100 43.44900 28.00800
H  -6.97500 44.63800 27.06100
H  -6.11000 45.22700 28.40400
H  -7.58600 45.89500 25.61700
H  -7.50300 44.49400 24.59200
H  -7.83400 46.22100 23.98700
H  -1.24500 46.06500 21.59700
H  1.15900 44.47100 21.40400
H  -1.84900 43.16200 21.59500
H  -0.61000 43.59500 20.37700
H  -2.24700 44.43000 20.54200
H  0.64900 46.92400 20.83500
H  2.25300 46.35300 21.20800
H  2.36800 47.92500 23.00000
H  0.61200 47.42600 23.45700
H  1.14700 48.62100 22.20700
H  5.50100 44.72700 25.14700
H  5.09900 43.29500 24.41000
H  5.68900 43.09800 26.14800
H  3.24100 44.00300 30.16200
H  4.12200 41.49700 33.53600
H  5.09200 40.85100 32.38600
H  3.31900 40.36100 32.38200

