158

Mg 40.06700 9.31000 30.31600
C  42.13500 10.67700 32.92400
C  38.26500 7.60900 32.74900
C  38.26700 7.89700 27.77900
C  42.17500 10.74000 27.98900
N  40.17200 9.16400 32.59900
C  41.01600 9.90600 33.41500
C  40.62200 9.76900 34.87300
C  39.37200 8.76100 34.84600
C  39.19500 8.50100 33.32800
C  39.50000 7.48800 35.79000
C  40.21700 11.16300 35.53400
C  40.91800 11.63500 36.80400
H  40.01800 12.52800 37.73300
N  38.47000 8.02600 30.28900
C  37.90300 7.41000 31.36200
C  36.69100 6.69900 30.89400
C  36.73600 6.64700 29.40500
C  37.90000 7.51400 29.06900
C  35.68900 6.09500 31.99800
C  35.86200 5.85000 28.43100
O  36.09600 5.73900 27.21800
C  34.54900 5.32300 29.07400
N  40.14800 9.35000 28.20200
C  39.26800 8.77100 27.41500
C  39.46000 9.22500 25.98000
C  40.51400 10.37300 26.10600
C  40.98900 10.14500 27.48700
C  39.66900 8.28300 24.71100
C  39.84400 11.75100 25.86900
C  40.69400 12.74300 24.96500
N  41.89100 10.46600 30.40400
C  42.57400 10.88400 29.33800
C  43.73700 11.70300 29.85900
C  43.54600 11.69900 31.26800
C  42.43400 10.85900 31.55100
C  44.82100 12.18800 29.04800
C  44.08100 12.16300 32.51600
O  45.13500 12.78100 32.70400
C  43.22900 11.54200 33.66200
C  44.01700 10.67700 34.60200
O  44.52000 9.53800 34.40800
O  44.05400 11.38000 35.82500
C  44.45400 10.46100 36.92000
H  37.51100 7.20000 33.42500
H  37.60700 7.66400 26.94100
H  42.85000 11.22300 27.27800
H  41.49100 9.38900 35.41000
H  38.43400 9.27400 35.05800
H  39.18000 6.52400 35.39400
H  38.74600 7.71200 36.54400
H  40.45400 7.48700 36.31600
H  39.14400 11.18300 35.72300
H  40.28700 11.90100 34.73500
H  41.78400 12.22300 36.50000
H  41.25500 10.75500 37.35300
H  35.56400 6.75800 32.85400
H  36.01900 5.08900 32.25700
H  34.70400 5.96200 31.55200
H  33.95400 4.79100 28.33200
H  34.07100 6.21200 29.48500
H  34.75500 4.57000 29.83500
H  38.49300 9.69100 25.79300
H  41.43900 10.24800 25.54300
H  39.82900 7.27500 25.09300
H  40.55100 8.49600 24.10700
H  38.83500 8.27200 24.00900
H  39.74400 12.20000 26.85700
H  38.80900 11.64300 25.54400
H  40.96100 13.71200 25.38600
H  40.32100 12.80600 23.94300
H  41.63500 12.23300 24.75900
H  44.91400 11.77400 28.04400
H  45.73900 11.87800 29.54600
H  44.73300 13.27400 29.02500
H  42.77200 12.34800 34.23700
H  43.79300 9.59400 36.92600
H  44.42100 11.04100 37.84200
H  45.46600 10.11200 36.71500
Mg 29.62200 57.54600 41.48800
C  27.17900 55.66300 40.07800
C  31.98500 55.64000 39.78000
C  32.03900 59.96900 42.08200
C  27.14700 60.06800 42.07400
N  29.55700 55.89800 39.95700
C  28.44100 55.22100 39.67700
C  28.74700 53.87100 38.86400
C  30.32800 53.96300 38.68900
C  30.67300 55.20100 39.60200
C  31.05100 52.63000 38.90500
C  28.03500 53.71800 37.50100
C  28.07800 54.98600 36.59400
H  27.11900 55.21700 35.48800
N  31.67500 57.66700 41.11100
C  32.47800 56.75500 40.47100
C  33.79000 57.18200 40.49300
C  33.83600 58.43200 41.16200
C  32.46300 58.71600 41.48200
C  34.84300 56.34900 39.82300
C  35.17900 59.21700 41.48800
O  36.23500 58.71800 41.08600
C  35.20900 60.49400 42.29100
N  29.64000 59.69300 42.01800
C  30.67800 60.52700 42.19700
C  30.33700 61.99100 42.47800
C  28.77100 61.88700 42.47900
C  28.45600 60.45400 42.25700
C  30.97900 62.43800 43.85900
C  28.12100 62.92700 41.49900
C  28.61500 64.30300 41.76800
N  27.51600 57.74900 41.43500
C  26.68700 58.87700 41.57700
C  25.32900 58.36000 41.38700
C  25.42600 57.05100 40.89300
C  26.88300 56.83900 40.76300
C  24.05600 59.08200 41.64500
C  24.68800 55.92700 40.41700
O  23.49800 55.61300 40.41300
C  25.81500 55.03300 39.80000
C  25.56800 53.69200 40.37800
O  25.84900 53.37300 41.51200
O  24.74500 52.97300 39.47900
C  24.13100 51.65800 39.81900
H  32.69100 55.06300 39.17900
H  32.79800 60.75100 42.15800
H  26.40300 60.84700 42.25000
H  28.36700 53.06500 39.49200
H  30.62300 54.25300 37.68100
H  31.53700 52.31100 37.98300
H  30.35500 51.85600 39.22600
H  31.82500 52.94100 39.60700
H  27.03700 53.28400 37.56400
H  28.60100 52.92100 37.01900
H  28.97600 54.96500 35.97700
H  28.10800 55.92100 37.15300
H  34.98500 56.54800 38.76000
H  34.64300 55.28600 39.95200
H  35.73200 56.52400 40.42900
H  34.94100 61.36200 41.68900
H  36.25700 60.69600 42.51100
H  34.66100 60.40100 43.22900
H  30.68900 62.58600 41.63500
H  28.21400 62.22500 43.35200
H  31.41300 63.43200 43.74400
H  31.78500 61.77700 44.17800
H  30.12300 62.42700 44.53400
H  27.04000 63.02400 41.60000
H  28.33800 62.59400 40.48400
H  27.71600 64.90000 41.92300
H  29.24200 64.71300 40.97600
H  29.14600 64.41600 42.71300
H  23.17700 58.48200 41.40900
H  24.01100 59.99200 41.04600
H  23.98900 59.44400 42.67000
H  25.59900 55.06700 38.73200
H  24.18500 51.69700 40.90700
H  24.64800 50.78900 39.41200
H  23.06800 51.63700 39.57800

