158

Mg 48.16800 15.82800 29.02700
C  46.09900 15.79700 31.67800
C  50.55400 17.65700 30.69700
C  50.08300 15.71500 26.20800
C  45.58200 14.16000 27.11600
N  48.27900 16.55000 30.99000
C  47.28600 16.39900 31.95200
C  47.89500 16.82800 33.32200
C  49.09700 17.69200 32.90700
C  49.37300 17.31600 31.39900
C  48.95700 19.24100 33.11100
C  48.27800 15.54500 34.20700
C  48.04500 15.69000 35.74800
H  47.74600 17.10600 36.29500
N  50.12600 16.47500 28.56700
C  50.92100 17.19700 29.46500
C  52.16800 17.47500 28.72800
C  52.09700 16.76700 27.46700
C  50.73600 16.37400 27.35200
C  53.41100 18.04000 29.45000
C  53.10500 16.46400 26.46400
O  52.84500 15.84400 25.43500
C  54.58000 16.79600 26.83300
N  47.88600 15.10700 27.00800
C  48.76000 15.26800 26.05100
C  48.16100 14.95900 24.62100
C  46.92800 14.24000 24.94900
C  46.75900 14.47900 26.46400
C  48.12900 16.21400 23.70600
C  46.95700 12.73800 24.53600
C  46.16900 12.19400 23.42500
N  46.26700 15.10900 29.28400
C  45.37800 14.43000 28.48500
C  44.19400 14.01000 29.16000
C  44.39800 14.51300 30.44200
C  45.68000 15.20000 30.46400
C  43.11900 13.09400 28.62100
C  43.85700 14.54300 31.77900
O  42.79600 14.15600 32.20800
C  45.02700 15.31600 32.69400
C  44.40900 16.44800 33.47900
O  44.05100 17.51100 33.09700
O  44.11800 15.93200 34.74000
C  43.16200 16.65500 35.59000
H  51.35800 18.13600 31.26000
H  50.57800 15.83800 25.24200
H  44.73000 13.80300 26.53300
H  47.15900 17.35600 33.92700
H  50.07200 17.48000 33.34600
H  47.99500 19.55300 33.51800
H  48.91400 19.68100 32.11500
H  49.73300 19.69700 33.72700
H  49.34600 15.59100 33.99600
H  47.85900 14.61100 33.83200
H  48.88400 15.38600 36.37300
H  47.25100 15.04000 36.11500
H  53.06000 18.85800 30.07900
H  54.04600 18.61900 28.78000
H  53.85200 17.20400 29.99300
H  55.02300 16.32900 27.71300
H  54.58800 17.87900 26.94900
H  55.13500 16.56900 25.92300
H  48.77500 14.23700 24.08300
H  46.08600 14.64900 24.38900
H  48.53200 17.04900 24.28000
H  47.11300 16.49400 23.42800
H  48.73800 15.99300 22.82900
H  46.52100 12.17400 25.36100
H  47.96700 12.34100 24.43200
H  46.57800 11.23100 23.12000
H  46.22500 12.94000 22.63200
H  45.11900 12.14300 23.71100
H  43.25000 12.70200 27.61200
H  42.17700 13.62400 28.48300
H  43.02700 12.21300 29.25600
H  45.42300 14.56700 33.38000
H  43.72500 17.41600 36.13000
H  42.73700 16.12500 36.44300
H  42.38600 17.06400 34.94300
Mg 50.18100 46.39500 43.03800
C  46.75600 46.73700 42.31400
C  50.09100 43.44800 41.37900
C  53.60500 46.39900 43.29300
C  50.13700 49.80500 44.10500
N  48.64800 45.23900 41.93200
C  47.29400 45.55300 41.85600
C  46.54000 44.53000 41.07400
C  47.52100 43.32500 41.18900
C  48.85700 43.97100 41.52000
C  47.22900 42.17600 42.32100
C  46.08700 44.89100 39.62200
C  44.55900 44.81900 39.36900
H  44.01200 43.85400 38.28300
N  51.64400 44.90800 42.52400
C  51.37800 43.79300 41.83000
C  52.57300 43.08600 41.78600
C  53.60300 43.85800 42.43600
C  52.99900 45.16100 42.79600
C  52.61900 41.65400 41.26700
C  55.10900 43.47500 42.53500
O  55.41900 42.34300 42.24200
C  56.28800 44.41900 42.88900
N  51.65100 47.94700 43.51900
C  52.97000 47.60100 43.68100
C  53.73400 48.72300 44.33500
C  52.61500 49.84500 44.56000
C  51.35900 49.11400 44.06800
C  54.51400 48.35300 45.65700
C  52.88500 51.16400 43.74500
C  52.90700 52.55900 44.54400
N  48.70700 48.11400 43.17100
C  48.84400 49.39700 43.65600
C  47.49800 49.92300 43.77200
C  46.61800 48.93900 43.22400
C  47.43000 47.86600 42.87600
C  47.15100 51.24800 44.31500
C  45.17500 48.60200 42.92900
O  44.11000 49.21000 43.14300
C  45.27300 47.21400 42.17100
C  44.21200 46.25800 42.76400
O  43.14700 46.03000 42.25600
O  44.63600 45.78600 43.93700
C  43.80700 44.72200 44.48300
H  50.11500 42.46100 40.91400
H  54.66700 46.48400 43.53100
H  50.18100 50.80100 44.54900
H  45.63600 44.11100 41.51600
H  47.66100 42.78400 40.25300
H  46.32300 42.27600 42.91900
H  47.97300 42.09400 43.11300
H  47.13500 41.25700 41.74200
H  46.50000 44.07300 39.03300
H  46.56600 45.86200 39.49700
H  44.33800 45.84700 39.08200
H  43.98900 44.42400 40.20900
H  52.51100 41.65300 40.18300
H  51.76200 41.18600 41.75200
H  53.44400 40.99800 41.54700
H  56.24400 44.66500 43.95000
H  56.20100 45.29900 42.25200
H  57.20800 43.90100 42.61600
H  54.51400 49.14200 43.69900
H  52.38200 50.04100 45.60600
H  54.10600 47.36400 45.86800
H  54.35800 49.10500 46.43000
H  55.59100 48.23000 45.53700
H  52.24300 51.34600 42.88400
H  53.83100 50.97400 43.23800
H  53.91500 52.95100 44.40700
H  52.79700 52.41500 45.61900
H  52.22500 53.33000 44.18700
H  47.70200 51.99200 43.74100
H  47.50600 51.31000 45.34300
H  46.06400 51.33300 44.34300
H  45.02100 47.39300 41.12600
H  42.75100 44.98900 44.53300
H  44.14200 44.38300 45.46300
H  43.99500 43.84600 43.86200

