158

Mg 24.79400 -4.49900 46.14300
C  26.90200 -2.28400 44.48000
C  22.35500 -3.79100 43.72400
C  22.98300 -7.16900 47.15200
C  27.52600 -5.75900 47.99400
N  24.65600 -3.18700 44.39000
C  25.60300 -2.37000 43.91300
C  25.13600 -1.49600 42.75200
C  23.60400 -1.74200 42.86200
C  23.47000 -2.99200 43.68500
C  22.73500 -0.68500 43.50500
C  25.76600 -1.87700 41.41800
C  26.32500 -0.74700 40.40600
H  26.26200 -1.15100 38.93800
N  22.94400 -5.33600 45.56900
C  22.09700 -4.91900 44.54700
C  20.89800 -5.67300 44.55800
C  21.03800 -6.75300 45.50600
C  22.34300 -6.48900 46.11100
C  19.80300 -5.44800 43.65000
C  19.98400 -7.83700 45.79800
O  19.00400 -8.04300 45.07100
C  20.17400 -8.91200 46.81100
N  25.24600 -6.37500 47.32800
C  24.25900 -7.16500 47.76800
C  24.78000 -8.22600 48.75800
C  26.26700 -7.78500 49.04600
C  26.41700 -6.60400 48.01000
C  23.90900 -8.55400 50.00100
C  27.31000 -8.91300 48.94500
C  28.45200 -8.79500 49.96500
N  26.76600 -4.10600 46.35700
C  27.73800 -4.61900 47.20500
C  28.94400 -3.87300 47.06900
C  28.72100 -3.04500 45.98800
C  27.38600 -3.15600 45.58100
C  30.30300 -4.13600 47.64300
C  29.30200 -2.06600 45.15000
O  30.41600 -1.62600 45.19300
C  28.24700 -1.54500 44.09600
C  28.12600 -0.07600 44.24100
O  27.43100 0.40600 45.09700
O  28.83300 0.56800 43.30500
C  28.91400 2.02900 43.39600
H  21.55100 -3.42400 43.08200
H  22.52700 -8.08900 47.52400
H  28.25400 -5.89400 48.79700
H  25.34000 -0.45400 42.99600
H  23.08500 -1.96200 41.92900
H  21.91700 -0.39900 42.84400
H  23.24400 0.24000 43.77500
H  22.31700 -1.09200 44.42600
H  25.06100 -2.41800 40.78600
H  26.64800 -2.48300 41.62400
H  27.36600 -0.52500 40.64400
H  25.69200 0.12500 40.57100
H  18.88700 -5.05400 44.08800
H  19.49700 -6.33300 43.09200
H  20.07600 -4.81800 42.80300
H  19.36100 -9.63700 46.76600
H  20.42500 -8.59000 47.82200
H  21.08800 -9.42000 46.50500
H  24.81500 -9.18800 48.24700
H  26.23700 -7.31800 50.03000
H  23.39200 -7.64400 50.30500
H  24.54300 -8.82200 50.84600
H  23.20500 -9.35900 49.79000
H  27.79400 -8.88400 47.96900
H  26.82300 -9.88600 49.01100
H  28.48500 -7.97100 50.67800
H  29.40600 -8.64600 49.46000
H  28.53100 -9.74100 50.50200
H  30.90300 -4.79700 47.01700
H  30.21200 -4.68300 48.58200
H  30.74300 -3.16600 47.87400
H  28.70900 -1.73000 43.12600
H  28.84300 2.56400 42.44900
H  29.75800 2.30700 44.02800
H  28.08800 2.28100 44.06100
Mg 47.12900 25.58700 28.04700
C  48.20500 27.42000 30.81100
C  46.15300 23.02000 30.20500
C  45.98900 23.90600 25.42300
C  48.48900 28.08000 25.98200
N  47.18000 25.30700 30.25000
C  47.67000 26.15900 31.16000
C  47.43900 25.71800 32.59800
C  47.02300 24.23800 32.37500
C  46.73600 24.16800 30.87600
C  48.03300 23.22200 32.93200
C  46.42100 26.60700 33.36600
C  46.93800 27.32600 34.62800
H  46.02100 27.38800 35.87300
N  46.29100 23.65600 27.83100
C  45.93600 22.75800 28.81900
C  45.19700 21.66600 28.16600
C  45.25100 21.84900 26.76000
C  45.93000 23.18000 26.59800
C  44.64200 20.58700 28.95000
C  44.69800 20.94400 25.60000
O  44.96000 21.21600 24.44900
C  43.81600 19.79900 25.92300
N  47.42600 25.82400 26.01500
C  46.82700 24.97100 25.10700
C  46.99200 25.49100 23.69000
C  47.70900 26.78600 23.89000
C  47.82000 26.96400 25.42500
C  47.53400 24.65700 22.55600
C  47.06200 27.95000 23.10000
C  48.03700 28.71200 22.19100
N  48.04900 27.43200 28.29600
C  48.62400 28.38800 27.31900
C  49.25200 29.47300 28.07000
C  49.11500 29.07100 29.38900
C  48.32900 27.90300 29.46800
C  49.91800 30.54600 27.38800
C  49.46000 29.44600 30.69600
O  50.05100 30.45700 31.14300
C  48.80100 28.52000 31.65200
C  49.86300 27.98200 32.43700
O  50.58300 27.06800 32.16500
O  49.94600 28.61000 33.67800
C  51.01400 28.14400 34.53200
H  45.68200 22.30000 30.87800
H  45.47300 23.44500 24.57800
H  48.83900 28.90700 25.36000
H  48.42100 25.82400 33.05900
H  46.09100 24.13200 32.93100
H  48.59700 22.76700 32.11800
H  47.61300 22.40600 33.52100
H  48.74200 23.60900 33.66400
H  45.45500 26.16400 33.61000
H  46.14900 27.43300 32.71000
H  47.13900 28.36600 34.37200
H  47.85000 26.84100 34.97500
H  45.13600 19.69100 28.57400
H  43.56800 20.45300 28.82200
H  44.93100 20.68200 29.99700
H  44.34800 19.00900 26.45300
H  43.53800 19.31900 24.98500
H  42.86900 20.05500 26.39900
H  45.94400 25.64400 23.43500
H  48.73000 26.75500 23.51100
H  47.80700 23.66600 22.91800
H  48.46200 25.10800 22.20500
H  46.84400 24.66200 21.71200
H  46.60300 28.74900 23.68200
H  46.23000 27.58900 22.49500
H  47.52000 29.04700 21.29300
H  48.80600 28.08600 21.73800
H  48.50300 29.55700 22.69800
H  49.42400 30.74300 26.43700
H  50.95900 30.28000 27.20800
H  49.76200 31.47600 27.93600
H  48.13700 29.14400 32.25100
H  52.00100 28.35300 34.12000
H  50.87800 27.06900 34.65000
H  50.93500 28.54000 35.54400

