158

Mg 35.00300 2.08300 29.98200
C  32.51900 3.45300 32.11100
C  37.18800 2.25600 32.57900
C  37.51800 1.33800 27.80700
C  32.85500 2.61500 27.41900
N  34.81900 2.88200 32.11000
C  33.69500 3.15900 32.84900
C  33.91000 3.18500 34.37400
C  35.42100 3.06500 34.42100
C  35.89200 2.76700 32.97900
C  36.22600 4.15700 35.18900
C  33.01800 2.07600 35.03600
C  32.72400 2.25400 36.57900
H  33.45500 3.28600 37.45600
N  37.02800 1.73800 30.18700
C  37.71300 1.77700 31.36200
C  39.06000 1.39000 31.11600
C  39.27900 1.24500 29.77700
C  37.89700 1.33400 29.18600
C  40.02100 1.26500 32.25400
C  40.56200 0.85400 29.02800
O  40.56400 0.71200 27.78000
C  41.95500 0.68200 29.78100
N  35.19300 2.03400 27.95900
C  36.28500 1.66200 27.26500
C  36.07900 1.70900 25.71500
C  34.50600 1.77400 25.62100
C  34.17000 2.15700 27.09700
C  36.83200 2.80500 24.92700
C  33.71000 0.49900 25.26000
C  32.53000 0.86300 24.30200
N  33.09500 2.76200 29.75400
C  32.29400 2.88900 28.65500
C  31.03700 3.48500 28.94300
C  31.08300 3.81600 30.31900
C  32.34200 3.28400 30.76100
C  29.84200 3.67800 28.01800
C  30.33600 4.31500 31.48000
O  29.18000 4.78200 31.45800
C  31.22200 4.00800 32.72100
C  31.36900 5.26100 33.44100
O  31.76300 6.34100 32.90000
O  31.09500 5.11000 34.81100
C  31.57600 6.35800 35.49500
H  37.85800 2.19500 33.44000
H  38.27000 1.12600 27.04400
H  32.13700 2.65300 26.59600
H  33.58600 4.11200 34.84600
H  35.65900 2.13600 34.94000
H  36.97200 3.67200 35.81800
H  35.59400 4.83200 35.76600
H  36.85700 4.75800 34.53400
H  33.55300 1.13000 34.94200
H  32.02800 2.01000 34.58700
H  32.85000 1.27600 37.04400
H  31.68000 2.53500 36.72000
H  40.46500 0.27400 32.16500
H  39.55000 1.24800 33.23700
H  40.77700 2.05000 32.28700
H  42.78500 1.08000 29.19700
H  42.13000 -0.34200 30.11100
H  42.11600 1.26300 30.68900
H  36.52900 0.76600 25.40200
H  34.17200 2.60700 25.00100
H  37.25000 2.40800 24.00100
H  37.59600 3.17100 25.61200
H  36.12500 3.60100 24.69400
H  33.24800 0.13900 26.18000
H  34.35400 -0.24100 24.78500
H  32.54600 0.23600 23.41000
H  32.63400 1.86200 23.87700
H  31.55200 0.79500 24.77900
H  29.21000 4.56400 28.07500
H  29.17700 2.82900 28.17400
H  30.24900 3.59300 27.01000
H  30.66700 3.32200 33.36000
H  31.40400 7.36800 35.12500
H  32.66500 6.38300 35.55200
H  31.29500 6.27700 36.54500
Mg 8.73500 48.14300 25.30700
C  6.62100 48.60400 28.06700
C  11.37400 49.15500 27.21000
C  10.62300 47.56000 22.73000
C  5.82900 47.89100 23.19800
N  8.95300 48.75200 27.40800
C  7.95700 48.91100 28.42200
C  8.56700 49.10700 29.78700
C  9.85500 49.86500 29.23600
C  10.11600 49.18600 27.85700
C  9.58100 51.40900 29.15500
C  8.76400 47.88600 30.65000
C  8.31400 48.11000 32.12800
H  8.23000 46.78300 32.99600
N  10.66900 48.32900 24.99700
C  11.62500 48.72400 25.87600
C  12.95000 48.60700 25.32600
C  12.81400 48.04100 24.03000
C  11.32700 47.96800 23.80100
C  14.26800 48.75800 26.15700
C  13.82000 47.65500 22.94500
O  13.53400 47.25000 21.80500
C  15.25900 47.99400 23.11400
N  8.20200 47.90200 23.23300
C  9.26500 47.52500 22.45100
C  8.74700 47.09300 21.04200
C  7.18300 47.00400 21.20200
C  7.02500 47.67800 22.60600
C  9.34900 47.89200 19.83900
C  6.59900 45.52400 21.16600
C  5.43700 45.17900 20.28400
N  6.71800 48.34600 25.54500
C  5.70000 48.19000 24.59200
C  4.44500 48.06800 25.37800
C  4.86200 48.22600 26.72000
C  6.17200 48.45300 26.76000
C  3.07900 47.67700 24.86100
C  4.31900 48.22400 27.98800
O  3.13500 48.07500 28.30800
C  5.43800 48.56300 28.96300
C  5.56000 47.35200 29.86600
O  6.12200 46.27900 29.62900
O  4.94400 47.66700 30.99500
C  4.67400 46.66000 32.05500
H  12.22300 49.35700 27.86700
H  11.23100 47.15600 21.91800
H  4.97900 47.55200 22.60200
H  7.81800 49.74600 30.25500
H  10.70200 49.68100 29.89700
H  9.97200 51.80200 28.21600
H  10.23100 51.79100 29.94200
H  8.55000 51.70000 29.35400
H  9.82700 47.64800 30.70000
H  8.26900 47.05600 30.14600
H  7.33900 48.59300 32.06600
H  8.99400 48.81700 32.60300
H  14.15000 48.49100 27.20800
H  14.62300 49.78800 26.12200
H  15.02300 48.03000 25.86200
H  15.79400 47.26200 23.71900
H  15.23900 48.99500 23.54400
H  15.84400 47.92200 22.19800
H  9.08500 46.06400 20.91900
H  6.72200 47.63600 20.44300
H  10.27500 48.40100 20.10500
H  8.59700 48.61800 19.53100
H  9.55000 47.20800 19.01400
H  6.48900 45.15100 22.18500
H  7.38700 44.95300 20.67500
H  5.65000 44.35200 19.60700
H  5.12200 45.96600 19.59800
H  4.56200 44.93100 20.88400
H  2.88500 47.86200 23.80400
H  2.45400 48.27000 25.52800
H  2.83000 46.68000 25.22600
H  5.34500 49.40900 29.64500
H  4.99700 47.09200 33.00200
H  5.13800 45.69200 31.86700
H  3.58900 46.56800 32.11100

