158

Mg 23.55400 -4.87400 46.15600
C  25.35100 -2.22500 44.73500
C  20.84000 -3.82700 44.32900
C  22.03500 -7.74700 47.18400
C  26.42800 -5.84000 47.94800
N  23.20900 -3.29700 44.61800
C  24.08900 -2.32600 44.17200
C  23.50600 -1.40300 43.07100
C  21.97700 -1.74500 43.30500
C  21.99600 -3.04400 44.11400
C  21.19800 -0.63400 44.01800
C  24.16700 -1.72100 41.69900
C  24.82600 -0.59900 40.91000
H  24.77100 -0.69200 39.43500
N  21.77100 -5.72900 45.68800
C  20.78500 -5.13200 44.96500
C  19.63800 -6.02000 44.89500
C  19.89700 -7.14500 45.76100
C  21.33700 -6.91500 46.23800
C  18.36400 -5.55100 44.18600
C  18.85300 -8.11500 46.18200
O  17.73400 -7.92500 45.78000
C  19.13300 -9.41600 46.96900
N  24.22800 -6.50400 47.34400
C  23.35000 -7.52400 47.72000
C  24.01300 -8.68000 48.46200
C  25.43700 -8.21000 48.60800
C  25.36900 -6.75500 48.02400
C  23.28600 -8.90000 49.82600
C  26.51900 -9.08500 47.90200
C  27.70700 -9.31700 48.82200
N  25.48400 -4.07300 46.49300
C  26.53100 -4.57200 47.28200
C  27.61200 -3.69100 47.16500
C  27.17300 -2.76400 46.22000
C  25.88500 -3.02300 45.77500
C  28.99100 -3.72400 47.78900
C  27.64300 -1.62600 45.51600
O  28.74400 -1.08700 45.51500
C  26.50600 -1.24800 44.39800
C  26.25100 0.19300 44.58500
O  25.72800 0.65000 45.60700
O  26.60000 0.94700 43.42500
C  26.19600 2.35000 43.53100
H  20.00400 -3.38100 43.78600
H  21.63600 -8.67000 47.61000
H  27.31900 -5.98700 48.56100
H  23.75700 -0.37600 43.33500
H  21.54500 -1.89700 42.31600
H  21.86300 0.20000 44.24000
H  21.02900 -1.02400 45.02100
H  20.20800 -0.34400 43.66600
H  23.34600 -2.20600 41.17000
H  24.85000 -2.55700 41.84700
H  25.86200 -0.72900 41.22300
H  24.51700 0.38300 41.26800
H  18.56000 -4.98000 43.27800
H  17.82500 -4.94900 44.91800
H  17.71400 -6.35400 43.84100
H  18.23600 -10.02600 47.07400
H  19.19600 -9.17300 48.02900
H  19.99700 -9.98800 46.63100
H  23.83000 -9.53700 47.81500
H  25.68100 -8.28800 49.66700
H  23.82300 -8.73300 50.76000
H  22.92900 -9.92400 49.92500
H  22.43100 -8.23600 49.95400
H  26.84500 -8.56000 47.00400
H  26.24700 -10.09500 47.59500
H  28.56600 -9.43000 48.16100
H  27.68500 -10.26800 49.35500
H  28.01500 -8.61300 49.59500
H  29.69000 -4.22400 47.11900
H  28.91700 -4.28500 48.72100
H  29.48000 -2.76500 47.95900
H  26.90900 -1.39100 43.39600
H  26.66300 2.98200 42.77500
H  26.25900 2.83100 44.50700
H  25.14100 2.35100 43.25400
Mg 46.44200 25.75500 28.66400
C  47.23900 27.76100 31.48600
C  45.57200 23.26800 31.04100
C  45.78900 23.85900 26.21700
C  48.23100 28.00100 26.58600
N  46.33400 25.62700 31.11000
C  46.65000 26.55800 31.97200
C  46.38200 26.04600 33.36900
C  46.16600 24.47400 33.17000
C  45.98400 24.42000 31.69300
C  47.41700 23.66200 33.83100
C  45.28200 26.82600 34.05200
C  45.33200 27.34000 35.54300
H  45.96700 26.44900 36.65600
N  45.67500 23.84400 28.70100
C  45.31700 22.98400 29.70700
C  44.62800 21.77500 29.09000
C  44.62500 22.01200 27.66200
C  45.36200 23.28600 27.48700
C  44.16000 20.63900 29.88400
C  44.15200 21.04200 26.53800
O  44.39100 21.17000 25.32200
C  43.22600 19.89600 26.87600
N  47.03200 25.89000 26.75100
C  46.53200 24.94500 25.87100
C  47.12200 25.17800 24.42800
C  47.65300 26.64800 24.61400
C  47.68700 26.86300 26.07600
C  48.19000 24.09000 24.10900
C  46.53000 27.62200 24.05200
C  46.88400 29.05000 23.82900
N  47.53600 27.53600 28.89600
C  48.25900 28.23500 27.95800
C  48.75600 29.37000 28.60300
C  48.41500 29.21900 29.95300
C  47.71700 28.07400 30.09300
C  49.44300 30.57300 27.97000
C  48.55300 29.81600 31.25800
O  49.22700 30.76300 31.68500
C  47.76700 28.95500 32.26400
C  48.76200 28.62500 33.37000
O  49.92100 28.15700 33.22000
O  48.10900 28.90200 34.53600
C  48.81200 28.51200 35.73300
H  45.21900 22.46900 31.69600
H  45.54100 23.20200 25.38100
H  48.61700 28.69900 25.84000
H  47.29600 26.29400 33.90900
H  45.30600 24.01700 33.66000
H  47.07200 22.83000 34.44500
H  47.90500 24.32300 34.54600
H  48.02400 23.28100 33.01000
H  44.42600 26.15500 33.97300
H  44.96100 27.56100 33.31400
H  44.30300 27.56300 35.82500
H  45.91300 28.26100 35.49000
H  43.16400 20.27400 29.63600
H  44.38900 20.64000 30.95000
H  44.75600 19.80500 29.51200
H  43.79500 19.20300 27.49600
H  42.90400 19.36700 25.97900
H  42.33400 20.15300 27.44700
H  46.33900 25.00300 23.69000
H  48.68100 26.85900 24.31800
H  47.87200 23.57100 23.20400
H  48.08600 23.39700 24.94400
H  49.15800 24.54700 23.90600
H  45.74500 27.70700 24.80300
H  46.16000 27.18600 23.12400
H  46.54500 29.26100 22.81500
H  47.93600 29.32000 23.73300
H  46.44300 29.74600 24.54400
H  49.49100 31.37000 28.71100
H  49.03200 30.86300 27.00300
H  50.47800 30.31000 27.74900
H  46.96400 29.54400 32.70700
H  49.75400 29.04100 35.87600
H  48.96200 27.43400 35.79400
H  48.02900 28.77900 36.44300

