158

Mg 24.65100 -5.83300 45.29400
C  27.08200 -3.76700 44.00700
C  22.33900 -4.69000 43.33800
C  22.72500 -8.56500 46.15000
C  27.21400 -7.23400 47.29500
N  24.77200 -4.49900 43.67200
C  25.82600 -3.62600 43.40900
C  25.37000 -2.46400 42.56700
C  23.77700 -2.64100 42.50300
C  23.60000 -4.01400 43.24500
C  23.00000 -1.37600 43.07800
C  26.04900 -2.62300 41.17800
C  26.18900 -1.46300 40.28000
H  25.65300 -1.66300 38.82500
N  22.73200 -6.46800 44.94300
C  21.94000 -5.82400 44.06100
C  20.64900 -6.47400 43.96200
C  20.74600 -7.62800 44.73300
C  22.13800 -7.62200 45.32400
C  19.59000 -6.08800 43.04300
C  19.65700 -8.68000 44.99100
O  18.57600 -8.57600 44.43600
C  19.79100 -9.87400 45.90700
N  24.92700 -7.60800 46.47100
C  24.01500 -8.64200 46.66800
C  24.54900 -9.79000 47.53300
C  25.91400 -9.24400 48.06100
C  26.03600 -7.94400 47.24700
C  23.56100 -10.40600 48.59800
C  27.16900 -10.15800 48.03100
C  28.15700 -10.04400 49.22100
N  26.70800 -5.49400 45.69400
C  27.54300 -6.10400 46.54700
C  28.90400 -5.58900 46.44900
C  28.70500 -4.61600 45.48600
C  27.36900 -4.62100 45.00800
C  30.19400 -5.77000 47.25400
C  29.33200 -3.48200 44.71500
O  30.49000 -3.02200 44.74700
C  28.28000 -2.92600 43.76000
C  28.22300 -1.45100 44.08400
O  28.18000 -0.96800 45.19500
O  28.35300 -0.73200 42.92300
C  28.35500 0.70600 43.11700
H  21.70500 -3.99600 42.78200
H  22.21200 -9.50700 46.35900
H  28.01600 -7.51100 47.98300
H  25.63300 -1.55800 43.11300
H  23.41000 -2.73700 41.48200
H  23.56600 -0.44600 43.03100
H  22.80500 -1.48500 44.14500
H  22.01300 -1.32700 42.61900
H  25.71600 -3.46900 40.57600
H  27.08600 -2.82700 41.44500
H  27.21800 -1.10400 40.30000
H  25.58100 -0.66600 40.70800
H  19.77500 -5.14400 42.53000
H  18.56100 -6.06500 43.40000
H  19.56500 -6.79400 42.21300
H  20.56200 -10.51000 45.47200
H  18.83100 -10.38000 46.00400
H  20.01500 -9.56100 46.92800
H  24.73500 -10.61900 46.85000
H  25.65600 -9.01600 49.09500
H  23.94900 -10.28800 49.61000
H  23.51500 -11.47200 48.37800
H  22.60100 -9.88800 48.58500
H  27.72500 -9.85700 47.14300
H  26.80900 -11.18400 47.94600
H  29.07000 -9.74400 48.70700
H  28.22800 -10.90200 49.89000
H  27.80700 -9.36700 50.00100
H  30.06600 -6.62700 47.91500
H  30.40600 -4.79600 47.69700
H  30.94300 -5.90000 46.47300
H  28.68800 -3.01400 42.75300
H  28.00500 1.06800 44.08400
H  27.70800 1.09800 42.33200
H  29.38000 1.01400 42.91000
Mg 36.41200 49.28100 24.47400
C  36.53500 47.39400 27.42500
C  35.04600 51.76700 26.13900
C  35.95100 50.75600 21.47700
C  37.50900 46.33600 22.70700
N  35.79300 49.51800 26.54700
C  36.02900 48.66400 27.60400
C  35.70500 49.35400 28.94700
C  35.02200 50.67000 28.42100
C  35.25500 50.63600 26.89800
C  33.55600 50.94700 28.87300
C  36.92600 49.56400 29.88800
C  36.84400 49.30400 31.41600
H  35.45400 49.35800 32.07500
N  35.73800 51.08200 23.89300
C  35.19200 51.95800 24.76000
C  34.84500 53.12400 24.03700
C  35.21500 52.86800 22.67700
C  35.64100 51.53800 22.62300
C  34.17800 54.27800 24.69700
C  34.92000 53.80200 21.52000
O  35.12000 53.42800 20.34700
C  34.44300 55.19700 21.70400
N  36.48900 48.52600 22.36900
C  36.40600 49.48400 21.40000
C  36.90200 48.90700 20.05200
C  37.42200 47.48200 20.40300
C  37.19300 47.46400 21.92900
C  35.82900 48.87700 18.96600
C  38.89900 47.14600 19.98700
C  39.95700 48.15500 20.50400
N  36.82200 47.23900 24.91900
C  37.42600 46.27300 24.15700
C  37.66800 45.14000 24.98800
C  37.30000 45.55700 26.26800
C  36.81800 46.87700 26.18900
C  38.15500 43.77400 24.62100
C  37.11100 45.14800 27.65000
O  37.27300 44.05100 28.16700
C  36.69400 46.41200 28.48300
C  35.39300 46.07800 29.23500
O  34.23500 46.41100 28.93500
O  35.72800 45.31600 30.32200
C  34.56300 44.88200 31.05400
H  34.55400 52.55100 26.71900
H  36.00500 51.29900 20.53100
H  37.96700 45.55100 22.10000
H  34.93700 48.79600 29.48400
H  35.57500 51.53100 28.79700
H  33.54200 51.89300 29.41500
H  33.23600 50.17100 29.56900
H  32.87100 51.12000 28.04300
H  37.36200 50.56300 29.86000
H  37.75300 48.99200 29.46800
H  37.37100 50.10100 31.94200
H  37.40500 48.37900 31.54400
H  34.65900 55.18800 24.33900
H  34.24400 54.41900 25.77600
H  33.13000 54.20500 24.40800
H  33.59400 55.33100 22.37500
H  34.33300 55.76300 20.78000
H  35.23500 55.58400 22.34500
H  37.66600 49.51600 19.57000
H  36.95600 46.60000 19.96300
H  34.83400 49.06500 19.36900
H  35.99500 47.95900 18.40300
H  35.97900 49.79700 18.40000
H  39.02800 47.26700 18.91200
H  39.18600 46.12000 20.21900
H  39.52300 48.60700 21.39600
H  40.22600 48.89200 19.74800
H  40.82100 47.56300 20.80700
H  38.21600 43.17000 25.52600
H  39.04100 43.75100 23.98700
H  37.37300 43.38500 23.96800
H  37.48800 46.52200 29.22100
H  34.90500 44.33300 31.93100
H  33.90600 44.18200 30.53600
H  33.93000 45.71000 31.37500

