158

Mg 47.35300 25.63300 27.84700
C  48.46400 27.70100 30.41400
C  46.81500 23.15000 30.15300
C  46.94300 23.53500 25.36200
C  48.54800 28.09900 25.63100
N  47.56700 25.50900 29.97900
C  47.96000 26.53700 30.87600
C  47.66400 26.11300 32.35800
C  47.39800 24.61700 32.20100
C  47.22300 24.35900 30.66100
C  48.53900 23.79500 32.89700
C  46.69400 27.01100 33.26800
C  47.34900 27.55900 34.49800
H  46.39000 28.07000 35.63600
N  46.95000 23.63800 27.74800
C  46.64400 22.81900 28.80700
C  46.01500 21.59700 28.32600
C  46.08800 21.67600 26.89600
C  46.76900 22.92900 26.62000
C  45.45700 20.47900 29.27700
C  45.71300 20.64000 25.89000
O  45.87600 20.69500 24.63300
C  45.12000 19.33900 26.36200
N  47.69600 25.79400 25.79000
C  47.44400 24.79700 24.90800
C  47.55700 25.26100 23.48300
C  48.02600 26.71900 23.50600
C  47.97100 26.94300 25.03600
C  48.25600 24.30000 22.38800
C  47.19000 27.76100 22.72500
C  47.94200 28.50900 21.61500
N  48.24500 27.49200 27.90400
C  48.69200 28.35400 26.97900
C  49.24500 29.61900 27.53500
C  49.09600 29.41300 28.89100
C  48.56700 28.02200 29.08400
C  49.87200 30.81100 26.84500
C  49.22900 29.99400 30.20000
O  49.67300 31.08200 30.51500
C  48.84600 28.89100 31.24900
C  50.08700 28.83600 32.11300
O  51.12800 28.29100 31.80800
O  49.82100 29.27300 33.39500
C  50.87100 29.05100 34.41900
H  46.62400 22.37700 30.90100
H  46.66300 22.94100 24.48900
H  48.97000 28.77900 24.88800
H  48.66200 26.33300 32.73800
H  46.43500 24.33900 32.63100
H  48.01100 23.04500 33.48700
H  49.01900 24.37600 33.68500
H  49.11600 23.25200 32.14900
H  45.92700 26.36300 33.69200
H  46.15000 27.80100 32.74900
H  47.95000 28.41800 34.19900
H  48.06600 26.90000 34.98700
H  45.52200 20.78300 30.32200
H  46.08300 19.59200 29.38200
H  44.41000 20.24400 29.08800
H  45.85200 18.77400 26.93800
H  44.93100 18.79300 25.43800
H  44.17600 19.51800 26.87700
H  46.51300 25.37000 23.18500
H  49.05800 26.85700 23.18400
H  49.01100 23.73100 22.92900
H  48.63800 25.02700 21.67100
H  47.43000 23.68700 22.02900
H  46.69400 28.50000 23.35500
H  46.44400 27.24300 22.12300
H  48.17200 27.80000 20.81900
H  48.78200 29.01700 22.08800
H  47.31100 29.34200 21.30500
H  49.32900 31.02500 25.92500
H  50.88100 30.46900 26.61600
H  49.91600 31.73200 27.42800
H  48.06500 29.34400 31.86000
H  50.57400 28.27700 35.12700
H  51.03400 29.93800 35.03000
H  51.89800 28.97600 34.06300
Mg 27.10800 50.81700 26.61700
C  25.09300 51.76700 29.34700
C  29.46700 49.90300 28.83000
C  29.10600 50.13500 23.99400
C  24.75000 52.19700 24.52300
N  27.25900 50.78800 28.85500
C  26.27400 51.16900 29.77200
C  26.76500 50.92400 31.27200
C  28.30600 50.60400 31.09700
C  28.36800 50.40100 29.52100
C  29.15000 51.77500 31.72700
C  26.01000 49.74300 31.92400
C  25.27100 50.09000 33.27300
H  26.16300 50.46300 34.44500
N  28.99100 50.15600 26.45100
C  29.79500 49.73100 27.48300
C  31.08900 49.14000 26.96200
C  30.99600 49.31600 25.56300
C  29.67700 49.86400 25.30400
C  32.14400 48.60000 27.86700
C  32.06800 48.96400 24.53400
O  31.86600 49.09300 23.33000
C  33.44900 48.52400 24.98000
N  27.14000 51.38000 24.56000
C  27.93600 50.76500 23.66900
C  27.47600 50.96700 22.22900
C  26.01100 51.53000 22.38700
C  25.94600 51.69700 23.94100
C  28.42000 51.96900 21.45500
C  24.83100 50.80800 21.79400
C  23.82000 51.57400 20.85300
N  25.22400 51.81900 26.82600
C  24.38800 52.30900 25.90700
C  23.30900 52.97500 26.52300
C  23.46500 52.75900 27.91000
C  24.69100 52.03100 28.04300
C  22.31900 53.71000 25.73800
C  22.88400 52.92000 29.21900
O  21.85500 53.35000 29.58700
C  23.95900 52.28800 30.21900
C  24.41500 53.42200 31.07300
O  25.24300 54.26900 30.79900
O  23.70300 53.51100 32.22200
C  23.87200 54.74800 33.05600
H  30.22300 49.54700 29.53300
H  29.72100 49.98600 23.10400
H  24.18800 52.75900 23.77400
H  26.61700 51.88900 31.75600
H  28.37300 49.62300 31.56600
H  28.71200 52.67100 32.16600
H  29.91500 52.15100 31.04800
H  29.65900 51.20000 32.50100
H  26.53900 48.85000 32.25700
H  25.28600 49.42100 31.17600
H  24.60200 49.24300 33.42600
H  24.49500 50.82000 33.04000
H  33.06500 49.15900 27.70400
H  32.30900 47.57100 27.54900
H  31.86700 48.69800 28.91700
H  34.24400 48.49900 24.23500
H  33.33300 47.47600 25.25700
H  33.81600 49.16900 25.77800
H  27.48400 49.98600 21.75400
H  26.03800 52.55700 22.02300
H  29.13700 52.43200 22.13300
H  27.92400 52.77900 20.91900
H  28.91700 51.35200 20.70700
H  24.17500 50.62200 22.64400
H  25.16800 49.91400 21.27000
H  24.21600 52.56500 20.63100
H  22.89500 51.77700 21.39200
H  23.64500 51.03700 19.92100
H  22.70200 54.57200 25.19200
H  21.57100 54.05800 26.45000
H  21.82800 52.99100 25.08300
H  23.44700 51.49200 30.76000
H  24.64700 54.37200 33.72400
H  22.99800 54.87600 33.69500
H  24.12900 55.67000 32.53500

