158

Mg 16.95500 51.73400 26.37200
C  18.92500 50.58100 29.08400
C  14.59100 52.49800 28.61700
C  15.38600 52.84700 23.88000
C  19.37400 50.20400 24.19700
N  16.85800 51.62400 28.58600
C  17.67800 51.02100 29.43100
C  17.06800 50.85300 30.85100
C  15.52900 51.12900 30.61300
C  15.62200 51.75100 29.18900
C  14.64100 49.88600 30.60700
C  17.69800 51.76400 31.91400
C  18.00400 51.23300 33.36400
H  17.13000 51.94900 34.34700
N  15.17100 52.63000 26.29900
C  14.38300 53.05300 27.30800
C  13.45700 54.01300 26.81700
C  13.65000 54.15900 25.44400
C  14.73600 53.15700 25.12300
C  12.43100 54.67500 27.74800
C  12.90700 55.05900 24.46600
O  13.25300 55.05900 23.29100
C  11.92600 55.98700 24.91700
N  17.18100 51.38800 24.32400
C  16.36800 51.93900 23.48600
C  16.76100 51.76500 22.01700
C  18.19700 51.09800 22.11800
C  18.27200 50.87400 23.60800
C  15.84500 51.09900 20.99500
C  19.35700 51.82700 21.53700
C  20.27800 51.20600 20.40600
N  18.77700 50.64000 26.56900
C  19.59700 50.04700 25.58800
C  20.74000 49.39700 26.24700
C  20.57000 49.60000 27.58200
C  19.27800 50.29900 27.75000
C  21.96000 48.72600 25.66100
C  21.12500 49.40700 28.87000
O  22.27500 49.04000 29.19800
C  20.05800 49.98100 29.89100
C  19.74300 48.70500 30.57200
O  19.12700 47.75900 30.14500
O  20.29000 48.76000 31.83800
C  20.10800 47.51800 32.58700
H  13.66300 52.54100 29.19100
H  14.90000 53.30600 23.01600
H  20.18500 49.89700 23.53300
H  17.18100 49.84500 31.25000
H  15.13200 51.79000 31.38300
H  14.92000 49.15300 29.85000
H  13.65000 50.23500 30.31500
H  14.61000 49.56000 31.64700
H  16.99500 52.58200 32.06900
H  18.51500 52.34500 31.48600
H  19.07800 51.33400 33.51800
H  17.82700 50.16600 33.23100
H  12.66900 55.72800 27.59800
H  12.35900 54.23100 28.74100
H  11.40000 54.56500 27.41400
H  11.21400 55.40300 25.50000
H  11.46200 56.26000 23.96900
H  12.31300 56.84500 25.46600
H  16.79400 52.80700 21.69900
H  18.08800 50.11200 21.66600
H  16.42200 50.41800 20.37000
H  15.13000 51.77500 20.52300
H  15.26600 50.40800 21.60800
H  20.00800 52.12100 22.36100
H  18.90900 52.69900 21.06100
H  21.31700 51.43300 20.64200
H  19.99900 51.65300 19.45200
H  20.19000 50.12900 20.26200
H  22.64600 48.28000 26.38200
H  22.44900 49.44100 25.00000
H  21.60800 47.87000 25.08600
H  20.40200 50.70000 30.63500
H  20.70800 47.75000 33.46700
H  20.35800 46.66900 31.95100
H  19.03400 47.48100 32.76700
Mg -12.60700 16.65600 41.13600
C  -9.57700 14.72900 40.34300
C  -11.03700 19.29800 39.72300
C  -15.54300 18.34800 41.41700
C  -14.13800 13.68800 41.93400
N  -10.54000 16.88500 39.96800
C  -9.45400 16.04200 39.97300
C  -8.23300 16.75700 39.49100
C  -8.70800 18.27200 39.48300
C  -10.18100 18.18300 39.70700
C  -8.04100 19.03400 40.65300
C  -7.63600 16.23300 38.13400
C  -6.10000 16.26600 38.04300
H  -5.41800 16.86700 36.80200
N  -13.17900 18.58100 40.68500
C  -12.39700 19.52700 40.04300
C  -13.16000 20.74500 39.90700
C  -14.50300 20.48800 40.36500
C  -14.47400 19.11500 40.90200
C  -12.56000 22.02800 39.41100
C  -15.59500 21.45600 40.61800
O  -15.63000 22.62000 40.12600
C  -16.81800 21.14100 41.44500
N  -14.51500 16.12300 41.65700
C  -15.63300 16.96800 41.78800
C  -16.89200 16.23500 42.09800
C  -16.35600 14.82200 42.33300
C  -14.92500 14.86700 41.82300
C  -17.83600 16.80000 43.25000
C  -17.25500 13.72500 41.66900
C  -17.52700 12.43300 42.54100
N  -12.04500 14.56100 41.12500
C  -12.75900 13.48100 41.60000
C  -11.95300 12.36200 41.64300
C  -10.67700 12.71200 41.17200
C  -10.80000 14.14500 40.83700
C  -12.35900 11.02700 42.14700
C  -9.35000 12.30200 40.85300
O  -8.79700 11.22900 41.03100
C  -8.52700 13.57200 40.35500
C  -7.38400 13.81400 41.30800
O  -7.57700 14.30300 42.38400
O  -6.09700 13.58300 40.74500
C  -5.04200 14.02400 41.73800
H  -10.44200 20.19300 39.53200
H  -16.54100 18.78400 41.32800
H  -14.65200 12.85800 42.42400
H  -7.49100 16.55300 40.26200
H  -8.37700 18.87900 38.64000
H  -8.40600 18.72700 41.63300
H  -8.28100 20.09500 40.58400
H  -6.95900 18.90500 40.61500
H  -8.06100 16.76500 37.28200
H  -8.04100 15.25000 37.89400
H  -5.62400 15.29900 38.20500
H  -5.66000 16.78700 38.89300
H  -11.67100 21.88100 38.79600
H  -12.21500 22.58100 40.28500
H  -13.15400 22.73300 38.83000
H  -16.60000 20.66400 42.40100
H  -17.52600 20.50400 40.91600
H  -17.22800 22.11100 41.72500
H  -17.52300 16.18600 41.21000
H  -16.31100 14.62300 43.40400
H  -17.14000 17.48400 43.73600
H  -18.03600 16.00900 43.97300
H  -18.69300 17.30000 42.79900
H  -16.73500 13.48200 40.74200
H  -18.20300 14.21200 41.43800
H  -17.45500 11.41000 42.17400
H  -18.54900 12.59700 42.88400
H  -16.88600 12.47700 43.42200
H  -12.65700 10.49900 41.24100
H  -13.19000 11.16400 42.83900
H  -11.45200 10.67300 42.63700
H  -8.09300 13.41700 39.36700
H  -4.02700 13.79500 41.41300
H  -5.19200 13.53400 42.70000
H  -5.07000 15.09000 41.96600

