158

Mg 41.08500 9.57800 29.49400
C  43.27600 10.88500 32.03400
C  38.97100 8.40600 31.95500
C  39.25500 8.49400 27.04800
C  43.59900 10.44500 27.17600
N  41.24000 9.51500 31.78600
C  42.10500 10.20700 32.58300
C  41.64800 10.29800 34.02100
C  40.39200 9.32300 34.05300
C  40.21900 8.91300 32.50800
C  40.53900 8.04000 34.83700
C  41.40000 11.74400 34.50400
C  40.41000 12.05500 35.59500
H  40.85700 12.79400 36.91500
N  39.40000 8.59500 29.49600
C  38.62300 8.24500 30.59200
C  37.43800 7.59500 30.12600
C  37.39800 7.67900 28.68700
C  38.73100 8.31100 28.33900
C  36.50200 6.94100 31.08000
C  36.34400 7.20400 27.68100
O  36.39300 7.24400 26.48000
C  35.06700 6.56700 28.31200
N  41.50800 9.18900 27.38800
C  40.44100 8.93500 26.54700
C  40.73800 9.16400 25.10000
C  42.25600 9.76300 25.15200
C  42.49800 9.73900 26.68600
C  40.52800 7.94400 24.23800
C  42.63400 11.08700 24.45000
C  42.01200 12.30600 25.16600
N  43.08600 10.37300 29.55300
C  43.90700 10.70000 28.51200
C  45.14800 11.27600 29.07900
C  44.90800 11.39900 30.45100
C  43.67600 10.84300 30.68000
C  46.27900 11.91000 28.28000
C  45.50100 11.86500 31.69100
O  46.60300 12.25000 32.07300
C  44.39600 11.69600 32.75000
C  44.95200 11.03000 33.91700
O  45.04900 9.85800 34.06900
O  45.35200 12.04900 34.86300
C  45.41000 11.68600 36.32200
H  38.15300 8.20500 32.65000
H  38.63900 8.19200 26.19800
H  44.26500 10.74900 26.36600
H  42.48300 9.94200 34.62400
H  39.47800 9.79900 34.40900
H  41.49800 7.94900 35.34900
H  40.26500 7.12200 34.31700
H  39.76800 8.02400 35.60700
H  41.08600 12.33400 33.64300
H  42.36700 12.14900 34.80200
H  39.88500 11.15300 35.90700
H  39.61100 12.69600 35.22400
H  35.68200 7.61600 31.32200
H  36.82800 6.69500 32.09100
H  36.05600 6.06100 30.61600
H  35.42300 5.62100 28.71800
H  34.38700 6.33000 27.49400
H  34.61600 7.21000 29.06700
H  40.16000 10.00800 24.72300
H  42.82900 8.95300 24.70000
H  40.48500 7.15100 24.98500
H  41.40400 7.74700 23.61900
H  39.52200 8.02500 23.82700
H  42.27500 11.15600 23.42300
H  43.71800 11.19400 24.42800
H  42.90900 12.88000 25.39600
H  41.26700 12.03500 25.91500
H  41.53100 12.87500 24.37100
H  45.89900 12.24100 27.31400
H  47.07600 11.17800 28.14700
H  46.68200 12.72500 28.88100
H  44.11300 12.72100 32.99100
H  44.41800 11.53400 36.74800
H  45.89600 12.50200 36.85600
H  45.93300 10.73600 36.43700
Mg 48.00300 16.35100 28.03100
C  46.30700 16.11000 30.98500
C  50.45000 18.13400 29.67200
C  49.45700 16.95300 25.02500
C  45.27300 15.00600 26.37100
N  48.35200 17.03100 30.13400
C  47.48700 16.73800 31.25200
C  48.19800 17.14000 32.56100
C  49.32100 18.11800 32.06700
C  49.36300 17.83100 30.52500
C  49.10000 19.64200 32.32100
C  48.71000 16.06500 33.56900
C  48.73800 16.43400 35.05100
H  48.09100 17.75600 35.51200
N  49.78300 17.35200 27.48100
C  50.72000 17.93100 28.31100
C  51.91600 18.13000 27.48700
C  51.63200 17.78400 26.12900
C  50.24500 17.34200 26.20300
C  53.17000 18.65100 28.02300
C  52.52700 17.97900 24.85800
O  52.08700 17.84100 23.73700
C  53.89500 18.66400 24.96600
N  47.57000 15.86600 25.96300
C  48.29900 16.29900 24.89800
C  47.61500 15.97500 23.49900
C  46.31800 15.22600 24.03200
C  46.40900 15.25800 25.55500
C  47.32700 17.28100 22.73400
C  45.98900 13.80500 23.59400
C  45.68200 13.56100 22.14900
N  46.12200 15.71800 28.50400
C  45.15300 15.14500 27.75300
C  44.02500 14.83000 28.52900
C  44.45400 15.14700 29.85800
C  45.74300 15.65000 29.75900
C  42.67000 14.23200 28.09400
C  43.95400 15.25200 31.17300
O  42.90500 15.00200 31.69600
C  45.17700 15.84400 32.03300
C  44.65800 16.98000 32.84800
O  44.71300 18.22100 32.64100
O  43.94500 16.42900 33.90100
C  43.63000 17.39200 34.98100
H  51.25900 18.49200 30.31300
H  49.85000 17.13700 24.02300
H  44.51000 14.42800 25.84600
H  47.43100 17.74000 33.05100
H  50.27300 17.82500 32.51000
H  49.78200 19.89000 33.13400
H  48.03100 19.77100 32.49400
H  49.42000 20.23600 31.46500
H  49.71200 15.71400 33.32500
H  47.98200 15.28400 33.35200
H  49.77900 16.49700 35.36500
H  48.33100 15.55400 35.55000
H  53.67100 19.40400 27.41500
H  53.90000 17.89200 28.30400
H  52.94400 19.14400 28.96800
H  53.79300 19.69900 25.29000
H  54.33000 18.74900 23.97000
H  54.59900 18.09500 25.57200
H  48.28200 15.32500 22.93300
H  45.35100 15.68100 23.81700
H  46.31400 17.29100 22.33100
H  48.08800 17.39800 21.96300
H  47.38900 18.22300 23.27700
H  45.21200 13.27400 24.14500
H  46.87700 13.20700 23.79800
H  45.99600 12.53300 21.97300
H  46.26900 14.29500 21.59700
H  44.64900 13.72100 21.84100
H  42.82600 13.25600 27.63500
H  42.08900 14.91800 27.47800
H  42.02800 14.06000 28.95800
H  45.66300 15.16100 32.72900
H  43.24700 16.86300 35.85400
H  42.81500 18.09100 34.79300
H  44.48100 18.02800 35.22700

