158

Mg 24.15200 -5.45400 45.29800
C  26.40300 -3.09500 43.85200
C  21.70500 -4.26300 43.12800
C  22.37500 -8.17300 45.96400
C  26.95800 -6.94200 46.86700
N  24.13600 -3.92700 43.70200
C  25.11800 -3.05100 43.27400
C  24.62300 -2.24500 42.04600
C  23.08100 -2.31400 42.27600
C  22.91000 -3.59000 43.04600
C  22.49700 -1.04900 42.82200
C  25.02900 -2.84300 40.68100
C  25.52100 -1.80000 39.64000
H  24.91600 -1.92500 38.24000
N  22.33400 -6.13700 44.64400
C  21.45200 -5.42300 43.86600
C  20.17200 -6.13300 43.85300
C  20.31900 -7.24100 44.69200
C  21.70000 -7.21900 45.16100
C  18.99900 -5.68600 43.07500
C  19.18300 -8.20500 45.15100
O  18.09900 -8.24300 44.69300
C  19.40800 -9.13400 46.26500
N  24.54100 -7.23900 46.28600
C  23.64900 -8.20800 46.49600
C  24.24700 -9.43100 47.20000
C  25.73600 -9.09100 47.44900
C  25.76200 -7.67200 46.77500
C  23.49500 -9.93100 48.51300
C  26.65800 -10.14500 46.84800
C  28.09900 -10.17100 47.33700
N  26.22000 -4.95600 45.68400
C  27.20400 -5.65100 46.34400
C  28.46700 -4.91600 46.17900
C  28.19200 -3.89800 45.18800
C  26.82700 -4.00000 44.90100
C  29.78800 -5.23200 46.82600
C  28.79000 -2.88800 44.36100
O  29.94900 -2.50200 44.33700
C  27.60800 -2.22700 43.43000
C  27.44100 -0.92700 43.93100
O  26.62900 -0.54300 44.79300
O  28.27700 -0.06900 43.25300
C  28.40400 1.28000 43.89400
H  20.91700 -3.86100 42.48600
H  21.97500 -9.18100 46.09500
H  27.74000 -7.38500 47.48600
H  24.96500 -1.23300 42.26500
H  22.43400 -2.40100 41.40300
H  23.29600 -0.45200 43.26200
H  21.76900 -1.22900 43.61300
H  22.04600 -0.51300 41.98700
H  24.29700 -3.54300 40.27900
H  25.97900 -3.36200 40.80200
H  26.59800 -1.87700 39.49000
H  25.18100 -0.80000 39.91000
H  18.09200 -6.29100 43.09200
H  19.24200 -5.56900 42.01900
H  18.74400 -4.69800 43.45700
H  18.42200 -9.30800 46.69500
H  19.98500 -8.68800 47.07500
H  19.81900 -10.05900 45.86000
H  24.16900 -10.31400 46.56500
H  25.89800 -8.93000 48.51500
H  23.08400 -10.92600 48.34100
H  22.69400 -9.24500 48.79000
H  24.17300 -10.03700 49.36000
H  26.74100 -9.91600 45.78500
H  26.27100 -11.16100 46.92400
H  28.23400 -11.24200 47.48400
H  28.09800 -9.65000 48.29400
H  28.91800 -10.00100 46.63700
H  30.38400 -6.09800 46.53800
H  29.70500 -5.37200 47.90400
H  30.28500 -4.26900 46.71600
H  27.85000 -2.36100 42.37500
H  28.98300 1.98600 43.29800
H  28.85100 1.09400 44.87100
H  27.45000 1.68300 44.23200
Mg 49.89300 35.30100 28.52500
C  47.91000 34.06600 31.10100
C  50.03200 38.41200 30.35100
C  51.55400 36.79900 26.00100
C  49.19800 32.57600 26.63200
N  49.02400 36.17300 30.47000
C  48.46400 35.35400 31.37700
C  48.61600 35.92100 32.81900
C  49.01300 37.37400 32.59200
C  49.39700 37.32200 31.01700
C  48.06400 38.55200 32.95900
C  49.76800 35.12200 33.57600
C  49.79500 35.48300 35.09100
H  48.84400 36.39300 35.87400
N  50.64600 37.34600 28.29800
C  50.57300 38.42900 29.08300
C  51.17900 39.53900 28.42800
C  51.76400 39.07900 27.25100
C  51.37900 37.68200 27.15400
C  51.07000 40.95700 28.96600
C  52.63400 39.81100 26.23200
O  52.83500 39.33900 25.11300
C  53.20400 41.10900 26.67800
N  50.30300 34.84600 26.56800
C  51.04300 35.54100 25.68600
C  51.39200 34.68600 24.43700
C  50.81200 33.30100 24.81700
C  49.99200 33.58900 26.05600
C  50.98600 35.22600 23.08000
C  51.88200 32.12000 25.05400
C  51.57400 30.88100 24.22700
N  48.84000 33.62400 28.73800
C  48.62600 32.60100 27.94400
C  47.95700 31.52600 28.60500
C  47.61100 32.02800 29.83500
C  48.14700 33.34500 29.86200
C  47.63700 30.19100 27.99100
C  46.96400 31.80800 31.11300
O  46.28800 30.85000 31.41300
C  47.03900 33.07100 31.94800
C  47.17600 32.84800 33.46300
O  47.89600 32.09400 34.12300
O  46.11100 33.52500 34.06200
C  45.74200 33.12300 35.38600
H  50.21400 39.35300 30.87500
H  52.13900 37.02800 25.10800
H  49.09400 31.67500 26.02300
H  47.62600 35.91000 33.27400
H  49.97600 37.64400 33.02400
H  47.57300 38.15900 33.84900
H  47.33400 38.86100 32.21100
H  48.67900 39.40100 33.25800
H  50.70200 35.45800 33.12600
H  49.68900 34.03800 33.65500
H  50.77800 35.88100 35.34300
H  49.70000 34.55500 35.65500
H  50.51400 41.08100 29.89500
H  50.64700 41.62300 28.21300
H  52.08200 41.26200 29.23100
H  52.52900 41.91000 26.38000
H  54.12200 41.26300 26.11000
H  53.53000 41.05400 27.71700
H  52.46700 34.52100 24.50900
H  50.04200 33.08000 24.07900
H  51.93400 35.53100 22.63700
H  50.32900 36.09100 23.17200
H  50.51100 34.42800 22.51000
H  51.91600 31.99300 26.13600
H  52.87600 32.50900 24.83300
H  50.91100 30.22400 24.79100
H  52.49500 30.39800 23.90000
H  51.06200 30.92900 23.26600
H  47.06900 30.29300 27.06600
H  46.98700 29.65000 28.67800
H  48.57800 29.68500 27.77600
H  46.02800 33.45600 31.81700
H  44.86100 33.70400 35.65700
H  46.44900 33.45200 36.14800
H  45.53300 32.05400 35.34900

