158

Mg 40.40800 9.92900 29.03900
C  42.26300 11.31900 31.61100
C  38.31400 8.66100 31.45000
C  38.70200 8.52400 26.45600
C  42.99600 10.64600 26.76900
N  40.36500 9.99700 31.25900
C  41.10500 10.73100 32.10000
C  40.62500 10.62800 33.49100
C  39.54900 9.53600 33.52100
C  39.32200 9.45000 31.96300
C  39.96900 8.14100 34.13800
C  40.24800 11.96900 34.09700
C  39.92800 11.79100 35.59900
H  40.83100 12.42600 36.75600
N  38.69800 8.84200 28.96100
C  38.01000 8.39100 30.08100
C  36.90100 7.59600 29.63900
C  36.94100 7.63100 28.21500
C  38.16000 8.34400 27.77000
C  36.08800 6.73100 30.52500
C  35.92100 7.07000 27.26600
O  36.14300 7.09500 26.05500
C  34.61200 6.58600 27.77400
N  40.89200 9.45700 26.93700
C  39.94900 9.03800 26.08400
C  40.52600 9.04000 24.61100
C  41.89500 9.76000 24.80000
C  41.94300 9.97900 26.24200
C  40.48700 7.70900 23.81900
C  41.94100 11.08700 23.92800
C  41.39500 12.43000 24.62900
N  42.29200 10.76400 29.12100
C  43.22500 10.97700 28.10600
C  44.35700 11.72800 28.65000
C  44.01400 11.83500 30.06100
C  42.73800 11.19300 30.27200
C  45.42500 12.34500 27.84900
C  44.45700 12.38000 31.33400
O  45.48400 12.96600 31.65700
C  43.32000 12.16100 32.35300
C  43.92900 11.43900 33.53400
O  44.41800 10.31800 33.48700
O  43.71100 12.19000 34.60800
C  44.03400 11.65000 35.90400
H  37.66000 8.27100 32.23300
H  38.15900 8.33000 25.52900
H  43.70000 11.02600 26.02600
H  41.40700 10.30600 34.17800
H  38.58000 9.74500 33.97500
H  39.19000 7.87400 34.85200
H  40.94200 8.31100 34.59800
H  40.01500 7.36400 33.37400
H  39.36200 12.34100 33.58200
H  41.02800 12.69100 33.85700
H  39.85300 10.74500 35.89700
H  38.96900 12.21700 35.89400
H  36.60000 6.55100 31.47000
H  36.11400 5.79000 29.97600
H  35.02600 6.96600 30.59400
H  34.80800 5.57900 28.14200
H  33.85600 6.48300 26.99500
H  34.20600 7.27300 28.51600
H  39.81300 9.72400 24.14900
H  42.73600 9.13500 24.50100
H  40.27800 6.90200 24.52100
H  41.42700 7.59400 23.27800
H  39.58700 7.82400 23.21500
H  41.44200 10.93000 22.97200
H  43.01600 11.24600 23.84800
H  42.18500 13.17900 24.68700
H  40.91800 12.20000 25.58200
H  40.55300 12.63400 23.96800
H  45.19200 13.36700 27.55000
H  45.70700 11.74600 26.98300
H  46.29000 12.47800 28.50000
H  42.88500 13.14500 32.53400
H  43.38600 10.79800 36.10800
H  43.96700 12.35400 36.73300
H  45.09500 11.40300 35.92400
Mg 4.49100 53.55300 42.35500
C  4.29500 50.04100 41.93200
C  7.20400 53.37200 40.01600
C  4.76200 56.81900 42.45300
C  1.58100 53.48100 44.25100
N  5.45200 51.91600 40.94000
C  5.22300 50.54000 41.01100
C  6.06600 49.80200 39.96700
C  7.19200 50.91500 39.63000
C  6.56800 52.14600 40.17200
C  8.53200 50.56400 40.37100
C  5.28900 49.37700 38.67800
C  5.23400 47.84900 38.23400
H  5.81200 47.50800 36.83400
N  5.89400 54.92100 41.44800
C  6.91300 54.64700 40.61900
C  7.69900 55.84700 40.50900
C  7.09400 56.86500 41.21700
C  5.85700 56.25600 41.74900
C  8.92200 55.85000 39.74500
C  7.40500 58.36200 41.16900
O  8.44000 58.74900 40.59100
C  6.61300 59.52700 41.87200
N  3.33200 54.87700 43.15200
C  3.63800 56.20300 43.05000
C  2.61100 57.13000 43.74900
C  1.67100 56.12400 44.44000
C  2.22800 54.68500 43.96400
C  3.38000 57.95600 44.74800
C  0.13800 56.39500 43.94900
C  -0.97400 56.33800 44.97600
N  3.14700 52.03100 42.97300
C  2.05500 52.21900 43.78000
C  1.67900 50.87100 44.17400
C  2.51100 49.98900 43.45900
C  3.37700 50.74900 42.71600
C  0.65800 50.45600 45.30600
C  2.86200 48.61200 43.39000
O  2.44500 47.61900 44.00000
C  4.09700 48.60700 42.33500
C  3.57700 47.71900 41.28800
O  2.78200 48.07900 40.42000
O  3.95900 46.41500 41.51600
C  3.55200 45.32300 40.61700
H  8.03900 53.16200 39.34500
H  4.83100 57.90000 42.58900
H  0.75800 53.49200 44.96900
H  6.49100 48.94700 40.49200
H  7.46200 51.04700 38.58300
H  9.33200 50.58100 39.63100
H  8.51900 49.62000 40.91500
H  8.80300 51.36300 41.06100
H  5.63000 49.91400 37.79300
H  4.27200 49.68200 38.92500
H  4.25000 47.38500 38.30800
H  5.97000 47.47600 38.94600
H  9.09800 56.77400 39.19500
H  9.06100 55.08100 38.98400
H  9.70500 55.89900 40.50200
H  5.70400 59.65200 41.28400
H  7.19800 60.43300 41.71200
H  6.45800 59.42200 42.94600
H  2.15500 57.76700 42.99000
H  1.82200 56.17000 45.51900
H  3.31500 59.02400 44.54100
H  4.39500 57.57700 44.86500
H  2.91500 57.82600 45.72500
H  -0.17100 55.68000 43.18700
H  0.09300 57.31700 43.36900
H  -1.67100 55.55800 44.67100
H  -1.61900 57.20800 45.10300
H  -0.55000 56.05100 45.93900
H  -0.36300 50.48100 44.92400
H  0.67500 50.87400 46.31200
H  0.99300 49.43800 45.50500
H  4.95300 48.18700 42.86300
H  4.34200 44.57300 40.65400
H  3.35100 45.63800 39.59300
H  2.69000 44.88800 41.12300

