158

Mg -2.43000 33.93900 26.74700
C  -3.83100 32.22200 29.59700
C  -0.60100 35.72100 29.01000
C  -1.38100 35.73800 24.26800
C  -4.24500 31.99500 24.67300
N  -2.41200 34.12100 29.11000
C  -2.94300 33.26000 30.02500
C  -2.33500 33.46100 31.45400
C  -1.32700 34.59100 31.18900
C  -1.42200 34.75000 29.63500
C  -1.66800 35.85700 31.94400
C  -1.57800 32.22100 32.05000
C  -2.14600 31.66600 33.32600
H  -1.19600 31.67200 34.56800
N  -1.18000 35.51400 26.67400
C  -0.47600 36.08100 27.72100
C  0.34500 37.11600 27.16900
C  0.15300 37.17400 25.74400
C  -0.86200 36.15200 25.48800
C  1.20500 38.08000 28.06500
C  0.76000 38.04100 24.71700
O  0.36600 38.04600 23.58500
C  1.95500 38.95900 25.07300
N  -2.95900 34.01200 24.74600
C  -2.26200 34.75900 23.90700
C  -2.64100 34.42500 22.40900
C  -3.34000 33.00900 22.55900
C  -3.42100 32.95200 24.05800
C  -3.57300 35.48800 21.68400
C  -2.52200 31.78400 21.93900
C  -1.05100 31.62500 22.31600
N  -3.91500 32.57800 26.99500
C  -4.57100 31.79600 26.07200
C  -5.38300 30.73000 26.70500
C  -5.13600 30.87200 28.10400
C  -4.23200 32.00100 28.18700
C  -6.14400 29.64000 26.06300
C  -5.41800 30.34300 29.40400
O  -6.14300 29.40400 29.76400
C  -4.60300 31.19200 30.35400
C  -5.51000 31.76600 31.40800
O  -6.18300 32.72900 31.22200
O  -5.31000 31.15600 32.65400
C  -6.01100 31.65000 33.83700
H  0.13400 36.15500 29.69200
H  -0.86300 36.27200 23.46800
H  -4.64900 31.21900 24.01800
H  -3.16700 33.70200 32.11600
H  -0.28700 34.31500 31.35800
H  -2.16500 36.52100 31.23700
H  -0.81300 36.46400 32.24200
H  -2.34300 35.77100 32.79600
H  -0.53700 32.48100 32.24100
H  -1.55900 31.38800 31.34700
H  -2.46200 30.65400 33.07300
H  -3.03200 32.23200 33.61400
H  0.76700 39.01900 28.40100
H  2.17200 38.14400 27.56400
H  1.50300 37.51900 28.95100
H  2.79400 38.33000 25.36900
H  1.73500 39.59500 25.93100
H  2.35200 39.53500 24.23700
H  -1.74200 34.35600 21.79700
H  -4.36700 33.00700 22.19300
H  -3.98500 35.03300 20.78300
H  -2.98400 36.31400 21.28400
H  -4.34400 35.87800 22.34800
H  -2.53300 31.97400 20.86600
H  -3.08000 30.85700 22.06900
H  -0.51100 31.60800 21.36900
H  -0.73900 30.76200 22.90400
H  -0.73200 32.51700 22.85400
H  -5.97300 28.76800 26.69500
H  -5.69200 29.52200 25.07800
H  -7.18500 29.96200 26.04200
H  -3.82000 30.54900 30.75800
H  -6.58000 32.56100 33.65100
H  -5.22900 31.87400 34.56200
H  -6.61900 30.82700 34.21400
Mg -10.33900 17.74200 42.96700
C  -6.68200 17.89900 43.17100
C  -10.30200 21.02700 42.54000
C  -13.52600 17.48600 42.56000
C  -9.93700 14.21900 42.65800
N  -8.58800 19.26800 42.69200
C  -7.28700 19.18500 43.06200
C  -6.66300 20.55400 43.18200
C  -7.90700 21.52900 43.07900
C  -9.06200 20.56300 42.70100
C  -8.24000 22.54000 44.24800
C  -5.51600 20.80600 42.08000
C  -5.97300 20.73800 40.57900
H  -5.23900 19.85000 39.63000
N  -11.75500 19.07300 42.50000
C  -11.56700 20.40400 42.38100
C  -12.89000 21.04100 42.07800
C  -13.79200 19.99600 42.01500
C  -13.02500 18.76500 42.37500
C  -13.01200 22.57100 41.81800
C  -15.26700 20.15800 41.69100
O  -15.75000 21.26100 41.51200
C  -16.13600 18.97100 41.50500
N  -11.48400 16.05600 42.51300
C  -12.83900 16.21600 42.57000
C  -13.49600 14.88800 42.97400
C  -12.44500 13.87800 42.46300
C  -11.20000 14.75200 42.51000
C  -13.87200 14.77600 44.48300
C  -12.62500 13.23900 40.99900
C  -12.65400 11.65400 40.90000
N  -8.68000 16.30100 43.02700
C  -8.65600 14.93800 42.80700
C  -7.33100 14.32100 42.83600
C  -6.50500 15.50800 43.10000
C  -7.38200 16.63700 43.15900
C  -7.01900 12.92500 42.73500
C  -5.13200 15.98500 43.14000
O  -4.11400 15.32300 43.08800
C  -5.16800 17.51300 43.27700
C  -4.45400 17.91500 44.59800
O  -3.74600 18.92500 44.71300
O  -4.73900 17.01700 45.58100
C  -4.35900 17.27600 46.98200
H  -10.38000 22.11400 42.60800
H  -14.58700 17.25900 42.42900
H  -9.91800 13.12800 42.70500
H  -6.35800 20.67600 44.22100
H  -7.73500 22.10700 42.17100
H  -9.04500 22.11100 44.84400
H  -8.53700 23.49900 43.82300
H  -7.38000 22.63900 44.91100
H  -4.86400 19.95800 42.29100
H  -4.98500 21.74600 42.22300
H  -5.82400 21.70900 40.10500
H  -7.01600 20.42200 40.58100
H  -12.70000 22.86100 40.81500
H  -12.23700 23.02000 42.44000
H  -13.93300 23.10700 42.04300
H  -16.30300 18.46200 42.45500
H  -15.54700 18.27000 40.91400
H  -17.13900 19.18500 41.13500
H  -14.39300 14.79900 42.36200
H  -12.34800 13.06800 43.18600
H  -13.53100 15.73100 44.88200
H  -13.48800 14.00700 45.15300
H  -14.95800 14.74500 44.56600
H  -11.71100 13.45500 40.44600
H  -13.41900 13.68500 40.40100
H  -13.56100 11.32200 40.39300
H  -12.52000 11.25800 41.90700
H  -11.86500 11.25500 40.26200
H  -6.22800 12.79300 41.99700
H  -7.96300 12.54100 42.34800
H  -6.84700 12.38600 43.66700
H  -4.51400 17.82800 42.46300
H  -5.26200 17.84100 47.21200
H  -3.46700 17.90200 46.98400
H  -4.11200 16.30800 47.41800

