158

Mg 43.82100 4.11100 48.06400
C  41.74700 6.74000 47.08800
C  41.17500 1.91500 47.66200
C  45.85400 1.41600 48.85400
C  46.46000 6.17000 48.22400
N  41.74900 4.34900 47.39800
C  41.03900 5.54100 47.06600
C  39.64400 5.24200 46.44300
C  39.45000 3.70200 46.90300
C  40.90800 3.24600 47.37300
C  38.38500 3.49200 48.02400
C  39.76000 5.43200 44.87500
C  38.51800 6.10100 44.15900
H  38.12400 5.62800 42.75100
N  43.54300 1.92400 48.27100
C  42.34600 1.30100 48.20100
C  42.51900 -0.06600 48.51900
C  43.85500 -0.24800 48.70700
C  44.48400 1.08900 48.65900
C  41.47000 -1.16500 48.43100
C  44.49100 -1.61700 49.03400
O  43.80200 -2.65500 48.80600
C  45.81500 -1.79700 49.49400
N  45.96800 3.75900 48.23700
C  46.52300 2.58100 48.58200
C  48.02300 2.80200 48.73700
C  48.20700 4.34900 48.80100
C  46.76800 4.80000 48.46200
C  48.71400 2.16100 50.00100
C  49.26100 5.05800 47.83600
C  50.11700 6.16200 48.42600
N  44.09800 6.03500 47.64900
C  45.27100 6.74700 47.82400
C  45.05800 8.13300 47.39700
C  43.65700 8.17100 47.15600
C  43.11100 6.83200 47.32200
C  46.09300 9.29900 47.32700
C  42.53000 9.03400 46.79500
O  42.44700 10.24000 46.52200
C  41.21800 8.15400 46.65500
C  40.21700 8.67800 47.53000
O  40.01900 8.30600 48.66200
O  39.36800 9.57300 46.85200
C  38.13600 9.95700 47.63500
H  40.24700 1.33800 47.65800
H  46.46200 0.56100 49.15800
H  47.32000 6.83100 48.35300
H  38.95200 5.94900 46.90200
H  39.12900 3.07900 46.06800
H  38.85700 3.05800 48.90500
H  37.62000 2.96400 47.45500
H  37.96500 4.44600 48.34300
H  39.98100 4.43400 44.49600
H  40.67100 5.97500 44.62400
H  38.61600 7.18600 44.18400
H  37.67200 5.87800 44.80800
H  41.49400 -1.85700 49.27300
H  41.72800 -1.63800 47.48300
H  40.45900 -0.78100 48.29900
H  46.54400 -1.48200 48.74800
H  45.93900 -2.85800 49.71000
H  45.93400 -1.21100 50.40500
H  48.51000 2.51700 47.80500
H  48.35700 4.66500 49.83300
H  49.25500 2.97900 50.47700
H  49.44700 1.43000 49.66000
H  47.97600 1.80900 50.72200
H  48.69000 5.49300 47.01600
H  49.90000 4.25100 47.47700
H  49.95000 6.33900 49.48800
H  49.88700 7.06200 47.85700
H  51.18900 5.97100 48.36500
H  45.80500 9.96100 48.14400
H  45.97500 9.79200 46.36200
H  47.14900 9.07400 47.47600
H  40.89600 8.14100 45.61400
H  37.36600 10.18300 46.89600
H  38.22900 10.89000 48.19000
H  37.63200 9.11600 48.11300
Mg 6.76900 54.32100 41.03800
C  6.20900 50.84100 40.69600
C  9.99800 53.84200 40.22000
C  6.97100 57.70900 40.97700
C  3.46300 54.53600 42.00900
N  7.89200 52.55800 40.22800
C  7.52200 51.22200 40.27800
C  8.77100 50.27900 40.18300
C  9.91300 51.32700 40.25700
C  9.23800 52.67800 40.20700
C  10.88000 51.32900 41.55400
C  8.78100 49.24500 38.98600
C  8.81400 49.85100 37.58000
H  7.61600 49.80400 36.64600
N  8.30000 55.60200 40.68500
C  9.64000 55.19800 40.42600
C  10.48600 56.37900 40.30600
C  9.64100 57.50200 40.54600
C  8.23800 56.97100 40.79300
C  12.00700 56.31600 39.96500
C  10.11500 58.96400 40.59200
O  11.31700 59.30200 40.38600
C  9.10300 60.06400 40.84700
N  5.36800 55.91700 41.37200
C  5.73600 57.24500 41.26600
C  4.51500 58.11500 41.41800
C  3.46500 57.12700 42.00000
C  4.09000 55.76600 41.74900
C  4.68900 59.43300 42.22800
C  2.00000 57.18100 41.38100
C  1.89000 56.62300 39.95900
N  5.09100 53.02700 41.24000
C  3.87200 53.24400 41.74100
C  3.16000 52.02000 41.92300
C  4.02300 51.03800 41.47300
C  5.18900 51.70200 41.11300
C  1.78800 51.83300 42.38800
C  4.16500 49.61600 41.26600
O  3.42500 48.65800 41.52300
C  5.63700 49.43000 40.84100
C  5.39100 48.59100 39.69500
O  5.15700 48.96600 38.53900
O  5.50700 47.29500 40.10700
C  5.32200 46.18400 39.05700
H  11.06200 53.61600 40.12400
H  6.87700 58.79400 40.90100
H  2.52000 54.61900 42.55200
H  8.56700 49.66200 41.05800
H  10.52000 51.32500 39.35100
H  11.91900 51.46400 41.25300
H  10.86000 50.27500 41.83100
H  10.53900 51.99700 42.34500
H  8.05800 48.43300 39.06700
H  9.72200 48.73800 39.19400
H  9.65700 49.34800 37.10600
H  9.06600 50.90800 37.66500
H  12.52700 55.37100 40.11900
H  12.54400 56.95400 40.66700
H  12.13700 56.70700 38.95600
H  8.30200 59.97400 40.11200
H  9.45700 61.08400 40.70100
H  8.62400 59.92100 41.81500
H  4.12000 58.40600 40.44500
H  3.43100 57.21900 43.08600
H  5.71400 59.74800 42.42400
H  4.31500 59.32400 43.24600
H  4.17300 60.24300 41.71300
H  1.67000 58.21800 41.43600
H  1.24900 56.68600 41.99800
H  1.57900 55.58000 40.02000
H  2.79200 56.63200 39.34800
H  1.16400 57.27000 39.46500
H  1.20100 51.33800 41.61400
H  1.32800 52.77000 42.70200
H  1.79900 51.19600 43.27200
H  6.07100 48.83200 41.64200
H  6.28700 45.68000 38.99900
H  5.15200 46.62700 38.07500
H  4.52200 45.56500 39.46300

