158

Mg 25.59400 2.19500 29.93000
C  27.65400 1.22300 32.61800
C  22.86100 2.11800 32.08500
C  23.44300 2.68900 27.35300
C  28.15200 1.62600 27.74600
N  25.29000 1.84100 32.09900
C  26.29300 1.55300 33.05000
C  25.80100 1.79900 34.49200
C  24.24900 1.77500 34.28400
C  24.14800 1.95300 32.71900
C  23.58800 0.46200 34.81200
C  26.35900 3.01400 35.20200
C  27.34200 2.63600 36.34700
H  27.47200 3.65300 37.49400
N  23.42800 2.45700 29.77100
C  22.53100 2.37600 30.78100
C  21.19700 2.57200 30.27000
C  21.32000 2.64500 28.83900
C  22.78500 2.58200 28.60500
C  20.00700 2.63200 31.19000
C  20.29600 2.81500 27.78800
O  20.57400 2.95500 26.56700
C  18.97500 2.90800 28.20200
N  25.77900 2.20400 27.87200
C  24.83600 2.57900 27.01200
C  25.38000 2.74600 25.54700
C  26.92800 2.42100 25.71000
C  26.95300 2.03400 27.18700
C  24.58600 1.99300 24.43900
C  27.76600 3.68000 25.40600
C  28.98800 3.27100 24.57700
N  27.50800 1.57000 30.10600
C  28.41900 1.26800 29.04600
C  29.55900 0.68500 29.61100
C  29.33300 0.76900 31.04000
C  28.08000 1.23000 31.27500
C  30.82000 0.37300 28.82200
C  30.00600 0.62300 32.34400
O  31.13500 0.28100 32.66100
C  28.93100 0.91800 33.41700
C  28.80100 -0.16900 34.44400
O  28.21900 -1.25900 34.26500
O  29.46800 0.20000 35.62500
C  29.27300 -0.65200 36.79700
H  22.09000 2.03100 32.85400
H  22.85600 2.99500 26.48500
H  28.96000 1.67600 27.01300
H  26.03200 0.90100 35.06600
H  23.66600 2.56100 34.76500
H  22.55500 0.60000 35.13000
H  24.16000 0.27000 35.71900
H  23.68100 -0.37500 34.11900
H  25.51900 3.54100 35.65400
H  26.84800 3.66200 34.47500
H  28.34800 2.63900 35.92700
H  27.20400 1.59800 36.65000
H  20.11100 2.14600 32.16000
H  19.21100 2.02400 30.76000
H  19.70500 3.65700 31.40400
H  18.64600 2.05100 28.78800
H  18.36500 3.22900 27.35700
H  19.01600 3.73800 28.90700
H  25.16600 3.79300 25.33300
H  27.30200 1.52400 25.21700
H  25.31100 1.37400 23.91100
H  24.06400 2.70600 23.80100
H  23.81500 1.40700 24.93900
H  28.09700 4.11700 26.34800
H  27.16800 4.38200 24.82400
H  29.05800 4.05700 23.82500
H  28.89200 2.30000 24.09100
H  29.88800 3.26800 25.19200
H  30.85100 -0.64600 28.43600
H  31.67600 0.37100 29.49700
H  30.88200 1.07400 27.98900
H  29.31800 1.82600 33.88000
H  28.30900 -0.38500 37.23100
H  30.09800 -0.41900 37.47000
H  29.39600 -1.73300 36.72400
Mg 35.22800 2.30200 29.79800
C  33.09800 3.65100 32.21900
C  37.61600 2.06300 32.16100
C  37.45500 1.91500 27.22900
C  32.75900 3.17200 27.38000
N  35.25300 2.82000 31.88900
C  34.28900 3.24300 32.75400
C  34.64500 3.14700 34.19800
C  36.22200 3.01000 34.10300
C  36.38900 2.62900 32.56100
C  37.07700 4.17800 34.61600
C  33.94200 1.98900 35.02800
C  33.96000 2.23100 36.57900
H  34.86500 3.32300 37.19900
N  37.30900 2.00400 29.73200
C  38.11800 1.81800 30.84800
C  39.38700 1.43300 30.40800
C  39.41600 1.41200 28.94900
C  38.00500 1.85600 28.58600
C  40.50800 1.22800 31.40400
C  40.60500 1.11600 28.02900
O  40.54200 1.21700 26.80200
C  41.90900 0.61900 28.67900
N  35.14600 2.54200 27.63400
C  36.18600 2.15700 26.82100
C  35.76200 2.15400 25.32000
C  34.18000 2.48600 25.43100
C  34.02000 2.76200 26.91300
C  36.70300 3.04900 24.42200
C  33.20500 1.31300 25.04000
C  32.21400 1.64200 23.95300
N  33.30300 3.04000 29.72300
C  32.44000 3.41500 28.66200
C  31.18700 3.97500 29.17600
C  31.44800 3.99800 30.57600
C  32.73400 3.49900 30.85700
C  30.06400 4.68200 28.42200
C  30.86600 4.46900 31.81800
O  29.84200 5.03500 32.15100
C  31.86600 4.06600 32.97000
C  32.20000 5.31300 33.75100
O  32.97500 6.21100 33.47400
O  31.52400 5.19400 34.97700
C  31.85000 6.16800 36.05500
H  38.29000 1.95700 33.01300
H  38.20800 1.65700 26.48100
H  31.93400 3.25600 26.66900
H  34.39900 4.12100 34.62100
H  36.57100 2.10900 34.60600
H  37.90900 4.48400 33.98300
H  37.53200 3.74100 35.50400
H  36.46500 5.05400 34.83500
H  34.48300 1.10700 34.68500
H  32.93700 1.81900 34.64200
H  34.04300 1.22400 36.98600
H  32.96900 2.53900 36.91400
H  41.36700 1.85800 31.17200
H  40.84800 0.19200 31.42300
H  40.17700 1.51400 32.40300
H  42.66100 0.15200 28.04400
H  41.68200 -0.10700 29.45900
H  42.37000 1.51700 29.09100
H  35.95000 1.12400 25.01600
H  33.80100 3.36300 24.90700
H  37.16600 3.82300 25.03400
H  36.07300 3.70600 23.82300
H  37.43000 2.58200 23.75800
H  32.80200 0.80200 25.91400
H  33.91700 0.68500 24.50400
H  32.73000 1.65000 22.99300
H  31.91500 2.68500 24.06500
H  31.42200 0.90000 24.05400
H  29.22700 5.03600 29.02400
H  29.77900 4.08500 27.55600
H  30.51600 5.53500 27.91700
H  31.61800 3.25000 33.64900
H  31.30000 7.10900 36.05100
H  32.91600 6.36600 35.93700
H  31.76900 5.73700 37.05200

