158

Mg 8.85700 3.77400 27.57700
C  10.23200 2.26100 30.47100
C  6.90900 5.78600 29.82100
C  7.61300 5.36000 24.92400
C  10.72600 1.67600 25.57300
N  8.67000 3.96300 29.88400
C  9.38300 3.28900 30.88200
C  8.94100 3.69600 32.28300
C  8.03400 4.90100 32.00100
C  7.81100 4.85500 30.47800
C  6.65400 5.05500 32.75800
C  10.10000 4.02300 33.21300
C  9.93200 4.98600 34.40700
H  10.73200 4.66600 35.67200
N  7.36200 5.28500 27.36400
C  6.73000 6.02100 28.40300
C  5.94900 7.12600 27.75200
C  6.20800 7.03000 26.32500
C  7.09900 5.86000 26.15400
C  5.00600 8.06400 28.50000
C  5.81300 7.92400 25.15600
O  6.01600 7.73400 23.96400
C  4.94800 9.18300 25.47000
N  9.17100 3.58100 25.55300
C  8.56200 4.38500 24.61000
C  8.88300 3.92700 23.17100
C  9.97700 2.76400 23.37200
C  10.00700 2.66400 24.93500
C  7.59800 3.59300 22.35700
C  11.33400 3.08100 22.69500
C  11.88300 2.03400 21.72100
N  10.17200 2.22800 27.89700
C  10.87600 1.49300 27.03200
C  11.65900 0.45700 27.75600
C  11.45400 0.83000 29.08100
C  10.53400 1.90000 29.14100
C  12.43400 -0.67100 27.14500
C  11.78500 0.36700 30.42300
O  12.58400 -0.51800 30.87800
C  11.04800 1.31500 31.38500
C  10.21100 0.49100 32.33200
O  9.06900 0.06700 32.08000
O  10.73800 0.43500 33.59200
C  9.86600 -0.07200 34.58400
H  6.34900 6.44000 30.49200
H  7.35000 5.85700 23.98700
H  11.49400 1.03500 25.13500
H  8.41200 2.78700 32.56800
H  8.54800 5.85500 32.11700
H  6.42900 6.10800 32.92700
H  6.52700 4.45900 33.66200
H  5.83000 4.67800 32.15200
H  11.01700 4.29200 32.68900
H  10.30400 3.06100 33.68300
H  8.88800 4.84200 34.68600
H  10.17700 5.97100 34.01000
H  5.49200 9.02200 28.68600
H  4.90700 7.60500 29.48300
H  4.14200 8.09500 27.83600
H  3.99000 8.82500 25.84900
H  4.77700 9.65500 24.50300
H  5.35300 9.83400 26.24400
H  9.37600 4.67000 22.54400
H  9.53700 1.87400 22.92100
H  7.84500 2.75100 21.70900
H  7.18600 4.50500 21.92600
H  6.87900 3.19200 23.07100
H  12.06000 3.37300 23.45400
H  11.24600 4.00500 22.12200
H  11.04300 1.36900 21.52000
H  12.73300 1.47200 22.10900
H  12.16500 2.52800 20.79100
H  13.29000 -0.26800 26.60400
H  11.75600 -1.09700 26.40500
H  12.88100 -1.42900 27.78900
H  11.87200 1.78300 31.92400
H  9.30100 -0.93500 34.23200
H  9.20600 0.78200 34.73800
H  10.29400 -0.42800 35.52200
Mg 8.48300 48.10300 26.29300
C  6.15200 48.15700 28.96300
C  10.93800 48.66200 28.60500
C  10.71100 48.38300 23.78100
C  5.84000 47.59500 24.05300
N  8.53500 48.20600 28.58800
C  7.43800 48.16000 29.44500
C  7.94500 48.13100 30.86000
C  9.44300 48.66600 30.71500
C  9.72600 48.49000 29.21800
C  9.62800 50.10800 31.19800
C  7.84000 46.71700 31.62000
C  7.34000 46.90400 33.03200
H  8.02700 46.28800 34.31400
N  10.55700 48.45600 26.16500
C  11.39100 48.77100 27.25800
C  12.68900 49.15800 26.77100
C  12.66700 48.91700 25.38400
C  11.28200 48.53600 25.03200
C  13.77500 49.54800 27.73000
C  13.77300 48.94500 24.33700
O  13.61400 48.65800 23.12500
C  15.18700 49.18200 24.81700
N  8.33200 48.05000 24.19700
C  9.42100 48.13500 23.31200
C  9.01200 47.71800 21.86600
C  7.43400 47.48100 22.02000
C  7.17600 47.67400 23.52600
C  9.44900 48.70200 20.75500
C  6.96300 46.12300 21.46300
C  5.66900 46.12100 20.66300
N  6.46000 48.00600 26.35700
C  5.51500 47.82400 25.35000
C  4.22400 47.84000 25.89300
C  4.36900 47.96100 27.31000
C  5.78600 48.00800 27.56700
C  2.89800 47.65300 25.28100
C  3.63300 47.99500 28.62800
O  2.44700 47.85900 28.89300
C  4.80000 48.46900 29.67200
C  4.46900 47.84700 30.94500
O  4.55800 46.64900 31.18800
O  4.17600 48.69300 31.89700
C  3.77700 48.26300 33.20800
H  11.71200 48.90100 29.33800
H  11.38400 48.32700 22.92300
H  5.07600 47.20000 23.38100
H  7.48100 48.91300 31.46100
H  10.16200 48.16600 31.36400
H  8.72700 50.55500 31.61800
H  9.99500 50.76000 30.40500
H  10.37400 50.15300 31.99200
H  8.84200 46.28900 31.65600
H  7.11600 46.14400 31.04000
H  6.37400 46.40600 32.94300
H  7.27000 47.95300 33.32000
H  13.68700 48.81100 28.52800
H  13.47300 50.55900 28.00200
H  14.78400 49.49200 27.32100
H  15.42900 48.31200 25.42800
H  15.21400 50.16600 25.28400
H  15.92200 49.28100 24.01700
H  9.41100 46.72400 21.66400
H  6.86200 48.24200 21.49000
H  10.33100 49.29400 20.99900
H  8.63600 49.41300 20.60600
H  9.68400 48.21300 19.81000
H  6.69900 45.50800 22.32400
H  7.77800 45.74400 20.84700
H  5.29600 45.17000 20.28200
H  5.84300 46.79300 19.82300
H  4.86600 46.52200 21.28200
H  2.55200 48.66000 25.05000
H  2.19100 47.12700 25.92300
H  3.02400 47.23600 24.28200
H  4.83700 49.55800 29.69100
H  3.24300 49.14900 33.55000
H  4.69900 48.19700 33.78500
H  3.18600 47.35000 33.28700

