158

Mg 25.81600 -0.66200 29.10100
C  27.67900 -0.89100 31.86500
C  22.78800 -0.43500 31.05100
C  23.81500 -0.55500 26.28400
C  28.50500 -1.36600 27.08500
N  25.31200 -0.69900 31.18600
C  26.30600 -0.77100 32.17000
C  25.71600 -0.63500 33.54200
C  24.19200 -0.78600 33.21000
C  24.06700 -0.69500 31.71900
C  23.45900 -2.02800 33.82200
C  26.14700 0.69800 34.28600
C  26.77700 0.58800 35.68200
H  26.41100 1.68300 36.63300
N  23.68600 -0.42500 28.75200
C  22.65000 -0.19000 29.67900
C  21.43200 0.08700 28.95600
C  21.76000 0.10400 27.54700
C  23.12500 -0.34400 27.47500
C  20.08400 0.32300 29.59200
C  20.94800 0.52200 26.41900
O  21.33600 0.40500 25.26300
C  19.56200 1.00400 26.64000
N  26.13000 -0.83500 26.91700
C  25.19200 -0.84900 25.98800
C  25.79800 -0.99400 24.60200
C  27.26600 -1.41000 24.84900
C  27.32300 -1.21100 26.37900
C  24.91700 -1.83600 23.62900
C  28.28700 -0.60400 23.98200
C  28.46300 0.82900 24.45300
N  27.73900 -1.10700 29.43100
C  28.77200 -1.23200 28.48000
C  29.99400 -1.49300 29.18100
C  29.66300 -1.24900 30.56500
C  28.27100 -0.99500 30.63900
C  31.35400 -1.78000 28.53900
C  30.14100 -1.21700 31.89500
O  31.23500 -1.27800 32.33800
C  28.87200 -0.85500 32.90700
C  28.66600 -1.93200 33.94100
O  28.22700 -3.05600 33.75600
O  29.19300 -1.51800 35.14000
C  29.02300 -2.45300 36.32100
H  21.91500 -0.26200 31.68500
H  23.36300 -0.58900 25.29100
H  29.33200 -1.71200 26.46100
H  26.11000 -1.38400 34.22900
H  23.63900 0.08600 33.56000
H  23.15900 -2.65400 32.98200
H  22.53400 -1.69100 34.29000
H  24.12400 -2.65800 34.41200
H  25.36400 1.45500 34.33400
H  26.91100 1.27500 33.76500
H  27.85700 0.51300 35.55900
H  26.50500 -0.36300 36.14000
H  19.64300 1.24900 29.22300
H  20.02800 0.33500 30.68100
H  19.43600 -0.47700 29.23400
H  19.00500 1.33600 25.76300
H  19.69400 1.87500 27.28300
H  19.02700 0.22700 27.18600
H  25.76500 0.02500 24.21600
H  27.28700 -2.47200 24.60700
H  24.14000 -2.41300 24.13000
H  25.51900 -2.59600 23.13100
H  24.42500 -1.23900 22.86100
H  27.93700 -0.54100 22.95100
H  29.12700 -1.27500 23.80300
H  29.12900 0.99600 25.29900
H  27.54300 1.33500 24.74600
H  28.86500 1.25900 23.53600
H  32.13700 -1.17300 28.99400
H  31.19800 -1.46500 27.50800
H  31.58100 -2.84400 28.60300
H  28.87700 0.14800 33.33400
H  29.33400 -3.48100 36.13300
H  27.98600 -2.42800 36.65500
H  29.72100 -2.16300 37.10600
Mg 35.27100 0.92000 29.19000
C  33.35600 1.99900 31.93300
C  38.04200 1.08900 31.38700
C  37.25300 0.76800 26.55200
C  32.44700 1.22100 27.17300
N  35.65300 1.50900 31.41300
C  34.65900 1.80300 32.26500
C  35.28300 1.79500 33.64100
C  36.83300 1.69400 33.48000
C  36.79600 1.24000 32.00800
C  37.58800 3.00000 33.76600
C  34.60200 0.67100 34.48200
C  33.98800 1.01200 35.85000
H  34.64300 2.17200 36.64500
N  37.41600 0.87400 28.96500
C  38.35600 0.92600 29.98900
C  39.71300 0.85300 29.43500
C  39.44100 0.77300 27.99000
C  38.00600 0.84900 27.73500
C  41.04800 0.88000 30.23400
C  40.51800 0.42700 26.96900
O  40.21200 0.07500 25.83900
C  41.96800 0.39300 27.32700
N  34.88300 0.63000 27.22500
C  35.85700 0.69300 26.23800
C  35.26700 0.52900 24.83600
C  33.75500 0.54000 25.07400
C  33.66200 0.76200 26.60500
C  35.78200 1.48600 23.71000
C  32.90300 -0.76300 24.63300
C  32.82000 -0.99100 23.12600
N  33.31300 1.48400 29.41400
C  32.25500 1.55800 28.50300
C  31.05700 1.88000 29.17900
C  31.40600 2.05100 30.53500
C  32.80100 1.85200 30.65100
C  29.72300 2.08800 28.52100
C  30.87000 2.43100 31.82400
O  29.74700 2.69400 32.14800
C  32.12200 2.36100 32.76700
C  32.25600 3.64600 33.51900
O  33.09000 4.53900 33.30300
O  31.33500 3.56700 34.58100
C  31.50900 4.67900 35.53200
H  38.92600 0.98200 32.02000
H  37.87700 0.76300 25.65600
H  31.67500 1.57500 26.48700
H  34.95400 2.71800 34.11700
H  37.24700 0.89800 34.10000
H  36.99200 3.87500 34.02500
H  38.22300 3.28700 32.92700
H  38.33400 2.87300 34.55000
H  35.25300 -0.19200 34.62600
H  33.78600 0.26600 33.88400
H  34.13200 0.16600 36.52200
H  32.90900 1.09200 35.72400
H  41.25100 -0.17100 30.43700
H  40.99300 1.41700 31.18100
H  41.82300 1.37300 29.64700
H  42.34800 1.32400 27.74800
H  42.44300 0.09500 26.39200
H  42.06000 -0.49300 27.95600
H  35.53300 -0.47200 24.49700
H  33.30400 1.35300 24.50400
H  36.11100 2.43600 24.13200
H  34.99500 1.67900 22.98100
H  36.60500 0.94100 23.24700
H  31.86200 -0.57600 24.89700
H  33.27300 -1.70100 25.04700
H  33.07700 -2.00700 22.82500
H  33.48000 -0.27500 22.63600
H  31.78200 -0.78600 22.86600
H  29.77200 1.34700 27.72300
H  29.51200 3.01900 27.99600
H  28.98300 1.66400 29.20000
H  31.81000 1.61500 33.49800
H  31.40100 4.32200 36.55600
H  30.82000 5.52000 35.44700
H  32.50900 5.11300 35.50900

