158

Mg 7.87400 2.20200 27.87100
C  9.72700 0.83800 30.60200
C  6.11700 4.14300 30.05500
C  6.23300 3.44400 25.14300
C  9.40300 -0.31800 25.78900
N  7.94600 2.44400 30.04500
C  8.85000 1.94400 30.91300
C  8.70900 2.54400 32.28200
C  7.34400 3.32900 32.18800
C  7.04800 3.25700 30.62800
C  6.17700 2.68500 33.01800
C  9.89400 3.42400 32.68500
C  10.34500 3.05400 34.14300
H  10.35500 4.25200 35.09100
N  6.37000 3.66400 27.65200
C  5.80200 4.37100 28.67200
C  4.99900 5.42100 28.13100
C  4.88300 5.07100 26.75800
C  5.87500 4.04400 26.42500
C  4.18800 6.36000 28.98200
C  3.91000 5.67900 25.69100
O  3.90400 5.39800 24.51200
C  2.95800 6.71900 26.17400
N  7.75300 1.57600 25.76500
C  7.07800 2.42800 24.84000
C  7.37800 1.84100 23.48000
C  8.53000 0.81000 23.64600
C  8.54800 0.67600 25.16900
C  6.06400 1.28600 22.77300
C  9.93200 1.26700 23.23100
C  10.83400 0.18200 22.60700
N  9.20300 0.54300 28.07400
C  9.79100 -0.35800 27.17300
C  10.60400 -1.29000 27.90800
C  10.78200 -0.83400 29.23900
C  9.83200 0.25800 29.29900
C  11.22800 -2.40700 27.32000
C  11.42600 -0.92100 30.52100
O  12.39600 -1.65000 30.77900
C  10.81200 0.13500 31.47400
C  10.30000 -0.51200 32.63900
O  9.19800 -1.03900 32.58400
O  10.97100 -0.13200 33.73300
C  10.44700 -0.54800 35.08000
H  5.52500 4.71000 30.77800
H  5.82900 3.96700 24.27400
H  9.94500 -0.99000 25.11900
H  8.57100 1.84200 33.10400
H  7.47000 4.33400 32.59200
H  6.61500 1.90300 33.63900
H  5.49000 2.13600 32.37400
H  5.67200 3.43900 33.62100
H  9.76000 4.50200 32.59900
H  10.71200 3.17900 32.00700
H  11.38700 2.78800 33.96800
H  9.79700 2.26100 34.65200
H  3.15000 6.06400 29.13400
H  4.21800 7.39800 28.64900
H  4.59600 6.34700 29.99200
H  2.32700 6.97200 25.32200
H  3.55200 7.61000 26.37700
H  2.44600 6.34000 27.05800
H  7.72100 2.71800 22.93000
H  8.31900 -0.20300 23.30200
H  6.00900 0.20700 22.91600
H  5.97700 1.56900 21.72400
H  5.13400 1.62400 23.23100
H  10.40900 1.79500 24.05700
H  9.80500 1.98500 22.42100
H  11.34100 0.59900 21.73700
H  10.29700 -0.72000 22.31100
H  11.62600 -0.10500 23.29800
H  11.90100 -2.93000 27.99900
H  11.89400 -2.00200 26.55800
H  10.43000 -3.01800 26.89600
H  11.63100 0.83400 31.64100
H  11.25700 -0.95300 35.68800
H  9.74800 -1.38100 35.15800
H  10.00200 0.24200 35.68400
Mg 30.10000 57.60700 40.53000
C  27.08500 56.16800 39.44900
C  31.79500 55.01800 39.08700
C  32.77700 59.72600 40.26200
C  28.18200 60.54700 41.44200
N  29.46600 55.92200 39.35100
C  28.19200 55.41300 39.11900
C  28.23500 54.06600 38.42600
C  29.75700 53.71100 38.51100
C  30.35100 54.90700 39.06200
C  30.03300 52.47000 39.52800
C  27.64100 54.10100 36.95200
C  27.96700 55.35600 36.15600
H  27.92600 55.26900 34.62100
N  32.02300 57.37200 39.81400
C  32.51500 56.24500 39.33200
C  33.90400 56.49700 39.14800
C  34.23500 57.83600 39.34000
C  33.01700 58.43300 39.80300
C  34.80700 55.37100 38.70000
C  35.64900 58.49200 39.16300
O  36.58300 57.89700 38.62900
C  35.90200 59.97800 39.64500
N  30.53500 59.70700 41.20200
C  31.73700 60.27900 40.98900
C  31.67100 61.78800 41.24300
C  30.18400 62.05100 41.63600
C  29.58400 60.63300 41.39900
C  32.75400 62.32300 42.22500
C  29.56700 63.16700 40.81200
C  28.86900 64.21800 41.65400
N  28.11600 58.12700 40.78400
C  27.47800 59.35100 41.13900
C  26.05700 59.20900 41.00000
C  25.82500 57.96200 40.39500
C  27.12000 57.35000 40.20800
C  24.96200 60.15600 41.35300
C  24.80800 57.08200 39.83800
O  23.58600 57.11300 39.86100
C  25.65700 55.87800 39.21400
C  25.16800 54.59300 39.81600
O  25.22900 54.33800 40.98600
O  24.52100 53.81300 38.93700
C  23.92100 52.61100 39.49900
H  32.39200 54.17700 38.72800
H  33.63700 60.39000 40.14700
H  27.56900 61.38900 41.77100
H  27.59000 53.36700 38.95800
H  30.11600 53.51800 37.50000
H  30.82200 52.81600 40.19600
H  30.24200 51.68000 38.80700
H  29.22200 52.11800 40.16600
H  26.60000 53.78300 37.01800
H  28.13200 53.25800 36.46600
H  28.96900 55.73900 36.35100
H  27.23400 56.12900 36.38800
H  35.51900 55.65900 37.92600
H  34.36800 54.40200 38.46600
H  35.48400 55.13900 39.52200
H  35.39700 60.63100 38.93300
H  36.96300 60.20300 39.53400
H  35.64000 60.10600 40.69500
H  31.97600 62.28000 40.32000
H  30.05300 62.33400 42.68000
H  33.45700 63.01100 41.75500
H  33.33400 61.51500 42.67000
H  32.36700 62.93500 43.04000
H  28.79100 62.86700 40.10700
H  30.29700 63.66000 40.17000
H  29.10300 64.15500 42.71700
H  27.80000 64.18100 41.44600
H  29.29800 65.18600 41.39300
H  25.36500 60.90400 42.03600
H  24.15500 59.61100 41.84200
H  24.59600 60.64300 40.44900
H  25.50700 55.88000 38.13500
H  23.69300 51.96000 38.65500
H  22.96600 52.73500 40.01000
H  24.55400 52.05000 40.18700

