158

Mg 49.48000 46.53500 42.05700
C  45.98900 47.39500 41.78500
C  48.76000 43.66900 40.43500
C  52.69600 46.09700 41.85700
C  50.00500 49.81500 43.33500
N  47.57500 45.77300 41.20100
C  46.28900 46.19600 41.17000
C  45.34000 45.26900 40.33300
C  46.20500 43.99800 40.05700
C  47.61100 44.47100 40.62700
C  45.78600 42.58700 40.71400
C  44.89900 46.04700 39.03300
C  43.39100 46.45300 38.89600
H  42.66800 45.60700 37.88300
N  50.64500 45.05400 41.20800
C  50.12800 43.89300 40.67200
C  51.21000 43.00400 40.33700
C  52.42300 43.69200 40.78300
C  51.96400 45.03500 41.32600
C  51.08100 41.63100 39.72300
C  53.85800 43.25100 40.63900
O  54.10100 42.11200 40.29700
C  55.08200 44.10200 40.73400
N  51.07500 47.73900 42.50700
C  52.32200 47.37300 42.22700
C  53.37100 48.36800 42.47700
C  52.50600 49.62400 42.81700
C  51.09900 49.04900 42.97300
C  54.43100 48.11100 43.52100
C  52.63900 50.67800 41.68000
C  53.39600 51.95900 42.00200
N  48.25500 48.22700 42.61900
C  48.65300 49.47000 43.11900
C  47.48500 50.30500 43.37300
C  46.44300 49.54100 42.85700
C  46.89600 48.28600 42.35600
C  47.47500 51.81200 43.85400
C  45.01400 49.54100 42.60600
O  44.30700 50.52800 42.65400
C  44.64900 48.12900 41.93000
C  43.81900 47.33100 42.83400
O  44.18400 46.87100 43.87200
O  42.66900 46.92200 42.20100
C  41.85300 45.77300 42.74100
H  48.51700 42.78500 39.84400
H  53.75500 45.84300 41.92900
H  50.28700 50.82500 43.63900
H  44.64300 45.10500 41.15400
H  46.36800 43.72500 39.01400
H  45.56700 41.77900 40.01700
H  44.88400 42.71900 41.31300
H  46.55400 42.26000 41.41400
H  45.11800 45.35400 38.22100
H  45.47300 46.97300 38.99900
H  43.41100 47.47200 38.50900
H  42.88500 46.54100 39.85800
H  50.04700 41.35000 39.52200
H  51.49300 40.93900 40.45800
H  51.69300 41.70000 38.82300
H  54.84000 44.99300 40.15400
H  55.96600 43.63100 40.30300
H  55.37800 44.37500 41.74700
H  53.86900 48.54900 41.52400
H  52.80800 50.07700 43.76200
H  54.47900 47.03400 43.68500
H  54.22300 48.53100 44.50500
H  55.41500 48.43400 43.18100
H  51.70900 50.95600 41.18400
H  53.17800 50.25200 40.83400
H  54.21700 52.00200 41.28600
H  53.44400 52.18700 43.06700
H  52.82700 52.73000 41.48300
H  46.45500 52.18500 43.76100
H  48.06400 52.40000 43.15100
H  47.82200 51.89100 44.88400
H  44.00600 48.25200 41.05900
H  41.31100 46.05800 43.64300
H  42.40300 44.88100 43.04100
H  41.12900 45.44000 41.99700
Mg 30.28100 57.51800 40.15000
C  27.33900 55.73100 39.28100
C  32.09900 55.18000 38.46200
C  32.82700 59.65500 40.18700
C  28.13800 60.16100 41.13500
N  29.77100 55.73900 38.89000
C  28.52200 55.16500 38.78400
C  28.61000 53.76100 38.23100
C  30.11900 53.56100 38.21500
C  30.74500 54.91400 38.58800
C  30.73800 52.42800 39.07800
C  27.80800 53.53300 36.90400
C  27.33500 54.68000 35.95700
H  27.76700 54.59700 34.52700
N  32.25000 57.35900 39.52400
C  32.83700 56.33900 38.83100
C  34.22900 56.59700 38.58200
C  34.43700 57.90600 39.13900
C  33.14900 58.37700 39.68800
C  35.11900 55.54100 38.03800
C  35.77500 58.68800 39.04300
O  36.76300 58.22300 38.53100
C  35.83800 60.13200 39.48500
N  30.50300 59.59000 40.49200
C  31.63600 60.26300 40.49400
C  31.55200 61.66800 41.14300
C  30.15200 61.70600 41.65100
C  29.52400 60.45000 41.00900
C  32.64600 62.13700 42.14700
C  29.30500 63.05200 41.53600
C  29.10500 63.92000 42.77600
N  28.16900 57.91400 40.16800
C  27.44000 59.07000 40.52700
C  26.04000 58.84600 40.49500
C  25.96900 57.50500 39.97200
C  27.30700 57.01600 39.82100
C  24.92700 59.73000 41.03200
C  25.03900 56.50000 39.69500
O  23.78700 56.42900 39.74700
C  25.87000 55.32200 39.15400
C  25.54100 54.00600 39.91500
O  26.17700 53.69400 40.88900
O  24.58500 53.31100 39.27800
C  24.49200 51.91200 39.79400
H  32.73100 54.43800 37.97000
H  33.65200 60.35800 40.32400
H  27.50400 60.92900 41.58500
H  28.20100 53.16300 39.04500
H  30.51200 53.36200 37.21800
H  30.01200 51.80400 39.60000
H  31.54000 52.71800 39.75700
H  31.20800 51.63900 38.49200
H  26.85500 53.03900 37.09500
H  28.32700 52.78100 36.31000
H  27.56700 55.59400 36.50400
H  26.24600 54.72000 35.98700
H  36.15900 55.86200 37.97600
H  34.59200 55.02500 37.23500
H  35.06600 54.83800 38.87000
H  36.82700 60.57700 39.37100
H  35.56400 60.09700 40.53900
H  35.16800 60.68300 38.82500
H  31.66700 62.39200 40.33700
H  30.08300 61.55900 42.72900
H  33.29400 62.98300 41.92000
H  33.22900 61.22100 42.24100
H  32.23400 62.30300 43.14200
H  28.34200 62.93600 41.03900
H  29.94500 63.59300 40.83800
H  28.05900 64.14300 42.98800
H  29.69700 64.83000 42.68000
H  29.43000 63.42000 43.68800
H  25.22600 60.73500 40.73500
H  24.79900 59.78500 42.11300
H  24.00600 59.53900 40.48100
H  25.55600 55.30700 38.11000
H  23.83500 52.02500 40.65700
H  25.41300 51.41200 40.09400
H  23.97400 51.26900 39.08300

