158

Mg 23.92600 -6.59900 45.75400
C  26.32900 -4.09600 45.26900
C  21.59900 -4.59800 44.15200
C  21.86400 -9.23300 45.86900
C  26.59500 -8.61100 46.95800
N  23.97800 -4.63600 44.84900
C  25.08000 -3.89600 44.68500
C  24.67400 -2.63200 43.82900
C  23.11600 -2.59900 43.95300
C  22.85700 -4.01600 44.42600
C  22.49800 -1.54700 44.90100
C  25.24500 -2.73300 42.38200
C  25.50500 -1.37600 41.75500
H  24.65200 -1.04900 40.50800
N  21.96600 -6.86600 45.10800
C  21.20300 -5.89200 44.44800
C  19.90700 -6.47700 44.21500
C  19.98900 -7.86100 44.63600
C  21.27900 -8.01700 45.23100
C  18.85300 -5.71500 43.33700
C  18.92800 -8.89600 44.53600
O  18.05000 -8.67400 43.77000
C  19.00000 -10.26300 45.13600
N  24.17400 -8.54500 46.31700
C  23.19800 -9.46300 46.34500
C  23.70300 -10.84800 46.95400
C  25.16100 -10.60600 46.88900
C  25.34300 -9.14000 46.66400
C  23.09900 -11.23400 48.34800
C  25.88400 -11.42100 45.78000
C  26.97700 -12.41100 46.08900
N  26.05400 -6.42200 46.15800
C  26.96400 -7.31600 46.67300
C  28.21500 -6.66500 46.91100
C  28.02300 -5.38100 46.25800
C  26.70500 -5.30900 45.79800
C  29.46100 -7.25800 47.42500
C  28.63400 -4.08400 45.95100
O  29.72700 -3.64400 46.15600
C  27.50800 -3.25900 45.10800
C  27.27300 -1.84200 45.63700
O  27.07700 -1.59500 46.82300
O  27.34700 -0.96600 44.65800
C  27.61100 0.41000 45.00700
H  20.80900 -3.96700 43.73900
H  21.27600 -10.15200 45.81500
H  27.31600 -9.36000 47.29200
H  24.90700 -1.67400 44.29400
H  22.60400 -2.49800 42.99600
H  23.24900 -0.91400 45.37300
H  21.90400 -1.95500 45.71900
H  21.82100 -0.96500 44.27600
H  24.43200 -3.17700 41.80700
H  26.14700 -3.33600 42.27400
H  26.56700 -1.27400 41.53100
H  25.35700 -0.53700 42.43500
H  19.12500 -5.24500 42.39200
H  18.53300 -4.84400 43.91000
H  17.90700 -6.20800 43.11300
H  18.00500 -10.70800 45.10600
H  19.19500 -10.02000 46.18000
H  19.73200 -10.91000 44.65200
H  23.36600 -11.56600 46.20600
H  25.54800 -10.82400 47.88400
H  22.08200 -11.56300 48.12900
H  23.09900 -10.32300 48.94600
H  23.58500 -12.00900 48.94000
H  26.43800 -10.72200 45.15300
H  25.19300 -12.02200 45.18900
H  26.65500 -13.44400 45.95900
H  27.55100 -12.21800 46.99500
H  27.60200 -12.25900 45.20800
H  29.39000 -7.73300 48.40300
H  30.28100 -6.54100 47.38000
H  29.79000 -7.92800 46.63100
H  27.85400 -3.22600 44.07400
H  27.95000 1.05600 44.19700
H  28.27100 0.49600 45.87000
H  26.66100 0.90700 45.20300
Mg -5.11700 25.41500 26.02100
C  -3.73000 26.83900 28.79600
C  -6.57100 23.03300 28.00100
C  -6.47200 24.06500 23.32700
C  -3.26600 27.70300 24.08800
N  -5.16700 25.08300 28.18900
C  -4.65200 25.88900 29.15900
C  -5.06200 25.38300 30.55800
C  -5.70200 23.98800 30.21200
C  -5.83600 24.01000 28.68400
C  -4.99700 22.74800 30.84700
C  -6.02800 26.30000 31.23800
C  -6.53500 25.80300 32.64500
H  -5.64000 24.90300 33.49800
N  -6.44100 23.81400 25.69000
C  -6.88200 22.90000 26.66300
C  -7.84800 22.10100 26.07400
C  -7.77300 22.34700 24.69300
C  -6.80500 23.40000 24.49100
C  -8.79300 21.31200 26.90100
C  -8.65900 21.68700 23.68900
O  -8.70000 22.12500 22.53600
C  -9.53600 20.46900 23.95600
N  -4.76600 25.75400 24.04300
C  -5.52300 25.06200 23.09200
C  -5.43500 25.70500 21.72600
C  -4.49000 26.95000 22.02800
C  -4.03600 26.81800 23.43800
C  -5.09900 24.86200 20.50400
C  -5.16100 28.36300 21.65400
C  -4.37900 29.11700 20.57900
N  -3.64700 26.86000 26.34900
C  -3.02400 27.73400 25.48700
C  -2.17100 28.67500 26.16900
C  -2.35100 28.40200 27.52700
C  -3.32600 27.25600 27.57100
C  -1.46300 29.80900 25.56000
C  -2.02100 28.71900 28.88400
O  -1.15100 29.41200 29.30800
C  -2.93900 27.76500 29.78900
C  -2.18300 27.02800 30.79600
O  -1.50300 26.06500 30.61300
O  -2.36400 27.67700 32.01700
C  -1.68400 26.90800 33.07400
H  -7.07900 22.41300 28.74200
H  -7.01100 23.74800 22.43200
H  -2.77400 28.42000 23.42800
H  -4.14800 25.30700 31.14800
H  -6.78100 23.94400 30.36100
H  -5.66400 22.35600 31.61500
H  -4.11700 22.95300 31.45700
H  -4.74400 21.98300 30.11300
H  -6.88300 26.37900 30.56700
H  -5.38400 27.17800 31.30000
H  -7.43300 25.27600 32.32300
H  -6.76100 26.64900 33.29500
H  -9.04400 21.83600 27.82300
H  -8.40800 20.30700 27.07600
H  -9.74900 21.11400 26.41500
H  -9.00100 19.85200 24.67900
H  -9.67800 19.88700 23.04600
H  -10.56900 20.70000 24.21600
H  -6.45900 25.98900 21.48200
H  -3.57100 26.65300 21.52300
H  -4.75200 23.88200 20.83100
H  -4.32800 25.34800 19.90600
H  -5.96900 24.66600 19.87800
H  -5.18100 29.05800 22.49400
H  -6.19000 28.21400 21.32400
H  -5.05100 29.73700 19.98500
H  -3.69400 28.47200 20.02800
H  -3.72100 29.82500 21.08300
H  -2.04400 30.03800 24.66700
H  -0.41300 29.55100 25.42400
H  -1.56400 30.71600 26.15700
H  -3.63500 28.46300 30.25500
H  -1.69200 25.82100 33.00500
H  -2.18500 27.03600 34.03300
H  -0.64500 27.22000 33.17500

