158

Mg 44.63100 3.81600 47.21500
C  42.66700 6.66500 47.05000
C  41.75400 1.91000 46.29600
C  46.61300 1.21000 46.30700
C  47.47800 5.85400 47.22700
N  42.48600 4.28700 46.66800
C  41.91300 5.52300 46.70900
C  40.42800 5.48700 46.38700
C  40.11100 3.92600 46.27700
C  41.51300 3.31900 46.41300
C  39.12600 3.44900 47.33600
C  39.86500 6.35000 45.23200
C  40.64300 6.34500 43.92000
H  40.07300 6.00000 42.58500
N  44.20600 1.82400 46.77700
C  42.96300 1.19200 46.41800
C  43.14400 -0.18400 46.17000
C  44.55300 -0.41000 46.35100
C  45.22200 0.90700 46.45800
C  42.08800 -1.16200 45.63200
C  45.17600 -1.78700 46.30300
O  44.51500 -2.77300 46.00600
C  46.69000 -1.89100 46.54600
N  46.67400 3.60500 46.60800
C  47.29200 2.43300 46.45400
C  48.80500 2.51300 46.38100
C  49.03700 4.04600 46.64200
C  47.63700 4.54400 46.74200
C  49.65500 1.55100 47.27000
C  49.91000 4.81900 45.63000
C  50.84100 4.03000 44.67400
N  45.08800 5.82400 47.26500
C  46.25900 6.52100 47.32500
C  45.97700 7.94600 47.37300
C  44.54400 7.99100 47.29500
C  44.04500 6.72500 47.25000
C  46.96700 9.10600 47.36800
C  43.38400 8.87200 47.33700
O  43.41900 10.13400 47.46500
C  42.11900 8.02500 47.21200
C  41.23700 8.05700 48.42000
O  41.50700 7.46600 49.50700
O  40.08000 8.67900 48.10300
C  38.88500 8.67300 49.02000
H  40.82300 1.39000 46.06000
H  47.26900 0.39900 45.98400
H  48.36800 6.46600 47.39100
H  39.89500 5.86600 47.26000
H  39.72800 3.69200 45.28300
H  38.32700 4.18100 47.45700
H  39.69400 3.40700 48.26500
H  38.60300 2.50600 47.17700
H  39.64400 7.35100 45.60300
H  38.88000 5.97000 44.96300
H  41.58600 5.80200 43.99200
H  40.85200 7.39400 43.71300
H  41.99000 -2.16300 46.05000
H  42.36100 -1.27600 44.58200
H  41.07600 -0.79800 45.80900
H  46.94200 -1.22700 47.37300
H  47.28200 -1.61400 45.67400
H  46.98400 -2.93800 46.62300
H  48.99400 2.34000 45.32200
H  49.60000 4.12200 47.57200
H  49.03000 1.13600 48.06100
H  50.48700 2.08200 47.73300
H  50.05400 0.69500 46.72700
H  50.39700 5.55400 46.26900
H  49.31100 5.37200 44.90600
H  51.70800 4.66000 44.47500
H  50.21900 3.77400 43.81700
H  51.14100 3.06700 45.08600
H  47.90400 8.72800 47.77800
H  46.50300 10.00800 47.76600
H  47.24200 9.41300 46.35900
H  41.53800 8.40700 46.37300
H  39.11100 8.68600 50.08600
H  38.44500 7.68500 48.88900
H  38.17200 9.44000 48.71600
Mg 6.22500 54.00100 42.10000
C  5.29600 50.57100 41.68800
C  9.31200 53.27400 40.60600
C  6.78800 57.28500 41.75300
C  2.81800 54.63700 42.71200
N  7.08400 52.20800 41.22400
C  6.56500 50.92600 41.14600
C  7.58300 49.95900 40.45500
C  8.90800 50.73700 40.46100
C  8.42900 52.18600 40.78200
C  9.98400 50.17900 41.45200
C  7.21800 49.34300 39.04900
C  6.20800 50.21000 38.22200
H  6.48100 50.36400 36.70400
N  7.87400 55.15300 41.42100
C  9.09600 54.65000 40.92400
C  10.01900 55.73400 40.67900
C  9.32500 56.94100 41.13300
C  7.92900 56.54200 41.46800
C  11.36600 55.63500 40.06700
C  9.88700 58.34200 41.13300
O  11.11300 58.51600 40.95300
C  9.04100 59.52500 41.44900
N  4.96500 55.67700 41.94900
C  5.47900 56.93800 42.03500
C  4.39500 57.90700 42.52400
C  3.07300 57.08300 42.43800
C  3.65800 55.72600 42.40100
C  4.65500 58.43100 43.92900
C  2.21600 57.43200 41.19400
C  0.73100 57.81800 41.53200
N  4.39000 52.87100 42.34600
C  3.15100 53.28100 42.78000
C  2.30700 52.12000 42.99300
C  3.20300 51.04100 42.66600
C  4.35700 51.56800 42.17200
C  0.98700 52.06300 43.54600
C  3.33900 49.59900 42.66200
O  2.62700 48.73300 43.09500
C  4.71800 49.24900 42.00200
C  4.33600 48.42700 40.81200
O  3.67700 48.79800 39.85100
O  4.74900 47.16400 41.03200
C  4.30900 46.14200 40.06500
H  10.30000 53.04100 40.20300
H  6.95800 58.35400 41.89300
H  1.74900 54.77500 42.88700
H  7.69500 49.15700 41.18500
H  9.33000 50.84500 39.46200
H  9.57700 50.04300 42.45400
H  10.81100 50.88300 41.54600
H  10.30300 49.23100 41.01900
H  6.77300 48.35600 39.17700
H  8.11700 49.19600 38.45000
H  6.34100 51.25600 38.49800
H  5.22600 49.77900 38.41700
H  11.28500 55.28600 39.03700
H  11.91700 54.83500 40.56100
H  12.10300 56.43800 40.07800
H  8.26700 59.56600 40.68200
H  9.66400 60.40600 41.29700
H  8.61500 59.55700 42.45100
H  4.31800 58.79900 41.90200
H  2.55700 57.17800 43.39300
H  3.99200 57.99900 44.67900
H  4.52700 59.51000 44.01800
H  5.65700 58.10700 44.20900
H  2.05200 56.58600 40.52600
H  2.71100 58.16900 40.56200
H  0.47500 57.80800 42.59100
H  0.12700 57.09800 40.98100
H  0.47900 58.78100 41.08700
H  0.42200 51.20400 43.18400
H  0.44300 52.96800 43.27500
H  1.12700 52.00400 44.62500
H  5.27300 48.60700 42.68600
H  4.58300 45.21800 40.57300
H  4.89900 46.21400 39.15200
H  3.27200 46.21600 39.73700

