158

Mg 8.96500 3.07100 27.86000
C  10.28600 1.51200 30.74900
C  7.00800 4.96500 29.91200
C  7.27200 4.05500 25.10900
C  10.77500 0.70500 25.97900
N  8.81300 3.24900 30.07400
C  9.50700 2.60600 31.04300
C  9.33000 3.23000 32.41500
C  8.02100 4.20100 32.11000
C  7.92100 4.13500 30.58900
C  6.70800 3.75500 32.88800
C  10.63500 3.98900 32.88100
C  10.36300 4.77400 34.23100
H  10.75000 4.20600 35.56200
N  7.49100 4.44200 27.51500
C  6.76200 5.12500 28.54500
C  5.88000 6.03000 27.91500
C  5.88000 5.75000 26.51700
C  6.87700 4.72400 26.31800
C  5.13900 7.11000 28.70900
C  5.15300 6.49700 25.36200
O  5.27500 6.17100 24.17300
C  4.47200 7.77000 25.68700
N  9.02000 2.42200 25.89800
C  8.24800 3.11000 24.93700
C  8.61200 2.57700 23.51100
C  9.80800 1.57000 23.79900
C  9.86400 1.52700 25.32400
C  7.48100 2.03300 22.59800
C  11.23300 1.94800 23.24000
C  11.80600 1.09800 22.08400
N  10.25200 1.35400 28.26300
C  10.91800 0.54300 27.37300
C  11.64700 -0.43400 28.10900
C  11.51400 -0.08000 29.46900
C  10.60100 0.92500 29.48700
C  12.49700 -1.52800 27.60800
C  11.89300 -0.37400 30.77200
O  12.67800 -1.25200 31.15500
C  11.22500 0.73900 31.74000
C  10.44200 0.11400 32.84700
O  9.51100 -0.65100 32.77100
O  11.00000 0.43400 34.02000
C  10.49100 -0.27900 35.18800
H  6.47000 5.65800 30.56300
H  6.77100 4.33600 24.18000
H  11.43100 0.03900 25.41500
H  8.91700 2.41500 33.00900
H  8.16800 5.24400 32.38900
H  6.68600 2.69300 33.13200
H  5.90100 3.78900 32.15700
H  6.44500 4.41600 33.71300
H  11.05100 4.59400 32.07600
H  11.35700 3.26200 33.25400
H  9.28900 4.82900 34.40700
H  10.66800 5.82000 34.26600
H  5.88100 7.90200 28.81300
H  4.71300 6.74500 29.64400
H  4.26500 7.60300 28.28500
H  5.24300 8.47800 25.99200
H  3.71600 7.64600 26.46300
H  4.02100 8.21600 24.80100
H  9.08800 3.44800 23.06100
H  9.54100 0.56100 23.48600
H  6.51900 2.48300 22.84500
H  7.43400 0.96300 22.80200
H  7.80300 2.25800 21.58100
H  11.94100 1.88100 24.06600
H  11.12900 2.97400 22.88800
H  12.88300 1.04500 22.24500
H  11.64800 1.64400 21.15400
H  11.32500 0.12000 22.05000
H  13.24100 -1.17500 26.89400
H  11.83300 -2.16700 27.02600
H  12.94000 -2.19400 28.34900
H  12.03200 1.39300 32.07000
H  10.22200 0.48200 35.92100
H  11.23800 -0.91400 35.66300
H  9.60700 -0.89900 35.04000
Mg 47.43000 34.19900 26.65500
C  45.59400 32.93700 29.40900
C  47.78200 37.16100 28.37400
C  48.51800 35.57900 23.73900
C  46.27700 31.37300 24.75100
N  46.84800 34.87000 28.68500
C  46.19400 34.19900 29.58600
C  46.25800 34.94500 30.89700
C  46.69600 36.39000 30.51900
C  47.04500 36.17400 29.09100
C  45.76100 37.57200 30.82100
C  47.30200 34.33600 31.96000
C  46.99700 34.48100 33.39900
H  46.18000 35.65000 33.92900
N  48.21200 36.00100 26.17000
C  48.25000 37.10000 27.00000
C  49.07700 38.13100 26.41100
C  49.31100 37.71700 25.05400
C  48.64700 36.36500 24.95200
C  49.67200 39.32500 27.10300
C  50.14500 38.39400 23.93300
O  50.46800 37.78200 22.94800
C  50.57500 39.84700 24.18000
N  47.32300 33.60800 24.51400
C  47.99400 34.33400 23.58000
C  47.93700 33.62600 22.25100
C  47.39300 32.22200 22.58500
C  46.93800 32.40400 24.05600
C  47.14200 34.34800 21.08100
C  48.41000 31.01400 22.39700
C  49.47900 30.76200 23.46400
N  46.39500 32.43500 27.01700
C  46.06500 31.38400 26.15200
C  45.46500 30.39500 26.88500
C  45.11000 31.01100 28.15900
C  45.73900 32.24300 28.16000
C  45.16900 29.02200 26.37800
C  44.41700 30.80300 29.41400
O  43.75000 29.85300 29.88600
C  44.66600 32.03700 30.28900
C  45.29200 31.56900 31.47600
O  46.43500 31.14300 31.57100
O  44.39400 31.58900 32.54500
C  44.74800 30.89100 33.81400
H  47.87100 38.08700 28.94400
H  49.01700 35.99700 22.86100
H  45.87800 30.49500 24.23900
H  45.25400 34.93200 31.32100
H  47.65600 36.73300 30.90700
H  45.88500 38.31400 30.03200
H  46.08600 38.11400 31.71000
H  44.70900 37.29300 30.87700
H  48.27600 34.71800 31.65500
H  47.39600 33.30200 31.63100
H  47.91700 34.54200 33.98100
H  46.61200 33.51300 33.72100
H  50.73600 39.43300 26.89400
H  49.51100 39.20700 28.17400
H  49.18700 40.28000 26.90200
H  49.71700 40.43900 24.49800
H  50.97700 40.04000 23.18600
H  51.44300 39.95900 24.82900
H  49.00500 33.59600 22.03800
H  46.45000 31.92500 22.12600
H  47.70500 34.28300 20.15000
H  46.92300 35.37500 21.37600
H  46.18500 33.83300 20.99700
H  48.98800 31.10700 21.47700
H  47.85200 30.09300 22.22900
H  50.36300 30.48600 22.88900
H  49.10400 29.87800 23.98000
H  49.67600 31.65400 24.05900
H  44.17700 28.95900 25.92900
H  45.16600 28.40600 27.27700
H  45.99100 28.62100 25.78500
H  43.71700 32.48000 30.59100
H  45.77100 31.15000 34.08800
H  44.60100 29.82500 33.64200
H  44.01200 31.40600 34.43000

