158

Mg 42.94400 2.80400 47.65200
C  40.61900 5.27500 47.19000
C  40.38900 0.43600 47.47100
C  45.16900 0.44600 46.86600
C  45.48100 5.21200 47.04700
N  40.80000 2.84200 47.32300
C  40.06600 3.99800 47.15200
C  38.58000 3.70000 46.83200
C  38.53100 2.17200 47.11500
C  40.00600 1.77600 47.34300
C  37.52700 1.74900 48.20100
C  38.35900 4.11700 45.35100
C  37.20900 5.12700 45.03700
H  37.43200 6.06800 43.80500
N  42.86400 0.72400 47.42700
C  41.71800 -0.04000 47.41900
C  42.05800 -1.51000 47.20300
C  43.48000 -1.51000 46.94800
C  43.92300 -0.08400 47.13500
C  41.02500 -2.59800 47.20400
C  44.28100 -2.78400 46.68300
O  43.77400 -3.90700 46.57900
C  45.74200 -2.76000 46.46600
N  45.01800 2.78300 47.11400
C  45.75000 1.69400 46.83100
C  47.25700 1.94000 46.57000
C  47.35600 3.50800 46.71400
C  45.84600 3.86100 46.93000
C  48.21200 1.11000 47.47600
C  47.96200 4.20900 45.41400
C  48.86200 5.44800 45.69800
N  43.06600 4.88900 47.29200
C  44.14100 5.71100 47.18900
C  43.69700 7.03400 46.93000
C  42.30300 6.97200 47.03100
C  42.00500 5.57700 47.24000
C  44.58100 8.26000 46.88600
C  41.03600 7.68200 46.95300
O  40.75500 8.84300 46.76500
C  39.92100 6.63100 47.09600
C  39.25400 6.83300 48.45200
O  39.75200 6.48900 49.55200
O  37.93900 7.29600 48.32600
C  37.19500 7.54600 49.58500
H  39.60000 -0.30900 47.35100
H  45.83600 -0.32200 46.46700
H  46.20300 6.02500 46.95000
H  37.90600 4.20700 47.52300
H  38.33600 1.56500 46.23100
H  37.06300 2.63300 48.63700
H  38.06600 1.30100 49.03500
H  36.72300 1.13900 47.78800
H  38.06900 3.18900 44.85900
H  39.31900 4.36000 44.89500
H  37.05600 5.79200 45.88600
H  36.34300 4.50300 44.81700
H  41.33800 -3.33700 46.46700
H  40.04900 -2.25500 46.85900
H  40.97400 -3.20800 48.10600
H  46.10400 -2.19000 45.61000
H  46.17900 -3.75600 46.40000
H  46.13300 -2.26100 47.35300
H  47.40600 1.52400 45.57400
H  48.00400 3.86000 47.51700
H  47.60000 0.80000 48.32400
H  48.91800 1.78300 47.96400
H  48.67500 0.31300 46.89600
H  47.16800 4.65500 44.81400
H  48.52100 3.51800 44.78400
H  49.45900 5.75300 44.83900
H  49.50400 5.33700 46.57200
H  48.26800 6.27000 46.09800
H  45.21300 8.22000 45.99900
H  45.22200 8.36100 47.76200
H  43.97800 9.16800 46.87300
H  39.15300 6.82800 46.34800
H  37.49100 6.88900 50.40300
H  36.13800 7.43500 49.34500
H  37.35100 8.58500 49.87500
Mg -1.03600 34.50300 26.59400
C  -2.26600 32.93500 29.44000
C  0.64200 36.66900 28.70900
C  -0.53500 36.58300 24.01300
C  -3.11400 32.49500 24.60400
N  -0.86000 34.71600 28.91200
C  -1.43100 33.99700 29.86900
C  -0.98700 34.44500 31.28300
C  0.01600 35.61100 30.97800
C  -0.03000 35.69400 29.44900
C  -0.36200 36.82000 31.81600
C  -0.37800 33.19300 32.02600
C  0.51600 33.60900 33.18300
H  0.28600 32.94100 34.56300
N  -0.09500 36.32900 26.41900
C  0.63700 37.05900 27.35600
C  1.28900 38.25400 26.73500
C  0.80700 38.32700 25.37300
C  -0.03400 37.09000 25.23200
C  2.34500 39.10400 27.53800
C  1.16000 39.36100 24.31900
O  0.64200 39.41500 23.20600
C  2.28400 40.43300 24.59900
N  -1.82100 34.60100 24.47900
C  -1.19600 35.44000 23.61700
C  -1.66900 35.10100 22.22500
C  -2.35400 33.68800 22.36200
C  -2.50100 33.59300 23.90400
C  -2.36200 36.26100 21.38800
C  -1.57500 32.48100 21.79400
C  -0.05600 32.30200 22.01800
N  -2.34200 32.97300 26.90100
C  -3.09100 32.20400 25.97600
C  -3.84100 31.28200 26.68400
C  -3.59000 31.49600 28.02500
C  -2.58900 32.51200 28.11400
C  -4.79800 30.30100 26.13400
C  -3.84700 31.03300 29.39900
O  -4.58700 30.11100 29.79100
C  -3.01700 31.98500 30.39100
C  -4.00700 32.63200 31.30600
O  -4.67800 33.60100 31.04100
O  -4.09500 31.96200 32.55100
C  -4.77200 32.68900 33.63000
H  1.38100 37.16800 29.33900
H  -0.23100 37.21300 23.17400
H  -3.71100 31.91800 23.89500
H  -1.92700 34.69900 31.77200
H  0.96500 35.23600 31.36100
H  -0.90100 37.55600 31.21900
H  0.49500 37.24200 32.33900
H  -0.92100 36.51300 32.70000
H  0.06800 32.47600 31.33600
H  -1.23400 32.72600 32.51200
H  0.48500 34.68900 33.32100
H  1.54800 33.37200 32.92400
H  3.08000 39.46800 26.82000
H  2.83800 38.47400 28.27800
H  2.04700 40.03200 28.02500
H  2.08900 41.03900 25.48400
H  2.29000 41.14400 23.77200
H  3.26200 39.97400 24.74300
H  -0.72700 34.92000 21.70800
H  -3.32900 33.65900 21.87400
H  -1.69000 36.85200 20.76600
H  -2.79100 36.96400 22.10100
H  -3.15900 35.77900 20.82200
H  -1.81100 32.54400 20.73200
H  -2.08400 31.58000 22.13600
H  0.29400 32.80500 22.92000
H  0.40000 32.74300 21.13200
H  0.16700 31.23600 21.97500
H  -5.20400 30.65700 25.18700
H  -5.54400 30.15700 26.91500
H  -4.34300 29.32000 25.99700
H  -2.34600 31.36500 30.98500
H  -4.02900 33.27800 34.16800
H  -5.36700 31.99600 34.22400
H  -5.59000 33.29800 33.24500

