158

Mg 43.83600 3.71700 47.75100
C  41.54900 6.40200 47.12300
C  41.14200 1.49300 47.15700
C  46.00700 1.13000 47.47400
C  46.37700 6.13100 47.32000
N  41.68000 3.93500 47.11000
C  40.96700 5.05600 46.99500
C  39.54500 4.81100 46.81500
C  39.38200 3.27900 46.99000
C  40.83800 2.84600 47.21500
C  38.43100 2.84600 48.19900
C  39.02200 5.26400 45.41200
C  37.67800 5.97300 45.26000
H  37.01800 5.86100 43.93300
N  43.62500 1.58900 47.53100
C  42.47200 0.93500 47.28800
C  42.74300 -0.48000 47.31500
C  44.17700 -0.63700 47.32100
C  44.67800 0.72800 47.51000
C  41.71200 -1.56200 47.24300
C  44.92700 -2.00500 47.14200
O  44.40100 -2.99100 46.70800
C  46.41700 -2.14100 47.50300
N  45.92300 3.66000 47.43000
C  46.60200 2.46000 47.51500
C  48.12300 2.66400 47.36800
C  48.26500 4.23500 47.38400
C  46.80100 4.73800 47.32000
C  48.96000 1.95300 48.46000
C  49.06700 4.87000 46.23400
C  50.63300 4.65800 46.23300
N  43.98800 5.85700 47.43700
C  45.05300 6.61300 47.30800
C  44.70500 7.94400 47.06700
C  43.29100 7.96000 47.06900
C  42.92400 6.61900 47.22400
C  45.71000 9.06000 46.85000
C  42.03600 8.77500 46.96300
O  41.92000 9.96500 46.78100
C  40.82500 7.71000 47.00100
C  39.84300 7.91000 48.06100
O  39.98300 7.63600 49.27900
O  38.62800 8.29800 47.48900
C  37.49200 7.87800 48.35900
H  40.34100 0.79200 46.91500
H  46.73100 0.32100 47.35200
H  47.24900 6.77600 47.44300
H  38.98000 5.34900 47.57600
H  39.13100 2.65100 46.13500
H  38.04200 3.75600 48.65500
H  38.96800 2.36100 49.01400
H  37.76800 2.16300 47.66800
H  39.03300 4.40600 44.74000
H  39.77400 5.94200 45.00700
H  37.80800 7.04500 45.40600
H  36.96400 5.64500 46.01500
H  42.01100 -2.50000 47.71200
H  41.71700 -1.76000 46.17100
H  40.72200 -1.29100 47.61000
H  46.82500 -1.48000 48.26800
H  46.93000 -2.09600 46.54300
H  46.61800 -3.11300 47.95200
H  48.42600 2.38100 46.36000
H  48.74300 4.66100 48.26600
H  48.26200 1.77100 49.27700
H  49.58200 2.72400 48.91600
H  49.45300 1.06100 48.07400
H  48.82300 5.92700 46.12300
H  48.63800 4.32800 45.39200
H  50.97200 4.18700 47.15500
H  51.03800 5.66900 46.19200
H  51.01300 4.08800 45.38500
H  46.53800 9.06500 47.55900
H  45.26800 10.05100 46.95100
H  46.16200 8.94200 45.86500
H  40.36600 7.81800 46.01900
H  37.29300 8.70100 49.04600
H  37.61100 6.89200 48.80800
H  36.58600 7.64100 47.80200
Mg 47.08200 15.46800 28.40500
C  44.99800 14.83800 31.09900
C  49.23800 17.00700 30.44600
C  48.74900 16.57700 25.66700
C  44.60500 14.16000 26.22700
N  47.02200 15.95700 30.55200
C  46.13900 15.52100 31.49300
C  46.62900 15.84900 32.94300
C  47.83600 16.71900 32.61400
C  48.10700 16.49200 31.11600
C  47.82600 18.19300 33.13300
C  46.82000 14.66400 33.91900
C  46.31900 14.81500 35.35000
H  46.15900 16.14700 35.98100
N  48.88700 16.48200 28.11800
C  49.65700 17.00900 29.10400
C  50.90700 17.53000 28.50100
C  50.73200 17.49400 27.10800
C  49.47900 16.86400 26.92300
C  52.11600 18.02500 29.34200
C  51.69300 17.91900 26.03400
O  51.43900 17.72700 24.84700
C  53.02100 18.56800 26.43700
N  46.74100 15.29900 26.30700
C  47.56700 15.89800 25.42500
C  47.12300 15.68100 23.96400
C  46.01200 14.64400 24.15300
C  45.69100 14.75900 25.67000
C  46.68200 17.04700 23.37000
C  46.47500 13.23200 23.67800
C  45.67500 12.76100 22.44100
N  45.12400 14.69100 28.58500
C  44.24700 14.17900 27.63400
C  43.18200 13.50300 28.36600
C  43.51600 13.71200 29.72900
C  44.59800 14.54500 29.79000
C  42.10300 12.72900 27.62700
C  42.95600 13.44200 31.03400
O  42.00200 12.79200 31.40600
C  43.85600 14.35700 32.06100
C  43.03900 15.35800 32.74500
O  42.42200 16.26100 32.16400
O  42.90400 15.11900 34.06700
C  42.10500 16.17700 34.79800
H  49.96500 17.46200 31.12200
H  49.23400 16.99400 24.78100
H  43.87300 13.79100 25.50500
H  45.86000 16.48000 33.38900
H  48.77700 16.34600 33.01800
H  47.68600 18.88000 32.29900
H  48.70700 18.40500 33.73800
H  46.97700 18.18000 33.81600
H  47.90600 14.63700 34.01200
H  46.37600 13.75500 33.51300
H  47.09700 14.32800 35.93900
H  45.38500 14.25600 35.40500
H  52.93300 17.34200 29.57700
H  51.67900 18.24300 30.31600
H  52.55500 18.95800 28.98800
H  53.64400 17.97100 27.10200
H  52.77400 19.52900 26.89000
H  53.60400 18.71400 25.52800
H  47.95200 15.34900 23.33800
H  45.09500 14.92100 23.63300
H  45.69300 17.02000 22.91300
H  47.34400 17.48600 22.62400
H  46.49100 17.80600 24.12900
H  46.09300 12.61600 24.49100
H  47.56300 13.16200 23.69600
H  46.41400 12.43400 21.71000
H  45.12600 13.55100 21.92800
H  45.06200 11.89800 22.69900
H  42.48800 12.25800 26.72200
H  41.32200 13.43100 27.33700
H  41.54100 11.98900 28.19700
H  44.14300 13.72000 32.89700
H  41.08400 16.28700 34.43400
H  42.77500 17.03200 34.88900
H  41.99200 15.84000 35.82800

