158

Mg 41.25800 9.00800 29.30300
C  42.89500 10.48600 32.00700
C  39.07300 7.57900 31.57500
C  39.53000 7.49400 26.70100
C  43.72000 10.00000 27.22400
N  41.13100 8.95700 31.52600
C  41.84500 9.71200 32.46300
C  41.36800 9.53300 33.92500
C  40.14300 8.55000 33.74200
C  40.10600 8.33500 32.16900
C  40.18900 7.16800 34.48700
C  41.05500 10.89900 34.61000
C  39.96100 10.94300 35.71400
H  40.48100 11.38500 37.10500
N  39.55700 7.81100 29.16500
C  38.81900 7.33000 30.21900
C  37.75300 6.47000 29.68400
C  37.74900 6.56300 28.25700
C  38.99400 7.24100 28.00000
C  36.83800 5.70900 30.66900
C  36.68800 6.01800 27.20300
O  36.96500 6.06200 26.02200
C  35.38800 5.40400 27.62900
N  41.61100 8.69300 27.34400
C  40.79000 8.09200 26.41600
C  41.44300 8.12800 24.99400
C  42.70400 8.95000 25.12900
C  42.70500 9.22800 26.66600
C  41.49400 6.84300 24.18100
C  42.83900 10.14300 24.16200
C  42.22100 11.54200 24.51200
N  42.88800 10.06400 29.51600
C  43.89300 10.34400 28.58900
C  45.05100 10.91900 29.22600
C  44.57000 11.10500 30.55100
C  43.35800 10.52600 30.65700
C  46.28400 11.40300 28.55900
C  44.93900 11.74100 31.79300
O  45.89100 12.44800 31.96600
C  43.85600 11.37800 32.81600
C  44.49400 10.68600 33.92800
O  44.85000 9.53400 33.94400
O  44.54700 11.52400 35.00200
C  45.14700 10.87500 36.15700
H  38.41600 7.12500 32.32000
H  39.17800 7.04900 25.76800
H  44.54000 10.33600 26.58500
H  42.15500 9.04800 34.50200
H  39.14900 8.91300 34.00200
H  41.02000 7.20500 35.19200
H  40.54600 6.52000 33.68600
H  39.26000 6.83400 34.95000
H  40.79500 11.59800 33.81500
H  41.93700 11.46100 34.91600
H  39.43000 9.99300 35.77600
H  39.12100 11.54000 35.36100
H  36.06400 6.37900 31.04300
H  37.38200 5.42200 31.56800
H  36.47600 4.79800 30.19200
H  35.49300 4.57800 28.33300
H  34.79300 5.12500 26.75900
H  34.87600 6.22600 28.13000
H  40.71700 8.73900 24.45800
H  43.59700 8.32800 25.08100
H  42.49800 6.84000 23.75800
H  40.80400 6.86900 23.33700
H  41.24900 5.98700 24.81000
H  42.58000 9.90600 23.13000
H  43.91700 10.30000 24.17800
H  41.56000 11.45200 25.37400
H  41.68200 12.02300 23.69600
H  43.09200 12.12800 24.80400
H  46.50300 12.47100 28.57100
H  46.32000 11.09800 27.51300
H  47.14100 10.94300 29.05000
H  43.34900 12.31200 33.05500
H  44.41800 10.21600 36.62900
H  45.33700 11.63600 36.91400
H  46.12100 10.38600 36.15600
Mg 54.64500 23.64100 44.52200
C  52.33800 26.17200 43.40800
C  52.54000 21.33100 43.39900
C  57.03700 21.58800 45.02800
C  56.93600 26.39000 45.00300
N  52.79100 23.75500 43.30400
C  51.99700 24.85700 43.15100
C  50.67300 24.41300 42.58800
C  50.58700 22.94700 42.90800
C  52.05300 22.65600 43.17400
C  49.73800 22.56400 44.14300
C  50.44700 24.78400 41.04900
C  51.69900 24.67100 40.17300
H  51.50100 25.04100 38.64400
N  54.73400 21.68700 44.39600
C  53.78400 20.82100 43.86400
C  54.24100 19.44300 43.96000
C  55.57100 19.53000 44.48100
C  55.83200 20.97000 44.69500
C  53.40500 18.17100 43.58400
C  56.38900 18.30800 44.82000
O  56.15800 17.14800 44.30900
C  57.57600 18.36600 45.72900
N  56.72500 24.01400 44.84600
C  57.46000 22.92200 45.09900
C  58.97300 23.35300 45.30100
C  58.91900 24.88300 45.20200
C  57.45100 25.10200 45.04900
C  59.67000 22.86900 46.61800
C  59.72100 25.52000 44.04400
C  60.78200 26.64900 44.48600
N  54.62500 25.88500 44.32200
C  55.61100 26.84100 44.57200
C  55.15900 28.16300 44.19700
C  53.82300 27.98800 43.88800
C  53.55800 26.58300 43.89400
C  55.98800 29.34100 44.19400
C  52.58900 28.70100 43.56400
O  52.34600 29.88500 43.46300
C  51.53500 27.47200 43.26200
C  50.92600 27.81100 41.94200
O  51.49100 27.77400 40.86700
O  49.60100 28.20700 42.07900
C  48.84800 28.29700 40.88400
H  51.72700 20.63500 43.18400
H  57.77900 20.78900 45.09300
H  57.60600 27.25100 45.05500
H  49.99400 24.98600 43.22000
H  50.30100 22.38300 42.02000
H  49.38300 23.49100 44.59300
H  50.25100 21.97800 44.90500
H  48.90500 21.95800 43.78600
H  49.89400 25.71500 40.92800
H  49.80800 24.07200 40.52600
H  52.05300 23.64200 40.23600
H  52.50800 25.29900 40.54600
H  52.34300 18.41600 43.61400
H  53.56000 17.32900 44.25800
H  53.53900 17.84100 42.55400
H  57.41000 19.05800 46.55400
H  58.44500 18.65800 45.14000
H  57.76800 17.40500 46.20700
H  59.47200 22.92100 44.43300
H  59.12900 25.48900 46.08400
H  60.73400 22.85600 46.38300
H  59.34000 21.87000 46.90200
H  59.50100 23.54300 47.45800
H  59.09000 26.07100 43.34700
H  60.37300 24.76900 43.59700
H  61.23000 26.29000 45.41200
H  60.35000 27.63900 44.63300
H  61.48300 26.78400 43.66200
H  55.45300 30.09600 43.61900
H  56.93100 29.13200 43.68900
H  56.18600 29.77600 45.17400
H  50.91700 27.60900 44.14900
H  48.99600 27.46000 40.20200
H  49.15900 29.12400 40.24500
H  47.80000 28.09400 41.10400

