158

Mg 24.16400 -5.36000 44.97000
C  26.34300 -2.96300 43.49300
C  21.63300 -4.11700 42.92600
C  22.56400 -8.22400 45.40300
C  27.08400 -6.94800 46.35100
N  24.03700 -3.69200 43.47200
C  25.01700 -2.92100 42.99000
C  24.52900 -2.00200 41.90500
C  22.90600 -2.04800 42.01400
C  22.82900 -3.37600 42.81300
C  22.23300 -0.99000 42.91600
C  25.08300 -2.59800 40.53900
C  25.57400 -1.64700 39.48300
H  25.05000 -1.79500 38.03800
N  22.36700 -6.02600 44.39400
C  21.43100 -5.36800 43.59200
C  20.25700 -6.22300 43.46000
C  20.50000 -7.45500 44.15800
C  21.89400 -7.28300 44.65300
C  19.00200 -5.81600 42.65100
C  19.46700 -8.51000 44.39600
O  18.35600 -8.38000 43.85800
C  19.64000 -9.60200 45.36300
N  24.72000 -7.25900 45.88200
C  23.83500 -8.28600 45.91300
C  24.46800 -9.46100 46.60000
C  25.75200 -8.92300 47.18600
C  25.91100 -7.64800 46.42200
C  23.46100 -10.17000 47.64400
C  27.02600 -9.84600 46.94900
C  27.84600 -10.22900 48.19500
N  26.25100 -4.98300 45.08300
C  27.29400 -5.74300 45.65300
C  28.52000 -4.99600 45.50600
C  28.17500 -3.86900 44.69400
C  26.78500 -3.96400 44.40200
C  29.85000 -5.35100 46.00900
C  28.67100 -2.67800 44.04700
O  29.78500 -2.17600 44.09400
C  27.53500 -2.08200 43.14700
C  27.18900 -0.67700 43.59500
O  26.64600 -0.24600 44.56500
O  27.61500 0.11000 42.59500
C  27.38500 1.57000 42.69500
H  20.78300 -3.68800 42.39200
H  22.01700 -9.13100 45.66500
H  27.97400 -7.42300 46.76900
H  24.92200 -0.99100 42.01200
H  22.41000 -2.04700 41.04400
H  21.45400 -0.43600 42.39200
H  23.01600 -0.30500 43.24100
H  21.73500 -1.43100 43.78000
H  24.34800 -3.27300 40.10000
H  25.97300 -3.09600 40.92300
H  26.65200 -1.78100 39.57700
H  25.38000 -0.62800 39.81900
H  18.78100 -6.53600 41.86300
H  19.10700 -4.85200 42.15400
H  18.04300 -5.76200 43.16700
H  20.11800 -9.25700 46.28100
H  20.20200 -10.36200 44.82000
H  18.65500 -10.00800 45.59200
H  24.77800 -10.24900 45.91400
H  25.79700 -8.67900 48.24700
H  22.51700 -9.64700 47.79600
H  23.80400 -10.40100 48.65200
H  23.21600 -11.13800 47.20500
H  27.70400 -9.48300 46.17700
H  26.69200 -10.77700 46.49100
H  28.81000 -9.72700 48.28600
H  27.95500 -11.31400 48.22000
H  27.23300 -9.96400 49.05600
H  29.83600 -5.33100 47.09900
H  30.63700 -4.70600 45.61600
H  30.08900 -6.31700 45.56500
H  27.70900 -2.05000 42.07200
H  27.90900 2.00100 41.84200
H  27.75400 1.87100 43.67600
H  26.30200 1.67200 42.63000
Mg 25.26400 1.37900 29.38800
C  27.37300 1.28100 32.16800
C  22.60800 1.85800 31.51600
C  23.18000 1.30500 26.59800
C  28.03300 0.78600 27.39400
N  25.02400 1.59200 31.62600
C  26.00800 1.48500 32.52500
C  25.38400 1.46900 33.91000
C  23.83700 1.55800 33.67800
C  23.80400 1.75700 32.19000
C  23.00800 0.36600 34.14700
C  25.94100 2.74300 34.55000
C  26.69200 2.49800 35.81100
H  26.56600 3.38900 37.06100
N  23.23900 1.42700 29.15000
C  22.36100 1.67600 30.12500
C  20.97900 1.54200 29.62100
C  21.09300 1.42200 28.20900
C  22.55900 1.31400 27.89800
C  19.72400 1.56000 30.57200
C  20.07700 1.47100 27.27600
O  20.26600 1.33400 26.10100
C  18.64000 1.76500 27.62700
N  25.50100 1.02900 27.34400
C  24.56200 1.23000 26.36300
C  25.26100 1.25700 24.97800
C  26.79600 1.27500 25.22400
C  26.80300 1.03600 26.77100
C  24.73400 0.24700 23.97600
C  27.59900 2.49700 24.73500
C  27.16600 3.87500 25.22400
N  27.34100 1.08600 29.64800
C  28.30400 0.69500 28.74900
C  29.57300 0.45600 29.43600
C  29.22700 0.72900 30.73300
C  27.90300 1.08800 30.86400
C  30.85000 0.01700 28.83800
C  29.80400 0.83500 32.06400
O  30.94500 0.57700 32.41800
C  28.54300 1.13800 33.04800
C  28.46500 -0.01400 33.85100
O  28.00800 -1.10400 33.59200
O  29.07000 0.29300 34.98300
C  29.06000 -0.68900 36.05300
H  21.80400 2.11300 32.21000
H  22.54200 1.50700 25.73500
H  28.92700 0.63200 26.78700
H  25.64000 0.52200 34.38600
H  23.34900 2.45200 34.06600
H  22.07400 0.70600 34.59300
H  23.53100 -0.13300 34.96300
H  22.70600 -0.36800 33.40000
H  25.11100 3.41000 34.77900
H  26.58800 3.30000 33.87200
H  27.75900 2.51500 35.58800
H  26.29200 1.53200 36.11900
H  18.99400 0.90000 30.10400
H  19.34800 2.57700 30.68100
H  20.09500 1.11300 31.49400
H  18.05100 1.89500 26.71900
H  18.45100 2.70500 28.14600
H  18.18500 0.88600 28.08300
H  25.02000 2.24000 24.57400
H  27.37000 0.43500 24.83400
H  24.12900 0.80600 23.26300
H  24.14600 -0.56700 24.40000
H  25.59500 -0.09000 23.39900
H  27.45200 2.49700 23.65500
H  28.62700 2.29100 25.03400
H  26.52100 3.63700 26.07000
H  26.56400 4.41000 24.49000
H  27.96600 4.55800 25.51200
H  31.59800 -0.00100 29.63100
H  31.15600 0.82000 28.16700
H  30.66200 -0.94500 28.36100
H  28.74800 2.06300 33.58700
H  29.27200 -1.71400 35.75000
H  28.06900 -0.76200 36.50100
H  29.78300 -0.38500 36.81000

