158

Mg -1.63000 16.55200 26.55900
C  -2.31400 14.21400 29.18600
C  -2.06100 19.06700 28.72500
C  -1.55500 18.63800 23.98200
C  -1.87800 13.80200 24.27100
N  -2.24800 16.59200 28.74900
C  -2.23300 15.55500 29.62400
C  -2.22800 16.14900 31.12800
C  -2.13600 17.66500 30.88300
C  -2.13600 17.83900 29.37300
C  -3.31100 18.54200 31.49700
C  -1.05100 15.55800 32.00600
C  -0.54700 16.42700 33.15100
H  -0.58700 15.76000 34.59500
N  -1.63500 18.61000 26.37600
C  -1.80600 19.51100 27.39500
C  -1.72400 20.85800 26.91100
C  -1.34700 20.75000 25.56000
C  -1.55800 19.29200 25.23800
C  -1.84300 21.97700 27.90000
C  -0.89100 21.85800 24.64700
O  -0.47000 21.63000 23.53000
C  -0.72900 23.22900 25.12300
N  -1.86500 16.25200 24.39100
C  -1.76600 17.29400 23.55500
C  -1.66000 16.84500 22.05700
C  -1.75900 15.26300 22.18200
C  -1.74800 15.05600 23.69300
C  -2.63700 17.46000 21.01000
C  -0.58500 14.44300 21.56300
C  0.80500 14.87500 22.18100
N  -2.01800 14.48200 26.68600
C  -2.05200 13.51600 25.67100
C  -2.30900 12.21800 26.26600
C  -2.45500 12.41500 27.63900
C  -2.17200 13.83200 27.85100
C  -2.48500 10.87600 25.59300
C  -2.61200 11.69800 28.89900
O  -2.76000 10.50600 29.24300
C  -2.49800 12.89300 29.93500
C  -1.41800 12.52500 30.83900
O  -0.19300 12.77300 30.75400
O  -1.93200 11.75100 31.80200
C  -1.03200 11.26000 32.88400
H  -2.15700 19.96300 29.34200
H  -1.52200 19.30200 23.11600
H  -2.03800 12.93800 23.62400
H  -3.10500 15.83700 31.69500
H  -1.17500 18.09200 31.17000
H  -3.95500 19.01600 30.75600
H  -2.93900 19.35200 32.12500
H  -4.00600 17.98100 32.12200
H  -0.17500 15.49900 31.36100
H  -1.28900 14.55900 32.37300
H  -1.17300 17.31400 33.25600
H  0.41100 16.87700 32.89000
H  -2.48700 21.84400 28.76800
H  -2.24100 22.77400 27.27200
H  -0.86400 22.30500 28.24900
H  -1.67200 23.73100 25.33600
H  -0.20100 23.87200 24.41900
H  -0.09700 23.24300 26.01100
H  -0.67400 16.97500 21.61000
H  -2.63200 14.82100 21.70300
H  -3.22600 18.10500 21.66200
H  -3.25400 16.68200 20.56200
H  -2.08200 18.05400 20.28400
H  -0.62300 14.57000 20.48100
H  -0.75900 13.37600 21.70600
H  1.33000 15.45200 21.42000
H  1.24300 13.88100 22.27400
H  0.70900 15.46800 23.09000
H  -3.36900 10.76000 24.96600
H  -2.60400 10.17600 26.42000
H  -1.64200 10.35600 25.13900
H  -3.40500 12.84800 30.53900
H  -0.40200 12.06100 33.27100
H  -0.29200 10.62800 32.39400
H  -1.69600 10.88100 33.66000
Mg -11.80700 37.49600 41.85700
C  -9.31700 35.15400 40.92400
C  -9.65000 39.98700 40.62200
C  -14.33100 39.47300 42.11500
C  -13.81400 34.82100 42.95400
N  -9.72700 37.49000 40.90100
C  -8.92800 36.45400 40.60600
C  -7.65900 36.94400 39.92300
C  -7.59400 38.52800 40.15700
C  -9.05000 38.70300 40.65100
C  -6.50500 39.00100 41.13500
C  -7.66300 36.53300 38.42100
C  -6.40600 35.79500 37.84600
H  -5.90900 36.25900 36.45300
N  -12.01700 39.44300 41.41600
C  -11.02600 40.33900 40.91700
C  -11.71200 41.59000 40.74800
C  -12.99800 41.50100 41.29200
C  -13.12500 40.11500 41.64500
C  -10.99500 42.81000 40.16900
C  -14.05700 42.58400 41.27200
O  -13.77700 43.70200 40.97200
C  -15.47300 42.27900 41.63500
N  -13.86900 37.15700 42.29900
C  -14.68100 38.18800 42.38600
C  -15.98000 37.79600 43.00400
C  -15.85000 36.28200 43.33800
C  -14.44900 36.03300 42.87000
C  -16.47900 38.68500 44.17700
C  -16.85700 35.32400 42.62500
C  -17.71800 34.42400 43.54200
N  -11.62700 35.51600 41.94300
C  -12.49400 34.55800 42.50000
C  -11.95300 33.24600 42.43300
C  -10.78000 33.45100 41.74500
C  -10.53700 34.88000 41.57600
C  -12.47400 31.92500 42.91200
C  -9.47000 32.80000 41.27200
O  -9.14900 31.62800 41.24300
C  -8.60400 33.82700 40.70200
C  -7.32700 33.64600 41.40100
O  -6.46100 32.88100 41.03400
O  -7.28000 34.54100 42.47100
C  -5.98200 34.45800 43.13900
H  -9.07900 40.77100 40.12000
H  -15.25900 40.04100 42.20300
H  -14.48800 34.03400 43.30000
H  -6.85900 36.39500 40.41900
H  -7.40400 39.03500 39.21100
H  -5.58400 38.42900 41.01800
H  -6.72600 38.89500 42.19700
H  -6.28900 40.04300 40.90100
H  -8.05500 37.42900 37.94000
H  -8.47600 35.80800 38.39200
H  -6.66100 34.73600 37.88100
H  -5.51900 35.86100 38.47600
H  -11.44300 43.05500 39.20700
H  -9.92500 42.61900 40.07900
H  -11.09100 43.67100 40.83100
H  -16.00900 43.22800 41.61900
H  -15.62000 41.95500 42.66600
H  -15.95800 41.63300 40.90400
H  -16.67800 37.84800 42.16800
H  -15.61500 36.04300 44.37500
H  -17.44000 39.03800 43.80200
H  -15.76800 39.48200 44.39200
H  -16.68700 38.01700 45.01200
H  -16.29300 34.65500 41.97600
H  -17.66200 35.82700 42.09000
H  -18.77500 34.69000 43.54600
H  -17.31300 34.76500 44.49400
H  -17.47800 33.36200 43.48200
H  -11.76000 31.37500 43.52500
H  -12.79900 31.36800 42.03400
H  -13.27200 32.08400 43.63700
H  -8.47400 33.64600 39.63500
H  -5.28000 34.61200 42.32000
H  -5.87200 33.43600 43.50300
H  -6.07300 35.13700 43.98600

