158

Mg 2.03700 -1.42500 44.14600
C  5.42000 -0.64600 43.60000
C  1.09900 1.41200 42.44900
C  -1.11100 -2.57100 44.18900
C  3.12500 -4.48400 45.59000
N  3.20700 0.10700 42.89100
C  4.57600 0.28500 43.03000
C  4.86600 1.67500 42.41200
C  3.45300 2.33800 42.29700
C  2.47100 1.24900 42.58700
C  3.33600 3.50800 43.26200
C  5.72900 1.70000 41.06700
C  6.52700 2.97700 41.02100
H  6.31600 3.83800 39.76500
N  0.21800 -0.63000 43.55100
C  0.05100 0.57400 42.89400
C  -1.38400 0.79500 42.79900
C  -2.08900 -0.30800 43.32200
C  -1.01000 -1.19400 43.84600
C  -1.98800 1.84900 41.84700
C  -3.61600 -0.51600 43.26000
O  -4.27600 0.36400 42.65900
C  -4.37700 -1.60100 44.01800
N  1.17800 -3.28900 44.68000
C  -0.19100 -3.50800 44.62600
C  -0.58800 -4.98400 44.95400
C  0.79100 -5.63600 45.28200
C  1.79500 -4.41000 45.16600
C  -1.59400 -5.22800 46.11100
C  1.21100 -6.81600 44.35900
C  1.67800 -8.10600 45.09100
N  3.90500 -2.40500 44.56900
C  4.15300 -3.55400 45.21800
C  5.58100 -3.65400 45.53700
C  6.16800 -2.51800 44.88500
C  5.05900 -1.82000 44.32500
C  6.40300 -4.70600 46.38100
C  7.40300 -1.78700 44.58300
O  8.51800 -2.06400 44.89800
C  7.03700 -0.56600 43.68600
C  7.44000 0.78500 44.33300
O  6.95000 1.16500 45.40800
O  8.38300 1.38000 43.57400
C  8.62000 2.72400 44.11100
H  0.81700 2.42400 42.15300
H  -2.12600 -2.95600 44.07400
H  3.65500 -5.34500 46.00100
H  5.47800 2.07700 43.22000
H  3.22300 2.70000 41.29500
H  2.64700 3.31900 44.08500
H  2.94200 4.37400 42.73000
H  4.24700 3.97900 43.63000
H  5.10000 1.55700 40.18800
H  6.34200 0.81200 41.21600
H  7.57600 2.68400 40.99400
H  6.38800 3.55900 41.93200
H  -2.64300 1.53200 41.03500
H  -1.14500 2.45300 41.51100
H  -2.63600 2.37600 42.54600
H  -5.34800 -1.19100 44.29600
H  -3.82500 -1.97300 44.88200
H  -4.67200 -2.36800 43.30200
H  -1.00600 -5.52800 44.10700
H  0.85400 -5.91200 46.33400
H  -2.00800 -4.33800 46.58400
H  -1.08400 -5.61100 46.99500
H  -2.41200 -5.92700 45.93400
H  2.01700 -6.53800 43.68100
H  0.37800 -7.25200 43.80700
H  1.49200 -8.20700 46.16000
H  2.72900 -8.34000 44.91800
H  1.21800 -8.97300 44.61700
H  6.85000 -4.06000 47.13700
H  7.17300 -5.19600 45.78600
H  5.76100 -5.48100 46.80000
H  7.42300 -0.68300 42.67400
H  7.81900 3.39500 43.80100
H  9.50900 3.23100 43.73400
H  8.61400 2.83100 45.19600
Mg 26.84000 49.15700 26.31500
C  25.08000 50.98600 28.82400
C  28.88400 47.96300 28.74700
C  28.91500 48.28700 23.90000
C  24.97300 50.87600 24.06400
N  26.85100 49.28700 28.60600
C  25.98700 50.05800 29.35500
C  26.21600 49.78200 30.89500
C  27.64200 49.00100 30.81600
C  27.80600 48.71900 29.34400
C  28.86500 49.84500 31.37900
C  25.01600 49.03000 31.40800
C  24.54100 49.52500 32.83700
H  24.21600 48.52100 33.96000
N  28.57500 48.15500 26.38500
C  29.22600 47.64400 27.45100
C  30.44100 46.95800 27.01500
C  30.49900 47.18000 25.58100
C  29.28600 47.92900 25.21700
C  31.38900 46.27900 27.91400
C  31.64400 46.72700 24.68900
O  31.60500 47.02100 23.49500
C  32.87100 45.93900 25.26600
N  26.98600 49.69900 24.24100
C  27.82100 48.97300 23.41500
C  27.46900 49.15300 21.89500
C  26.03700 49.92000 22.02000
C  25.92800 50.07800 23.52900
C  28.46600 49.78300 20.90300
C  24.79400 49.16200 21.45900
C  24.33500 47.88600 22.23800
N  25.25000 50.64900 26.36600
C  24.64000 51.25200 25.33900
C  23.55500 52.13500 25.86700
C  23.70300 52.00000 27.22800
C  24.81100 51.17500 27.43900
C  22.64800 52.93000 24.95600
C  23.15200 52.46400 28.55600
O  22.14400 53.16600 28.92800
C  24.03500 51.83800 29.62100
C  24.56600 52.89400 30.55300
O  25.24100 53.86800 30.27900
O  23.83600 52.79100 31.74000
C  23.70500 53.87000 32.74700
H  29.54400 47.50300 29.48600
H  29.61200 47.82300 23.19900
H  24.39900 51.36000 23.27000
H  26.36700 50.64800 31.54000
H  27.74500 48.06100 31.35900
H  28.55200 50.81300 31.77000
H  29.58300 50.04200 30.58400
H  29.31200 49.19500 32.13200
H  25.31100 47.99200 31.55900
H  24.21300 49.06800 30.67200
H  23.53700 49.90700 32.65100
H  25.22300 50.27600 33.23400
H  31.46300 45.25500 27.55000
H  30.95300 46.28900 28.91300
H  32.31300 46.82700 28.10300
H  33.43000 46.53000 25.99000
H  33.52100 45.72200 24.41800
H  32.40900 45.06800 25.73000
H  27.39500 48.13500 21.51300
H  26.20200 50.89700 21.56700
H  29.26700 50.30000 21.43100
H  27.86400 50.57200 20.45400
H  28.83800 49.08500 20.15200
H  24.99700 48.85400 20.43300
H  23.90200 49.78000 21.35100
H  24.56100 47.08400 21.53600
H  23.25100 47.98700 22.28500
H  24.96000 47.68500 23.10900
H  21.98600 53.46500 25.63700
H  22.00000 52.25800 24.39300
H  23.24100 53.57500 24.30700
H  23.54300 51.04900 30.19000
H  24.19600 53.44100 33.62000
H  22.68700 54.08200 33.07600
H  24.22900 54.74200 32.35600

