158

Mg 48.10000 24.81900 28.76600
C  48.78700 27.21500 31.30100
C  47.08400 22.65700 31.22300
C  47.98900 22.52300 26.43400
C  49.34400 27.19400 26.47900
N  47.99300 24.91700 31.01900
C  48.29100 26.03100 31.84400
C  48.04800 25.69100 33.32700
C  47.47900 24.20100 33.23000
C  47.54200 23.91600 31.74300
C  48.30900 23.20900 34.07400
C  47.05800 26.69500 33.92900
C  46.54800 26.31900 35.29600
H  47.14000 27.07800 36.48200
N  47.49400 22.84900 28.80100
C  47.03100 22.16300 29.90600
C  46.63300 20.84000 29.45400
C  46.88300 20.77600 27.99200
C  47.47700 22.05200 27.68200
C  46.01700 19.84700 30.38500
C  46.51100 19.80800 26.91300
O  46.83100 19.93900 25.68800
C  45.73900 18.56600 27.29700
N  48.60000 24.84800 26.70400
C  48.38900 23.73300 25.95200
C  48.75000 24.07300 24.50400
C  48.79400 25.64800 24.40800
C  48.88800 25.96700 25.95600
C  50.08400 23.42000 23.92800
C  47.52300 26.14200 23.61100
C  47.71800 27.51800 22.87900
N  48.91100 26.83300 28.83700
C  49.40600 27.61200 27.82600
C  49.85000 28.88200 28.25500
C  49.72400 28.76600 29.66800
C  49.10500 27.48700 29.94400
C  50.35700 29.96800 27.43800
C  49.82700 29.47100 30.91900
O  50.11800 30.60600 31.26100
C  49.35200 28.45000 32.04900
C  50.39000 28.18100 32.99800
O  51.26300 27.31900 32.85400
O  50.17700 28.93500 34.09400
C  51.17200 28.74000 35.16800
H  46.74900 21.94400 31.97900
H  48.11100 21.89500 25.54900
H  49.57000 27.92900 25.70300
H  49.03200 25.78700 33.78500
H  46.45000 24.14300 33.58400
H  48.62900 23.67200 35.00700
H  49.08900 23.03100 33.33400
H  47.67100 22.33900 34.23200
H  46.21500 26.73200 33.23900
H  47.61600 27.62400 34.04400
H  46.63100 25.24500 35.46400
H  45.48500 26.55100 35.23800
H  44.94000 19.69800 30.31100
H  46.22000 20.08000 31.43000
H  46.49000 18.87700 30.23400
H  44.86000 18.65900 27.93600
H  46.53700 17.92200 27.66900
H  45.42100 18.16900 26.33300
H  47.85400 23.73100 23.98600
H  49.67300 26.06100 23.91300
H  50.57700 22.88400 24.73800
H  50.75000 24.18700 23.53200
H  49.84200 22.70600 23.14100
H  46.69800 26.26400 24.31400
H  47.20300 25.42700 22.85300
H  48.70000 27.90800 23.14900
H  47.08700 28.33100 23.23700
H  47.69500 27.45000 21.79100
H  50.74200 30.77000 28.06800
H  49.58300 30.40700 26.80900
H  51.13100 29.42300 26.89600
H  48.45700 28.92900 32.44500
H  52.18800 28.79700 34.77700
H  50.92100 27.76100 35.57800
H  51.00300 29.52300 35.90600
Mg -11.24600 17.30300 42.23000
C  -7.69100 16.29600 42.13000
C  -10.03800 20.31600 40.91100
C  -14.31400 17.80000 40.93300
C  -12.00400 13.80600 42.38300
N  -9.14200 18.13200 41.53400
C  -7.89300 17.58100 41.60900
C  -6.81200 18.43700 40.94300
C  -7.50900 19.89600 41.04200
C  -8.99200 19.47400 41.16900
C  -6.99200 20.90400 42.18700
C  -6.42400 17.98300 39.50900
C  -5.00800 17.37300 39.28900
H  -4.97700 16.22000 38.37000
N  -12.11600 18.98500 41.29500
C  -11.48100 20.13700 40.81700
C  -12.41400 21.00200 40.26500
C  -13.71400 20.34700 40.29600
C  -13.42800 18.96300 40.84900
C  -12.01600 22.46400 39.88400
C  -14.98800 21.01800 39.99900
O  -14.98500 22.13700 39.51200
C  -16.28400 20.33800 40.33600
N  -12.83900 15.98600 41.64200
C  -14.07200 16.44300 41.19700
C  -15.02600 15.33700 40.86400
C  -14.23900 14.07900 41.12100
C  -12.96900 14.61300 41.84300
C  -16.39100 15.29000 41.52900
C  -13.96900 13.28500 39.82700
C  -14.72200 11.89600 39.78600
N  -10.17900 15.49600 42.52200
C  -10.63900 14.19200 42.65100
C  -9.57600 13.35400 43.11500
C  -8.42500 14.09300 42.85300
C  -8.81700 15.37300 42.46800
C  -9.63200 11.91000 43.61200
C  -6.95500 14.02600 42.81100
O  -6.28000 13.01500 42.92100
C  -6.47600 15.43100 42.27700
C  -5.38900 15.91100 43.16100
O  -5.34600 17.03900 43.69700
O  -4.45700 14.92700 43.30300
C  -3.53400 15.15900 44.43700
H  -9.75600 21.31900 40.58500
H  -15.33400 17.88200 40.55300
H  -12.12400 12.72100 42.35700
H  -5.93300 18.45600 41.58700
H  -7.32000 20.38100 40.08400
H  -6.90600 21.78800 41.55500
H  -5.99900 20.70800 42.59100
H  -7.67600 21.01300 43.02800
H  -6.48000 18.85500 38.85900
H  -7.15200 17.26100 39.13900
H  -4.79400 16.91800 40.25600
H  -4.29400 18.16900 39.07900
H  -11.56400 22.35700 38.89800
H  -11.29300 22.59200 40.68900
H  -12.70500 23.30500 39.80000
H  -16.16100 19.80100 41.27700
H  -16.51200 19.70700 39.47800
H  -16.94000 21.17800 40.56500
H  -15.25000 15.36800 39.79800
H  -14.68300 13.41700 41.86500
H  -16.95900 14.69600 40.81300
H  -16.80700 16.28600 41.67700
H  -16.48100 14.68300 42.43000
H  -12.89700 13.26500 39.63400
H  -14.33500 13.85300 38.97200
H  -15.24600 11.83800 38.83200
H  -15.45700 11.76000 40.58000
H  -13.98300 11.10300 39.67000
H  -8.76400 11.31600 43.32800
H  -10.52500 11.37500 43.28900
H  -9.60200 11.98900 44.69900
H  -6.10900 15.10900 41.30200
H  -2.89600 14.27600 44.47000
H  -4.17800 15.32300 45.30100
H  -2.95200 16.04500 44.18400

