158

Mg 9.05700 3.61200 27.74500
C  10.36100 1.95600 30.66400
C  7.14700 5.49100 29.81900
C  7.50700 4.68600 24.97100
C  10.57500 1.02400 25.79500
N  8.79600 3.74000 30.08300
C  9.52600 3.00100 31.04600
C  9.19000 3.51700 32.41900
C  8.05900 4.62700 32.18400
C  7.99100 4.64400 30.59000
C  6.65700 4.37900 32.89700
C  10.42400 3.92900 33.27500
C  10.09000 4.97700 34.33500
H  10.59300 4.84700 35.74500
N  7.63400 5.01000 27.37900
C  6.98400 5.73700 28.37200
C  6.17500 6.73400 27.81500
C  6.40700 6.70500 26.36800
C  7.20100 5.41400 26.15100
C  5.28400 7.75600 28.45800
C  6.01700 7.66000 25.21600
O  6.18200 7.37200 24.01800
C  5.36500 8.99400 25.53900
N  8.86900 2.76200 25.70000
C  8.24700 3.51800 24.68200
C  8.66900 3.10200 23.31200
C  9.45700 1.78400 23.62400
C  9.67300 1.87700 25.11900
C  7.54600 2.94100 22.19800
C  10.80700 1.69800 22.83700
C  11.09200 0.27000 22.18100
N  10.20200 1.96400 28.02200
C  10.78400 1.02700 27.13000
C  11.61500 0.13400 27.84100
C  11.51300 0.52000 29.18300
C  10.63100 1.56600 29.27800
C  12.35900 -1.03800 27.22000
C  11.91500 0.11900 30.50500
O  12.71500 -0.72300 30.82000
C  11.28600 1.10300 31.47000
C  10.50800 0.29700 32.49100
O  9.60100 -0.48100 32.20100
O  11.03800 0.43800 33.71900
C  10.47900 -0.46000 34.70400
H  6.75000 6.27400 30.46900
H  7.12300 5.16700 24.06900
H  11.25300 0.40300 25.20600
H  8.83700 2.69400 33.03900
H  8.38600 5.65800 32.32200
H  5.80400 4.49300 32.22800
H  6.55300 5.23600 33.56200
H  6.70500 3.48200 33.51400
H  11.18200 4.23000 32.55200
H  10.79500 3.01400 33.73600
H  9.00200 5.00700 34.39800
H  10.52500 5.92600 34.02300
H  5.49500 8.81400 28.29800
H  5.29900 7.57100 29.53200
H  4.26200 7.56100 28.13200
H  6.09300 9.54500 26.13600
H  4.39300 8.80700 25.99500
H  5.08700 9.53400 24.63400
H  9.27800 3.94100 22.97500
H  8.81100 0.90800 23.57300
H  7.84400 3.60800 21.39000
H  6.53400 3.24300 22.46700
H  7.43100 1.90600 21.87500
H  11.69300 2.01600 23.38500
H  10.83200 2.40500 22.00800
H  11.30200 0.41000 21.12100
H  10.37700 -0.54600 22.28500
H  12.02400 0.01800 22.68700
H  12.89000 -0.64600 26.35300
H  11.58500 -1.77500 27.00700
H  13.00800 -1.34600 28.04000
H  12.10900 1.60700 31.97800
H  11.32900 -1.05500 35.03800
H  9.66300 -1.11500 34.39600
H  10.00400 0.15000 35.47200
Mg 47.26300 15.28300 28.24600
C  45.19300 14.88600 31.11600
C  49.41900 17.08300 30.30300
C  49.11500 15.87400 25.58100
C  44.96400 13.26200 26.47000
N  47.26700 15.93900 30.40900
C  46.37300 15.54000 31.33200
C  46.70300 16.05400 32.72300
C  47.88800 17.08200 32.37300
C  48.24800 16.58700 31.00400
C  47.58500 18.60100 32.39300
C  47.00500 14.79000 33.66100
C  46.78300 14.99800 35.15900
H  46.88900 16.39200 35.73400
N  49.00800 16.27600 28.01800
C  49.74300 16.91700 28.94000
C  51.02500 17.25100 28.33300
C  51.01200 16.86800 26.95700
C  49.65200 16.38800 26.78400
C  51.97500 18.07300 29.13500
C  52.05800 17.01600 25.95500
O  51.89500 16.78000 24.75700
C  53.37200 17.50100 26.48200
N  46.97700 14.76200 26.31400
C  47.92300 15.11200 25.35300
C  47.54500 14.59700 23.93300
C  46.47200 13.51000 24.40500
C  46.08100 13.88500 25.79100
C  47.06200 15.65600 22.92500
C  47.03100 12.02200 24.57900
C  46.16700 10.83200 24.34500
N  45.40500 14.25500 28.67100
C  44.62100 13.52000 27.82400
C  43.45800 13.08300 28.63000
C  43.61100 13.66300 29.89800
C  44.83100 14.30100 29.87800
C  42.35100 12.11800 28.15100
C  43.03900 13.82100 31.25200
O  41.92400 13.49400 31.67700
C  44.07700 14.67300 32.06900
C  43.41400 15.87100 32.49400
O  42.85700 16.63300 31.76300
O  43.35700 15.94800 33.84500
C  42.60300 17.02800 34.40500
H  50.15100 17.54600 30.96900
H  49.63800 16.07400 24.64300
H  44.41000 12.61400 25.78700
H  45.90100 16.68300 33.10900
H  48.67300 16.88400 33.10300
H  46.67800 18.75200 32.97700
H  47.39100 18.99400 31.39500
H  48.40200 19.16000 32.84800
H  48.02200 14.49200 33.40600
H  46.42500 13.89800 33.42400
H  47.39300 14.26400 35.68600
H  45.73300 14.71200 35.22300
H  51.40900 18.68400 29.83800
H  52.45900 18.79600 28.47900
H  52.75100 17.44100 29.56600
H  54.19400 17.15600 25.85400
H  53.61500 17.03500 27.43600
H  53.59000 18.56900 26.45600
H  48.34800 14.02200 23.47300
H  45.55500 13.48600 23.81700
H  46.05800 15.40400 22.58300
H  47.75000 15.80100 22.09200
H  47.13200 16.54900 23.54600
H  47.38300 11.83300 25.59300
H  47.82500 11.99400 23.83400
H  45.19600 11.25000 24.08000
H  46.14000 10.19500 25.22900
H  46.41800 10.18400 23.50500
H  42.68200 11.48700 27.32600
H  41.49000 12.73000 27.88000
H  42.08100 11.47700 28.99000
H  44.35000 13.94800 32.83700
H  41.73400 17.20500 33.77200
H  43.23500 17.91400 34.33600
H  42.29800 16.74400 35.41200

