158

Mg -2.04100 34.13600 26.83200
C  -3.81300 32.37500 29.46700
C  -0.52200 36.06200 29.39700
C  -1.27500 36.43400 24.53500
C  -3.85700 32.28800 24.61100
N  -2.29400 34.29900 29.18900
C  -2.97500 33.42400 30.04200
C  -2.71900 33.75100 31.46300
C  -1.78500 35.01300 31.38100
C  -1.48600 35.12800 29.93600
C  -2.49900 36.36500 31.85800
C  -2.08700 32.44400 32.11200
C  -2.79200 31.80200 33.24100
H  -2.01900 31.72700 34.58400
N  -0.85700 35.86800 26.90700
C  -0.26100 36.41800 28.01800
C  0.57600 37.54600 27.53600
C  0.35200 37.61900 26.17200
C  -0.62000 36.64200 25.81200
C  1.50500 38.37100 28.46400
C  1.04800 38.50700 25.21100
O  0.99800 38.39900 23.96800
C  1.95500 39.60100 25.75400
N  -2.39900 34.31600 24.86600
C  -2.07900 35.43300 24.06300
C  -2.66500 35.22200 22.64000
C  -2.97600 33.68700 22.66200
C  -3.06900 33.36700 24.14000
C  -3.79100 36.17600 22.11600
C  -1.98700 32.74000 21.93300
C  -2.48500 32.08300 20.60500
N  -3.40500 32.51100 26.96700
C  -4.09600 31.87700 25.93600
C  -4.86200 30.74600 26.44800
C  -4.79000 30.93000 27.83700
C  -3.91400 32.01000 28.14700
C  -5.67100 29.73300 25.66100
C  -5.31700 30.41600 29.03300
O  -6.07900 29.46900 29.23600
C  -4.65900 31.29000 30.15800
C  -5.80500 31.89000 30.95100
O  -6.39600 32.95800 30.74300
O  -6.15600 31.07600 31.97000
C  -7.22400 31.41800 32.95800
H  0.03000 36.58600 30.18000
H  -1.16500 37.31200 23.89600
H  -4.37400 31.71000 23.84200
H  -3.64800 33.94100 32.00000
H  -0.89800 34.78300 31.97200
H  -3.51200 36.05700 32.11600
H  -2.48300 37.01300 30.98200
H  -2.07600 36.86800 32.72700
H  -1.13400 32.69900 32.57500
H  -1.81900 31.85400 31.23500
H  -3.01700 30.76900 32.97800
H  -3.76800 32.27400 33.35600
H  2.52600 38.28700 28.09100
H  1.36000 37.94400 29.45600
H  1.26600 39.43100 28.54200
H  1.39400 40.15800 26.50400
H  2.31800 40.18500 24.90800
H  2.86900 39.22300 26.21200
H  -1.81000 35.36600 21.98000
H  -4.01300 33.55900 22.35200
H  -4.28900 36.47200 23.03900
H  -4.49100 35.69100 21.43600
H  -3.31000 37.00700 21.60100
H  -1.75900 31.98100 22.68100
H  -1.04100 33.22000 21.68400
H  -1.66300 32.20300 19.90000
H  -3.45700 32.50200 20.34200
H  -2.66000 31.00800 20.63500
H  -5.77700 28.80000 26.21500
H  -5.33700 29.57200 24.63600
H  -6.67700 30.15400 25.64800
H  -4.09500 30.63100 30.81700
H  -6.78500 31.64000 33.93100
H  -7.77300 30.48400 33.08100
H  -7.83700 32.19300 32.49800
Mg -12.54600 16.80400 42.32100
C  -9.65900 14.78900 41.61300
C  -10.98600 19.39000 40.70900
C  -15.53500 18.22800 41.96300
C  -14.24400 13.81900 43.22500
N  -10.54400 16.98300 41.22200
C  -9.53600 16.12800 41.15900
C  -8.31900 16.69900 40.43500
C  -8.72800 18.19800 40.56800
C  -10.23900 18.18900 40.78100
C  -7.88200 18.91500 41.73100
C  -8.09000 16.07300 39.04000
C  -6.64600 15.90400 38.57900
H  -6.33200 16.82500 37.46000
N  -13.13100 18.58900 41.56300
C  -12.35400 19.59700 41.01000
C  -13.10300 20.74700 40.71400
C  -14.44500 20.47600 41.10600
C  -14.42100 19.04300 41.58000
C  -12.58200 21.99900 40.19600
C  -15.66800 21.44900 41.07800
O  -15.62800 22.48400 40.45500
C  -16.96500 21.04000 41.63600
N  -14.61100 16.10200 42.83100
C  -15.62100 16.96800 42.52300
C  -16.99200 16.33800 42.79700
C  -16.55600 14.91000 43.32200
C  -15.04100 14.94700 43.14100
C  -18.06200 17.08900 43.62200
C  -17.30900 13.58200 42.83800
C  -17.89500 12.71200 43.99500
N  -12.15200 14.71900 42.41700
C  -12.87900 13.65400 42.86000
C  -12.10300 12.40400 42.79100
C  -10.79100 12.82900 42.37400
C  -10.90100 14.22500 42.09200
C  -12.51600 10.99500 43.17500
C  -9.43200 12.37400 42.14200
O  -8.92100 11.28000 42.35600
C  -8.67600 13.56700 41.51300
C  -7.50700 13.80700 42.43000
O  -7.48600 13.99400 43.66400
O  -6.44000 13.75500 41.56000
C  -5.12600 14.02300 42.10900
H  -10.50000 20.34700 40.51000
H  -16.46100 18.70200 41.62900
H  -14.76700 12.89100 43.46600
H  -7.40200 16.54200 41.00200
H  -8.56400 18.76000 39.64900
H  -7.13400 19.48000 41.17400
H  -7.42600 18.29800 42.50500
H  -8.56200 19.65600 42.15200
H  -8.38000 16.88400 38.37200
H  -8.61500 15.15700 38.77100
H  -6.43400 14.87800 38.27900
H  -5.89300 16.15400 39.32700
H  -12.93700 22.09600 39.17000
H  -11.50500 22.15600 40.25700
H  -13.02900 22.73200 40.86700
H  -17.56600 21.94700 41.69800
H  -16.86400 20.55500 42.60700
H  -17.55300 20.39900 40.97900
H  -17.58100 16.12400 41.90500
H  -16.60000 15.01500 44.40600
H  -17.62300 18.02100 43.97900
H  -18.28100 16.44900 44.47700
H  -18.92500 17.27500 42.98300
H  -16.76700 12.90100 42.18200
H  -18.16500 13.84900 42.21900
H  -18.97400 12.85000 43.91900
H  -17.52700 13.01800 44.97400
H  -17.60300 11.66800 43.88400
H  -12.68700 10.95100 44.25000
H  -11.80000 10.33300 42.68600
H  -13.49700 10.84300 42.72400
H  -8.23100 13.46100 40.52300
H  -5.03300 13.62600 43.12100
H  -4.88900 15.07900 42.23600
H  -4.26500 13.62400 41.57400

