158

Mg 35.94700 0.54000 30.51900
C  33.55700 2.23700 32.49600
C  38.09700 0.62800 33.18100
C  38.34700 -0.60800 28.48100
C  33.74300 0.76100 27.71000
N  35.94900 1.59000 32.51600
C  34.83300 2.06400 33.12400
C  35.10300 2.30300 34.61700
C  36.64700 2.11400 34.73200
C  36.93500 1.45500 33.41100
C  37.46500 3.47400 34.96300
C  34.28800 1.18700 35.40200
C  33.97700 1.65800 36.83600
H  34.84100 2.88200 37.33300
N  37.94300 0.10700 30.78000
C  38.61400 0.17600 31.96300
C  39.92600 -0.26500 31.78700
C  40.12500 -0.54100 30.39800
C  38.81200 -0.31700 29.81900
C  40.86700 -0.34300 32.91100
C  41.35700 -0.83100 29.52400
O  41.24000 -1.23900 28.35100
C  42.65100 -0.76300 30.01300
N  36.07700 0.11900 28.39700
C  37.19000 -0.31700 27.77500
C  37.07200 -0.54500 26.26500
C  35.47100 -0.46100 26.13500
C  35.04900 0.25300 27.47800
C  37.74200 0.61600 25.42400
C  34.68900 -1.79300 25.94100
C  33.87400 -1.84300 24.63000
N  34.03700 1.40200 30.13500
C  33.25300 1.36000 28.94400
C  31.93200 1.88700 29.30800
C  32.07200 2.29200 30.68900
C  33.31600 1.91600 31.11400
C  30.70600 1.94100 28.43400
C  31.33700 2.92600 31.73300
O  30.19200 3.34000 31.68300
C  32.24600 2.82100 33.05400
C  32.53100 4.17500 33.65800
O  33.46500 4.95300 33.32200
O  31.67000 4.45900 34.59200
C  31.77900 5.72000 35.37500
H  38.65200 0.57400 34.12000
H  39.09200 -0.83900 27.71600
H  33.00600 0.70700 26.90700
H  34.84500 3.34700 34.79100
H  36.87900 1.48900 35.59400
H  36.86700 4.31400 35.31700
H  37.83700 3.71200 33.96600
H  38.29700 3.37200 35.65900
H  34.94400 0.33300 35.56800
H  33.30200 0.91000 35.02800
H  34.29200 0.85500 37.50300
H  32.92700 1.94200 36.89700
H  40.65900 0.53400 33.52400
H  41.92500 -0.33400 32.65000
H  40.62500 -1.16700 33.58200
H  42.49300 -1.56400 30.73600
H  42.75000 0.06800 30.71100
H  43.55300 -0.92200 29.42200
H  37.37800 -1.54400 25.95500
H  35.16000 0.25700 25.37600
H  37.98400 1.44500 26.08900
H  37.04600 1.07100 24.71900
H  38.69200 0.32400 24.97600
H  34.07500 -1.82000 26.84100
H  35.43400 -2.56900 26.11900
H  34.07900 -0.96300 24.01900
H  32.80600 -1.83200 24.84600
H  34.11300 -2.74100 24.06000
H  31.07400 1.73100 27.43000
H  30.17000 2.88500 28.53100
H  29.93800 1.19200 28.62300
H  31.79400 2.19600 33.82400
H  32.58300 6.28600 34.90600
H  32.04300 5.42200 36.39000
H  30.92500 6.38900 35.47500
Mg 46.93500 34.17900 27.25100
C  45.36100 32.58500 29.96200
C  46.96900 37.14900 29.01500
C  47.72900 35.78100 24.46400
C  45.93800 31.38800 25.28300
N  46.20000 34.74400 29.29100
C  45.87000 33.89700 30.32000
C  46.07400 34.55700 31.64700
C  46.16600 36.11400 31.26800
C  46.45700 36.03300 29.75400
C  44.85500 36.93300 31.62400
C  47.32500 33.99400 32.39200
C  47.37100 34.13000 33.91000
H  46.54900 35.26900 34.63300
N  47.39800 36.18200 26.84100
C  47.41500 37.24700 27.66700
C  47.90800 38.45900 27.01000
C  48.27100 38.06100 25.71300
C  47.86000 36.60900 25.62400
C  48.01300 39.75400 27.77100
C  48.77400 38.87800 24.54100
O  49.10500 38.44500 23.51100
C  48.91700 40.38400 24.77800
N  46.77900 33.68000 25.21400
C  47.26300 34.51300 24.23400
C  47.26800 33.90800 22.83100
C  46.86400 32.48100 23.19000
C  46.48400 32.53700 24.63500
C  46.40000 34.47200 21.63300
C  47.91100 31.45100 22.83200
C  47.55500 30.83200 21.52200
N  46.03500 32.26000 27.56100
C  45.63800 31.29500 26.64700
C  45.15900 30.15600 27.39500
C  45.01500 30.63800 28.69600
C  45.47100 31.95600 28.73000
C  44.80700 28.77600 26.86500
C  44.56400 30.27300 29.94200
O  44.26300 29.18400 30.40500
C  44.51300 31.56000 30.84100
C  44.79400 31.53100 32.29400
O  45.75200 30.98100 32.80800
O  43.80800 32.10300 33.01500
C  43.94800 32.01800 34.47800
H  46.98000 38.02700 29.66400
H  47.90600 36.34300 23.54500
H  45.58100 30.52700 24.71500
H  45.21600 34.39500 32.30100
H  47.05700 36.52500 31.74300
H  43.99600 36.35200 31.96300
H  44.47900 37.45900 30.74600
H  45.07800 37.66500 32.39900
H  48.28600 34.41600 32.10000
H  47.22000 32.95000 32.09600
H  48.37600 34.29200 34.30100
H  46.97700 33.14800 34.17300
H  49.08800 39.91300 27.68900
H  47.78000 39.74500 28.83600
H  47.34100 40.44700 27.26500
H  49.24600 40.66100 23.77600
H  49.77200 40.56000 25.43100
H  47.93500 40.81200 24.97800
H  48.31700 33.89600 22.53600
H  45.87700 32.35400 22.74400
H  45.86100 33.71300 21.06500
H  47.13200 35.02300 21.04400
H  45.71300 35.27900 21.88700
H  48.00300 30.67500 23.59200
H  48.87900 31.92500 22.66700
H  47.34200 31.59700 20.77600
H  46.64900 30.22600 21.54200
H  48.37300 30.26600 21.07500
H  45.62400 28.08200 26.66700
H  44.23800 29.03100 25.97000
H  44.11500 28.37500 27.60600
H  43.48600 31.92500 30.83000
H  44.69100 32.76300 34.76300
H  44.36400 31.04600 34.74000
H  42.99400 32.23000 34.96200

