158

Mg 35.29800 1.60700 29.19900
C  33.25200 2.64300 31.78200
C  37.94800 2.11400 31.27700
C  37.25900 0.82600 26.64500
C  32.56300 1.85800 27.08200
N  35.50700 2.20100 31.28900
C  34.55300 2.45500 32.19600
C  35.02900 2.44500 33.64500
C  36.49700 2.38200 33.41200
C  36.71100 2.29900 31.90500
C  37.32600 3.61100 33.99900
C  34.44000 1.36000 34.53500
C  34.02200 1.78300 35.96100
H  34.75500 2.95900 36.61200
N  37.35100 1.39200 29.03900
C  38.22900 1.76000 29.94500
C  39.57400 1.61800 29.41900
C  39.42400 1.09700 28.03700
C  37.98100 1.04700 27.85100
C  40.78400 1.89500 30.31300
C  40.48200 0.71800 27.03800
O  40.12300 0.43000 25.90900
C  41.89300 0.69500 27.43100
N  34.87800 1.28800 27.25200
C  35.81800 0.92000 26.35700
C  35.27300 0.56900 24.96700
C  33.74000 0.77300 25.15700
C  33.76700 1.39900 26.53000
C  35.80900 1.42400 23.81600
C  32.92600 -0.53400 24.95800
C  33.08000 -1.24400 23.51700
N  33.32600 2.13100 29.31100
C  32.35500 2.25000 28.40100
C  31.11200 2.78300 28.93900
C  31.43300 2.93000 30.26300
C  32.78000 2.50200 30.43900
C  29.83300 2.96500 28.25400
C  30.87300 3.30800 31.58000
O  29.78900 3.64200 31.92300
C  32.02000 3.00000 32.58900
C  32.19100 4.27500 33.38200
O  32.76900 5.33100 33.01500
O  31.50000 4.19800 34.55700
C  31.31100 5.48600 35.18800
H  38.83000 2.20500 31.91300
H  37.82500 0.53600 25.75700
H  31.79300 1.98100 26.31700
H  34.89600 3.46100 34.01700
H  36.96300 1.49600 33.84400
H  36.69200 4.28300 34.57800
H  37.75000 4.27900 33.24900
H  38.14700 3.31100 34.65000
H  35.04600 0.46200 34.65700
H  33.46500 1.04400 34.16400
H  34.13700 0.97000 36.67900
H  32.96400 2.04400 35.93300
H  41.78000 1.64100 29.95000
H  40.71100 1.38400 31.27300
H  40.77500 2.98000 30.41600
H  42.29500 1.69200 27.61100
H  42.43700 0.43200 26.52300
H  42.08800 0.06300 28.29700
H  35.49000 -0.46100 24.68500
H  33.37900 1.57300 24.51100
H  35.06200 1.94000 23.21300
H  36.43800 0.77700 23.20500
H  36.48500 2.18300 24.20800
H  31.87100 -0.27500 25.04600
H  33.36300 -1.21600 25.68800
H  32.34200 -1.03700 22.74100
H  33.13400 -2.28700 23.82900
H  34.07400 -1.07500 23.10400
H  29.04700 3.06800 29.00200
H  29.70700 2.15600 27.53400
H  29.83500 3.83400 27.59500
H  31.67600 2.17300 33.20900
H  32.30200 5.91900 35.32500
H  30.87800 5.34400 36.17800
H  30.71100 6.21400 34.64200
Mg -11.39100 38.36900 41.89700
C  -9.27400 35.69000 40.63400
C  -9.37300 40.47000 40.03000
C  -13.92000 40.50500 41.70200
C  -13.62200 35.77100 43.08600
N  -9.55200 38.07700 40.49900
C  -8.86800 36.98000 40.17300
C  -7.61500 37.32400 39.35100
C  -7.48100 38.85300 39.55700
C  -8.92400 39.18900 40.04900
C  -6.35600 39.32400 40.51800
C  -7.78600 36.85100 37.79000
C  -6.88100 35.70000 37.38500
H  -5.59600 36.01000 36.68600
N  -11.49100 40.30700 41.31800
C  -10.52900 41.00200 40.66000
C  -10.85000 42.43000 40.76800
C  -12.21300 42.44600 41.09400
C  -12.64900 41.03500 41.38200
C  -9.87800 43.44800 40.24900
C  -13.07300 43.77400 41.13200
O  -12.53700 44.86200 40.95400
C  -14.54800 43.73800 41.44100
N  -13.48200 38.21400 42.36700
C  -14.36500 39.25700 42.28700
C  -15.73600 38.93500 42.99900
C  -15.56500 37.42200 43.33400
C  -14.07600 37.06100 42.90700
C  -15.98800 39.78500 44.21300
C  -16.73800 36.43000 42.81300
C  -17.28500 35.44900 43.85900
N  -11.46400 36.21000 41.96200
C  -12.40600 35.29200 42.54700
C  -11.87000 33.96800 42.46900
C  -10.66800 34.08000 41.74400
C  -10.47200 35.43000 41.43100
C  -12.55300 32.78400 43.12500
C  -9.60200 33.30500 41.06800
O  -9.35700 32.12700 41.12800
C  -8.68200 34.32200 40.37600
C  -7.21100 34.25900 40.77700
O  -6.73500 34.90800 41.69900
O  -6.52800 33.27800 40.06400
C  -5.09800 33.08200 40.50100
H  -8.67600 41.14100 39.52300
H  -14.80000 41.15100 41.71700
H  -14.32600 35.07500 43.54700
H  -6.77100 36.80200 39.80300
H  -7.31000 39.16900 38.52800
H  -6.63800 40.28800 40.94300
H  -5.39000 39.38800 40.01700
H  -6.29800 38.59500 41.32600
H  -7.64700 37.66000 37.07400
H  -8.82500 36.56300 37.62500
H  -7.38300 34.99600 36.72200
H  -6.66700 35.11300 38.27800
H  -10.20800 44.37500 40.71900
H  -9.90900 43.47300 39.16000
H  -8.91300 43.16200 40.66600
H  -15.02200 43.09300 40.70000
H  -15.03800 44.70200 41.30300
H  -14.82000 43.25400 42.37900
H  -16.58900 39.01400 42.32500
H  -15.54100 37.23600 44.40800
H  -15.06300 39.98900 44.75200
H  -16.66700 39.33600 44.93700
H  -16.54200 40.70700 44.04000
H  -16.21600 35.86000 42.04500
H  -17.51300 37.02500 42.33000
H  -18.37000 35.54300 43.91000
H  -16.75500 35.66600 44.78700
H  -17.13700 34.43500 43.48800
H  -13.48600 32.47800 42.65200
H  -12.76500 32.90200 44.18800
H  -11.90200 31.92400 42.96900
H  -8.79200 34.20600 39.29800
H  -4.61700 32.24600 39.99300
H  -5.11400 33.06500 41.59100
H  -4.52800 33.93500 40.13200

