158

Mg 54.42500 25.25900 44.93800
C  51.67500 27.49600 44.37200
C  52.20000 22.72600 43.96700
C  57.02600 23.21900 44.69800
C  56.47000 27.91900 45.47600
N  52.15800 25.14700 44.28000
C  51.25000 26.19400 44.13900
C  49.87000 25.75100 43.57800
C  49.94200 24.23700 44.01300
C  51.52300 24.00300 44.00500
C  49.27200 23.83100 45.33400
C  49.67600 25.87800 42.07800
C  48.21700 25.83300 41.56500
H  47.99100 25.49700 40.07400
N  54.58400 23.21100 44.48600
C  53.54600 22.37300 44.07100
C  54.08100 20.99800 43.94200
C  55.46100 21.13600 44.31500
C  55.78700 22.57200 44.54200
C  53.16100 19.83000 43.71500
C  56.33900 19.86700 44.57800
O  56.01400 18.68300 44.33900
C  57.93100 19.97500 44.83600
N  56.51400 25.65800 44.84600
C  57.33600 24.62100 44.94200
C  58.78100 25.13200 44.97300
C  58.58100 26.57400 45.47200
C  57.14500 26.77500 45.24000
C  59.79200 24.26100 45.81100
C  59.49100 27.53900 44.65700
C  59.94000 28.75500 45.48400
N  54.16700 27.30400 45.07900
C  55.08900 28.21800 45.25500
C  54.48100 29.55400 45.27400
C  53.14700 29.33000 44.88200
C  52.96500 27.91400 44.79900
C  55.08700 30.90000 45.74200
C  51.83300 29.93600 44.62300
O  51.48800 31.12800 44.65500
C  50.84600 28.82800 44.18700
C  50.43600 29.14100 42.75300
O  51.20600 29.22000 41.79800
O  49.12100 29.32800 42.66200
C  48.74300 29.60300 41.21600
H  51.63700 21.79900 43.83900
H  57.83700 22.51300 44.89000
H  57.04100 28.82000 45.70500
H  49.05100 25.97900 44.26000
H  49.45600 23.68700 43.20700
H  48.29300 23.38100 45.17000
H  49.29700 24.72700 45.95300
H  49.90100 23.19600 45.95700
H  50.25300 25.12300 41.54600
H  50.09300 26.86100 41.85900
H  47.77700 26.81700 41.72700
H  47.71900 25.01500 42.08700
H  52.49000 19.81700 44.57400
H  53.67900 18.87600 43.81100
H  52.55500 19.92500 42.81400
H  58.40500 19.02900 44.57300
H  58.02900 20.37000 45.84700
H  58.33900 20.74600 44.18200
H  59.10200 25.08600 43.93200
H  58.84000 26.70500 46.52300
H  60.34300 23.63100 45.11200
H  59.34000 23.59700 46.54700
H  60.51800 24.84800 46.37200
H  58.85100 27.84600 43.82900
H  60.41300 27.05300 44.34000
H  59.72200 29.66400 44.92300
H  60.97900 28.73300 45.81300
H  59.35700 28.67100 46.40100
H  55.96400 31.10500 45.12800
H  55.23000 30.75400 46.81300
H  54.30500 31.62200 45.50600
H  49.95700 28.96100 44.80400
H  47.66700 29.43700 41.15700
H  49.12500 28.93000 40.44900
H  48.98200 30.64200 40.98900
Mg 27.20900 50.51800 26.41900
C  25.09800 51.82500 29.13400
C  29.39900 49.33400 28.87900
C  29.38000 49.81900 23.95300
C  25.21400 52.40500 24.27900
N  27.27300 50.68900 28.69500
C  26.24200 51.05200 29.54600
C  26.54100 50.71300 31.02500
C  28.03700 50.02900 30.87800
C  28.25700 49.94500 29.38300
C  29.21500 50.71000 31.71800
C  25.49300 49.87800 31.77000
C  24.99000 50.55600 33.09000
H  26.07800 50.85600 34.17300
N  29.05300 49.50000 26.36800
C  29.82900 49.17200 27.47000
C  31.03600 48.60300 27.03800
C  31.01100 48.71400 25.56800
C  29.77000 49.36400 25.25900
C  31.88600 47.82200 27.92400
C  32.06500 48.27800 24.56900
O  32.00700 48.45800 23.37500
C  33.34700 47.64700 25.14400
N  27.31500 51.06300 24.50600
C  28.26500 50.65100 23.61500
C  27.97700 51.05300 22.17500
C  26.54200 51.58600 22.28400
C  26.33500 51.68800 23.78000
C  29.08100 51.92200 21.50200
C  25.38100 50.64400 21.75300
C  24.16300 51.34900 21.01400
N  25.44700 51.81900 26.59800
C  24.76500 52.50400 25.63400
C  23.57500 53.12600 26.17700
C  23.67500 52.89200 27.55900
C  24.85800 52.13700 27.77400
C  22.56600 53.82700 25.41900
C  23.00100 53.03000 28.79300
O  21.96400 53.62500 29.02000
C  23.97200 52.47700 29.86900
C  24.46700 53.60400 30.65500
O  25.48400 54.24200 30.53100
O  23.59100 53.62800 31.72900
C  24.10800 54.67200 32.67400
H  30.06800 48.99800 29.67400
H  30.03900 49.69700 23.09100
H  24.50500 52.87500 23.59500
H  26.54200 51.62000 31.62900
H  27.90800 48.98100 31.14900
H  29.63000 49.83100 32.21200
H  28.90400 51.49900 32.40200
H  29.86300 51.08200 30.92500
H  25.89600 48.92700 32.11800
H  24.62800 49.72300 31.12600
H  24.31700 49.79500 33.48600
H  24.37600 51.41200 32.81000
H  32.95800 48.00100 27.84600
H  31.83800 46.74300 27.77300
H  31.63900 47.94500 28.97800
H  33.03000 46.70700 25.59700
H  33.85100 48.25500 25.89500
H  33.96700 47.51900 24.25700
H  27.94900 50.15000 21.56500
H  26.42700 52.54500 21.77800
H  30.04500 51.88200 22.00900
H  28.60600 52.90100 21.44800
H  29.12900 51.59900 20.46200
H  24.94600 49.98900 22.50800
H  25.84900 49.96500 21.04000
H  24.29200 51.20900 19.94100
H  24.10700 52.42100 21.20000
H  23.18300 50.95200 21.27800
H  21.82400 54.34900 26.02300
H  22.12300 53.24100 24.61300
H  23.14800 54.65600 25.01700
H  23.37400 51.80600 30.48500
H  25.06700 54.42300 33.12600
H  23.60100 54.75400 33.63600
H  24.09400 55.67000 32.23700

