158

Mg -1.96800 17.85600 27.30000
C  -2.46100 15.31400 29.70100
C  -2.87400 20.13100 29.69900
C  -2.37600 20.15300 24.91100
C  -2.05700 15.34400 24.94000
N  -2.46700 17.70900 29.51600
C  -2.53600 16.59900 30.30500
C  -2.72000 16.94400 31.80000
C  -3.06900 18.50200 31.69200
C  -2.72800 18.81400 30.24000
C  -4.50500 18.95800 32.18200
C  -1.52300 16.70100 32.71700
C  -1.80300 16.03900 34.07100
H  -0.85900 16.36100 35.29700
N  -2.27200 19.90600 27.34800
C  -2.62300 20.63100 28.43900
C  -2.71300 22.03600 28.09200
C  -2.43400 22.16700 26.68400
C  -2.33700 20.71400 26.19200
C  -3.01500 23.17600 29.03100
C  -2.15400 23.42800 25.84900
O  -1.84100 23.34700 24.67500
C  -2.01300 24.70200 26.54400
N  -2.04400 17.79200 25.23200
C  -2.32200 18.88000 24.45100
C  -2.40200 18.44200 22.95300
C  -2.27100 16.88600 23.02400
C  -2.01200 16.65100 24.49200
C  -3.68300 18.91700 22.17900
C  -1.13600 16.37500 22.11400
C  0.25600 16.34800 22.70100
N  -2.13700 15.74700 27.19200
C  -2.12000 14.88000 26.20800
C  -2.27300 13.52700 26.57200
C  -2.33100 13.59600 27.99000
C  -2.34300 14.98900 28.29400
C  -2.40700 12.26100 25.78100
C  -2.51800 12.89100 29.23900
O  -2.44600 11.61400 29.35600
C  -2.61600 13.95300 30.38900
C  -1.60800 13.48400 31.43100
O  -0.38800 13.66100 31.37800
O  -2.29800 12.75400 32.33600
C  -1.52900 12.23600 33.50000
H  -3.15400 20.87500 30.44900
H  -2.55700 20.90500 24.14000
H  -2.05000 14.57000 24.17000
H  -3.57700 16.41500 32.21700
H  -2.34600 19.19100 32.12900
H  -5.14900 19.05500 31.30800
H  -4.35000 19.87500 32.75000
H  -4.80800 18.19300 32.89700
H  -1.02200 17.66300 32.82800
H  -0.79900 16.11900 32.14600
H  -1.87600 14.95700 33.96800
H  -2.79700 16.36600 34.37700
H  -2.15400 23.82300 29.19500
H  -3.51500 22.96200 29.97600
H  -3.73400 23.74800 28.44500
H  -1.78900 25.50200 25.83800
H  -1.18700 24.54700 27.23800
H  -2.99200 25.00000 26.91700
H  -1.65800 18.93900 22.33100
H  -3.16900 16.33900 22.73800
H  -3.53400 19.67400 21.40900
H  -4.41800 19.44300 22.78700
H  -4.18800 18.04200 21.77000
H  -1.30300 16.98800 21.22800
H  -1.34100 15.35000 21.80600
H  0.46200 15.27800 22.71000
H  0.43300 16.58600 23.75000
H  0.99700 16.89400 22.11700
H  -2.33000 11.35700 26.38500
H  -1.57000 12.31000 25.08600
H  -3.31900 12.22200 25.18500
H  -3.61000 13.71700 30.77000
H  -1.51100 11.14600 33.52200
H  -1.91300 12.65900 34.42800
H  -0.50100 12.59400 33.56700
Mg -1.48400 34.83100 26.83300
C  -3.25500 33.15200 29.42000
C  -0.51900 37.08000 29.22100
C  0.59100 36.03700 24.58200
C  -3.34300 33.03400 24.50700
N  -1.98900 35.13300 29.08200
C  -2.56400 34.26800 29.93700
C  -2.57500 34.81700 31.42200
C  -1.83800 36.20500 31.20100
C  -1.47400 36.17500 29.74800
C  -2.56800 37.52200 31.64700
C  -1.94100 33.87200 32.42200
C  -1.60500 34.45300 33.78000
H  -2.24900 33.72600 34.84900
N  -0.21500 36.41400 26.85500
C  0.05200 37.25000 27.92500
C  0.94300 38.26600 27.47900
C  1.41800 37.95800 26.16100
C  0.62100 36.74400 25.85100
C  1.24700 39.45200 28.35100
C  2.45500 38.59700 25.22900
O  2.84100 38.10500 24.17800
C  3.04200 39.94800 25.64200
N  -1.49800 34.69300 24.71300
C  -0.34000 35.10600 24.06600
C  -0.41800 34.54300 22.62000
C  -1.76500 33.73500 22.53800
C  -2.25800 33.81000 24.02700
C  -0.15400 35.58900 21.49100
C  -1.54500 32.27700 22.24200
C  -0.50600 31.43200 23.04800
N  -3.00600 33.39200 26.89800
C  -3.66300 32.77400 25.85700
C  -4.57300 31.77300 26.38100
C  -4.43900 31.86000 27.73700
C  -3.51000 32.92100 28.05500
C  -5.54700 31.04900 25.64400
C  -4.95200 31.32700 29.00900
O  -5.77900 30.40900 29.17800
C  -4.26300 32.25300 30.16400
C  -5.39500 32.93600 30.83300
O  -5.90500 33.94400 30.39300
O  -5.66900 32.35800 32.10600
C  -6.57300 33.19500 32.90500
H  -0.21400 37.77900 30.00400
H  1.29700 36.37500 23.82000
H  -3.97200 32.40300 23.87600
H  -3.64300 34.95200 31.59300
H  -0.89200 36.23500 31.74100
H  -1.88800 38.30900 31.97500
H  -3.18200 37.30300 32.52000
H  -3.20600 37.86200 30.83100
H  -0.98400 33.67900 31.93800
H  -2.58900 32.99900 32.50300
H  -1.78800 35.52800 33.78900
H  -0.55300 34.30500 34.02500
H  0.95500 39.37600 29.39800
H  0.78600 40.29700 27.83800
H  2.31900 39.64800 28.37400
H  2.32100 40.69600 25.97000
H  3.52500 40.30300 24.73200
H  3.72700 39.94000 26.49000
H  0.39000 33.81700 22.52500
H  -2.49100 34.10400 21.81500
H  -0.02600 36.62400 21.80600
H  -0.94500 35.50200 20.74500
H  0.76400 35.39400 20.93700
H  -1.15800 32.25300 21.22300
H  -2.52100 31.79700 22.17000
H  -0.10700 32.02300 23.87300
H  0.39300 31.06400 22.55500
H  -1.03700 30.58000 23.47100
H  -6.48700 31.59600 25.57800
H  -5.85500 30.16000 26.19400
H  -5.18600 30.82400 24.64000
H  -3.79900 31.57700 30.88100
H  -7.33700 33.64600 32.27100
H  -5.90500 33.96700 33.28600
H  -7.02000 32.66900 33.74900

