158

Mg 2.36700 -0.61900 43.00800
C  5.79900 0.31500 42.70000
C  1.60600 2.58700 41.98400
C  -0.69800 -1.70000 42.79500
C  3.53100 -3.92800 43.78200
N  3.62800 1.21900 42.40400
C  5.00000 1.43400 42.48400
C  5.38700 2.84700 41.98000
C  3.99700 3.58800 42.07300
C  2.97800 2.39700 42.16900
C  3.72200 4.67600 43.20600
C  6.03800 2.77500 40.65900
C  5.73900 1.68000 39.59700
H  5.83000 2.02000 38.05100
N  0.64900 0.33700 42.42500
C  0.50500 1.68000 42.06500
C  -0.93200 1.97900 41.94300
C  -1.59900 0.74200 42.13300
C  -0.57300 -0.28200 42.45100
C  -1.54500 3.28200 41.71800
C  -3.11100 0.48100 42.00100
O  -3.78400 1.43000 41.62600
C  -3.78200 -0.90300 42.22900
N  1.51100 -2.59800 43.16100
C  0.15700 -2.69300 43.15500
C  -0.35400 -4.11300 43.50500
C  1.04800 -4.83400 43.84100
C  2.10700 -3.73400 43.58900
C  -1.42100 -4.22800 44.59100
C  1.34700 -6.19300 42.93400
C  0.60400 -7.41800 43.42100
N  4.24900 -1.67500 43.31000
C  4.53900 -2.98100 43.58900
C  5.93900 -3.14300 43.65100
C  6.40200 -1.90200 43.29100
C  5.39200 -1.02600 43.17300
C  6.81100 -4.31900 43.99700
C  7.63000 -1.23000 43.11500
O  8.78400 -1.65300 43.21900
C  7.27000 0.19800 42.70500
C  7.95600 1.20500 43.56200
O  8.78100 2.04400 43.22000
O  7.39900 1.26200 44.79600
C  8.07000 2.12300 45.82100
H  1.43000 3.64600 41.78700
H  -1.66300 -2.19300 42.65700
H  3.93900 -4.91600 44.00500
H  6.09800 3.31900 42.65800
H  3.84400 4.16500 41.16100
H  2.79400 4.56500 43.76700
H  3.72300 5.70700 42.85300
H  4.50000 4.63600 43.96900
H  7.11800 2.86800 40.76400
H  5.67800 3.56900 40.00500
H  4.67700 1.47100 39.72500
H  6.35600 0.82000 39.86000
H  -1.76600 3.45700 40.66500
H  -0.67500 3.86000 42.03000
H  -2.36100 3.42600 42.42600
H  -3.31100 -1.38000 43.08800
H  -3.53400 -1.32300 41.25400
H  -4.82800 -0.64300 42.39100
H  -0.76000 -4.42700 42.54400
H  1.10900 -5.14200 44.88500
H  -0.93800 -4.27800 45.56700
H  -2.10600 -5.05700 44.41100
H  -1.96700 -3.29500 44.45200
H  2.42500 -6.35400 42.91000
H  0.98900 -5.94400 41.93500
H  0.30500 -7.30400 44.46300
H  1.11300 -8.37800 43.34300
H  -0.31700 -7.62000 42.87400
H  6.56000 -5.24700 43.48300
H  6.92500 -4.50700 45.06400
H  7.81800 -4.22200 43.59100
H  7.73000 0.27800 41.72100
H  9.04000 2.46700 45.46200
H  8.18900 1.60200 46.77100
H  7.40800 2.97900 45.95500
Mg 46.18300 45.88900 43.96400
C  42.85800 44.74600 43.34500
C  47.22800 42.85200 42.94600
C  49.09600 47.30500 43.18100
C  44.73000 49.16800 44.08100
N  45.19000 44.05800 43.21200
C  43.84400 43.81400 42.98200
C  43.62500 42.37800 42.55500
C  44.94600 41.68000 42.94400
C  45.89100 42.90400 43.12900
C  44.82700 40.85900 44.37200
C  43.24400 42.56100 41.10400
C  41.88600 41.98100 40.70500
H  41.81900 41.16200 39.43100
N  48.01900 45.15800 43.27500
C  48.22300 43.89600 42.94200
C  49.65500 43.68600 42.53000
C  50.25700 45.02700 42.49500
C  49.14600 45.92500 42.99300
C  50.26200 42.34700 42.12700
C  51.62700 45.38800 41.94600
O  52.39800 44.44600 41.71100
C  52.10400 46.73000 41.66800
N  46.83500 47.94400 43.53500
C  48.13200 48.25800 43.40500
C  48.45500 49.74300 43.70600
C  47.03200 50.32800 43.93600
C  46.11900 49.05300 43.82400
C  49.44300 49.77600 44.89300
C  46.38300 51.50900 43.15400
C  47.23200 52.64600 42.46100
N  44.17500 46.75600 44.08600
C  43.77000 48.07900 44.09600
C  42.29800 48.11500 44.12600
C  41.90800 46.79200 43.80700
C  43.09500 46.05100 43.74800
C  41.40100 49.30700 44.24800
C  40.78300 45.93600 43.53800
O  39.60200 46.21700 43.35200
C  41.37900 44.57500 43.22600
C  40.81000 43.74300 44.29600
O  40.18300 42.69400 44.12300
O  41.30900 44.18500 45.48100
C  40.93300 43.39300 46.66500
H  47.61600 41.85000 42.75000
H  50.06900 47.78200 43.04800
H  44.27500 50.13400 44.30500
H  42.77400 41.87800 43.01800
H  45.27600 41.06600 42.10700
H  45.08900 39.84100 44.08700
H  43.76900 40.94600 44.62000
H  45.39300 41.27700 45.20500
H  43.95300 41.97200 40.52100
H  43.24200 43.58100 40.71900
H  41.14400 42.74800 40.48100
H  41.58300 41.31800 41.51500
H  50.55100 42.44000 41.08100
H  49.46900 41.59900 42.11100
H  51.12400 42.00700 42.70100
H  51.38700 47.25000 41.03300
H  53.07000 46.67100 41.16600
H  52.28400 47.28300 42.59000
H  48.99100 50.07100 42.81500
H  46.99400 50.55300 45.00100
H  50.42500 49.46700 44.53300
H  48.94200 49.05400 45.53800
H  49.30300 50.71600 45.42500
H  45.65100 51.91400 43.85300
H  45.97600 51.03100 42.26200
H  47.47200 53.28500 43.31100
H  46.76500 53.10500 41.59000
H  48.22400 52.36500 42.10700
H  41.29900 49.53400 45.30900
H  40.39600 49.05700 43.90900
H  41.75800 50.21700 43.76400
H  41.02300 44.24300 42.25100
H  41.08000 43.99000 47.56500
H  41.56900 42.51100 46.73600
H  39.86300 43.21200 46.56100

