158

Mg 30.76000 57.84500 39.43100
C  27.77100 55.94700 38.66500
C  32.60400 55.14700 38.60500
C  33.37100 59.79900 39.81400
C  28.59900 60.61100 40.00200
N  30.16600 55.83800 38.58700
C  28.91500 55.25200 38.47300
C  29.07300 53.72400 38.29700
C  30.62600 53.49200 38.32500
C  31.18600 54.91600 38.60200
C  31.21600 52.50300 39.35000
C  28.49800 53.10500 36.91500
C  29.06300 53.78700 35.63300
H  28.08500 54.21200 34.54200
N  32.75600 57.52700 39.27700
C  33.30400 56.32600 39.01400
C  34.69400 56.45400 39.18900
C  34.96700 57.80300 39.49300
C  33.67700 58.47600 39.52400
C  35.60700 55.33300 38.88800
C  36.37900 58.45500 39.68400
O  37.37300 57.78700 39.50300
C  36.57800 59.89000 39.95700
N  30.95400 59.94800 39.68600
C  32.17900 60.53500 39.80600
C  32.00100 62.08800 39.77400
C  30.50100 62.20800 40.21500
C  29.97100 60.79100 39.97500
C  33.04900 62.87700 40.70100
C  29.77500 63.31100 39.32600
C  28.81000 64.22900 40.13500
N  28.63000 58.31700 39.33600
C  27.96300 59.40200 39.77900
C  26.48600 59.10100 39.67200
C  26.38700 57.76000 39.34700
C  27.70200 57.33200 39.13000
C  25.42600 60.15600 39.83300
C  25.44000 56.67900 39.12200
O  24.24500 56.61100 39.18500
C  26.34400 55.40100 38.68300
C  26.24500 54.42300 39.87100
O  27.07000 54.29800 40.80800
O  25.14600 53.62800 39.69700
C  24.93200 52.51400 40.61000
H  33.26000 54.32200 38.31800
H  34.16200 60.54200 39.93400
H  28.02600 61.52600 40.16300
H  28.70400 53.15100 39.14800
H  31.05400 53.22100 37.36000
H  31.37000 53.04100 40.28600
H  32.18200 52.21000 38.94100
H  30.64700 51.59300 39.54200
H  27.42200 52.96600 37.01800
H  28.88900 52.08900 36.86600
H  29.68100 53.06600 35.09700
H  29.69300 54.62700 35.92500
H  35.67400 55.01900 37.84600
H  35.27200 54.54600 39.56400
H  36.65800 55.48800 39.13100
H  37.61400 60.03500 39.65100
H  36.52800 60.06700 41.03200
H  36.05900 60.54200 39.25500
H  31.98700 62.49800 38.76400
H  30.51400 62.52000 41.25900
H  33.44200 62.21800 41.47500
H  32.46300 63.59400 41.27600
H  33.88000 63.39100 40.21700
H  29.11800 62.82600 38.60400
H  30.37500 63.90900 38.64000
H  29.04700 65.28700 40.02400
H  28.87700 63.92000 41.17800
H  27.79400 64.19000 39.74200
H  24.39000 59.82100 39.89500
H  25.57100 60.86100 39.01500
H  25.78100 60.63000 40.74800
H  26.03800 54.86400 37.78500
H  24.52600 52.83700 41.56800
H  25.88500 52.02000 40.79800
H  24.31700 51.77000 40.10300
Mg 17.50000 51.88300 26.09800
C  19.34100 50.57400 28.77200
C  14.87200 52.54200 28.37100
C  15.68000 53.16400 23.57800
C  19.86800 50.80600 23.94000
N  17.20900 51.62600 28.30000
C  18.14700 51.21900 29.21300
C  17.64600 51.42000 30.65300
C  16.18100 51.79400 30.49100
C  16.09500 52.12000 28.97600
C  15.29100 50.56600 30.77300
C  18.48900 52.57500 31.35600
C  18.76800 52.44400 32.87500
H  17.76600 51.72300 33.74500
N  15.60500 52.88400 26.03100
C  14.66800 52.96100 27.01800
C  13.44700 53.52500 26.43300
C  13.75300 53.97100 25.15300
C  15.08500 53.34000 24.83200
C  12.25800 53.96600 27.40400
C  12.89500 54.83900 24.26600
O  13.32900 55.25400 23.20500
C  11.51700 55.32200 24.65200
N  17.76400 52.04100 24.00800
C  16.87300 52.62500 23.14300
C  17.40100 52.53100 21.69700
C  18.84100 51.97500 21.92400
C  18.80000 51.57400 23.38400
C  16.45900 51.66300 20.74100
C  19.96900 52.91100 21.63100
C  21.13100 52.29500 20.76600
N  19.21900 50.80000 26.22600
C  20.10900 50.40600 25.25400
C  21.18000 49.69800 25.87400
C  20.95100 49.71700 27.23900
C  19.74100 50.44200 27.45500
C  22.34800 49.00600 25.20800
C  21.52700 49.41800 28.57900
O  22.54600 48.75800 28.78100
C  20.47600 49.91900 29.63900
C  19.92200 48.77200 30.40600
O  19.25800 47.86100 29.93100
O  20.15300 48.98200 31.74500
C  19.62400 47.95300 32.63400
H  14.09700 52.80700 29.09300
H  14.94100 53.54900 22.87200
H  20.65500 50.45400 23.26900
H  17.72400 50.45500 31.15400
H  15.84000 52.68000 31.02800
H  15.88600 49.65500 30.83600
H  14.47100 50.48800 30.05900
H  14.85400 50.76300 31.75200
H  17.98200 53.53600 31.28100
H  19.45500 52.65600 30.85700
H  18.95700 53.44300 33.26700
H  19.70200 51.88300 32.88800
H  12.51700 54.98700 27.68400
H  12.25800 53.36500 28.31400
H  11.28000 53.87900 26.93200
H  11.38400 55.69500 25.66800
H  10.77100 54.57100 24.39200
H  11.34100 56.19300 24.02100
H  17.49600 53.51600 21.23900
H  18.86600 51.03200 21.37700
H  16.21800 52.33900 19.92100
H  15.59600 51.42300 21.36200
H  16.97700 50.75200 20.44000
H  20.42600 53.33700 22.52300
H  19.54300 53.78900 21.14600
H  21.16500 52.64900 19.73500
H  21.02600 51.21300 20.69000
H  22.05300 52.49700 21.31200
H  22.33200 47.94000 25.43200
H  23.18000 49.49400 25.71500
H  22.32500 49.15700 24.12800
H  20.88800 50.67800 30.30400
H  20.56000 47.39600 32.66900
H  18.83800 47.37400 32.14900
H  19.47300 48.31000 33.65300

