158

Mg 47.34300 25.36200 28.72000
C  48.02400 27.73800 31.20700
C  46.34500 23.15800 31.13700
C  46.60200 23.13400 26.18700
C  48.75900 27.61100 26.41000
N  47.45600 25.39200 30.95300
C  47.51900 26.52800 31.73100
C  47.09800 26.22000 33.18800
C  46.64400 24.75000 33.08900
C  46.93100 24.36000 31.66600
C  47.34800 23.68700 34.14300
C  45.94100 27.26200 33.58400
C  46.02300 28.01900 34.95300
H  46.59900 27.41600 36.22200
N  46.53000 23.39700 28.69200
C  46.11100 22.74900 29.83900
C  45.45900 21.59700 29.34400
C  45.49500 21.61400 27.94600
C  46.26400 22.71100 27.55900
C  44.90400 20.50100 30.29500
C  44.75000 20.70700 27.00300
O  44.83900 20.78000 25.79300
C  43.74300 19.73800 27.47500
N  47.68200 25.32600 26.63000
C  47.30700 24.31900 25.78300
C  47.69700 24.62700 24.34200
C  48.16400 26.07700 24.45900
C  48.19100 26.40200 25.92300
C  48.79100 23.67500 23.81200
C  47.24300 27.09000 23.80600
C  47.99000 28.08800 22.81900
N  48.26200 27.31300 28.71700
C  48.81400 28.03600 27.75100
C  49.29400 29.34400 28.27200
C  48.95600 29.28300 29.63000
C  48.36900 28.01000 29.86900
C  49.94000 30.40500 27.48600
C  48.90200 30.00800 30.89600
O  49.20800 31.13900 31.20200
C  48.37200 28.94300 32.01600
C  49.33400 28.77300 33.10000
O  50.22500 27.89900 33.20100
O  49.08200 29.74800 34.01500
C  50.09800 29.91800 35.00100
H  45.79900 22.58400 31.88800
H  46.17800 22.58000 25.34700
H  49.05500 28.35900 25.67200
H  47.89200 26.23200 33.93500
H  45.57400 24.58400 33.21100
H  48.15000 23.37200 33.47500
H  46.68600 22.84500 34.35000
H  47.71300 24.26100 34.99500
H  45.05200 26.63600 33.65400
H  45.79900 28.02900 32.82200
H  45.05200 28.42800 35.23500
H  46.52700 28.97000 34.78500
H  45.12900 19.50400 29.91700
H  43.81900 20.58000 30.37100
H  45.25200 20.56700 31.32600
H  43.16000 20.08400 28.32800
H  44.27600 18.88000 27.88600
H  43.02200 19.38100 26.74000
H  46.69300 24.60800 23.91700
H  49.19500 26.13300 24.11200
H  49.64200 24.05200 24.37800
H  48.85900 23.87000 22.74200
H  48.45700 22.67400 24.08600
H  46.73200 27.68200 24.56500
H  46.40300 26.65400 23.26500
H  49.02300 27.74500 22.76700
H  48.00000 29.13800 23.11000
H  47.57700 28.20600 21.81700
H  50.98900 30.15500 27.32800
H  49.92900 31.33500 28.05400
H  49.44300 30.56300 26.52800
H  47.48500 29.43200 32.41900
H  49.87400 29.30700 35.87500
H  50.07100 30.97000 35.28200
H  51.12500 29.64700 34.75400
Mg 10.49000 47.74900 26.26800
C  8.68100 47.68100 29.17200
C  13.15200 48.89200 28.10600
C  12.32000 48.07700 23.35100
C  7.73500 46.95900 24.36700
N  10.78500 48.39700 28.37400
C  10.00100 48.10800 29.44000
C  10.61200 48.57900 30.80600
C  11.84700 49.29900 30.26100
C  12.02200 48.73300 28.85000
C  11.75100 50.88300 30.34300
C  10.92300 47.31300 31.74200
C  10.43300 47.47600 33.17400
H  10.48200 46.23900 34.19600
N  12.48800 48.32200 25.78300
C  13.40100 48.72900 26.73200
C  14.68200 48.96800 26.10700
C  14.42300 48.64100 24.70100
C  13.00800 48.32600 24.54200
C  15.83700 49.50500 26.85900
C  15.43300 48.52300 23.57000
O  15.11800 48.04400 22.47100
C  16.84800 48.82800 23.72300
N  10.07800 47.51900 24.12800
C  10.96000 47.79500 23.13800
C  10.39800 47.45200 21.70200
C  8.93000 47.04000 22.08900
C  8.86800 47.19800 23.63100
C  10.48600 48.73800 20.75100
C  8.57000 45.60900 21.66700
C  9.41300 44.44700 22.24500
N  8.60800 47.37400 26.67200
C  7.53500 47.14600 25.76800
C  6.30800 46.92800 26.54600
C  6.72800 47.12800 27.86500
C  8.12300 47.42000 27.88000
C  4.98800 46.71500 25.99300
C  6.23300 47.22000 29.24100
O  5.04800 47.05900 29.65100
C  7.51900 47.65800 30.13800
C  7.67300 46.74000 31.27200
O  8.28600 45.69500 31.31900
O  6.75100 47.06100 32.19100
C  6.37800 46.01700 33.18700
H  13.90400 49.41600 28.70000
H  12.79400 48.16500 22.37200
H  6.80600 46.76200 23.82800
H  9.90500 49.22300 31.32900
H  12.65700 48.93300 30.89200
H  12.13700 51.22600 31.30300
H  10.69500 51.14200 30.42400
H  12.20300 51.52900 29.59000
H  11.98800 47.12800 31.87900
H  10.60400 46.33200 31.38800
H  9.50400 48.03500 33.06700
H  11.22600 48.02600 33.68000
H  15.87800 49.60400 27.94400
H  16.12600 50.46200 26.42500
H  16.54400 48.71200 26.61300
H  17.32400 48.97300 22.75200
H  17.38300 48.00800 24.20100
H  16.86100 49.74500 24.31100
H  10.83600 46.58200 21.21300
H  8.29800 47.75600 21.56400
H  11.07200 48.51100 19.86100
H  10.95800 49.53600 21.32500
H  9.46200 48.98900 20.47400
H  8.67300 45.58800 20.58200
H  7.49200 45.49700 21.78300
H  8.83100 43.87800 22.97000
H  10.22000 44.89100 22.82700
H  9.93600 43.79200 21.54800
H  4.33700 46.18000 26.68400
H  5.07900 46.10600 25.09300
H  4.57300 47.66600 25.65700
H  7.32000 48.63500 30.57900
H  7.06500 45.94500 34.03100
H  6.18900 45.02200 32.78600
H  5.36500 46.30200 33.46900

