158

Mg 49.42500 46.52500 43.67700
C  46.21600 47.00000 42.25000
C  49.68700 43.51800 42.11200
C  52.78900 46.65800 44.20300
C  49.28100 49.88000 44.41400
N  48.15100 45.48500 42.23900
C  46.83700 45.79300 41.87700
C  46.22000 44.72800 41.00600
C  47.26000 43.56900 41.03900
C  48.42700 44.15800 41.96900
C  46.73700 42.22200 41.64800
C  45.85400 45.35800 39.60200
C  44.45200 45.01900 39.03900
H  44.45200 43.85800 38.00600
N  51.00100 45.14700 43.40100
C  50.92000 44.00100 42.64900
C  52.22000 43.38900 42.66300
C  53.15200 44.23800 43.35000
C  52.31900 45.41600 43.64100
C  52.46500 42.02600 42.06800
C  54.49100 43.88300 43.75500
O  54.86700 42.69700 43.56700
C  55.45700 44.84700 44.40400
N  50.88200 48.07800 44.22500
C  52.17100 47.82500 44.51500
C  52.87900 49.12900 45.01900
C  51.71200 50.15000 45.12500
C  50.52500 49.34500 44.51100
C  53.71100 49.02400 46.31300
C  51.90800 51.54400 44.52600
C  51.05200 52.78000 45.05200
N  47.99700 48.09800 43.53200
C  48.10100 49.38400 43.91600
C  46.85100 50.08800 43.68500
C  45.98800 49.14400 43.08600
C  46.78700 48.03300 42.94300
C  46.70600 51.56600 44.06600
C  44.61100 48.97300 42.57900
O  43.59800 49.69900 42.55200
C  44.71200 47.46300 42.01400
C  43.68800 46.52200 42.75200
O  43.79400 46.15100 43.91500
O  42.55100 46.31600 41.96700
C  41.64700 45.36700 42.55800
H  49.79500 42.50800 41.71000
H  53.87700 46.71000 44.27600
H  49.26200 50.95400 44.60900
H  45.33300 44.44600 41.57300
H  47.66900 43.32900 40.05800
H  45.66500 42.34500 41.79800
H  47.22400 42.03800 42.60600
H  46.98600 41.41800 40.95600
H  46.55200 44.92100 38.88800
H  45.98900 46.43900 39.59800
H  44.04500 45.90900 38.55800
H  43.80000 44.71500 39.85700
H  52.94200 42.19300 41.10200
H  51.54700 41.51000 41.78800
H  53.15000 41.40300 42.64300
H  56.34100 44.39500 44.85200
H  54.91800 45.38800 45.18200
H  55.71500 45.57900 43.63800
H  53.54400 49.49300 44.23600
H  51.36400 50.27300 46.15100
H  53.56200 49.83100 47.03000
H  54.76600 48.93700 46.05500
H  53.44200 48.08300 46.79400
H  51.77600 51.44500 43.44800
H  52.97500 51.74500 44.61800
H  51.64700 53.61100 45.42900
H  50.44300 52.48000 45.90500
H  50.44200 53.24900 44.28000
H  46.93700 51.82800 45.09900
H  45.71200 52.00400 43.97500
H  47.48300 52.15100 43.57300
H  44.50700 47.41500 40.94500
H  42.14000 44.49000 42.97600
H  41.11400 45.01500 41.67400
H  40.94200 45.68300 43.32800
Mg 9.81200 47.91500 26.37800
C  7.96200 47.71500 29.22400
C  12.45700 49.21600 28.18600
C  11.64700 48.15200 23.52800
C  7.04600 47.09200 24.49900
N  10.15800 48.39900 28.44100
C  9.26000 48.21300 29.45800
C  9.90200 48.58800 30.86200
C  11.17900 49.37900 30.43900
C  11.26000 48.98100 28.91200
C  11.12900 50.96000 30.49500
C  10.21500 47.31600 31.70800
C  11.00300 47.56000 32.97400
H  10.43100 46.89900 34.22200
N  11.82200 48.55900 25.94800
C  12.76600 48.94900 26.85400
C  14.09100 49.20800 26.12400
C  13.88400 48.87600 24.77400
C  12.43000 48.46700 24.71000
C  15.30800 49.66600 26.89400
C  14.84900 49.02000 23.60600
O  14.42800 48.64000 22.52400
C  16.35400 49.62900 23.72100
N  9.45600 47.80200 24.26900
C  10.30200 47.92200 23.29400
C  9.67700 47.79200 21.91400
C  8.24000 47.21100 22.25500
C  8.16800 47.46700 23.78200
C  9.78700 49.11000 21.15400
C  8.07800 45.66400 21.96300
C  9.03500 44.76200 22.78700
N  7.86000 47.50600 26.71800
C  6.78100 47.15400 25.87300
C  5.62700 46.91500 26.62700
C  6.05800 46.97400 27.92600
C  7.41300 47.44800 27.93800
C  4.33900 46.62600 26.08900
C  5.54600 46.94500 29.31800
O  4.43500 46.64200 29.74600
C  6.81900 47.23200 30.21400
C  7.11600 46.01700 30.91800
O  7.90700 45.18300 30.51600
O  6.38100 45.88700 32.09800
C  6.66600 44.69800 32.86900
H  13.18600 49.83800 28.70900
H  12.26900 48.21600 22.63300
H  6.21700 46.76300 23.86900
H  9.28300 49.32600 31.37100
H  12.12200 49.13200 30.92600
H  10.92500 51.30400 29.48100
H  12.00300 51.44100 30.93400
H  10.36200 51.27500 31.20200
H  10.82900 46.63100 31.12500
H  9.30200 46.81400 32.02800
H  11.20700 48.62800 33.05400
H  11.98100 47.12800 32.76300
H  15.13200 49.66600 27.96900
H  15.73200 50.63000 26.61200
H  16.12700 48.97000 26.71300
H  16.95100 49.00200 24.38500
H  16.27500 50.54100 24.31300
H  16.86400 49.76300 22.76700
H  10.23400 47.00200 21.40900
H  7.43500 47.73900 21.74400
H  10.37600 49.80600 21.75100
H  8.76600 49.45700 20.99300
H  10.35100 48.88700 20.24900
H  8.27900 45.49700 20.90500
H  7.03500 45.55200 22.26000
H  9.60300 45.27400 23.56300
H  9.71900 44.19500 22.15600
H  8.40200 44.02900 23.28800
H  4.34000 45.63400 25.63700
H  4.14000 47.40200 25.35000
H  3.72800 46.70100 26.98900
H  6.61800 48.10300 30.83700
H  7.26200 43.96600 32.32400
H  5.75400 44.21600 33.22000
H  7.20600 44.87900 33.79900

