158

Mg -0.32600 6.85800 26.23100
C  0.59900 8.84800 29.23900
C  -0.45100 4.11400 28.33600
C  -0.82700 5.01500 23.54500
C  0.25300 9.72900 24.39400
N  -0.19100 6.59800 28.57800
C  0.15400 7.51800 29.55600
C  0.09800 6.87300 30.98300
C  0.11100 5.34100 30.51500
C  -0.21800 5.30300 29.02700
C  1.42200 4.53900 30.87000
C  -1.14700 7.35600 31.79200
C  -1.05500 7.62600 33.31300
H  -0.25700 6.61300 34.19100
N  -0.50100 4.88000 25.96000
C  -0.48500 3.88300 26.95200
C  -0.65400 2.56600 26.37600
C  -0.83100 2.79300 24.97000
C  -0.68300 4.30900 24.80300
C  -0.65100 1.29100 27.13800
C  -1.06500 1.73100 23.86000
O  -1.32000 2.07800 22.72300
C  -1.01700 0.25400 24.12400
N  -0.11300 7.27700 24.28200
C  -0.52400 6.36800 23.35700
C  -0.61600 6.96400 21.95100
C  -0.31200 8.50100 22.14800
C  0.04600 8.55700 23.67400
C  0.36500 6.37600 20.87100
C  -1.51300 9.38000 21.70100
C  -2.85400 9.18500 22.31700
N  0.01100 8.89600 26.69700
C  0.21200 9.93600 25.81000
C  0.56200 11.19900 26.54100
C  0.75700 10.73100 27.86100
C  0.37400 9.38600 27.94100
C  0.90100 12.46600 25.87000
C  1.15800 11.15700 29.15000
O  1.62900 12.22300 29.43200
C  0.99100 10.02300 30.10500
C  2.07100 9.94600 31.12400
O  3.22000 9.79700 30.75800
O  1.64700 10.00700 32.43500
C  2.69800 10.16700 33.47300
H  -0.53900 3.23500 28.97700
H  -1.15400 4.38500 22.71600
H  0.37300 10.68500 23.88100
H  1.03900 7.23700 31.39600
H  -0.70400 4.84500 31.04200
H  1.22600 3.72600 31.56900
H  2.14100 5.15000 31.41600
H  1.89000 4.07400 30.00200
H  -1.95200 6.64000 31.62100
H  -1.38300 8.27400 31.25500
H  -2.08400 7.70300 33.66300
H  -0.63000 8.62800 33.35700
H  0.24100 0.70700 26.91000
H  -1.61300 0.85800 26.86400
H  -0.77800 1.39200 28.21600
H  -1.87700 0.00700 24.74700
H  -0.10100 -0.08800 24.60600
H  -1.08700 -0.30800 23.19300
H  -1.68000 6.79400 21.78400
H  0.63300 8.70600 21.64500
H  0.08800 5.33400 20.71100
H  1.39200 6.28300 21.22600
H  0.28200 7.00900 19.98700
H  -1.64700 9.33200 20.62100
H  -1.28400 10.44200 21.78200
H  -3.32100 10.08300 22.72200
H  -2.87600 8.34300 23.00900
H  -3.53800 8.86200 21.53200
H  1.19300 13.20000 26.62100
H  -0.01000 12.81000 25.38000
H  1.67300 12.24400 25.13300
H  0.11900 10.20900 30.73200
H  2.77300 11.18800 33.84500
H  3.68700 9.80600 33.19100
H  2.37100 9.51100 34.28000
Mg 45.70400 17.34100 29.17700
C  43.65800 16.90400 31.93300
C  47.61100 19.47400 31.23900
C  47.50900 18.45400 26.37800
C  43.39900 15.86600 27.06000
N  45.55700 18.18800 31.35200
C  44.78400 17.57000 32.31000
C  45.18600 17.97400 33.66300
C  46.27100 19.03900 33.34200
C  46.50600 18.87800 31.87200
C  46.05600 20.46500 33.80300
C  45.55100 16.85000 34.65200
C  46.30100 17.19300 35.84600
H  46.07000 18.57900 36.60200
N  47.30800 18.67300 28.91600
C  47.90100 19.47300 29.90200
C  48.95900 20.16900 29.30900
C  48.95000 20.01000 27.86300
C  47.91600 18.99600 27.65100
C  50.00200 21.01900 30.12400
C  49.77600 20.66200 26.82300
O  49.69300 20.44900 25.62800
C  50.78600 21.71900 27.25300
N  45.60200 17.08900 26.91700
C  46.43400 17.61000 26.07000
C  46.08500 17.19400 24.64500
C  44.87200 16.31900 24.87500
C  44.56800 16.41100 26.36600
C  45.89900 18.34000 23.54000
C  45.02000 14.90900 24.46900
C  45.68800 13.95700 25.49200
N  43.93700 16.54000 29.34600
C  43.13700 15.92000 28.43200
C  41.98300 15.50000 29.12800
C  42.17800 15.74300 30.45600
C  43.36300 16.43800 30.58900
C  40.77500 14.81400 28.61400
C  41.49200 15.66000 31.75100
O  40.39900 15.19500 32.05900
C  42.54000 16.33300 32.75600
C  41.88400 17.29900 33.67700
O  41.14600 18.26400 33.38900
O  42.18400 16.94500 34.93900
C  41.58800 17.76300 36.07000
H  48.12600 20.05600 32.00700
H  47.90200 18.83500 25.43300
H  42.57200 15.39300 26.52700
H  44.29200 18.42500 34.09200
H  47.24800 18.75900 33.73400
H  45.85900 21.07800 32.92400
H  46.94000 20.72900 34.38400
H  45.19700 20.46700 34.47300
H  46.02300 16.08600 34.03200
H  44.61000 16.44500 35.02400
H  47.36700 17.02100 35.70300
H  45.99700 16.42100 36.55300
H  49.84000 22.09500 30.05500
H  51.07900 20.97400 29.96500
H  49.82500 20.84100 31.18500
H  51.28000 22.11100 26.36400
H  51.65700 21.37400 27.81000
H  50.26800 22.59200 27.64800
H  46.84200 16.48800 24.30500
H  44.03400 16.71300 24.30000
H  46.00500 19.35500 23.92100
H  44.87800 18.24900 23.16800
H  46.60800 18.24400 22.71700
H  45.42100 14.83500 23.45800
H  44.05000 14.43200 24.33000
H  44.95800 13.28700 25.94400
H  46.28500 14.35400 26.31300
H  46.31700 13.17900 25.05800
H  40.79500 13.74300 28.81300
H  40.70200 15.08600 27.56100
H  39.90100 15.29500 29.05400
H  43.01200 15.52100 33.30900
H  40.86900 17.08900 36.53400
H  41.12200 18.67500 35.69700
H  42.38500 18.00800 36.77300

