158

Mg 44.36300 4.20200 47.56000
C  42.16000 6.77400 47.36700
C  41.75800 1.87600 47.29100
C  46.68200 1.65500 47.03400
C  46.99100 6.51500 47.10000
N  42.24800 4.30000 47.27600
C  41.56900 5.50000 47.31300
C  40.04600 5.12500 47.07200
C  40.00500 3.68400 47.69500
C  41.45700 3.27300 47.28100
C  39.54800 3.62900 49.19100
C  39.67100 5.24600 45.53700
C  38.92200 6.41300 44.90100
H  39.59700 7.33500 43.81000
N  44.23000 1.96800 47.36800
C  43.05700 1.25900 47.24000
C  43.44600 -0.16000 47.04400
C  44.89600 -0.24400 47.01400
C  45.30100 1.15000 47.15600
C  42.42500 -1.25400 46.90400
C  45.72100 -1.49400 46.86000
O  45.18700 -2.43000 46.34000
C  47.19100 -1.52900 47.19900
N  46.54500 4.06900 47.09800
C  47.23600 2.92400 47.03000
C  48.76200 3.05800 46.93600
C  48.84200 4.62900 46.84400
C  47.38600 5.12400 47.10800
C  49.47500 2.56800 48.25100
C  49.37600 5.17900 45.50000
C  50.87000 4.74700 45.21900
N  44.59300 6.22400 47.33800
C  45.69000 7.03500 47.15200
C  45.31200 8.41500 46.93500
C  43.95400 8.37200 47.12900
C  43.54500 6.99600 47.30600
C  46.16700 9.68200 46.77200
C  42.77700 9.15200 47.10400
O  42.62800 10.37000 47.02200
C  41.58800 8.13700 47.30400
C  40.88700 8.47000 48.54500
O  40.79700 7.82200 49.62800
O  40.22600 9.63400 48.25100
C  39.35200 10.14600 49.23100
H  40.86500 1.26400 47.14900
H  47.55000 1.04600 46.77400
H  47.76900 7.25000 46.88000
H  39.46700 5.84200 47.65400
H  39.31000 3.07500 47.11700
H  39.53000 4.58400 49.71600
H  40.32300 2.99700 49.62700
H  38.53100 3.24000 49.14600
H  39.16800 4.33700 45.20700
H  40.65600 5.19800 45.07200
H  38.60800 7.10800 45.67900
H  38.06600 6.04100 44.33800
H  42.79300 -2.11100 46.34100
H  41.41500 -0.86100 46.78900
H  42.32000 -1.75700 47.86600
H  47.39500 -2.60000 47.18700
H  47.21300 -1.13300 48.21400
H  47.78600 -0.94800 46.49300
H  49.24100 2.56800 46.08800
H  49.46000 5.08900 47.61500
H  49.83700 1.55800 48.05400
H  48.83400 2.48600 49.12900
H  50.20900 3.34200 48.47400
H  49.31400 6.25400 45.32800
H  48.82100 4.66800 44.71400
H  51.36100 4.21100 46.03100
H  51.44600 5.53000 44.72500
H  50.80500 4.00500 44.42300
H  47.14300 9.40400 47.16900
H  45.75000 10.41800 47.45900
H  46.19100 10.12900 45.77800
H  40.89300 8.24000 46.47000
H  39.98100 10.30800 50.10600
H  38.49500 9.53900 49.52100
H  38.96200 11.08900 48.84800
Mg 26.05400 50.13100 25.85600
C  24.46500 51.67300 28.55400
C  28.59000 49.39300 27.85400
C  27.59300 49.04100 23.15100
C  23.62200 51.70100 23.65600
N  26.39200 50.42500 27.95800
C  25.58300 51.03700 28.90300
C  26.09700 50.85000 30.34800
C  27.53700 50.23100 30.04100
C  27.51000 49.94600 28.55700
C  28.74700 51.11900 30.46100
C  25.26400 49.89600 31.20400
C  24.76200 50.32000 32.64000
H  25.67300 50.99000 33.73600
N  27.79400 49.27700 25.57600
C  28.71800 49.06200 26.50800
C  29.85300 48.35300 25.89900
C  29.54900 48.09800 24.53900
C  28.20200 48.74600 24.36500
C  31.11000 47.92900 26.57400
C  30.34800 47.36600 23.48300
O  29.91000 47.05400 22.40800
C  31.66900 46.74300 23.90100
N  25.51900 50.21900 23.73500
C  26.38500 49.59800 22.84000
C  26.02200 49.98500 21.38100
C  24.60600 50.63900 21.52500
C  24.54100 50.90300 23.06800
C  26.99800 50.95200 20.64200
C  23.52400 49.78100 21.00200
C  22.72600 50.30900 19.75600
N  24.35300 51.42200 25.96800
C  23.51500 51.94200 25.02100
C  22.49200 52.71100 25.70100
C  22.82100 52.61800 27.09200
C  23.94800 51.83500 27.20700
C  21.30200 53.45200 25.12400
C  22.39500 52.98900 28.47500
O  21.45700 53.73300 28.82000
C  23.45100 52.37300 29.47200
C  23.95100 53.42600 30.39400
O  24.86700 54.20000 30.31400
O  23.12900 53.40000 31.50100
C  23.59300 54.05900 32.71900
H  29.39300 49.09500 28.53200
H  28.18800 48.73600 22.28800
H  22.86900 51.99100 22.92000
H  26.12300 51.80800 30.86700
H  27.67600 49.30400 30.59600
H  28.50300 51.87600 31.20600
H  29.24800 51.59200 29.61600
H  29.50600 50.44000 30.85000
H  25.66900 48.89600 31.05100
H  24.34100 49.85400 30.62600
H  24.40600 49.39700 33.09700
H  23.99900 51.09500 32.57400
H  31.20300 48.22800 27.61800
H  31.92100 48.35700 25.98500
H  31.20300 46.84600 26.50100
H  32.01900 46.20800 23.01800
H  31.22200 46.00800 24.57000
H  32.36100 47.54700 24.15100
H  25.94700 49.07500 20.78700
H  24.55700 51.64800 21.11700
H  26.42700 51.65200 20.03200
H  27.61700 50.39200 19.94200
H  27.68900 51.34700 21.38600
H  22.72600 49.64700 21.73300
H  23.89900 48.78100 20.78600
H  22.80000 49.64700 18.89300
H  23.01200 51.30200 19.40900
H  21.71100 50.46700 20.12200
H  20.81200 53.91900 25.97800
H  20.62400 52.88300 24.48800
H  21.69400 54.24800 24.49000
H  22.97700 51.63500 30.11900
H  22.83300 54.13600 33.49500
H  24.03000 55.02900 32.48300
H  24.40700 53.45500 33.12100

