158

Mg 30.56600 58.21000 39.52000
C  27.64700 56.44100 38.54000
C  32.30000 55.52600 38.68200
C  33.10900 60.25900 39.56000
C  28.39700 61.09200 39.99600
N  29.96900 56.20800 38.77000
C  28.77900 55.71100 38.35800
C  28.88500 54.35800 37.61500
C  30.29900 53.89900 38.14600
C  30.93600 55.27200 38.64900
C  30.36700 52.77700 39.16700
C  28.76600 54.63000 36.12500
C  27.49900 54.08500 35.45400
H  26.68000 54.99200 34.52900
N  32.46500 57.94000 39.10000
C  33.03500 56.72400 38.86100
C  34.44500 56.91100 38.74700
C  34.71000 58.27100 39.00700
C  33.44100 58.90300 39.21100
C  35.43600 55.76200 38.37800
C  36.11600 59.04000 39.11100
O  37.16400 58.39600 38.89900
C  36.27700 60.49200 39.30600
N  30.70700 60.33900 39.85200
C  31.90500 60.91900 39.81400
C  31.90900 62.39000 40.42000
C  30.34400 62.70400 40.38800
C  29.77500 61.30200 40.16100
C  32.54000 62.56500 41.80700
C  29.88400 63.79000 39.35600
C  29.70500 65.26400 39.89300
N  28.43400 58.66900 39.41000
C  27.74400 59.89500 39.68000
C  26.31600 59.66200 39.58700
C  26.22600 58.31000 39.10800
C  27.55700 57.77300 39.08400
C  25.24700 60.69400 39.71400
C  25.27400 57.24400 38.74200
O  24.05000 57.26400 38.60600
C  26.16800 56.03600 38.43600
C  25.84600 54.89600 39.33100
O  26.44800 54.59300 40.30900
O  24.71100 54.29300 38.79000
C  24.04900 53.32300 39.69400
H  32.96800 54.69200 38.45500
H  33.91600 60.99300 39.58500
H  27.76800 61.97900 40.08800
H  28.13800 53.66500 38.00200
H  30.77500 53.52900 37.23800
H  29.37500 52.38800 39.39300
H  30.64500 53.14900 40.15400
H  31.07100 52.03300 38.79400
H  29.55700 54.22000 35.49700
H  28.85200 55.70500 35.96300
H  26.88000 53.60800 36.21300
H  27.80800 53.27100 34.79800
H  36.47000 56.10700 38.39100
H  35.08600 55.49200 37.38200
H  35.24800 54.87600 38.98500
H  35.90200 60.93500 40.22900
H  35.87500 61.06400 38.47000
H  37.35200 60.66200 39.23700
H  32.50100 63.01900 39.75600
H  30.04900 63.00600 41.39300
H  32.75300 61.51300 41.99600
H  31.95400 63.12600 42.53400
H  33.40700 63.22500 41.81100
H  29.02300 63.47100 38.76700
H  30.76300 63.93000 38.72700
H  30.59800 65.86600 39.72500
H  29.46300 65.18300 40.95300
H  28.90800 65.71100 39.29900
H  25.01800 60.80900 40.77400
H  24.34500 60.56800 39.11400
H  25.70200 61.62300 39.37200
H  25.88600 55.83200 37.40300
H  22.98700 53.55900 39.76600
H  24.38400 53.33700 40.73100
H  24.06200 52.30100 39.31400
Mg -5.23100 25.48000 25.10600
C  -3.66500 26.91100 28.02700
C  -6.66600 23.27000 27.14400
C  -6.49600 24.31700 22.30900
C  -3.02300 27.65600 23.23100
N  -5.05900 25.08500 27.28900
C  -4.41900 25.78400 28.31600
C  -4.95100 25.34000 29.68600
C  -5.87400 24.15300 29.36000
C  -5.74400 24.05900 27.84400
C  -5.47300 22.76900 29.95100
C  -5.68900 26.55700 30.33200
C  -5.73500 26.53500 31.87100
H  -5.17000 25.30600 32.56500
N  -6.46800 24.05300 24.79500
C  -7.04000 23.25700 25.73900
C  -8.05200 22.53100 25.17500
C  -8.09300 22.81800 23.77200
C  -6.98700 23.76300 23.58900
C  -8.87900 21.60700 25.95900
C  -9.09400 22.37300 22.71400
O  -8.96300 22.61700 21.53800
C  -10.41500 21.73400 23.10000
N  -4.79100 25.94400 23.16400
C  -5.41100 25.24800 22.17600
C  -4.83000 25.58800 20.75700
C  -4.17300 26.95700 21.10600
C  -3.86300 26.80100 22.59000
C  -3.83000 24.46100 20.21500
C  -4.96900 28.22000 20.92600
C  -4.18500 29.42600 20.39900
N  -3.73700 27.06900 25.51300
C  -2.84900 27.74000 24.62100
C  -1.93300 28.66300 25.37500
C  -2.17900 28.28900 26.72100
C  -3.35900 27.41400 26.76900
C  -0.97400 29.63200 24.72600
C  -1.85300 28.49800 28.10100
O  -0.97200 29.26200 28.56000
C  -2.73600 27.68100 29.02000
C  -1.96000 26.77600 29.91000
O  -1.52800 25.64100 29.61300
O  -1.81300 27.45400 31.12200
C  -0.81900 26.91000 31.99800
H  -7.11800 22.57500 27.85500
H  -6.93700 23.75700 21.48200
H  -2.39300 28.35600 22.67800
H  -4.05800 25.00900 30.21700
H  -6.83600 24.48900 29.74700
H  -4.59800 22.85100 30.59500
H  -5.31500 22.00400 29.19100
H  -6.34900 22.45700 30.52100
H  -6.68600 26.63000 29.89600
H  -5.26200 27.51500 30.03400
H  -6.78100 26.60600 32.16800
H  -5.39600 27.49200 32.26700
H  -8.82600 20.59900 25.54700
H  -9.83100 22.13300 25.89500
H  -8.59100 21.60600 27.01000
H  -10.20600 20.68900 23.32600
H  -11.05400 21.76700 22.21700
H  -10.88600 22.23000 23.94900
H  -5.66100 25.71100 20.06300
H  -3.23300 27.11900 20.57800
H  -3.32600 24.00300 21.06600
H  -3.03300 24.96300 19.66700
H  -4.45200 23.77800 19.63700
H  -5.26000 28.59000 21.90900
H  -5.94200 28.17400 20.43700
H  -3.35100 29.13000 19.76200
H  -3.89500 30.06300 21.23400
H  -4.91600 30.05700 19.89300
H  -1.42800 30.61600 24.84300
H  -0.84200 29.49400 23.65300
H  0.01200 29.65400 25.19100
H  -3.24900 28.39100 29.66900
H  -1.31400 26.35000 32.79100
H  -0.11500 27.65300 32.37500
H  -0.20900 26.17600 31.47200

