158

Mg 48.99000 46.03000 43.27300
C  45.67500 47.26000 42.21400
C  48.38900 43.32400 41.25200
C  52.24700 45.61100 43.36300
C  49.43800 49.36500 44.63700
N  47.25800 45.48200 41.80200
C  46.01100 46.08900 41.58500
C  45.15900 45.22000 40.69900
C  45.99100 43.88700 40.60300
C  47.31300 44.30800 41.20600
C  45.37300 42.55700 41.16100
C  44.92100 45.91200 39.32000
C  43.39400 45.84600 38.95700
H  42.95500 45.61400 37.53000
N  50.18000 44.60200 42.51200
C  49.80500 43.47700 41.78400
C  50.90700 42.60800 41.63300
C  52.05100 43.25400 42.19400
C  51.56100 44.53400 42.70100
C  50.77000 41.34400 41.05100
C  53.53800 42.70000 42.20900
O  53.67600 41.58800 41.66200
C  54.70100 43.48100 42.73100
N  50.61300 47.29000 43.99600
C  51.87300 46.85000 43.98200
C  52.89300 47.84800 44.44000
C  51.94800 48.97800 44.94300
C  50.57800 48.60200 44.46900
C  54.04800 47.38900 45.39900
C  52.49000 50.36500 44.56100
C  52.54700 51.35600 45.69900
N  47.80100 47.93700 43.51400
C  48.13200 49.05400 44.24500
C  46.98600 49.95200 44.24000
C  46.06200 49.26100 43.54000
C  46.51700 47.98900 43.10800
C  46.91000 51.27700 44.88900
C  44.62700 49.26300 43.16500
O  43.74900 50.11600 43.44200
C  44.32400 47.91900 42.31000
C  43.44300 47.00600 43.04400
O  43.56700 46.58900 44.19100
O  42.29700 46.83600 42.27800
C  41.36000 45.90200 42.89000
H  48.27600 42.43200 40.63200
H  53.33100 45.47500 43.35600
H  49.58600 50.36400 45.05100
H  44.21800 45.10900 41.23900
H  46.28600 43.66800 39.57700
H  44.31400 42.57400 41.41900
H  45.94200 42.45600 42.08500
H  45.52700 41.69300 40.51400
H  45.52600 45.47100 38.52900
H  45.36800 46.90700 39.30000
H  42.97600 46.78600 39.31800
H  42.83800 45.11400 39.54200
H  51.25500 41.40300 40.07700
H  49.72600 41.03000 41.06000
H  51.29600 40.59500 41.64300
H  55.60200 42.86900 42.67500
H  54.52400 43.81800 43.75200
H  54.95500 44.39600 42.19500
H  53.33400 48.14900 43.49000
H  51.80300 49.02900 46.02200
H  53.96400 47.90200 46.35700
H  54.99700 47.68600 44.95200
H  54.06500 46.32700 45.64500
H  51.87100 50.91200 43.85100
H  53.39700 50.30800 43.95800
H  52.26200 50.91900 46.65600
H  51.74400 52.05500 45.46500
H  53.45300 51.95600 45.60200
H  47.70400 51.33500 45.63300
H  45.91400 51.41500 45.31200
H  47.12200 52.06600 44.16700
H  43.92900 48.28900 41.36300
H  40.52100 45.71400 42.22000
H  40.95700 46.26900 43.83400
H  41.76700 44.92800 43.15900
Mg -13.19200 16.22300 42.96000
C  -10.08900 14.44300 42.61200
C  -11.81500 18.81900 41.05800
C  -16.27200 17.52300 42.40400
C  -14.67600 13.16900 43.83900
N  -11.17100 16.63300 41.94800
C  -10.09900 15.76800 42.03500
C  -8.87500 16.44900 41.26500
C  -9.35300 17.92300 41.07800
C  -10.87900 17.81800 41.28100
C  -8.71100 19.10600 41.87700
C  -8.49400 15.71500 39.97800
C  -7.14800 15.02700 39.89400
H  -6.49000 14.86600 38.50500
N  -13.91100 18.03700 42.09300
C  -13.16800 18.90100 41.31900
C  -13.97900 20.01100 40.91600
C  -15.29500 19.68400 41.31300
C  -15.17500 18.32900 41.97000
C  -13.45100 21.21500 40.14700
C  -16.51500 20.50000 41.14600
O  -16.44600 21.64300 40.68600
C  -17.86800 20.22600 41.69500
N  -15.17500 15.44600 42.99900
C  -16.29600 16.28900 42.86000
C  -17.60200 15.60000 43.22000
C  -17.06000 14.19400 43.69400
C  -15.55500 14.25200 43.55600
C  -18.47600 16.31400 44.22700
C  -17.70100 12.95500 42.82000
C  -18.31100 11.74800 43.63600
N  -12.54500 14.20200 43.30700
C  -13.26000 13.10900 43.74800
C  -12.37100 11.99300 43.90800
C  -11.11700 12.45900 43.45300
C  -11.23000 13.81700 43.07800
C  -12.60000 10.59400 44.59000
C  -9.68000 12.06200 43.25000
O  -9.02400 11.08500 43.48900
C  -8.99600 13.40900 42.60900
C  -7.86900 13.70900 43.44300
O  -8.01000 14.03000 44.63600
O  -6.65000 13.67200 42.81200
C  -5.44800 13.85200 43.66800
H  -11.33200 19.53500 40.39000
H  -17.27400 17.88600 42.16400
H  -15.08900 12.24900 44.25800
H  -7.97000 16.40500 41.87100
H  -9.32200 18.16500 40.01500
H  -8.24300 19.87100 41.25800
H  -7.87500 18.85400 42.52900
H  -9.40700 19.66400 42.50300
H  -8.41600 16.43400 39.16300
H  -9.15100 14.90000 39.67400
H  -7.23600 14.00700 40.26800
H  -6.50900 15.53200 40.61800
H  -13.69900 21.06500 39.09600
H  -12.36100 21.20900 40.17200
H  -13.80600 22.16900 40.53700
H  -18.19900 19.43100 41.02600
H  -18.42300 21.16200 41.63300
H  -17.93300 19.90200 42.73300
H  -18.18200 15.49000 42.30400
H  -17.47900 13.98000 44.67700
H  -17.90500 16.98600 44.86800
H  -18.78800 15.51300 44.89800
H  -19.29200 16.90200 43.80800
H  -16.94600 12.56600 42.13600
H  -18.50800 13.35300 42.20500
H  -17.43300 11.16600 43.91400
H  -19.03500 11.11000 43.12900
H  -18.84400 12.16100 44.49200
H  -11.85900 10.48700 45.38200
H  -12.39700 9.77100 43.90600
H  -13.63100 10.54400 44.94200
H  -8.79900 13.24500 41.54900
H  -5.41600 13.09100 44.44800
H  -5.31300 14.89600 43.95400
H  -4.52800 13.67400 43.11200

