158

Mg 35.85800 1.77000 29.08600
C  33.75400 2.87800 31.41300
C  38.48600 2.20500 31.27300
C  38.12400 0.85900 26.63800
C  33.44300 2.04100 26.61700
N  36.07900 2.54600 31.13300
C  35.01000 2.70200 31.97600
C  35.43400 2.81500 33.37700
C  37.02100 2.78100 33.33900
C  37.24600 2.32000 31.85400
C  37.77600 4.06100 33.78900
C  34.81000 1.71200 34.27600
C  34.28600 2.17900 35.69400
H  35.07300 3.12700 36.63100
N  37.94100 1.51200 28.98200
C  38.80200 1.83100 30.00000
C  40.18700 1.70300 29.50600
C  40.08100 1.10000 28.20700
C  38.65100 1.11000 27.86700
C  41.42800 2.13400 30.20500
C  41.26000 0.45400 27.42100
O  41.02300 -0.09700 26.36200
C  42.70400 0.40000 27.88100
N  35.67900 1.23100 26.92900
C  36.81100 0.96600 26.15600
C  36.42100 0.86500 24.62900
C  34.85500 0.98500 24.77400
C  34.57900 1.44400 26.16500
C  37.06100 2.04300 23.88700
C  34.21800 -0.41600 24.50400
C  33.80700 -1.34600 25.77300
N  33.94200 2.30300 29.00400
C  33.12400 2.45700 27.96200
C  31.81800 2.91300 28.41300
C  32.04200 3.10400 29.80500
C  33.36000 2.70100 30.06200
C  30.60500 3.32700 27.62400
C  31.54100 3.63100 30.99600
O  30.43100 4.10700 31.16300
C  32.54500 3.44600 32.07700
C  32.72900 4.71000 32.80200
O  33.59600 5.50800 32.61200
O  31.73800 4.80500 33.79400
C  31.87900 5.97800 34.69600
H  39.29300 2.34800 31.99400
H  38.67500 0.46600 25.78100
H  32.72300 2.17200 25.80600
H  35.14600 3.81500 33.70100
H  37.45000 1.97000 33.92600
H  37.20300 4.62700 34.52400
H  37.96300 4.68700 32.91700
H  38.77100 3.88400 34.19800
H  35.56400 0.93900 34.42300
H  33.96100 1.25600 33.76700
H  34.02100 1.22100 36.14100
H  33.31500 2.60300 35.43600
H  41.87700 1.38300 30.85500
H  41.17500 2.93100 30.90300
H  42.17300 2.66600 29.61300
H  43.13700 1.39800 27.81900
H  43.29500 -0.22500 27.21100
H  42.75000 0.02100 28.90200
H  36.87600 0.00400 24.13800
H  34.45000 1.67300 24.03200
H  36.31800 2.83300 23.76900
H  37.16700 1.66100 22.87200
H  37.97400 2.44600 24.32500
H  34.91700 -0.96400 23.87200
H  33.38600 -0.18600 23.83800
H  34.21100 -2.32700 25.52600
H  32.72600 -1.36700 25.91500
H  34.23100 -0.98300 26.71000
H  30.53900 4.37100 27.93000
H  29.77600 2.72800 27.99900
H  30.74900 3.11400 26.56500
H  32.09700 2.69100 32.72300
H  32.43800 5.58200 35.54400
H  30.90500 6.38100 34.97400
H  32.51200 6.74200 34.24500
Mg 8.87900 48.60200 26.32100
C  6.50600 48.47700 28.90800
C  11.28200 49.55500 28.53700
C  11.07100 49.01600 23.72800
C  6.20800 48.50400 23.98200
N  8.78400 49.08600 28.51600
C  7.75000 48.89300 29.40600
C  8.23200 49.21800 30.82300
C  9.68200 49.73500 30.60100
C  9.97700 49.48200 29.10700
C  10.08800 51.04700 31.20500
C  8.09900 48.03300 31.83000
C  8.99500 48.00800 33.14000
H  8.68600 47.05900 34.34800
N  10.92500 49.04000 26.19800
C  11.75300 49.23800 27.24900
C  13.11100 49.14200 26.76900
C  13.01600 49.04800 25.41400
C  11.58500 49.07300 25.07000
C  14.35900 49.31700 27.74900
C  14.08400 48.87900 24.37000
O  13.98300 49.05300 23.17000
C  15.47700 48.41400 24.89600
N  8.62900 48.75500 24.24900
C  9.69100 49.06700 23.39600
C  9.20300 49.40400 21.97700
C  7.67500 48.95200 22.05200
C  7.47200 48.62100 23.52900
C  9.47100 50.95500 21.66900
C  7.14800 47.89600 21.08500
C  7.15100 48.31000 19.60400
N  6.83000 48.38600 26.37500
C  5.84600 48.31500 25.37500
C  4.66000 47.94700 25.97200
C  4.85800 48.02300 27.32700
C  6.21000 48.28400 27.57900
C  3.41500 47.77100 25.18900
C  4.12000 47.93200 28.53400
O  2.94700 47.64900 28.77300
C  5.15300 48.37300 29.58300
C  5.03200 47.29600 30.62300
O  5.49500 46.19200 30.50400
O  4.42100 47.81600 31.72100
C  4.20700 46.90200 32.81800
H  12.08600 49.92600 29.17600
H  11.78900 49.14500 22.91500
H  5.35700 48.46000 23.29900
H  7.54100 49.97600 31.19100
H  10.36500 48.99800 31.02400
H  10.99100 50.96800 31.81100
H  9.35300 51.43400 31.91100
H  10.32900 51.72600 30.38700
H  8.34000 47.23700 31.12500
H  7.06600 48.00700 32.17400
H  8.93000 48.97700 33.63600
H  10.04500 47.85600 32.89200
H  15.02400 50.12100 27.43500
H  14.99000 48.43400 27.65100
H  13.96900 49.38200 28.76500
H  15.35500 47.44600 25.38300
H  15.94200 49.16400 25.53700
H  16.22100 48.30800 24.10700
H  9.77400 48.77400 21.29400
H  7.01300 49.79000 21.83400
H  10.27600 51.02500 20.93800
H  9.76800 51.51300 22.55700
H  8.53300 51.36700 21.29700
H  6.15400 47.49200 21.27500
H  7.75700 46.99200 21.10000
H  6.19300 48.03900 19.15900
H  7.81900 47.62900 19.07900
H  7.39600 49.35500 19.41100
H  3.74900 47.18000 24.33700
H  3.08700 48.70600 24.73500
H  2.60000 47.32200 25.75600
H  4.81700 49.32500 29.99400
H  3.53300 47.34100 33.55300
H  5.18200 46.85100 33.30400
H  3.84300 45.89300 32.62200

