158

Mg 8.77900 3.78100 28.00600
C  10.04200 2.02000 30.80600
C  6.76700 5.55500 30.06500
C  7.25700 5.01600 25.33300
C  10.33200 1.39300 26.02600
N  8.44900 3.76000 30.16100
C  9.23900 3.10300 31.08700
C  8.97000 3.70500 32.51800
C  7.72700 4.65500 32.30500
C  7.65900 4.67700 30.74800
C  6.34900 4.14800 32.83700
C  10.24400 4.45700 33.02600
C  10.81800 4.08800 34.44400
H  10.74000 5.18100 35.54100
N  7.35600 5.22000 27.75000
C  6.65400 5.85400 28.74700
C  5.89000 6.88800 28.15800
C  6.12100 6.86900 26.76600
C  6.91900 5.65200 26.52300
C  5.05700 7.92100 28.99900
C  5.60700 7.87200 25.73400
O  5.74600 7.63200 24.53000
C  4.91300 9.08400 26.05800
N  8.69000 3.18600 25.93000
C  7.99900 3.83700 24.96400
C  8.21400 3.29200 23.54400
C  9.30200 2.19000 23.83900
C  9.47700 2.28900 25.36500
C  6.89600 2.67800 22.84100
C  10.67300 2.46000 23.17200
C  11.25000 1.34000 22.34200
N  9.95400 2.07800 28.24400
C  10.56900 1.25400 27.34800
C  11.49300 0.30700 28.07700
C  11.21100 0.55900 29.42100
C  10.37000 1.64300 29.44400
C  12.46500 -0.56100 27.35800
C  11.66000 0.16700 30.76500
O  12.53200 -0.64800 31.03000
C  10.90000 1.11800 31.75500
C  10.06600 0.33200 32.69400
O  8.93500 -0.04800 32.54000
O  10.72100 0.25700 33.88200
C  10.14500 -0.20800 35.16000
H  6.14100 6.18500 30.70100
H  6.68900 5.43200 24.49800
H  10.84700 0.72800 25.33000
H  8.65400 2.90600 33.19000
H  7.83500 5.66000 32.71300
H  5.69300 4.97300 33.11500
H  6.55200 3.52400 33.70700
H  5.84700 3.46700 32.14900
H  10.07900 5.53000 32.93200
H  11.08700 4.21700 32.37800
H  11.86200 3.78500 34.36700
H  10.37300 3.16000 34.80300
H  4.72700 7.52800 29.96000
H  4.15300 8.25000 28.48700
H  5.60400 8.86300 28.98600
H  5.40100 9.62500 26.86900
H  3.89800 8.90500 26.41300
H  4.82000 9.70500 25.16700
H  8.67000 4.03000 22.88400
H  8.89700 1.22300 23.54200
H  6.02400 2.90800 23.45300
H  6.93000 1.59700 22.69900
H  6.71400 3.22900 21.91900
H  11.46500 2.65300 23.89500
H  10.54700 3.29000 22.47600
H  11.95700 0.79900 22.97100
H  11.82200 1.67400 21.47800
H  10.45100 0.66400 22.03600
H  12.65600 -0.30900 26.31500
H  12.11600 -1.59200 27.30200
H  13.38300 -0.50600 27.94400
H  11.49000 1.74700 32.42200
H  9.26400 -0.80900 34.93300
H  9.91200 0.70600 35.70700
H  10.87400 -0.71900 35.78900
Mg 23.78300 -5.87400 46.14600
C  25.99800 -3.51900 44.77400
C  21.33500 -4.74500 44.21900
C  21.92200 -8.46400 47.25700
C  26.70400 -7.44400 47.64000
N  23.70300 -4.30100 44.75000
C  24.71600 -3.50300 44.25400
C  24.07600 -2.43900 43.32700
C  22.54600 -2.68500 43.37200
C  22.55000 -4.02000 44.11700
C  21.69100 -1.48100 43.85500
C  24.79900 -2.46100 41.88600
C  25.28200 -1.04000 41.42900
H  25.22100 -0.73400 39.92700
N  21.85100 -6.43500 45.89500
C  21.01100 -5.86300 44.99000
C  19.73200 -6.47100 45.05600
C  19.87700 -7.60500 45.92200
C  21.28000 -7.52800 46.42100
C  18.61500 -6.02000 44.09200
C  18.68700 -8.50700 46.31000
O  17.58400 -8.33900 45.82200
C  18.82500 -9.60200 47.34700
N  24.15700 -7.64200 47.39800
C  23.21900 -8.56900 47.71600
C  23.72600 -9.63900 48.68300
C  25.28500 -9.40400 48.60800
C  25.45500 -8.06300 47.84900
C  23.12300 -9.56000 50.06600
C  26.12100 -10.50000 47.82700
C  27.38000 -11.04300 48.55100
N  25.95000 -5.50800 46.31200
C  26.90500 -6.20800 46.99200
C  28.17400 -5.48700 46.81900
C  27.84500 -4.30600 46.01400
C  26.44300 -4.43800 45.71800
C  29.45600 -5.83600 47.47200
C  28.38500 -3.17000 45.28800
O  29.46300 -2.50500 45.31200
C  27.17100 -2.58600 44.46100
C  27.00100 -1.24900 45.04300
O  26.81800 -0.93700 46.22000
O  27.21100 -0.24200 44.01700
C  27.12100 1.17000 44.37600
H  20.57900 -4.22200 43.63000
H  21.34800 -9.35500 47.52200
H  27.57900 -7.92400 48.08400
H  24.35000 -1.51800 43.84100
H  22.24400 -3.02600 42.38200
H  21.43000 -0.99700 42.91400
H  22.39400 -0.84300 44.39000
H  20.72900 -1.71400 44.31100
H  24.19400 -2.78800 41.04100
H  25.63600 -3.15800 41.86900
H  26.31000 -1.00100 41.78800
H  24.80700 -0.22200 41.97000
H  17.84100 -6.76900 43.92400
H  19.00200 -5.61900 43.15500
H  18.13700 -5.27500 44.72800
H  17.87900 -10.14500 47.34700
H  19.09900 -9.12300 48.28700
H  19.52800 -10.38800 47.07200
H  23.38200 -10.58700 48.27000
H  25.76500 -9.16600 49.55600
H  22.10800 -9.94400 49.96600
H  23.13500 -8.58100 50.54500
H  23.52600 -10.34000 50.71100
H  26.51300 -10.07300 46.90400
H  25.43700 -11.32000 47.60900
H  27.49700 -12.11500 48.39400
H  27.40400 -10.75100 49.60000
H  28.25200 -10.51500 48.16300
H  29.39300 -6.55300 48.29000
H  30.00000 -4.95200 47.80400
H  30.06600 -6.15000 46.62400
H  27.54400 -2.53500 43.43800
H  27.43500 1.40900 45.39200
H  26.17200 1.56300 44.01100
H  27.86200 1.54300 43.67000

