158

Mg 26.44200 50.39600 27.80600
C  24.20200 51.71000 30.18700
C  28.57300 49.52900 30.41700
C  28.58100 49.29300 25.52300
C  24.33400 51.65800 25.26400
N  26.41200 50.70300 30.06800
C  25.36900 51.17200 30.86200
C  25.71600 51.02700 32.40800
C  27.15800 50.40400 32.33500
C  27.40600 50.16200 30.82100
C  28.35500 51.19400 33.00000
C  24.67500 50.16000 33.17200
C  24.31700 50.59700 34.52200
H  25.40600 50.88000 35.51600
N  28.33400 49.52400 27.98400
C  29.04600 49.24300 29.10100
C  30.35600 48.70800 28.79400
C  30.34500 48.55800 27.36500
C  29.00200 49.09600 26.91400
C  31.27300 48.16200 29.88300
C  31.35900 47.95900 26.47600
O  31.05400 47.78700 25.31600
C  32.75400 47.54200 26.97800
N  26.52700 50.61400 25.73700
C  27.50300 49.99000 25.00200
C  27.13500 50.05300 23.41900
C  25.73000 50.60100 23.36800
C  25.49500 50.97000 24.85000
C  28.17400 50.89000 22.62100
C  24.72000 49.46400 22.89600
C  23.55300 49.99300 21.98500
N  24.59300 51.34800 27.68000
C  23.94500 51.85200 26.58600
C  22.73200 52.47200 27.01200
C  22.78400 52.42200 28.40300
C  23.99400 51.74700 28.79300
C  21.67400 53.00000 26.06300
C  22.09200 52.82100 29.67600
O  21.06900 53.49600 29.88100
C  22.98400 52.38900 30.81000
C  23.29100 53.51200 31.66900
O  23.92100 54.49200 31.29300
O  22.90500 53.19000 33.00100
C  23.11700 54.25700 33.96500
H  29.31900 49.23000 31.15700
H  29.32000 49.11100 24.74000
H  23.65000 52.07200 24.52000
H  25.89000 52.03800 32.77600
H  27.12000 49.45000 32.86100
H  28.81500 50.52600 33.72800
H  27.82900 52.05400 33.41500
H  28.97300 51.56800 32.18300
H  24.93400 49.11300 33.32600
H  23.78300 50.19700 32.54700
H  23.56800 49.92400 34.93800
H  23.81400 51.56400 34.54800
H  32.30200 48.44000 29.65900
H  31.18300 47.07700 29.81900
H  31.14600 48.64100 30.85400
H  32.68200 46.58500 27.49400
H  33.30300 48.30900 27.52500
H  33.38100 47.36800 26.10400
H  27.17500 49.03800 23.02300
H  25.72600 51.41200 22.64000
H  29.22000 50.87000 22.92800
H  28.02500 51.96600 22.70700
H  28.19400 50.52800 21.59300
H  24.20400 48.93000 23.69400
H  25.23600 48.69200 22.32400
H  23.82200 50.83400 21.34600
H  22.68200 50.12800 22.62600
H  23.21000 49.15300 21.38100
H  20.94300 53.56000 26.64600
H  21.22800 52.11200 25.61600
H  22.09500 53.49400 25.18700
H  22.44100 51.66800 31.42100
H  24.11000 54.21700 34.41200
H  22.34900 54.13400 34.72700
H  22.89100 55.19600 33.45800
Mg -0.27600 44.42200 26.91600
C  2.03300 44.23200 29.42200
C  -2.81300 44.22000 29.22700
C  -2.59600 44.15300 24.38600
C  2.11400 44.66600 24.41900
N  -0.36200 44.28700 29.02600
C  0.70500 44.15300 29.87500
C  0.28600 44.02500 31.34000
C  -1.22100 43.71300 31.21700
C  -1.49500 44.20800 29.76800
C  -1.66100 42.32100 31.60700
C  0.51800 45.36200 32.06500
C  0.98300 45.23900 33.56200
H  0.61500 43.96800 34.42900
N  -2.41600 44.31500 26.80400
C  -3.23500 44.31400 27.89100
C  -4.61300 44.15200 27.46800
C  -4.56300 44.05300 26.01800
C  -3.15400 44.19800 25.68300
C  -5.65800 43.91400 28.46300
C  -5.72600 43.72800 25.11700
O  -5.59600 43.78200 23.89100
C  -7.12500 43.30900 25.70600
N  -0.19600 44.42700 24.64300
C  -1.31100 44.23400 23.87300
C  -0.95200 44.16700 22.40500
C  0.51800 44.55700 22.38400
C  0.87300 44.51300 23.86000
C  -1.26300 42.82800 21.71000
C  0.78100 45.86100 21.66400
C  2.06300 45.85800 20.70800
N  1.72300 44.45700 26.93100
C  2.60200 44.58900 25.82500
C  3.94800 44.57900 26.31700
C  3.79200 44.46200 27.71000
C  2.38400 44.39100 27.99300
C  5.11500 44.80300 25.45200
C  4.44000 44.34300 29.01700
O  5.60700 44.33500 29.26400
C  3.27300 44.23100 30.14100
C  3.52700 43.01700 30.99200
O  3.24500 41.87200 30.65600
O  3.97700 43.42600 32.22800
C  4.46700 42.37900 33.11200
H  -3.53700 44.06600 30.03000
H  -3.28200 44.01800 23.54700
H  2.97100 44.77300 23.75000
H  0.84100 43.22100 31.82300
H  -1.75800 44.26000 31.99100
H  -0.93600 41.75000 32.18700
H  -1.95500 41.77400 30.71100
H  -2.55000 42.37300 32.23600
H  -0.37400 45.98300 32.14700
H  1.27900 45.99100 31.60300
H  0.71900 46.11500 34.15600
H  2.07300 45.25300 33.54700
H  -6.60100 44.38900 28.19500
H  -5.53300 44.46100 29.39700
H  -5.80400 42.86000 28.70100
H  -7.91800 43.20800 24.96500
H  -7.43100 44.11000 26.37800
H  -6.97100 42.39500 26.27900
H  -1.55100 44.94800 21.93700
H  1.15900 43.74300 22.04800
H  -1.53900 42.07800 22.45200
H  -0.39600 42.43700 21.17600
H  -2.04100 43.09400 20.99400
H  0.95900 46.63400 22.41100
H  -0.07100 46.17700 21.06200
H  2.80600 46.47200 21.21700
H  1.86400 46.31400 19.73900
H  2.34500 44.81600 20.55800
H  4.86200 45.52300 24.67400
H  5.44500 43.83300 25.08200
H  5.76800 45.39000 26.09700
H  3.36800 45.14300 30.73000
H  4.55900 41.44000 32.56600
H  3.77400 42.32100 33.95100
H  5.43000 42.69200 33.51500

