158

Mg -11.33700 38.29500 41.98300
C  -8.88400 35.70400 41.61000
C  -9.29600 40.15000 39.88200
C  -13.89500 40.44100 41.58400
C  -13.41400 35.90900 43.35400
N  -9.30700 37.91200 40.77000
C  -8.44900 36.90900 41.00300
C  -7.12200 37.17100 40.30200
C  -7.23000 38.64400 39.78900
C  -8.69600 38.96000 40.18700
C  -6.31400 39.67700 40.38200
C  -6.76400 36.15100 39.12400
C  -5.29500 35.80800 38.82600
H  -4.50200 36.28200 37.57500
N  -11.52700 40.08900 41.01100
C  -10.56900 40.71600 40.22600
C  -11.06400 42.01700 39.99100
C  -12.35600 42.17300 40.51400
C  -12.67400 40.85200 41.04900
C  -10.31600 43.10900 39.21300
C  -13.24500 43.48500 40.49700
O  -12.81600 44.52400 40.06000
C  -14.66800 43.60600 41.08300
N  -13.37500 38.19300 42.25600
C  -14.25400 39.21400 42.16600
C  -15.65500 38.86000 42.61600
C  -15.55700 37.31200 42.89700
C  -13.99500 37.10900 42.84400
C  -16.16200 39.65200 43.88100
C  -16.34900 36.38300 42.00500
C  -17.74900 35.96100 42.53500
N  -11.20600 36.23500 42.51200
C  -12.10200 35.46600 43.14800
C  -11.50300 34.13500 43.38300
C  -10.21300 34.21200 42.77900
C  -10.09100 35.52100 42.23700
C  -12.18300 33.10400 44.18800
C  -8.99200 33.47200 42.59300
O  -8.64300 32.32600 42.97900
C  -8.09800 34.42100 41.75300
C  -6.77400 34.56500 42.36900
O  -5.95400 33.63000 42.36000
O  -6.66200 35.62400 43.15000
C  -5.45700 35.71600 43.97300
H  -8.80000 40.87800 39.23600
H  -14.76600 41.09700 41.54100
H  -14.14700 35.26400 43.84400
H  -6.44400 37.16600 41.15600
H  -7.13500 38.78700 38.71300
H  -5.56900 39.81700 39.59800
H  -5.76800 39.29400 41.24400
H  -6.72700 40.68400 40.42900
H  -7.01400 36.66400 38.19500
H  -7.50800 35.35600 39.08100
H  -5.23300 34.72500 38.93300
H  -4.81200 36.23200 39.70600
H  -9.55400 42.72000 38.53800
H  -9.78400 43.86300 39.79300
H  -11.01800 43.66000 38.58600
H  -14.69800 43.08200 42.03800
H  -15.16500 42.94400 40.37400
H  -15.11400 44.59300 40.95600
H  -16.37100 39.10600 41.83200
H  -15.93400 37.01200 43.87500
H  -16.84900 40.47900 43.70200
H  -15.26700 40.00500 44.39300
H  -16.58000 38.97900 44.62900
H  -15.71400 35.55300 41.69600
H  -16.59600 36.92000 41.08900
H  -18.33900 36.87200 42.43200
H  -17.84200 35.58700 43.55400
H  -18.04800 35.10200 41.93400
H  -12.32500 32.17400 43.63800
H  -13.12400 33.48300 44.58800
H  -11.71200 32.83700 45.13300
H  -7.95200 33.98500 40.76500
H  -4.71200 35.08100 43.49400
H  -5.67900 35.30600 44.95800
H  -5.25100 36.78100 44.07300
Mg -5.76200 25.63300 25.70600
C  -4.53000 27.09800 28.75700
C  -7.66700 23.48800 27.74400
C  -6.80700 24.05500 23.01900
C  -3.48200 27.48900 23.95000
N  -6.21300 25.47500 28.00500
C  -5.54700 26.12700 28.98600
C  -6.07600 25.75300 30.36600
C  -7.06800 24.57500 30.03700
C  -6.98400 24.46000 28.48800
C  -6.63500 23.27700 30.76000
C  -6.72400 26.93700 31.13000
C  -6.53600 26.80400 32.65300
H  -6.14600 25.49200 33.29600
N  -7.18900 24.15900 25.38500
C  -7.70200 23.30100 26.36000
C  -8.67100 22.49900 25.68500
C  -8.43500 22.51100 24.32600
C  -7.44100 23.59300 24.15200
C  -9.72600 21.69500 26.52900
C  -9.16700 21.80900 23.20800
O  -8.93200 22.03500 22.01500
C  -10.24100 20.70100 23.54700
N  -5.20300 25.75700 23.82500
C  -5.75700 24.99000 22.85700
C  -5.09200 25.25100 21.52800
C  -4.05700 26.38700 21.77300
C  -4.23000 26.57300 23.25900
C  -4.30800 23.85000 21.13000
C  -4.33100 27.64400 21.01100
C  -3.40300 27.98400 19.74300
N  -4.30800 27.04100 26.20700
C  -3.41100 27.68100 25.35800
C  -2.70900 28.63000 26.11100
C  -3.02200 28.34600 27.41600
C  -4.07600 27.43000 27.45900
C  -1.72900 29.58300 25.58900
C  -2.66800 28.72200 28.71900
O  -1.83100 29.45400 29.15300
C  -3.71300 28.01300 29.71100
C  -2.97500 27.22400 30.81000
O  -2.55400 26.05300 30.66300
O  -2.77000 28.02100 31.88600
C  -2.26900 27.17800 33.05100
H  -8.20900 22.73800 28.32500
H  -7.10100 23.63600 22.05400
H  -2.92900 28.27500 23.43200
H  -5.15300 25.48700 30.88100
H  -8.04700 24.90500 30.38500
H  -6.46200 22.43200 30.09300
H  -7.27400 22.99200 31.59500
H  -5.69200 23.39800 31.29300
H  -7.80500 26.96400 30.99100
H  -6.22000 27.85400 30.82300
H  -7.49900 27.16400 33.01600
H  -5.85100 27.58900 32.97500
H  -10.67800 21.56700 26.01500
H  -9.94000 22.06900 27.53000
H  -9.35200 20.67300 26.58900
H  -10.03300 20.02600 24.37600
H  -10.30700 20.15500 22.60600
H  -11.12300 21.32000 23.71400
H  -5.82100 25.44500 20.74200
H  -3.02300 26.04900 21.70400
H  -3.24500 24.09000 21.09100
H  -4.77200 23.70600 20.15400
H  -4.53600 23.05700 21.84200
H  -4.34000 28.45800 21.73600
H  -5.34700 27.61500 20.61700
H  -3.13200 29.03800 19.80200
H  -4.02600 27.81700 18.86400
H  -2.47700 27.41000 19.71000
H  -0.99900 29.05600 24.97400
H  -1.23900 30.03200 26.45300
H  -2.16000 30.36600 24.96500
H  -4.42700 28.68800 30.18400
H  -1.22800 27.44100 33.23700
H  -2.54400 26.12300 33.04600
H  -2.87100 27.54800 33.88000

