158

Mg 5.59200 54.55400 40.99700
C  5.42100 51.00900 41.25100
C  8.90000 54.19000 39.73700
C  5.60100 57.71000 40.25500
C  2.36300 54.75700 42.18400
N  6.93700 52.73100 40.39000
C  6.61800 51.39400 40.65100
C  7.87300 50.55900 40.35200
C  9.03800 51.59100 40.21000
C  8.23700 52.96700 40.08600
C  10.17500 51.70000 41.33500
C  7.83300 49.56000 39.10800
C  6.77600 49.80500 37.97900
H  7.32200 50.49600 36.79900
N  7.05200 55.75400 40.06000
C  8.36200 55.50200 39.71100
C  8.95200 56.72700 39.22400
C  7.98500 57.70500 39.19900
C  6.77100 57.07600 39.80400
C  10.41800 56.82200 38.75300
C  8.18700 59.06900 38.65900
O  9.28500 59.40700 38.24300
C  6.94500 60.08200 38.38300
N  4.10100 56.01900 41.06200
C  4.45800 57.28800 40.96500
C  3.37700 58.30600 41.39500
C  2.26100 57.29500 41.97400
C  2.92900 55.93600 41.72600
C  3.85000 59.32200 42.47400
C  0.84800 57.39500 41.23700
C  -0.36900 57.32700 42.20200
N  4.16100 53.23900 41.60200
C  2.91900 53.45300 42.19100
C  2.35800 52.17600 42.71400
C  3.31600 51.22100 42.40200
C  4.37100 51.87300 41.69400
C  1.16200 51.96000 43.55800
C  3.69500 49.82000 42.51100
O  3.20800 48.90400 43.10800
C  5.05700 49.61500 41.70600
C  4.70800 48.67200 40.62800
O  4.06000 49.03100 39.64300
O  5.23700 47.43900 40.87800
C  5.06800 46.47100 39.79000
H  9.88400 54.08600 39.27400
H  5.65800 58.80000 40.24700
H  1.33900 54.62400 42.54000
H  8.08900 49.96700 41.24200
H  9.59800 51.42900 39.28900
H  10.07600 50.78300 41.91600
H  9.97100 52.58700 41.93500
H  11.16300 51.78700 40.88100
H  7.65000 48.59500 39.58000
H  8.77100 49.37300 38.58600
H  5.96100 50.45800 38.29000
H  6.29200 48.86000 37.73200
H  10.94800 55.87400 38.66700
H  11.07500 57.45700 39.34900
H  10.45800 57.16100 37.71700
H  6.05400 59.49900 38.14700
H  7.28400 60.66600 37.52800
H  6.66300 60.64800 39.27000
H  3.12700 58.83100 40.47300
H  2.20600 57.49000 43.04500
H  3.67600 59.01000 43.50400
H  3.32700 60.27200 42.36000
H  4.91000 59.55400 42.37100
H  0.86000 56.58800 40.50600
H  0.80600 58.37400 40.75900
H  -0.88100 58.28900 42.18000
H  -0.12500 57.21900 43.25900
H  -1.10700 56.57600 41.91900
H  0.88700 50.90900 43.46400
H  0.30500 52.58800 43.31800
H  1.36800 52.13400 44.61500
H  5.80700 49.12200 42.32600
H  5.62100 45.55000 39.97300
H  5.48900 46.85200 38.86000
H  4.01600 46.19500 39.73100
Mg 16.85100 52.74000 26.97100
C  18.98200 51.25000 29.32400
C  14.61300 53.38000 29.65500
C  14.83600 54.24200 24.89200
C  18.98300 51.85200 24.50400
N  16.79300 52.32900 29.22800
C  17.82200 51.76700 29.94500
C  17.57600 51.91800 31.46700
C  16.01700 52.12100 31.43000
C  15.73200 52.63900 30.03800
C  15.11200 50.87900 31.74100
C  18.30100 53.07800 32.08800
C  18.78700 52.81600 33.51200
H  17.74300 52.24900 34.48300
N  15.01900 53.74400 27.23700
C  14.30900 53.93100 28.44300
C  13.19900 54.81400 28.16200
C  13.30200 55.23100 26.79300
C  14.39500 54.37000 26.24000
C  12.22300 55.20600 29.24000
C  12.60400 56.40900 26.00500
O  12.69900 56.66800 24.79400
C  11.59500 57.20000 26.67900
N  16.81600 52.81700 24.90700
C  15.88500 53.52800 24.27500
C  16.03600 53.27500 22.68200
C  17.46900 52.70400 22.58800
C  17.76300 52.34600 24.06900
C  14.86000 52.39900 22.05700
C  18.45500 53.80300 22.04000
C  18.78800 54.99600 22.91500
N  18.68100 51.61800 26.87400
C  19.42600 51.34000 25.78800
C  20.61700 50.66100 26.16600
C  20.52400 50.61500 27.60500
C  19.31700 51.21200 27.95500
C  21.73900 50.07400 25.25700
C  21.12000 50.15100 28.83500
O  22.16700 49.56000 29.09600
C  20.18200 50.64700 29.98300
C  19.84100 49.50400 30.85300
O  19.09900 48.60000 30.62200
O  20.56200 49.63500 32.02700
C  20.48700 48.48800 33.01800
H  13.95600 53.48600 30.52000
H  14.08900 54.69100 24.23400
H  19.56700 51.59200 23.61900
H  17.72700 50.96300 31.97000
H  15.68600 52.91800 32.09600
H  14.55200 50.87200 32.67700
H  15.61000 49.91100 31.79600
H  14.40100 50.69400 30.93600
H  17.59700 53.91000 32.10200
H  19.09700 53.30900 31.38000
H  19.17900 53.67800 34.05100
H  19.57800 52.08400 33.34400
H  11.31100 54.98100 28.68700
H  12.23600 56.25300 29.54300
H  12.30800 54.47900 30.04700
H  10.92400 57.77000 26.03600
H  12.17900 57.84700 27.33400
H  10.99700 56.54800 27.31500
H  16.12200 54.26200 22.22600
H  17.47200 51.78800 21.99800
H  14.42500 52.83500 21.15800
H  14.15700 52.21800 22.87000
H  15.22500 51.43100 21.71400
H  17.97800 54.25200 21.16800
H  19.35900 53.38700 21.59500
H  19.34400 55.69400 22.28900
H  19.47000 54.64700 23.69000
H  17.95600 55.49600 23.41200
H  22.63700 49.82400 25.82300
H  22.03000 50.92200 24.63700
H  21.45200 49.29700 24.54900
H  20.78100 51.29100 30.62600
H  21.34500 48.59300 33.68100
H  20.46000 47.53400 32.49200
H  19.57800 48.49200 33.62000

