158

Mg -2.66200 16.88400 26.46700
C  -2.93000 14.86700 29.28800
C  -2.96600 19.65600 28.63200
C  -2.74600 19.00000 23.71900
C  -2.90500 14.20000 24.33300
N  -2.63200 17.21800 28.73900
C  -2.95700 16.22000 29.69300
C  -3.12000 16.81700 31.10000
C  -2.97900 18.37300 30.85200
C  -2.89300 18.44000 29.29700
C  -4.13700 19.27200 31.52700
C  -2.01200 16.17200 32.13600
C  -1.33600 17.09700 33.18200
H  -0.96400 16.46600 34.49900
N  -2.74500 19.04500 26.20000
C  -2.95500 20.02000 27.21400
C  -3.00200 21.31900 26.60900
C  -2.73500 21.11100 25.19000
C  -2.73400 19.66800 24.94000
C  -3.17900 22.62500 27.37800
C  -2.55400 22.15800 24.14400
O  -2.00300 22.05900 23.07700
C  -3.05900 23.49300 24.44100
N  -2.93000 16.61500 24.36800
C  -2.86900 17.62600 23.45700
C  -2.84500 17.13200 21.96300
C  -2.86300 15.55500 22.15100
C  -2.94200 15.38800 23.71600
C  -4.03200 17.73800 21.08100
C  -1.81800 14.74800 21.24300
C  -2.44600 13.90300 20.18700
N  -2.93300 14.93500 26.75100
C  -2.96800 13.97300 25.70600
C  -3.15500 12.71800 26.34300
C  -3.04600 13.00000 27.72700
C  -2.95400 14.38300 27.93000
C  -3.27600 11.41800 25.66600
C  -3.10400 12.37500 29.02200
O  -3.06900 11.21100 29.31800
C  -3.09700 13.59300 30.08700
C  -2.00100 13.36100 31.02900
O  -0.80500 13.58500 30.83100
O  -2.46500 12.77200 32.14700
C  -1.45500 12.19500 33.10300
H  -2.99500 20.53000 29.28700
H  -2.71700 19.60500 22.81000
H  -2.96900 13.40800 23.58400
H  -4.03100 16.47900 31.59300
H  -2.05000 18.79300 31.23800
H  -4.88400 18.69100 32.06900
H  -4.63400 19.73100 30.67100
H  -3.79600 20.05500 32.20300
H  -1.26100 15.86900 31.40600
H  -2.35700 15.28200 32.66300
H  -2.02000 17.93500 33.31500
H  -0.43500 17.50900 32.72700
H  -4.17900 23.02100 27.20000
H  -2.38700 23.35300 27.19700
H  -3.16300 22.49000 28.45900
H  -4.08700 23.55600 24.79700
H  -2.91000 24.01500 23.49500
H  -2.34600 23.96100 25.12000
H  -1.87600 17.29600 21.49200
H  -3.81800 15.24000 21.73000
H  -3.83800 17.93000 20.02500
H  -4.30600 18.66000 21.59200
H  -4.99300 17.22700 21.13800
H  -1.24400 14.13600 21.93900
H  -1.17300 15.44900 20.71200
H  -2.22200 12.93300 20.63000
H  -1.95600 14.14900 19.24400
H  -3.52100 14.05500 20.08900
H  -4.27600 11.21600 25.28400
H  -3.06500 10.60800 26.36400
H  -2.52000 11.34000 24.88400
H  -4.04300 13.59700 30.62900
H  -0.65800 12.87500 33.40300
H  -0.96400 11.31200 32.69200
H  -1.97400 11.75900 33.95600
Mg 17.13000 51.69800 26.36100
C  18.68200 50.02300 28.94900
C  14.73700 52.85200 28.60900
C  15.39100 52.91700 23.70700
C  19.55200 50.44300 24.08800
N  16.74800 51.40500 28.57100
C  17.51100 50.69200 29.37600
C  17.09100 50.76900 30.87700
C  15.58600 51.34100 30.55400
C  15.74800 52.04600 29.18900
C  14.37100 50.35600 30.63200
C  18.00500 51.67600 31.74100
C  18.08600 51.28700 33.19700
H  16.97200 51.88400 34.03700
N  15.35300 52.75500 26.17200
C  14.55200 53.17300 27.22600
C  13.42600 53.91600 26.67700
C  13.51500 53.92900 25.26600
C  14.71800 53.07700 24.93900
C  12.48900 54.57300 27.55300
C  12.57400 54.51100 24.27700
O  12.71600 54.41400 23.03500
C  11.34700 55.12800 24.70700
N  17.32400 51.61100 24.21700
C  16.47600 52.13300 23.37200
C  17.04400 52.02700 21.96500
C  18.44700 51.43100 22.09000
C  18.48500 51.22900 23.56000
C  16.03300 51.40000 20.98700
C  19.64000 52.26300 21.53200
C  20.83400 51.53100 20.93800
N  18.69500 50.44600 26.42400
C  19.66500 50.08400 25.46300
C  20.72000 49.30100 26.08700
C  20.37500 49.30100 27.42000
C  19.18200 50.04000 27.60900
C  21.92900 48.68000 25.39400
C  20.75300 48.77600 28.77600
O  21.71100 48.06300 29.10000
C  19.73700 49.30400 29.78600
C  19.24300 48.10700 30.64500
O  18.46300 47.25500 30.25800
O  19.91300 48.11100 31.85900
C  19.59100 47.16000 32.89500
H  14.08600 53.29800 29.36300
H  14.96700 53.48500 22.87600
H  20.35500 50.14800 23.40900
H  16.97500 49.79400 31.34900
H  15.33400 52.07700 31.31800
H  14.14000 50.17800 31.68200
H  14.56200 49.34900 30.26100
H  13.46400 50.81200 30.23500
H  17.51800 52.64700 31.83800
H  19.00400 51.79500 31.32300
H  19.07400 51.46800 33.62200
H  18.04400 50.20300 33.30300
H  11.49100 54.21800 27.29500
H  12.60100 55.60300 27.21200
H  12.73100 54.52500 28.61500
H  10.83700 54.46200 25.40400
H  10.65200 55.24400 23.87500
H  11.65100 56.05200 25.20000
H  17.15400 53.06200 21.64200
H  18.45100 50.45100 21.61200
H  15.76200 52.16900 20.26300
H  15.10000 51.18400 21.50800
H  16.35000 50.43500 20.59200
H  20.09300 52.97000 22.22600
H  19.24600 52.83200 20.69000
H  20.93700 51.85100 19.90100
H  20.69900 50.45100 20.87400
H  21.76900 51.66300 21.48200
H  21.63500 48.77000 24.34800
H  22.03300 47.61200 25.58000
H  22.90900 49.12300 25.57400
H  20.22500 49.98200 30.48600
H  19.10400 46.25900 32.52400
H  18.90800 47.74100 33.51500
H  20.54500 46.94700 33.37800

