158

Mg 0.10600 6.39300 25.76200
C  0.83100 8.47900 28.64500
C  0.12600 3.69200 28.03100
C  -0.41100 4.49400 23.09700
C  0.50600 9.20300 23.79700
N  0.23300 6.19200 28.13100
C  0.58600 7.16700 29.02000
C  0.83600 6.59500 30.43300
C  0.84000 5.09200 30.13500
C  0.33900 4.93200 28.70300
C  2.18100 4.30900 30.38000
C  -0.30100 7.15400 31.36200
C  0.22200 7.64400 32.75300
H  1.30600 6.92400 33.58500
N  -0.22300 4.36600 25.55700
C  -0.20600 3.42100 26.57400
C  -0.60700 2.15800 25.95100
C  -0.68500 2.35000 24.55400
C  -0.41500 3.82000 24.34300
C  -0.76200 0.84700 26.66100
C  -1.15900 1.41700 23.45600
O  -1.13800 1.77600 22.29300
C  -1.46800 -0.02400 23.73900
N  0.18000 6.81500 23.70200
C  -0.22900 5.83500 22.86400
C  -0.43800 6.51100 21.46900
C  -0.50000 8.05600 21.75800
C  0.10300 8.07000 23.18900
C  0.63900 6.05900 20.46200
C  -1.90200 8.78500 21.57100
C  -2.65200 8.35800 20.39200
N  0.69300 8.45300 26.08800
C  0.83400 9.44100 25.15900
C  1.29000 10.60500 25.84800
C  1.28400 10.26200 27.20300
C  0.92100 8.99400 27.33800
C  1.56200 11.92200 25.11900
C  1.44300 10.88000 28.48600
O  1.73700 12.04900 28.81200
C  1.22300 9.71000 29.50900
C  2.53200 9.56200 30.20700
O  3.47300 8.90700 29.74800
O  2.55200 10.11200 31.48600
C  3.88700 10.14200 32.13000
H  0.41000 2.85800 28.67600
H  -0.57800 3.96200 22.15800
H  0.64500 10.05900 23.13400
H  1.78500 6.94500 30.84000
H  0.06200 4.57000 30.69200
H  2.64000 4.14200 29.40600
H  1.98200 3.37800 30.91000
H  2.90700 4.81200 31.02000
H  -1.03800 6.36000 31.48200
H  -0.71400 8.04600 30.89000
H  -0.58400 7.76300 33.47700
H  0.58600 8.63900 32.49600
H  -0.06600 0.16800 26.16800
H  -1.78900 0.50600 26.52500
H  -0.46100 0.93900 27.70400
H  -2.28900 -0.20400 24.43300
H  -0.57100 -0.50200 24.13200
H  -1.79200 -0.55800 22.84600
H  -1.38300 6.10500 21.10900
H  0.28400 8.52300 21.16100
H  1.13900 6.96300 20.11400
H  0.09100 5.52700 19.68400
H  1.43900 5.43100 20.85300
H  -1.81800 9.87200 21.56000
H  -2.57500 8.57600 22.40300
H  -3.55200 7.79800 20.65000
H  -2.21300 7.55500 19.79900
H  -2.74400 9.17400 19.67500
H  0.93300 11.98500 24.23200
H  2.60000 12.06000 24.81400
H  1.33400 12.80100 25.72200
H  0.46500 9.81200 30.28600
H  3.94500 10.87000 32.94000
H  4.73600 10.39700 31.49600
H  3.96300 9.26300 32.76900
Mg 6.61300 55.42600 42.25900
C  6.36800 52.00200 41.71200
C  9.95200 55.25900 41.03200
C  6.68700 58.79900 41.94000
C  3.16500 55.49900 43.09400
N  7.89100 53.83700 41.33200
C  7.60000 52.51500 41.22600
C  8.77600 51.65900 40.78000
C  9.95000 52.64300 41.07400
C  9.25200 54.02700 41.19700
C  10.77300 52.20200 42.33400
C  8.76000 51.26300 39.21900
C  9.87300 50.28200 38.72600
H  10.40400 50.36700 37.28400
N  8.03500 56.89500 41.43800
C  9.36300 56.58200 41.12400
C  9.96100 57.73700 40.60200
C  9.13600 58.86600 40.83700
C  7.87700 58.21700 41.51300
C  11.35100 57.90600 39.78700
C  9.39900 60.35200 40.60300
O  10.52500 60.79300 40.27600
C  8.25900 61.36200 40.68000
N  5.12600 56.89900 42.39500
C  5.43700 58.23700 42.39600
C  4.27200 59.10300 42.79800
C  3.26200 58.03100 43.20700
C  3.84200 56.70800 42.81700
C  4.58000 60.16100 43.86600
C  1.89100 58.09600 42.45800
C  0.64800 58.14600 43.33800
N  5.14600 54.00900 42.70700
C  3.80800 54.18500 43.00000
C  3.28900 52.87200 43.35700
C  4.21500 51.96300 42.77500
C  5.27800 52.74100 42.31500
C  2.02100 52.61700 44.17400
C  4.49500 50.52800 42.45100
O  3.79100 49.50800 42.51300
C  6.00500 50.49700 41.80200
C  5.81200 49.85700 40.43500
O  5.24200 50.36100 39.46200
O  6.50900 48.68900 40.37100
C  6.41800 48.05600 39.04000
H  10.97700 55.30900 40.66000
H  6.54800 59.87300 41.79500
H  2.18200 55.51200 43.57000
H  8.86700 50.72100 41.32700
H  10.69000 52.71600 40.27800
H  11.01500 53.09600 42.90900
H  11.63400 51.56700 42.12400
H  10.18000 51.53100 42.95600
H  8.74100 52.18300 38.63500
H  7.82600 50.74300 39.00300
H  9.35000 49.32700 38.67500
H  10.60500 50.18600 39.52700
H  11.23300 58.61600 38.96900
H  11.82900 56.99800 39.42000
H  12.17700 58.38300 40.31600
H  7.96600 61.54500 41.71400
H  7.54900 60.86500 40.01900
H  8.48900 62.29100 40.15700
H  3.90400 59.67400 41.94600
H  3.08200 58.00400 44.28200
H  3.97100 60.01300 44.75800
H  4.60500 61.19100 43.51000
H  5.63900 60.08800 44.11300
H  1.77900 57.23700 41.79600
H  1.83200 58.99900 41.85000
H  0.04900 59.05600 43.31400
H  0.87000 57.97300 44.39100
H  0.03300 57.31200 43.00000
H  1.44100 51.84100 43.67500
H  1.45300 53.52900 44.36000
H  2.25000 52.19100 45.15100
H  6.45000 49.80000 42.51300
H  6.13600 47.04300 39.32700
H  7.39400 48.13900 38.56300
H  5.59600 48.41500 38.42000

