158

Mg 49.01300 34.60000 27.57700
C  47.17700 33.55900 30.24200
C  49.70000 37.45800 29.38500
C  50.92900 35.81600 24.98000
C  47.81500 32.18000 25.63300
N  48.64900 35.26000 29.62700
C  47.95100 34.62700 30.62600
C  48.21900 35.20000 31.98100
C  48.55800 36.66400 31.51000
C  49.01700 36.49500 30.06600
C  47.34100 37.68400 31.69300
C  49.44000 34.45600 32.71200
C  49.44500 34.64800 34.28200
H  48.50400 35.62800 34.95600
N  50.22500 36.32700 27.27300
C  50.33100 37.41500 28.16900
C  51.20200 38.38000 27.58500
C  51.66800 37.83500 26.36300
C  50.94000 36.62500 26.12500
C  51.43700 39.72000 28.22800
C  52.76100 38.37000 25.33700
O  53.01900 37.87100 24.25000
C  53.57300 39.58100 25.68400
N  49.23900 34.13200 25.52900
C  50.10800 34.75000 24.71900
C  50.36000 33.92200 23.47400
C  49.40200 32.70100 23.61600
C  48.74500 33.01300 24.99000
C  50.27000 34.74900 22.08900
C  50.17800 31.34400 23.68700
C  49.30400 30.14400 23.15300
N  47.76800 33.00500 27.89500
C  47.29000 32.09700 26.94300
C  46.36700 31.17400 27.52900
C  46.34800 31.65600 28.89000
C  47.13200 32.80700 29.05000
C  45.81200 29.89900 26.92800
C  45.75800 31.45300 30.19300
O  44.95000 30.61100 30.58700
C  46.16300 32.68400 31.08900
C  46.68100 32.04200 32.33900
O  47.47700 31.15500 32.37300
O  46.26000 32.74000 33.44600
C  46.65900 32.08300 34.70400
H  49.94200 38.29200 30.04800
H  51.66500 36.01400 24.19800
H  47.40400 31.43100 24.95200
H  47.34500 35.15700 32.63000
H  49.36400 37.08800 32.10900
H  46.59300 37.24700 32.35400
H  46.93200 37.95200 30.71900
H  47.69100 38.65000 32.05700
H  50.38500 34.90500 32.40700
H  49.48800 33.45300 32.28800
H  50.44700 34.98700 34.54700
H  49.36800 33.65000 34.71400
H  52.45300 39.78200 28.61800
H  50.86500 39.97000 29.12100
H  51.22200 40.51800 27.51700
H  52.87300 40.36200 25.98200
H  54.21600 39.86100 24.84900
H  54.06400 39.12700 26.54500
H  51.39400 33.57600 23.48700
H  48.58300 32.78100 22.90100
H  51.24100 35.01800 21.67300
H  49.75600 35.70200 22.21000
H  49.60800 34.26200 21.37300
H  50.53200 31.24300 24.71300
H  51.00800 31.30400 22.98200
H  49.87900 29.62500 22.38700
H  48.37200 30.45700 22.68100
H  49.04200 29.44400 23.94600
H  46.48200 29.06300 27.12800
H  45.58400 29.99300 25.86600
H  44.88500 29.74400 27.48000
H  45.27900 33.24300 31.39600
H  46.34700 32.59700 35.61300
H  47.71600 31.83000 34.78300
H  46.03200 31.19800 34.81000
Mg 1.58000 41.77600 25.54000
C  3.69300 41.83300 28.31500
C  -1.09000 41.12300 27.48500
C  -0.04700 41.06000 22.68200
C  4.53700 42.40300 23.60900
N  1.37500 41.59000 27.64100
C  2.35100 41.59700 28.66400
C  1.75100 41.57000 30.10800
C  0.27400 41.14700 29.76400
C  0.13400 41.42300 28.23200
C  -0.23500 39.64800 30.17400
C  1.99600 42.92500 30.76800
C  2.10400 42.85900 32.31700
H  0.73100 43.00600 32.97300
N  -0.32000 41.28300 25.10800
C  -1.25800 41.07600 26.08100
C  -2.51300 40.67700 25.42500
C  -2.29500 40.65100 24.03800
C  -0.84200 40.94500 23.84800
C  -3.81400 40.37600 26.19000
C  -3.28200 40.27200 22.93300
O  -2.77500 40.14500 21.83300
C  -4.72100 40.06000 23.14700
N  2.09100 41.88100 23.42600
C  1.30000 41.38100 22.51800
C  2.02300 41.54200 21.15000
C  3.32300 42.31400 21.42500
C  3.36500 42.14300 22.86300
C  2.35700 40.11200 20.65100
C  3.20600 43.75800 21.03900
C  4.25400 44.44000 20.16400
N  3.64500 41.95300 25.81900
C  4.69800 42.27600 24.96500
C  5.97300 42.35200 25.65900
C  5.61800 42.12200 26.96700
C  4.21200 42.04900 27.01400
C  7.35000 42.63600 25.14500
C  6.11200 41.98900 28.33800
O  7.29000 41.86600 28.70800
C  4.86500 41.86000 29.31300
C  5.04900 40.67800 30.28900
O  4.86000 39.52500 30.04500
O  5.52800 41.17400 31.51300
C  5.33000 40.30000 32.69600
H  -1.95300 40.96400 28.13400
H  -0.56100 40.70400 21.78600
H  5.46900 42.59100 23.07200
H  2.28800 40.91500 30.79400
H  -0.37600 41.80800 30.33800
H  -0.92700 39.72300 31.01300
H  0.54800 38.95100 30.47200
H  -0.85100 39.25100 29.36600
H  1.10100 43.51900 30.58300
H  2.89300 43.44700 30.43400
H  2.78300 43.65000 32.63200
H  2.51200 41.88100 32.57200
H  -4.52900 41.13000 25.86300
H  -3.60100 40.43400 27.25800
H  -4.11900 39.36000 25.94000
H  -5.07100 41.06200 23.39600
H  -4.91500 39.27400 23.87700
H  -5.11400 39.73500 22.18400
H  1.39100 42.05200 20.42300
H  4.02500 41.77800 20.78600
H  2.99900 39.57500 21.34900
H  2.95200 40.21600 19.74400
H  1.56200 39.46500 20.27900
H  3.11500 44.40800 21.90900
H  2.19700 43.88000 20.64500
H  5.02700 43.73900 19.84900
H  4.62800 45.34400 20.64600
H  3.76700 44.82800 19.27000
H  7.38500 42.65100 24.05600
H  7.95300 41.93200 25.71900
H  7.63600 43.58500 25.59800
H  4.76900 42.81300 29.83500
H  4.66900 40.83300 33.37900
H  6.33500 40.20900 33.10900
H  4.90800 39.29600 32.65600

