158

Mg 54.44200 24.07600 44.50300
C  51.88100 26.26900 43.98700
C  52.53400 21.52600 43.32700
C  57.25000 21.96100 44.42100
C  56.57000 26.82100 45.46900
N  52.56700 23.94600 43.72700
C  51.64000 24.93100 43.51800
C  50.35500 24.49700 42.84900
C  50.45100 22.96500 43.11900
C  51.95200 22.77800 43.44600
C  49.53500 22.39500 44.24800
C  50.18200 24.81200 41.31900
C  48.68500 24.79600 40.76400
H  48.51500 24.15500 39.41600
N  54.82700 22.08800 43.90100
C  53.89900 21.19500 43.49100
C  54.48700 19.86500 43.33000
C  55.85100 20.06000 43.45300
C  56.06200 21.41100 43.88600
C  53.62400 18.58100 43.01700
C  56.91100 19.02300 43.29700
O  56.59200 17.85300 43.15200
C  58.37700 19.25800 43.35100
N  56.63000 24.39100 44.74600
C  57.50500 23.32100 44.83100
C  58.88600 23.85100 45.38800
C  58.66700 25.33800 45.66500
C  57.23200 25.59200 45.16900
C  59.38200 23.01500 46.60600
C  59.67900 26.40500 45.05100
C  60.46300 27.24700 46.07900
N  54.25300 26.14700 44.71000
C  55.17700 27.09600 45.22500
C  54.40900 28.29400 45.44300
C  53.12300 28.09900 44.97900
C  53.09600 26.75300 44.53600
C  54.99700 29.52000 46.14900
C  51.78600 28.67200 44.75200
O  51.29300 29.81100 44.95200
C  50.96500 27.50300 44.02600
C  50.66800 28.18400 42.72600
O  51.53800 28.59200 41.96400
O  49.35200 27.93100 42.36500
C  48.90900 28.54100 41.16900
H  51.79900 20.76000 43.07100
H  58.07900 21.27700 44.61400
H  57.18500 27.62300 45.88300
H  49.46900 24.71100 43.44700
H  50.30700 22.40100 42.19800
H  50.04200 22.34600 45.21200
H  49.21100 21.38800 43.98400
H  48.62100 22.99000 44.26700
H  50.65900 23.98900 40.78700
H  50.73200 25.71800 41.06700
H  48.31700 25.80500 40.57500
H  47.95000 24.34400 41.42900
H  53.71800 18.32100 41.96200
H  52.55500 18.71300 43.18400
H  53.89900 17.70200 43.60100
H  58.50200 20.06700 42.63200
H  58.85100 18.31700 43.07200
H  58.70100 19.52600 44.35700
H  59.52300 23.73300 44.51200
H  58.70300 25.47300 46.74600
H  58.57800 22.35000 46.92200
H  59.64600 23.65400 47.44900
H  60.28100 22.48300 46.29400
H  59.19400 27.10300 44.36900
H  60.52600 25.84500 44.65300
H  60.18500 26.94900 47.09000
H  60.31200 28.30100 45.84600
H  61.54600 27.30500 45.96700
H  54.41600 29.80400 47.02600
H  55.15500 30.39400 45.51700
H  55.98200 29.26500 46.54200
H  50.02500 27.31100 44.54200
H  48.79300 29.59900 41.40700
H  47.90000 28.17800 40.97200
H  49.57100 28.29200 40.34000
Mg 9.78600 47.95700 24.49300
C  7.43200 48.23900 27.20800
C  12.22700 49.15600 26.54200
C  11.88400 47.50500 22.05000
C  7.01200 47.56500 22.29600
N  9.72800 48.65500 26.61900
C  8.78200 48.48900 27.60700
C  9.32600 48.98500 29.01000
C  10.77600 49.43800 28.63000
C  10.94700 49.02600 27.14800
C  11.07600 50.95700 28.82000
C  9.24500 48.01100 30.19500
C  8.51700 48.36000 31.49400
H  8.51200 47.28400 32.56300
N  11.84400 48.22200 24.38400
C  12.68700 48.72800 25.30600
C  14.03800 48.64800 24.74400
C  14.00300 48.03800 23.44200
C  12.54100 47.84500 23.22700
C  15.19500 49.03700 25.51400
C  15.01800 47.55800 22.51300
O  14.71100 46.86600 21.54400
C  16.47200 47.94400 22.73400
N  9.43100 47.67400 22.43900
C  10.53100 47.51700 21.64600
C  10.08600 47.08800 20.26400
C  8.46300 47.13300 20.28100
C  8.30000 47.54100 21.74700
C  10.70700 47.94800 19.05500
C  7.84400 45.83700 19.80900
C  8.18100 44.51400 20.61400
N  7.69400 47.84200 24.65500
C  6.71400 47.68800 23.69300
C  5.45800 47.68200 24.32400
C  5.64000 47.95700 25.67400
C  7.05200 48.05900 25.82800
C  4.13600 47.43300 23.64300
C  5.04700 48.08500 27.00500
O  3.86000 47.92000 27.27100
C  6.11700 48.32800 28.02600
C  5.97200 47.27500 29.12300
O  6.38000 46.12900 28.99500
O  5.07600 47.77700 30.02200
C  5.00800 46.84000 31.20900
H  12.93900 49.61600 27.23100
H  12.52300 47.19500 21.22100
H  6.24800 47.39800 21.53400
H  8.74400 49.85500 29.31400
H  11.49400 48.82500 29.17500
H  11.12200 51.48600 27.86800
H  12.06300 51.19500 29.21500
H  10.39600 51.45000 29.51500
H  10.26700 47.65600 30.32700
H  8.65500 47.14700 29.88700
H  7.48300 48.56100 31.21500
H  8.99700 49.20900 31.98000
H  15.09200 49.59700 26.44300
H  15.76000 49.78300 24.95500
H  15.87000 48.20900 25.73300
H  16.49400 49.03100 22.65200
H  17.07300 47.43500 21.98100
H  16.93100 47.58300 23.65500
H  10.52600 46.10600 20.09000
H  8.05000 47.93000 19.66200
H  11.26400 48.79800 19.44800
H  9.84900 48.20700 18.43500
H  11.50300 47.36600 18.59100
H  8.16800 45.89500 18.76900
H  6.77300 46.03400 19.84800
H  7.26100 44.09400 21.02200
H  8.75700 44.81900 21.48800
H  8.81600 43.78200 20.11600
H  3.76500 48.39200 23.28100
H  3.52000 47.08600 24.47300
H  4.14200 46.70200 22.83400
H  6.10300 49.33100 28.45400
H  5.64500 45.96300 31.09600
H  3.96600 46.56600 31.37400
H  5.41600 47.35100 32.08100

