158

Mg 24.30300 -5.63800 46.35300
C  26.58700 -3.58700 44.71200
C  21.90500 -4.62900 44.18100
C  22.71800 -8.52400 47.06300
C  27.32100 -7.21700 47.79100
N  24.25700 -4.32300 44.71300
C  25.27700 -3.58900 44.21700
C  24.73800 -2.45200 43.25200
C  23.20900 -2.64900 43.40700
C  23.08400 -3.93200 44.13500
C  22.41000 -1.49300 44.09800
C  25.35700 -2.81400 41.82400
C  25.86100 -1.58100 41.00300
H  25.48200 -1.57400 39.51000
N  22.53600 -6.43600 45.87200
C  21.66400 -5.82300 44.99500
C  20.49800 -6.67100 44.80000
C  20.68400 -7.80500 45.69200
C  21.99700 -7.65000 46.26600
C  19.35100 -6.38800 43.80500
C  19.60400 -8.88800 45.94700
O  18.68000 -8.93200 45.20100
C  19.77000 -9.85600 46.96100
N  24.93600 -7.54700 47.45000
C  24.01500 -8.53200 47.58700
C  24.44600 -9.60300 48.55000
C  25.97100 -9.16000 48.78600
C  26.14200 -7.93300 47.93900
C  23.56200 -9.77300 49.83400
C  27.02800 -10.32400 48.44300
C  28.02300 -10.69400 49.53800
N  26.45200 -5.23500 46.57700
C  27.53900 -5.94500 47.15300
C  28.73000 -5.17900 46.93400
C  28.42000 -4.28100 45.95400
C  27.04000 -4.35200 45.75300
C  30.05500 -5.47800 47.55600
C  28.96900 -3.27500 45.06300
O  30.04300 -2.73300 44.96700
C  27.78300 -2.72100 44.32700
C  27.52300 -1.35400 44.64600
O  27.18800 -0.91500 45.77700
O  27.81600 -0.54200 43.53000
C  27.75500 0.87000 43.79500
H  21.14600 -4.38400 43.43500
H  22.28500 -9.51700 47.19800
H  28.26200 -7.57800 48.21100
H  25.13700 -1.52100 43.65500
H  22.63500 -2.77300 42.48800
H  23.01400 -0.60000 44.26200
H  22.16300 -1.85600 45.09600
H  21.55400 -1.25200 43.46800
H  24.49500 -3.25700 41.32400
H  26.13400 -3.57200 41.92400
H  26.94100 -1.46000 41.08700
H  25.41700 -0.69600 41.45800
H  19.13600 -7.24600 43.16900
H  19.57200 -5.46700 43.26600
H  18.46500 -6.24400 44.42400
H  20.17200 -9.19900 47.73200
H  20.51400 -10.55000 46.57100
H  18.79800 -10.29800 47.18200
H  24.47000 -10.49900 47.93000
H  26.01300 -8.80000 49.81400
H  22.64800 -9.18600 49.74400
H  24.18900 -9.56100 50.70000
H  23.44000 -10.85600 49.81300
H  27.63600 -10.00200 47.59800
H  26.51800 -11.22200 48.09200
H  28.13100 -11.77700 49.60000
H  27.62100 -10.41800 50.51300
H  28.87100 -10.09900 49.19900
H  30.80700 -4.70200 47.41200
H  30.26900 -6.35300 46.94100
H  30.00600 -5.79300 48.59800
H  27.97700 -2.80500 43.25700
H  28.32700 1.34200 42.99700
H  28.05400 1.21200 44.78600
H  26.71500 1.16100 43.64700
Mg -1.63100 34.88000 27.94500
C  -3.67900 32.93100 29.86700
C  -0.76800 36.65900 30.66600
C  0.08100 36.87800 25.86600
C  -2.79700 33.04500 25.04000
N  -2.39600 35.01200 29.93700
C  -3.05100 33.99300 30.56300
C  -2.99600 34.18000 32.09000
C  -2.28300 35.54400 32.30900
C  -1.81200 35.82100 30.91000
C  -3.13100 36.72200 32.89200
C  -2.20900 32.99500 32.77500
C  -2.90500 32.45400 34.05000
H  -2.19700 32.44500 35.42400
N  -0.48700 36.54400 28.21900
C  -0.23100 37.10000 29.42900
C  0.70600 38.11200 29.25600
C  0.92500 38.22300 27.88800
C  0.15500 37.20200 27.23500
C  1.19900 38.81200 30.52900
C  1.83400 39.23400 27.22900
O  2.04300 39.39700 26.04100
C  2.58400 40.12000 28.17700
N  -1.33300 34.83700 25.77900
C  -0.53500 35.84200 25.20000
C  -0.36600 35.52600 23.69300
C  -1.35900 34.35700 23.35900
C  -1.82300 34.02500 24.79900
C  -0.63900 36.77500 22.76100
C  -0.70700 33.07800 22.74800
C  -1.61000 32.29300 21.76500
N  -2.91100 33.35300 27.48300
C  -3.31100 32.72700 26.31000
C  -4.35800 31.75200 26.61500
C  -4.38200 31.75600 28.01400
C  -3.58000 32.74500 28.49700
C  -5.13900 31.08600 25.61500
C  -5.04300 31.04800 29.11000
O  -5.85000 30.14000 29.05300
C  -4.60300 31.87200 30.34100
C  -5.78000 32.51400 30.96200
O  -6.62300 33.18400 30.43900
O  -5.90400 32.00500 32.25000
C  -6.94900 32.57300 33.15200
H  -0.45700 37.15900 31.58600
H  0.79600 37.46700 25.28800
H  -3.12400 32.52600 24.13600
H  -4.01100 34.32600 32.45900
H  -1.47600 35.43300 33.03400
H  -3.66300 36.18700 33.67900
H  -3.66300 37.16500 32.05000
H  -2.49500 37.43200 33.42100
H  -1.17200 33.25100 32.99600
H  -2.00600 32.17900 32.08100
H  -3.08100 31.41200 33.78100
H  -3.85600 32.96000 34.21700
H  1.86500 38.10600 31.02500
H  0.40100 38.92500 31.26200
H  1.69900 39.78000 30.49300
H  3.13600 39.54700 28.92100
H  1.86000 40.85000 28.53900
H  3.20000 40.82800 27.62200
H  0.66600 35.24000 23.49000
H  -2.22800 34.68500 22.78800
H  -1.48200 36.60600 22.09100
H  0.23400 37.06500 22.17800
H  -0.96000 37.61800 23.37200
H  -0.47600 32.46300 23.61800
H  0.22500 33.35300 22.25500
H  -1.79700 31.35000 22.27900
H  -1.13400 31.94400 20.84900
H  -2.59200 32.71200 21.54800
H  -4.47800 30.51700 24.96100
H  -5.76000 31.83000 25.11700
H  -5.82300 30.37000 26.07100
H  -4.15400 31.31500 31.16400
H  -6.71200 33.42800 33.78600
H  -7.35000 31.75200 33.74600
H  -7.83000 32.90500 32.60100

