158

Mg 1.34300 -0.74900 43.87100
C  4.76300 -0.18800 43.23400
C  0.65100 2.13900 42.25100
C  -1.70700 -1.74100 43.57700
C  2.37200 -4.04900 44.88800
N  2.65400 0.71400 42.91000
C  4.02800 0.81500 42.78700
C  4.39600 2.12500 42.02600
C  3.07400 2.85100 41.81900
C  1.99900 1.84500 42.38900
C  2.95100 4.14000 42.68700
C  5.35300 2.00800 40.77700
C  5.09000 0.88500 39.74900
H  5.41700 1.26400 38.31200
N  -0.33000 0.12500 43.19100
C  -0.42700 1.28500 42.56600
C  -1.79900 1.63800 42.39800
C  -2.55200 0.52500 42.87500
C  -1.48500 -0.42900 43.21000
C  -2.34400 2.91300 41.78800
C  -4.04100 0.46500 43.09100
O  -4.72700 1.46800 43.04400
C  -4.94000 -0.72900 43.61800
N  0.55200 -2.65200 43.88100
C  -0.79200 -2.68100 43.92500
C  -1.24600 -4.08800 44.34800
C  -0.03900 -4.70300 45.07500
C  1.00600 -3.78300 44.52100
C  -2.59600 -4.19900 45.23100
C  0.14500 -6.24700 44.92100
C  0.37200 -7.05600 46.21200
N  3.19100 -1.86900 44.24300
C  3.42000 -3.10200 44.72500
C  4.81700 -3.28400 44.99800
C  5.36000 -2.13500 44.40000
C  4.34500 -1.32400 43.89100
C  5.55700 -4.45600 45.61300
C  6.63300 -1.53900 44.07500
O  7.79500 -1.90100 44.29300
C  6.28100 -0.28000 43.25800
C  7.03400 0.89300 43.88500
O  6.57100 1.50300 44.82600
O  8.27800 1.05100 43.41800
C  9.19100 1.85900 44.26000
H  0.35300 3.09300 41.80900
H  -2.77600 -1.95300 43.64500
H  2.64300 -4.93900 45.46100
H  5.03500 2.57000 42.78900
H  3.05800 2.98700 40.73800
H  2.16500 4.03000 43.43400
H  2.63900 4.98100 42.06900
H  3.90900 4.39900 43.13800
H  6.36700 1.84200 41.14000
H  5.31200 3.02500 40.38900
H  4.09000 0.45800 39.83200
H  5.63500 -0.01200 40.04300
H  -3.36900 2.73300 41.46400
H  -1.70800 3.24000 40.96500
H  -2.63800 3.70600 42.47500
H  -4.80700 -1.57100 42.93800
H  -5.98800 -0.44600 43.51600
H  -4.55400 -0.87800 44.62600
H  -1.47500 -4.66100 43.45000
H  -0.14000 -4.31700 46.08900
H  -2.53500 -3.32700 45.88300
H  -2.38200 -5.07300 45.84500
H  -3.59700 -4.22700 44.80100
H  1.06800 -6.49100 44.39400
H  -0.65800 -6.73300 44.36600
H  0.41000 -6.39600 47.07900
H  1.20300 -7.76000 46.25500
H  -0.52600 -7.66000 46.34100
H  5.32400 -5.31800 44.98800
H  5.04800 -4.59600 46.56700
H  6.63500 -4.30200 45.63800
H  6.68400 -0.35500 42.24800
H  9.86800 2.49600 43.69000
H  9.71800 1.09900 44.83600
H  8.74200 2.60400 44.91700
Mg 37.17600 50.14100 24.73200
C  36.86100 48.52400 27.91600
C  36.17000 53.08100 26.27300
C  37.29600 51.49600 21.72800
C  37.61600 46.96600 23.33600
N  36.53600 50.75500 26.89600
C  36.61400 49.93500 28.06100
C  36.24000 50.74000 29.34800
C  35.91400 52.19100 28.76300
C  36.19200 52.02700 27.21100
C  34.56000 52.75400 29.20200
C  37.34100 50.78800 30.39900
C  37.09500 50.01600 31.72100
H  35.80300 50.32900 32.36100
N  36.72200 52.02800 24.04100
C  36.41000 53.12400 24.80600
C  36.37700 54.27100 23.95500
C  36.76900 53.79600 22.67500
C  36.97900 52.38900 22.76500
C  36.02900 55.75200 24.40400
C  37.00300 54.61400 21.34300
O  37.58800 54.14700 20.35900
C  36.62300 56.04600 21.21000
N  37.34700 49.31700 22.87600
C  37.50900 50.10700 21.83400
C  37.78400 49.25200 20.51900
C  38.07300 47.88300 21.08400
C  37.64000 48.01500 22.51900
C  36.62100 49.29800 19.40700
C  39.61000 47.49600 21.06400
C  40.15700 46.24600 20.43400
N  37.25700 48.13300 25.37800
C  37.48500 46.90100 24.72300
C  37.60300 45.78900 25.65100
C  37.34500 46.42200 26.86900
C  37.14800 47.80400 26.68600
C  37.75300 44.40800 25.36500
C  37.34200 46.09600 28.29800
O  37.57100 45.01400 28.93500
C  36.95300 47.43200 28.98700
C  35.62600 47.27900 29.62100
O  34.52300 47.57400 29.13700
O  35.81200 46.47600 30.79600
C  34.60100 45.97200 31.46400
H  35.88500 54.06800 26.64200
H  37.43700 51.93700 20.73900
H  37.82700 46.03300 22.80800
H  35.38600 50.26500 29.83100
H  36.57700 52.99600 29.07800
H  33.89900 52.01900 29.66100
H  34.03000 52.90900 28.26200
H  34.64400 53.65100 29.81400
H  37.51900 51.80600 30.74600
H  38.28500 50.35700 30.06500
H  37.85400 50.25600 32.46500
H  37.20300 48.94100 31.57400
H  35.68300 55.92300 25.42300
H  35.33900 56.11500 23.64200
H  36.94400 56.34400 24.37400
H  36.77400 56.63800 22.11300
H  35.53800 56.01800 21.11600
H  37.18500 56.52300 20.40700
H  38.67500 49.76700 20.16200
H  37.45300 47.11800 20.61700
H  36.90600 49.81600 18.49100
H  35.78400 49.87500 19.79900
H  36.18500 48.31800 19.21300
H  39.97600 47.43500 22.08900
H  40.23500 48.28600 20.64600
H  40.00300 45.44700 21.15900
H  41.21900 46.30500 20.19600
H  39.64700 46.19100 19.47200
H  38.40000 44.25400 24.50100
H  36.81900 43.89000 25.14900
H  38.18400 43.88400 26.21800
H  37.64400 47.72100 29.77900
H  34.05200 46.71900 32.03700
H  34.63800 45.10000 32.11600
H  33.81600 45.73500 30.74500

