158

Mg 54.65200 23.84000 44.73300
C  52.18200 26.09900 43.51300
C  53.13100 21.31300 43.01400
C  57.58900 21.98400 44.94700
C  56.48500 26.55500 45.92700
N  52.85700 23.78800 43.46600
C  51.95700 24.79500 43.10800
C  50.91900 24.22100 42.18900
C  51.04900 22.64900 42.26700
C  52.37400 22.54100 43.04100
C  49.92200 22.12200 43.13300
C  51.29400 24.74500 40.68800
C  50.12800 25.16200 39.77500
H  50.63200 25.55700 38.34000
N  55.20300 21.86900 44.23500
C  54.44000 20.95500 43.50400
C  55.08700 19.68800 43.57300
C  56.37000 19.91300 44.13100
C  56.38100 21.32400 44.51800
C  54.52000 18.52600 42.88900
C  57.42300 18.87000 44.32200
O  57.27800 17.70800 43.96300
C  58.64200 19.10700 45.18500
N  56.82200 24.27700 45.29800
C  57.78600 23.33900 45.25400
C  59.07800 23.90900 45.81800
C  58.74500 25.38000 45.96200
C  57.25000 25.43400 45.75600
C  59.39100 23.27300 47.17700
C  59.64400 26.31400 44.93200
C  59.94200 27.60400 45.67600
N  54.43900 25.88700 44.79300
C  55.19700 26.85700 45.45600
C  54.36700 28.03700 45.67700
C  53.27800 27.80400 44.79900
C  53.29300 26.49800 44.35000
C  54.61000 29.25900 46.39400
C  52.08600 28.45900 44.25100
O  51.61300 29.57300 44.27800
C  51.35700 27.34200 43.45800
C  51.16700 27.94200 42.06800
O  52.02400 28.47600 41.39900
O  49.87700 27.74500 41.72800
C  49.41300 28.48100 40.58500
H  52.54600 20.55500 42.49000
H  58.52600 21.43300 45.05400
H  56.94200 27.42500 46.40300
H  49.90200 24.51500 42.44600
H  51.16700 22.13700 41.31200
H  48.96100 22.58600 42.91000
H  50.24200 22.38000 44.14300
H  49.80600 21.04700 42.99500
H  51.81400 23.94500 40.16000
H  52.05100 25.52000 40.80200
H  49.61600 26.00500 40.24000
H  49.44600 24.31200 39.74300
H  55.01400 18.41400 41.92400
H  53.45700 18.72400 42.75200
H  54.74300 17.65800 43.51000
H  58.32600 19.65500 46.07300
H  59.43400 19.54900 44.58000
H  59.05000 18.11300 45.36600
H  59.96000 23.87400 45.17800
H  58.86300 25.61800 47.01900
H  60.40500 23.60200 47.40600
H  59.36100 22.18400 47.17600
H  58.70600 23.68300 47.91900
H  59.08000 26.63300 44.05500
H  60.53600 25.83900 44.52300
H  59.26600 28.42600 45.43800
H  60.95200 27.96500 45.47900
H  59.89600 27.50000 46.76000
H  53.86800 29.37600 47.18500
H  54.55800 30.17300 45.80200
H  55.60800 29.14900 46.82000
H  50.35800 27.09100 43.81400
H  49.30700 29.54700 40.78400
H  48.41100 28.11700 40.35700
H  50.01900 28.24900 39.70900
Mg -6.73500 25.51200 25.83900
C  -5.24300 27.12600 28.52000
C  -8.41400 23.45400 27.82500
C  -8.35400 24.36600 23.13900
C  -5.18300 27.94500 23.63700
N  -6.75000 25.42500 27.90700
C  -6.13000 26.10100 28.88900
C  -6.56200 25.76400 30.33300
C  -7.47400 24.50800 29.96400
C  -7.49900 24.41300 28.46100
C  -7.08700 23.22700 30.67000
C  -7.11200 26.92200 31.23100
C  -8.12400 26.57800 32.31800
H  -7.72300 25.67200 33.51700
N  -8.18100 24.04000 25.54900
C  -8.76500 23.28700 26.50300
C  -9.64100 22.38100 25.85700
C  -9.71100 22.75500 24.45000
C  -8.69400 23.74700 24.34000
C  -10.44000 21.32700 26.56300
C  -10.61700 22.21500 23.37800
O  -10.50400 22.57300 22.20100
C  -11.52200 21.10200 23.62300
N  -6.74100 26.05700 23.71700
C  -7.56500 25.42900 22.80200
C  -7.63500 26.09200 21.38400
C  -6.57100 27.19800 21.56100
C  -6.07200 27.02100 23.05300
C  -7.36700 25.15700 20.17600
C  -7.03100 28.72400 21.28200
C  -7.52900 29.06500 19.85600
N  -5.28700 27.06900 25.94900
C  -4.73600 27.93300 25.03800
C  -3.88900 28.89300 25.74100
C  -4.03600 28.56200 27.07700
C  -4.90000 27.48000 27.14600
C  -3.18400 30.01800 25.12700
C  -3.70400 28.92900 28.40700
O  -3.06600 29.86900 28.88300
C  -4.54300 28.08200 29.38700
C  -3.61500 27.26800 30.21300
O  -2.77800 26.48300 29.83700
O  -3.81500 27.65200 31.56100
C  -2.94700 27.18700 32.57300
H  -9.09500 22.82300 28.40000
H  -8.87300 24.01600 22.24400
H  -4.78900 28.73500 22.99400
H  -5.63700 25.34100 30.72500
H  -8.53800 24.65800 30.14300
H  -7.96900 22.79800 31.14600
H  -6.30200 23.34900 31.41600
H  -6.78800 22.41800 30.00400
H  -7.43300 27.72000 30.56200
H  -6.28700 27.25800 31.86000
H  -9.07200 26.24500 31.89600
H  -8.28900 27.51600 32.84800
H  -11.46800 21.29700 26.20200
H  -10.38100 21.53700 27.63100
H  -9.93700 20.36200 26.49600
H  -11.00300 20.33100 24.19300
H  -12.02100 20.87400 22.68100
H  -12.25500 21.41400 24.36800
H  -8.62900 26.51600 21.23700
H  -5.68300 27.05400 20.94600
H  -8.34800 25.05300 19.71100
H  -7.05500 24.20700 20.61100
H  -6.61600 25.46900 19.45200
H  -6.20000 29.36600 21.57700
H  -7.72700 29.13400 22.01400
H  -7.82700 28.16700 19.31400
H  -6.79200 29.69800 19.36300
H  -8.50000 29.56000 19.88500
H  -3.42700 30.27500 24.09600
H  -2.10700 29.98500 25.29100
H  -3.51200 30.84200 25.76000
H  -5.07600 28.71800 30.09300
H  -2.63400 26.15400 32.41700
H  -3.42100 27.18700 33.55500
H  -2.05600 27.81000 32.49200

