158

Mg 25.47700 0.52500 28.85500
C  27.46200 0.34000 31.62200
C  22.70700 0.99400 30.82300
C  23.75800 0.46000 25.96600
C  28.38600 -0.38100 26.87100
N  25.12400 0.55900 31.00600
C  26.10100 0.64000 31.93300
C  25.51200 1.01500 33.35000
C  23.94600 1.10800 33.00900
C  23.89700 0.87200 31.52000
C  23.05600 0.21500 33.90400
C  26.14800 2.32000 33.98300
C  25.59500 2.71500 35.38400
H  26.42000 2.36700 36.64200
N  23.51400 0.64800 28.43000
C  22.52100 0.91300 29.38700
C  21.21000 1.01900 28.73300
C  21.46000 0.62100 27.36700
C  22.98900 0.57300 27.19200
C  19.99800 1.37200 29.50400
C  20.48200 0.41100 26.21900
O  20.80100 -0.10400 25.12700
C  19.07500 0.72800 26.48100
N  26.03200 0.23000 26.67800
C  25.11100 0.37700 25.64700
C  25.66700 0.19400 24.26000
C  27.13500 0.04300 24.61500
C  27.25500 -0.12000 26.10600
C  25.02200 -0.90200 23.33700
C  28.19500 1.05400 24.07800
C  29.48600 0.51200 23.46700
N  27.50800 0.06600 29.13900
C  28.47900 -0.33400 28.23900
C  29.62400 -0.79800 29.06300
C  29.29300 -0.39200 30.35600
C  27.96300 0.05700 30.35400
C  30.81900 -1.42300 28.55500
C  29.80000 -0.42100 31.72000
O  30.90700 -0.73700 32.15900
C  28.59100 -0.05300 32.61000
C  28.09200 -1.22200 33.39700
O  27.19200 -1.91000 33.04100
O  28.55500 -1.11800 34.64700
C  28.13200 -2.11900 35.63100
H  21.94800 1.21700 31.57600
H  23.00900 0.48600 25.17200
H  29.25100 -0.67500 26.27200
H  25.64100 0.21700 34.08200
H  23.65200 2.15400 33.09400
H  22.45400 -0.50500 33.35000
H  22.36900 0.89500 34.40800
H  23.56600 -0.24100 34.75300
H  25.94400 3.20200 33.37600
H  27.22800 2.20100 34.07800
H  24.59800 2.31300 35.56600
H  25.53100 3.80000 35.46100
H  19.34300 2.08400 29.00300
H  20.28900 1.87100 30.42800
H  19.35400 0.50600 29.65800
H  18.87200 0.04800 27.30800
H  18.40500 0.53700 25.64300
H  18.97800 1.67100 27.01900
H  25.60400 1.16500 23.76700
H  27.40900 -0.94800 24.25400
H  24.64600 -1.76200 23.89200
H  25.69100 -1.36000 22.60900
H  24.26700 -0.50500 22.65900
H  28.46200 1.78900 24.83800
H  27.80200 1.67100 23.27000
H  29.60600 0.94600 22.47400
H  29.35200 -0.57000 23.46700
H  30.37000 0.77800 24.04700
H  30.49000 -2.25100 27.92600
H  31.51200 -1.83100 29.29000
H  31.23400 -0.60000 27.97400
H  28.85100 0.83900 33.18100
H  28.96200 -2.57100 36.17500
H  27.66700 -2.99100 35.17200
H  27.44000 -1.72900 36.37700
Mg 35.98700 49.98300 25.25800
C  35.91000 48.08800 28.21700
C  34.89600 52.61700 27.03800
C  35.72100 51.55100 22.31300
C  37.00100 47.01200 23.68400
N  35.29700 50.23800 27.37000
C  35.36400 49.35700 28.38600
C  34.91600 50.04500 29.72100
C  34.38000 51.43700 29.19500
C  35.04200 51.43100 27.75700
C  32.85700 51.61900 29.27300
C  36.17000 50.23300 30.69300
C  36.11200 49.56700 32.07500
H  34.82400 49.31400 32.80700
N  35.31800 51.81800 24.75300
C  34.95300 52.79400 25.60000
C  34.58800 54.03300 24.92400
C  34.95600 53.74500 23.57200
C  35.33600 52.29600 23.43900
C  34.12600 55.28700 25.57800
C  34.93100 54.69700 22.40100
O  35.40200 54.39900 21.30000
C  34.39100 56.07000 22.65900
N  36.28100 49.35600 23.28200
C  36.07700 50.26300 22.22500
C  36.45400 49.59000 20.95700
C  36.74700 48.14600 21.32700
C  36.73400 48.14900 22.87200
C  35.56700 49.74400 19.75300
C  38.12400 47.50400 20.81300
C  39.36700 47.95200 21.70700
N  36.38600 47.94600 25.80100
C  36.81300 46.88100 25.03200
C  36.97500 45.73900 25.85500
C  36.64400 46.19500 27.08100
C  36.37100 47.56800 27.01400
C  37.27500 44.36700 25.44800
C  36.44600 45.73900 28.44300
O  36.65500 44.66100 28.93100
C  36.02400 46.96100 29.25000
C  34.65000 46.50100 29.89300
O  33.51100 46.74300 29.51000
O  34.92000 45.77200 31.01200
C  33.67900 45.36600 31.79700
H  34.51100 53.39200 27.70400
H  35.67000 51.97300 21.30700
H  37.35200 46.10900 23.18100
H  34.13800 49.42800 30.17200
H  34.87500 52.24900 29.72700
H  32.32800 50.74100 29.64500
H  32.53300 51.89200 28.26900
H  32.53200 52.39200 29.96900
H  36.52300 51.26100 30.77000
H  36.97000 49.60800 30.29600
H  36.74000 50.10500 32.78500
H  36.57300 48.59600 31.89300
H  33.36000 55.82800 25.02200
H  35.00300 55.92500 25.68600
H  33.69800 55.11100 26.56500
H  34.90600 56.73100 23.35700
H  33.35100 55.85900 22.91200
H  34.38900 56.53700 21.67500
H  37.41500 50.08500 20.81900
H  35.91000 47.49700 21.06900
H  34.62400 50.16900 20.09700
H  35.36400 48.77700 19.29300
H  36.02600 50.48100 19.09400
H  38.32500 47.75200 19.77100
H  37.89100 46.44200 20.89100
H  39.76800 47.01600 22.09600
H  39.22400 48.57300 22.59200
H  40.08800 48.45300 21.06100
H  37.62300 44.21800 24.42500
H  36.47500 43.65500 25.65100
H  38.07300 43.93300 26.05000
H  36.82400 47.10500 29.97700
H  34.07400 44.84100 32.66700
H  33.05300 44.69600 31.20800
H  33.04100 46.20000 32.09000

