158

Mg 27.10500 50.23800 26.66500
C  25.12800 51.29600 29.23200
C  29.58300 49.57200 28.88800
C  29.16100 49.57600 23.99900
C  24.73900 51.46900 24.39500
N  27.30600 50.30300 28.83300
C  26.36200 50.74700 29.64800
C  26.79100 50.55800 31.18000
C  28.31800 50.24400 31.10800
C  28.45300 50.02700 29.59300
C  29.16300 51.40500 31.75100
C  25.90700 49.46500 31.90300
C  25.17900 50.01200 33.15900
H  24.99400 49.05500 34.38000
N  29.00100 49.50200 26.48700
C  29.84400 49.30000 27.53000
C  31.01300 48.60900 26.99900
C  30.97200 48.71700 25.61400
C  29.69900 49.26600 25.29100
C  31.99000 47.91700 27.93200
C  32.04800 48.34500 24.59500
O  32.00200 48.75000 23.44100
C  33.30700 47.70900 25.09300
N  26.91400 50.37800 24.53700
C  27.88000 50.10400 23.63400
C  27.35500 50.19700 22.16400
C  25.86700 50.57400 22.33800
C  25.81000 50.84100 23.83700
C  28.21100 50.97500 21.15200
C  24.78600 49.57500 21.78800
C  24.08700 49.99800 20.47400
N  25.42600 51.34200 26.72800
C  24.53700 51.68400 25.75100
C  23.34700 52.31800 26.33500
C  23.52800 52.18400 27.69800
C  24.84800 51.58200 27.91300
C  22.10600 52.80700 25.55600
C  22.94200 52.35500 28.98800
O  21.85900 52.86000 29.30900
C  23.89100 51.83700 30.05300
C  24.34800 52.96500 30.94400
O  25.36300 53.63500 30.74300
O  23.46900 53.04200 32.04300
C  23.77400 54.20000 32.97100
H  30.40400 49.30800 29.55800
H  29.71000 49.30400 23.09500
H  23.88100 51.75600 23.78400
H  26.68700 51.52300 31.67500
H  28.42200 49.37500 31.75700
H  29.74600 50.97000 32.56300
H  28.55400 52.24700 32.07600
H  29.94500 51.61000 31.01900
H  26.49000 48.62800 32.28500
H  25.06900 49.17800 31.26700
H  24.21400 50.40700 32.84100
H  25.68500 50.88900 33.56200
H  32.98100 48.36900 27.89200
H  32.23500 46.88300 27.68600
H  31.70400 47.95500 28.98300
H  33.89800 47.45000 24.21500
H  33.04500 46.82200 25.67100
H  33.81700 48.40800 25.75600
H  27.49200 49.14900 21.89800
H  25.81300 51.49800 21.76200
H  29.04100 51.48900 21.63700
H  27.76800 51.74300 20.51800
H  28.51400 50.26200 20.38400
H  24.08800 49.33700 22.59100
H  25.31600 48.67100 21.48600
H  23.98700 49.18200 19.75800
H  24.53100 50.85900 19.97500
H  23.08800 50.33900 20.74600
H  22.02700 53.88100 25.72500
H  21.15300 52.35400 25.82900
H  22.18800 52.65200 24.48100
H  23.50600 51.00200 30.63900
H  23.57900 53.85100 33.98500
H  23.20600 55.09500 32.71900
H  24.83600 54.44200 33.01800
Mg 6.79800 53.95500 41.65700
C  6.18200 50.51000 41.55500
C  10.04300 53.38200 40.49300
C  6.93300 57.18100 40.81700
C  3.32000 54.30600 42.31700
N  7.82700 52.12700 40.90900
C  7.49000 50.84300 41.10600
C  8.69200 49.89600 40.96600
C  9.81800 50.92400 41.14600
C  9.19800 52.21900 40.75600
C  10.65400 51.00300 42.49300
C  8.74100 48.95800 39.63800
C  8.78800 49.79700 38.35600
H  7.76200 49.40800 37.27200
N  8.23600 55.13800 40.73500
C  9.54800 54.67700 40.36900
C  10.26000 55.80200 39.91600
C  9.33600 56.88200 39.76600
C  8.08700 56.43400 40.42100
C  11.66400 55.75200 39.29700
C  9.62100 58.17300 39.07600
O  10.73900 58.35900 38.62000
C  8.42500 59.20300 38.82200
N  5.34600 55.43500 41.59100
C  5.77100 56.71200 41.35300
C  4.58100 57.78400 41.65600
C  3.37200 56.79600 41.64200
C  4.04100 55.47900 41.87400
C  4.83000 58.49400 43.03300
C  2.35100 56.72200 40.48700
C  0.91200 56.38000 40.85100
N  5.12800 52.75200 42.09100
C  3.80900 53.01800 42.46000
C  3.04600 51.78200 42.76500
C  3.98300 50.78500 42.34600
C  5.18900 51.42000 41.90100
C  1.67100 51.63000 43.21200
C  4.12500 49.37500 42.25500
O  3.28500 48.52600 42.57500
C  5.58700 49.06400 41.73800
C  5.39200 48.39400 40.49200
O  4.85600 48.92300 39.48800
O  5.75300 47.14500 40.59500
C  5.51900 46.20700 39.41500
H  11.12900 53.26800 40.48300
H  6.90600 58.27200 40.77700
H  2.25900 54.43900 42.53700
H  8.62600 49.14900 41.75700
H  10.55200 50.65300 40.38700
H  10.71200 52.01300 42.89800
H  11.66700 50.61300 42.39100
H  10.24200 50.37300 43.28100
H  7.93700 48.22300 39.65500
H  9.67200 48.39400 39.69400
H  9.76600 49.79500 37.87400
H  8.74000 50.86100 38.59000
H  11.61300 55.98600 38.23400
H  12.16000 54.79000 39.41900
H  12.23100 56.58900 39.70400
H  7.61200 58.55700 38.48900
H  8.70400 59.83100 37.97600
H  8.25000 59.74300 39.75300
H  4.45000 58.56500 40.90600
H  2.81000 56.94500 42.56400
H  3.88000 58.50200 43.56700
H  5.15000 59.53500 42.97400
H  5.45900 57.97700 43.75800
H  2.57300 55.86700 39.84700
H  2.45300 57.63000 39.89300
H  0.90500 56.01600 41.87900
H  0.60400 55.53000 40.24200
H  0.30400 57.23500 40.55600
H  1.58600 50.66200 43.70600
H  1.14800 51.55900 42.25800
H  1.56400 52.51200 43.84200
H  6.24000 48.40000 42.30400
H  6.48000 45.74500 39.19100
H  5.25200 46.63300 38.44800
H  4.69200 45.52800 39.62400

