158

Mg 24.01400 -6.62300 46.70200
C  26.20000 -4.38000 45.09500
C  21.45500 -5.50200 44.83000
C  22.48600 -9.58500 47.13000
C  27.04000 -8.04700 48.08900
N  23.92800 -5.19700 45.19300
C  24.89900 -4.37100 44.68100
C  24.26800 -3.30700 43.78600
C  22.75500 -3.42400 44.02200
C  22.64300 -4.82700 44.76200
C  21.94400 -2.22500 44.75100
C  24.61600 -3.60600 42.28900
C  25.18400 -2.34700 41.52900
H  24.75600 -2.28300 40.07800
N  22.04900 -7.36400 46.23100
C  21.15800 -6.69100 45.49700
C  19.97700 -7.41900 45.46500
C  20.21300 -8.67300 46.20000
C  21.61400 -8.58800 46.58900
C  18.72000 -6.95500 44.74600
C  19.12000 -9.66000 46.51300
O  17.98600 -9.52200 46.05000
C  19.29100 -10.64400 47.66900
N  24.64200 -8.53800 47.60700
C  23.81100 -9.62100 47.62000
C  24.45100 -10.86300 48.32700
C  25.89200 -10.31700 48.68900
C  25.84600 -8.86700 48.11100
C  23.58000 -11.38200 49.45300
C  27.15300 -11.10900 48.25200
C  28.41500 -11.07900 49.14000
N  26.19700 -6.19600 46.81700
C  27.28700 -6.84300 47.41600
C  28.43500 -6.06300 47.23900
C  28.09900 -5.10300 46.22600
C  26.73300 -5.24300 45.99300
C  29.74500 -6.30500 47.86800
C  28.62800 -4.05900 45.38300
O  29.75000 -3.58600 45.16600
C  27.37000 -3.53600 44.57200
C  27.27900 -2.05700 44.76700
O  27.51300 -1.23600 43.86000
O  26.71300 -1.69000 45.99800
C  26.83500 -0.22600 46.23800
H  20.57300 -5.18400 44.27100
H  22.07500 -10.59400 47.05100
H  27.92900 -8.54000 48.48600
H  24.68100 -2.35700 44.12500
H  22.37800 -3.48300 43.00100
H  21.28700 -1.84100 43.97000
H  22.61800 -1.41700 45.03700
H  21.31800 -2.57500 45.57100
H  23.88100 -4.17800 41.72300
H  25.47900 -4.26300 42.18700
H  26.26600 -2.33900 41.65800
H  24.71300 -1.47500 41.98300
H  18.10700 -7.71100 44.25600
H  19.01000 -6.26000 43.95800
H  18.11100 -6.33400 45.40300
H  19.88400 -10.25000 48.49400
H  19.78400 -11.50800 47.22300
H  18.33600 -10.99400 48.06000
H  24.64000 -11.70200 47.65600
H  26.00000 -10.18900 49.76600
H  23.18900 -12.37700 49.24500
H  22.71600 -10.72000 49.50900
H  24.04400 -11.27300 50.43300
H  27.31500 -10.83900 47.20800
H  26.80400 -12.13900 48.31900
H  29.31800 -11.10700 48.53000
H  28.33800 -12.08400 49.55600
H  28.45200 -10.31500 49.91600
H  30.30000 -7.01800 47.25800
H  29.67900 -6.49800 48.93900
H  30.22100 -5.34800 47.65100
H  27.57700 -3.67900 43.51100
H  27.79000 0.24800 46.00900
H  26.80700 -0.03600 47.31100
H  25.98900 0.29800 45.79400
Mg 16.03200 52.44400 25.16300
C  17.80200 51.35600 27.84700
C  13.42900 53.19600 27.21900
C  14.28500 53.31500 22.43900
C  18.65600 51.36600 23.01300
N  15.59100 52.11400 27.28700
C  16.55600 51.81700 28.18900
C  16.02000 52.05700 29.59600
C  14.47500 52.47300 29.40000
C  14.50900 52.62400 27.87800
C  13.39600 51.46400 29.97700
C  16.80600 53.27500 30.20000
C  16.50300 53.44600 31.70800
H  15.74400 52.47000 32.51200
N  14.08700 53.18200 24.88100
C  13.10900 53.38300 25.86200
C  11.88300 53.86300 25.21700
C  12.09500 53.81700 23.78500
C  13.51900 53.39900 23.64200
C  10.72800 54.35700 25.98100
C  11.17200 54.19100 22.64000
O  11.43600 53.92300 21.46200
C  9.81600 54.75200 22.79500
N  16.56400 52.45700 23.04400
C  15.62600 52.92800 22.17000
C  16.21100 52.86200 20.72400
C  17.63700 52.29400 20.99400
C  17.64300 52.06400 22.44200
C  15.32700 52.01400 19.73900
C  18.76400 53.27800 20.44800
C  18.81300 54.60300 21.13500
N  17.82600 51.48000 25.28100
C  18.78700 51.06600 24.36900
C  19.94000 50.52000 25.06700
C  19.60400 50.60500 26.44400
C  18.32900 51.14100 26.52200
C  21.25900 50.07000 24.46900
C  19.98900 50.26600 27.83900
O  20.96200 49.62500 28.28300
C  18.88800 50.79800 28.75600
C  18.32200 49.75600 29.64800
O  17.64500 48.73300 29.32000
O  18.83000 50.03700 30.92200
C  18.58600 49.00900 31.92100
H  12.60700 53.57300 27.83100
H  13.68600 53.70500 21.61300
H  19.43700 51.05400 22.31600
H  16.06900 51.12500 30.15800
H  14.33500 53.42000 29.92100
H  12.67400 51.96500 30.62300
H  13.88900 50.69000 30.56500
H  12.90000 51.03300 29.10800
H  16.43300 54.13600 29.64500
H  17.86600 53.07100 30.04900
H  15.85100 54.31900 31.72400
H  17.44700 53.71100 32.18500
H  9.80500 53.81700 25.77300
H  10.55800 55.40400 25.72900
H  10.81900 54.41200 27.06600
H  10.08500 55.76700 23.08900
H  9.19800 54.18800 23.49400
H  9.16600 54.71700 21.92100
H  16.23900 53.85000 20.26400
H  17.86600 51.44400 20.35200
H  14.33500 51.81600 20.14600
H  15.83500 51.10200 19.42600
H  15.07200 52.59600 18.85300
H  18.51000 53.38100 19.39300
H  19.73700 52.82600 20.64200
H  17.85200 55.07900 21.32900
H  19.34000 55.29200 20.47400
H  19.35700 54.67600 22.07600
H  22.09900 50.69600 24.76900
H  21.17500 50.12500 23.38400
H  21.45900 49.06300 24.83600
H  19.35300 51.65400 29.24400
H  17.61700 49.05800 32.41600
H  19.34500 48.95400 32.70200
H  18.65200 48.03300 31.44000

