158

Mg 41.57400 7.95100 29.77700
C  43.25600 9.39700 32.45400
C  39.43800 6.44400 31.99000
C  39.82200 6.78800 27.12500
C  44.02800 9.07200 27.56000
N  41.53400 7.73200 31.99900
C  42.13100 8.59600 32.89700
C  41.57200 8.36300 34.37100
C  40.43600 7.29100 34.15600
C  40.50000 7.06400 32.61700
C  40.61100 5.90600 34.89500
C  41.12700 9.73300 34.83500
C  40.93700 9.92500 36.35200
H  41.62400 11.04500 37.11100
N  39.80000 7.01000 29.61200
C  39.06100 6.41700 30.59400
C  37.79800 6.00000 30.06900
C  37.86100 6.19300 28.63000
C  39.14900 6.70400 28.37700
C  36.64100 5.48400 30.89800
C  36.74200 6.03500 27.63700
O  36.88200 6.18000 26.42900
C  35.33900 5.77400 28.17200
N  41.94400 7.86600 27.64100
C  41.08600 7.31900 26.79300
C  41.60500 7.47500 25.30300
C  42.76400 8.55100 25.45500
C  42.96000 8.49700 26.96500
C  41.95500 6.16600 24.63000
C  42.59700 9.98000 24.87100
C  41.33600 10.73900 25.13600
N  43.32500 8.89800 29.91400
C  44.23200 9.31500 28.89500
C  45.35000 10.03000 29.57700
C  44.97500 10.13000 30.91400
C  43.81800 9.38700 31.09500
C  46.52700 10.53800 28.81100
C  45.33200 10.75800 32.17700
O  46.32100 11.51700 32.41800
C  44.28500 10.29500 33.20400
C  45.02900 9.64300 34.36600
O  45.98900 8.89300 34.29600
O  44.48000 10.11500 35.51200
C  44.98500 9.74300 36.88900
H  38.66700 6.26300 32.74200
H  39.32000 6.50100 26.19900
H  44.77000 9.39800 26.82900
H  42.33900 8.00800 35.06000
H  39.44100 7.58400 34.49200
H  39.84800 5.81400 35.66800
H  41.56300 5.77400 35.40900
H  40.39400 5.08800 34.20800
H  40.21200 9.89300 34.26500
H  41.78200 10.57200 34.60200
H  41.17000 8.92400 36.71600
H  39.90400 10.27100 36.35300
H  36.68700 4.41700 30.67500
H  35.62600 5.81600 30.67800
H  36.72500 5.49300 31.98400
H  35.14400 6.61200 28.84100
H  35.25200 4.87200 28.77800
H  34.59800 5.71400 27.37500
H  40.79200 7.80300 24.65500
H  43.66400 8.11700 25.02000
H  43.02100 6.20700 24.40700
H  41.27400 6.03300 23.78900
H  41.73200 5.35000 25.31800
H  42.96100 10.14300 23.85600
H  43.37000 10.52900 25.40800
H  41.01800 11.23100 24.21700
H  41.43600 11.66000 25.71100
H  40.58200 10.13600 25.64300
H  46.84900 9.77600 28.10200
H  47.35500 10.90300 29.41900
H  46.11600 11.32400 28.17700
H  43.85200 11.21400 33.59800
H  46.04700 9.51200 36.80100
H  44.31500 9.06400 37.41600
H  44.95700 10.67200 37.45800
Mg 48.16200 46.01800 44.10800
C  44.96000 46.64900 42.91600
C  48.15900 42.94200 42.53900
C  51.46400 45.87900 44.68100
C  48.13000 49.40700 45.40900
N  46.65100 45.00800 42.84300
C  45.46800 45.41000 42.46600
C  44.83200 44.36400 41.57100
C  45.65800 43.04500 41.90000
C  46.94300 43.70100 42.44700
C  45.01100 42.23100 43.09700
C  44.78900 44.70800 40.02700
C  43.76300 44.05100 39.16800
H  44.18500 43.26700 37.92100
N  49.62000 44.50900 43.70400
C  49.39200 43.36500 43.04200
C  50.61700 42.67800 42.96300
C  51.67400 43.47600 43.58400
C  50.96600 44.69600 43.96000
C  50.68600 41.32100 42.31200
C  53.08100 42.94600 43.82700
O  53.44500 41.88300 43.35800
C  54.18300 43.72700 44.54200
N  49.57800 47.44300 44.89600
C  50.91400 47.11000 45.08100
C  51.67300 48.23500 45.80300
C  50.64200 49.38600 45.84600
C  49.32000 48.74900 45.44800
C  52.29600 47.94400 47.24000
C  51.02300 50.62100 44.92600
C  51.95100 51.66100 45.50600
N  46.86400 47.67700 44.17400
C  47.00700 48.97100 44.75600
C  45.78300 49.67400 44.62100
C  44.94700 48.80000 43.99000
C  45.64600 47.61300 43.72800
C  45.42600 51.02200 45.12100
C  43.67100 48.62900 43.39200
O  42.73600 49.40700 43.38100
C  43.57500 47.23300 42.72600
C  42.52800 46.38700 43.43000
O  42.75700 45.59900 44.31200
O  41.42400 46.38200 42.64300
C  40.50700 45.36300 43.06800
H  48.08200 41.89200 42.25000
H  52.54500 45.74900 44.77300
H  47.99200 50.36500 45.91600
H  43.79600 44.25100 41.88800
H  45.90800 42.40200 41.05600
H  43.96500 42.53400 43.14100
H  45.52500 42.42500 44.03800
H  45.08300 41.14900 42.99500
H  45.73000 44.51200 39.51400
H  44.70100 45.79400 39.99100
H  42.95300 44.69500 38.82500
H  43.30700 43.29300 39.80600
H  49.84600 41.06400 41.66700
H  50.66700 40.52900 43.06000
H  51.61000 41.31100 41.73300
H  53.73600 44.05300 45.48100
H  54.31100 44.59400 43.89400
H  55.16000 43.25000 44.62300
H  52.49400 48.49300 45.13400
H  50.59600 49.67700 46.89500
H  51.56700 47.82600 48.04200
H  53.07300 48.68200 47.43800
H  52.64900 46.93300 47.03800
H  50.09800 51.07700 44.57500
H  51.55400 50.30800 44.02700
H  51.48700 52.64600 45.44700
H  52.90600 51.60600 44.98400
H  52.23600 51.54300 46.55100
H  44.64800 51.43300 44.47900
H  46.30600 51.66500 45.09900
H  45.02800 50.94500 46.13300
H  43.25400 47.39500 41.69700
H  40.88500 44.34100 43.04800
H  39.60800 45.47900 42.46300
H  40.22900 45.45300 44.11800

