158

Mg 17.07800 -0.93700 28.32100
C  16.01100 0.99700 31.07400
C  19.16000 -2.59200 30.52000
C  18.63400 -2.26700 25.65400
C  15.43200 1.38800 26.26000
N  17.61500 -0.76100 30.52800
C  16.98800 0.01500 31.47100
C  17.37400 -0.33400 32.85400
C  18.49700 -1.45200 32.65300
C  18.40000 -1.62500 31.11200
C  19.88600 -1.13300 33.19600
C  16.08600 -1.00300 33.54300
C  15.69700 -0.36800 34.89100
H  16.75000 0.45200 35.71900
N  18.42500 -2.43900 28.08200
C  19.15900 -2.99400 29.12300
C  19.84300 -4.15300 28.52400
C  19.81400 -4.03100 27.15900
C  18.95600 -2.88600 26.87700
C  20.40800 -5.25600 29.42400
C  20.49900 -4.88100 26.07400
O  20.30100 -4.57500 24.89200
C  21.39800 -6.04500 26.45100
N  17.11500 -0.44500 26.23700
C  17.83100 -1.18400 25.32800
C  17.59100 -0.67100 23.91900
C  16.50300 0.41400 24.12700
C  16.35600 0.49700 25.66400
C  18.87000 -0.30500 23.11400
C  15.20000 0.14100 23.35600
C  15.27100 0.62800 21.92300
N  15.87700 0.78700 28.55200
C  15.15100 1.56500 27.62200
C  14.26500 2.56800 28.27400
C  14.64200 2.35800 29.68600
C  15.59300 1.29300 29.78600
C  13.37700 3.53600 27.64100
C  14.34500 2.83600 30.98300
O  13.61700 3.74600 31.42200
C  15.27800 2.03100 32.03000
C  16.25000 2.98300 32.71100
O  17.36400 3.14000 32.32700
O  15.67700 3.57200 33.78600
C  16.40600 4.51800 34.55500
H  19.70100 -3.34100 31.10300
H  19.06900 -2.61900 24.71600
H  14.86200 1.94600 25.51400
H  17.72700 0.53400 33.41200
H  18.18300 -2.40300 33.08400
H  20.21000 -1.88500 33.91700
H  19.90100 -0.12100 33.59900
H  20.54500 -1.11200 32.32900
H  16.16100 -2.05400 33.82000
H  15.25600 -0.88400 32.84700
H  15.41300 -1.12600 35.62200
H  14.80800 0.22300 34.67000
H  20.71000 -6.05000 28.74200
H  19.70600 -5.60900 30.17900
H  21.34900 -4.98000 29.90100
H  20.71800 -6.78300 26.87600
H  22.22600 -5.81900 27.12200
H  21.89700 -6.41200 25.55400
H  17.05500 -1.38100 23.28900
H  16.92500 1.31800 23.68900
H  19.10800 0.74600 22.94900
H  18.83400 -0.78300 22.13600
H  19.73600 -0.73300 23.61900
H  14.40800 0.65100 23.90500
H  14.93600 -0.90700 23.21900
H  14.88700 -0.11300 21.22200
H  16.28600 0.87000 21.60900
H  14.61000 1.47500 21.73900
H  12.34200 3.26300 27.85000
H  13.49800 3.52800 26.55700
H  13.59500 4.56200 27.93700
H  14.60000 1.63400 32.78500
H  17.47200 4.29300 34.59600
H  16.00500 4.39500 35.56200
H  16.12800 5.52600 34.24900
Mg 56.21600 25.31200 44.88700
C  53.46600 26.97000 43.36600
C  54.95900 22.35400 43.45600
C  59.17100 23.88400 45.33100
C  57.49900 28.31300 45.70300
N  54.38300 24.75800 43.56400
C  53.50200 25.61300 42.97700
C  52.49200 24.84300 42.14100
C  52.81500 23.42000 42.51700
C  54.18300 23.48700 43.16800
C  51.79600 22.60000 43.32000
C  52.68600 25.15500 40.64000
C  51.56200 25.62800 39.84000
H  50.90000 24.65200 38.83600
N  57.01000 23.36800 44.60600
C  56.28600 22.28200 43.97700
C  57.06200 21.06700 44.15400
C  58.41100 21.54200 44.56700
C  58.26500 22.96700 44.80000
C  56.55300 19.65400 43.86800
C  59.68400 20.68800 44.53700
O  59.61900 19.46000 44.34700
C  61.02200 21.27900 44.87100
N  58.10500 26.05500 45.18000
C  59.18300 25.23400 45.36000
C  60.33600 25.95600 45.69400
C  59.85100 27.44500 45.83000
C  58.38600 27.27500 45.61000
C  61.20100 25.43200 46.93200
C  60.55500 28.34000 44.72900
C  60.70000 29.90900 44.98500
N  55.60900 27.32000 44.70000
C  56.15500 28.41600 45.28000
C  55.23200 29.47300 45.19300
C  54.12700 29.01100 44.45900
C  54.45100 27.62600 44.12900
C  55.45600 30.86600 45.76000
C  52.85300 29.28400 43.88100
O  52.14200 30.28100 43.95100
C  52.40200 28.03500 43.16100
C  52.17800 28.38300 41.77000
O  53.03900 28.70300 40.93700
O  50.84400 28.21400 41.50200
C  50.38500 28.47000 40.12600
H  54.53500 21.37500 43.22200
H  60.15700 23.51200 45.61900
H  57.83400 29.29500 46.04600
H  51.52100 25.21800 42.46500
H  53.02000 22.89800 41.58200
H  50.95700 23.09400 43.81000
H  52.38400 22.17900 44.13600
H  51.44000 21.71800 42.78700
H  52.97500 24.23600 40.12900
H  53.52300 25.83600 40.48400
H  51.88000 26.52300 39.30500
H  50.67400 25.88400 40.41800
H  55.49900 19.46400 44.07200
H  57.15100 18.97300 44.47300
H  56.70200 19.34900 42.83300
H  61.20200 22.01700 44.09000
H  61.72600 20.44700 44.85900
H  61.04300 21.85400 45.79700
H  61.09600 25.83900 44.92200
H  60.17400 27.80600 46.80700
H  62.08900 24.91700 46.56300
H  60.64300 24.69800 47.51300
H  61.51200 26.19500 47.64600
H  60.11500 28.27800 43.73300
H  61.58500 28.00800 44.60300
H  60.46400 30.52500 44.11600
H  61.73300 30.14800 45.23900
H  60.04800 30.28300 45.77400
H  56.35200 30.78200 46.37500
H  54.57300 31.09200 46.35700
H  55.63500 31.58700 44.96200
H  51.47500 27.68300 43.61400
H  49.84600 27.63700 39.67400
H  51.16000 28.75500 39.41600
H  49.59900 29.21300 40.26400

