158

Mg 16.71300 51.97600 26.08300
C  18.69200 50.85800 28.73700
C  14.30300 52.66300 28.28700
C  14.73500 52.84100 23.48200
C  19.21700 50.79300 23.94500
N  16.46700 51.51300 28.21900
C  17.49100 51.30600 29.10300
C  17.04300 51.53500 30.56200
C  15.50700 51.76800 30.34100
C  15.41800 52.03100 28.85300
C  14.50200 50.71900 30.91800
C  17.79700 52.76900 31.17500
C  18.44000 52.74400 32.53500
H  17.65300 52.00300 33.63800
N  14.79500 52.74800 25.91500
C  13.93100 53.06800 26.94800
C  12.83900 53.84000 26.44900
C  12.99100 53.91000 25.03300
C  14.17900 53.14000 24.74300
C  11.59900 54.25000 27.35200
C  12.21100 54.70800 24.00300
O  12.47200 54.81200 22.83100
C  10.92900 55.38300 24.48200
N  16.88000 51.74600 24.00100
C  15.95400 52.27700 23.12000
C  16.45000 52.03300 21.67600
C  18.01000 51.72100 21.89800
C  18.04200 51.35700 23.39300
C  15.59900 50.87400 20.94300
C  18.93500 52.95500 21.51000
C  20.07100 52.70900 20.41900
N  18.52700 50.85800 26.24300
C  19.40200 50.43800 25.30100
C  20.58800 49.83300 25.94100
C  20.42300 50.04400 27.30700
C  19.07900 50.62000 27.44800
C  21.80100 49.32300 25.29600
C  20.95000 49.87000 28.64000
O  21.98400 49.31400 28.96500
C  19.87500 50.41600 29.63400
C  19.54000 49.25300 30.42700
O  18.70800 48.39900 30.14700
O  20.20300 49.32100 31.66100
C  20.12500 48.09900 32.43800
H  13.57600 52.92300 29.05900
H  14.11000 53.09000 22.62200
H  19.97800 50.55000 23.20100
H  17.24200 50.61700 31.11500
H  15.14500 52.65400 30.86200
H  13.82600 50.24500 30.20600
H  13.81800 51.21000 31.61000
H  15.07700 49.90000 31.35100
H  17.17500 53.66300 31.22200
H  18.62000 52.94400 30.48200
H  18.51900 53.77400 32.88400
H  19.35500 52.15200 32.51900
H  11.63400 55.34000 27.37200
H  11.77400 53.92000 28.37600
H  10.71300 53.76900 26.93900
H  10.20300 54.59000 24.65700
H  10.68700 56.04700 23.65200
H  11.22900 55.93000 25.37600
H  16.28900 52.99100 21.18200
H  18.29000 50.80300 21.38300
H  14.82900 50.48300 21.60800
H  16.23400 50.06100 20.59000
H  15.18600 51.50400 20.15600
H  19.38900 53.49100 22.34300
H  18.19200 53.60100 21.04100
H  20.51000 53.64500 20.07500
H  19.57200 52.07600 19.68500
H  20.88000 52.13600 20.87100
H  21.45700 48.34600 24.95600
H  22.60300 49.11900 26.00500
H  22.18400 49.92300 24.47100
H  20.19100 51.23400 30.28100
H  19.31900 48.05300 33.16900
H  21.03800 48.00800 33.02700
H  20.07100 47.17500 31.86300
Mg -5.94200 24.92600 25.91200
C  -4.46600 26.37200 28.59500
C  -7.15900 22.52700 27.93000
C  -7.38000 23.51400 23.25400
C  -3.98100 26.93200 23.86000
N  -5.70800 24.49200 28.02300
C  -5.25500 25.34200 28.99400
C  -5.52600 24.88200 30.38200
C  -6.16100 23.48200 30.15100
C  -6.36100 23.44500 28.65100
C  -5.44000 22.24100 30.67500
C  -6.52200 25.80000 31.17800
C  -6.65500 25.54000 32.74300
H  -5.81000 24.41500 33.34400
N  -7.14900 23.24600 25.62600
C  -7.56500 22.44700 26.62600
C  -8.60700 21.55400 26.09900
C  -8.70700 21.80700 24.68000
C  -7.73700 22.88000 24.43900
C  -9.25100 20.51200 27.04900
C  -9.37700 21.05100 23.55500
O  -9.16900 21.27000 22.37900
C  -10.37300 19.99400 23.95700
N  -5.75200 25.20700 23.86000
C  -6.47800 24.50000 22.91900
C  -6.20500 24.96700 21.48900
C  -5.09900 25.99800 21.71200
C  -4.82600 26.04700 23.20200
C  -5.94800 23.93700 20.40000
C  -5.32900 27.37600 20.98100
C  -4.18500 27.92300 20.11200
N  -4.58100 26.38200 26.12600
C  -3.96100 27.19100 25.25500
C  -2.97900 28.04200 25.92300
C  -3.27600 27.89500 27.28400
C  -4.14300 26.78500 27.30300
C  -1.97600 28.97700 25.29000
C  -2.82800 28.20000 28.61500
O  -1.97100 28.94100 28.99900
C  -3.72500 27.28300 29.59000
C  -2.77800 26.43100 30.42000
O  -2.10900 25.51500 30.00500
O  -2.58800 27.04100 31.67400
C  -1.51600 26.39800 32.50900
H  -7.58500 21.75200 28.57100
H  -7.77000 22.97200 22.39000
H  -3.45000 27.59000 23.16900
H  -4.62400 24.92000 30.99300
H  -7.16100 23.38300 30.57200
H  -4.99600 21.73300 29.81900
H  -6.14200 21.61200 31.22300
H  -4.61400 22.48500 31.34400
H  -7.50600 25.77100 30.71100
H  -6.23100 26.84700 31.10100
H  -7.70300 25.29300 32.91400
H  -6.36400 26.46200 33.24800
H  -9.79400 20.94900 27.88700
H  -8.50200 19.79700 27.38600
H  -9.96400 19.91700 26.47900
H  -9.87700 19.22700 24.55000
H  -10.79000 19.50500 23.07700
H  -11.08700 20.42400 24.66000
H  -7.14000 25.44300 21.19600
H  -4.12700 25.59200 21.43200
H  -6.92600 23.47900 20.24800
H  -5.43400 23.09700 20.86700
H  -5.61200 24.34200 19.44600
H  -5.43000 28.10800 21.78200
H  -6.26600 27.35400 20.42400
H  -4.55700 27.72300 19.10700
H  -3.27700 27.32900 20.21000
H  -4.11600 28.99300 20.30900
H  -2.56400 29.57100 24.59000
H  -1.14500 28.47400 24.79500
H  -1.55400 29.68800 26.00000
H  -4.38800 27.90400 30.19200
H  -1.69500 25.33000 32.63500
H  -1.26100 26.89800 33.44300
H  -0.63400 26.49000 31.87400

