158

Mg 44.76700 4.90100 48.07400
C  42.54300 7.70900 47.83600
C  41.94700 2.87200 47.73600
C  46.86500 2.43900 47.95100
C  47.44800 7.25900 47.88500
N  42.53500 5.26000 47.81900
C  41.84800 6.48700 47.87000
C  40.32600 6.29400 47.72800
C  40.19400 4.71400 47.78300
C  41.65300 4.24800 47.72600
C  39.40500 4.21200 48.97000
C  39.58800 6.97500 46.53400
C  40.46200 7.17800 45.31100
H  39.85700 6.77800 43.90800
N  44.49400 2.92000 47.84300
C  43.24000 2.29600 47.66900
C  43.55000 0.82400 47.45400
C  44.97600 0.64500 47.53800
C  45.52300 2.00200 47.75000
C  42.41400 -0.16900 47.07600
C  45.65600 -0.68000 47.38300
O  44.92800 -1.63900 47.25700
C  47.17900 -0.87000 47.24200
N  46.87600 4.94700 47.57300
C  47.49300 3.72900 47.85500
C  48.93400 3.85800 48.39700
C  49.12800 5.35200 48.15300
C  47.71600 5.94400 47.87500
C  49.27900 3.26500 49.80300
C  50.24300 5.71000 47.13300
C  51.44100 6.47400 47.67700
N  44.99800 7.02700 47.94300
C  46.16000 7.82700 47.93900
C  45.77000 9.24300 47.93900
C  44.34300 9.23900 48.01100
C  43.95500 7.86800 47.87400
C  46.57000 10.42400 47.96900
C  43.14300 10.03700 48.07300
O  43.05000 11.21700 48.18400
C  41.93500 9.08900 48.04300
C  41.06000 9.18300 49.27500
O  41.08700 8.43000 50.21300
O  40.17400 10.20600 49.09200
C  39.11500 10.41300 50.02800
H  41.04000 2.26900 47.66900
H  47.51300 1.58400 48.15300
H  48.26300 7.97900 47.98300
H  39.88100 6.81100 48.57900
H  39.61800 4.51200 46.88000
H  38.35900 4.15400 48.66900
H  39.55300 4.93200 49.77500
H  39.78200 3.28100 49.39400
H  39.29100 7.97400 46.85400
H  38.67300 6.43700 46.28400
H  41.27600 6.47200 45.47900
H  40.70900 8.23600 45.23300
H  42.63800 -0.82600 46.23600
H  41.51100 0.37300 46.79600
H  42.15400 -0.80900 47.92000
H  47.71100 -0.64000 48.16500
H  47.53500 -0.30900 46.37800
H  47.36800 -1.92700 47.05500
H  49.63200 3.31000 47.76400
H  49.43100 5.77600 49.11000
H  48.43900 3.17800 50.49200
H  50.08900 3.81400 50.28300
H  49.63200 2.24700 49.64200
H  49.88500 6.29500 46.28600
H  50.67000 4.79300 46.72600
H  51.66000 6.12400 48.68600
H  51.16900 7.52900 47.69700
H  52.36200 6.22400 47.15100
H  45.84000 11.19900 47.73500
H  47.30900 10.30700 47.17700
H  46.99100 10.72900 48.92700
H  41.23000 9.37800 47.26400
H  38.22700 9.82100 49.80500
H  38.83500 11.46600 50.02600
H  39.48000 10.17500 51.02700
Mg 26.95600 50.57500 26.40300
C  24.75400 51.75200 28.80000
C  29.34100 50.24600 28.87800
C  29.20300 50.08500 23.96900
C  24.57700 51.45700 23.94500
N  27.03800 51.03200 28.57300
C  25.96600 51.30700 29.35800
C  26.24900 51.15200 30.91400
C  27.75800 50.75100 30.88400
C  28.10600 50.67400 29.36400
C  28.78600 51.72400 31.61800
C  25.27300 50.11600 31.63300
C  24.73700 50.55500 33.04500
H  24.80600 49.64300 34.28200
N  28.97600 50.20800 26.43300
C  29.78900 50.03500 27.56700
C  31.11700 49.62500 27.20300
C  31.19800 49.60900 25.78500
C  29.70500 49.94400 25.33300
C  32.27800 49.41600 28.23800
C  32.42300 49.42200 24.88200
O  32.19800 49.59200 23.64200
C  33.78400 49.03800 25.46700
N  26.95400 50.72700 24.31100
C  27.97500 50.43700 23.50200
C  27.48400 50.35800 22.04000
C  26.02800 50.64700 22.04000
C  25.81000 50.93600 23.57400
C  28.34500 51.20700 21.04700
C  25.07900 49.59500 21.41800
C  24.07600 50.25400 20.53200
N  25.06900 51.47000 26.33500
C  24.22400 51.72400 25.26600
C  23.01200 52.38200 25.76700
C  23.16000 52.37600 27.17600
C  24.48500 51.84500 27.46500
C  21.93100 52.98300 24.91400
C  22.49500 52.64400 28.43400
O  21.38800 53.08200 28.65000
C  23.47500 52.22800 29.49100
C  23.70200 53.27000 30.51700
O  24.58000 54.08300 30.39200
O  22.81600 53.06500 31.59700
C  22.99200 54.14800 32.58500
H  30.04200 50.09200 29.70200
H  29.80500 49.85300 23.08800
H  23.85600 51.75600 23.18200
H  26.09300 52.14400 31.33700
H  27.81400 49.75000 31.31300
H  29.27200 52.42100 30.93500
H  29.53300 51.20900 32.22100
H  28.19400 52.19300 32.40400
H  25.83100 49.17900 31.63200
H  24.37600 49.99100 31.02800
H  23.67400 50.71800 32.87000
H  25.10600 51.55000 33.29800
H  33.01700 50.17800 27.99100
H  32.74100 48.44000 28.09400
H  31.94100 49.49200 29.27200
H  34.20900 49.81600 26.10300
H  34.50300 48.86500 24.66600
H  33.64200 48.12200 26.03900
H  27.60800 49.31100 21.76300
H  25.88200 51.62700 21.58700
H  29.17700 51.74900 21.49700
H  27.80100 51.93600 20.44600
H  28.74200 50.45000 20.37100
H  24.56800 49.07000 22.22500
H  25.65800 48.93200 20.77500
H  23.23800 50.58700 21.14400
H  23.62300 49.55500 19.82900
H  24.47800 51.09300 19.96400
H  22.39800 53.50900 24.08200
H  21.39900 53.69100 25.55000
H  21.21600 52.31400 24.43500
H  23.03300 51.46000 30.12600
H  23.11300 55.08300 32.03700
H  23.86100 54.03100 33.23300
H  22.11900 54.13700 33.23700

