158

Mg 48.04900 25.66300 28.04700
C  49.00600 27.89400 30.55100
C  46.75500 23.62100 30.59400
C  47.40100 23.32600 25.81500
C  49.56000 27.72700 25.71700
N  47.76800 25.82500 30.29900
C  48.20200 26.84500 31.09900
C  47.69800 26.76200 32.50100
C  47.00800 25.30900 32.53800
C  47.27000 24.82300 31.02500
C  47.50800 24.36000 33.65800
C  46.80700 27.93300 32.93900
C  47.13900 28.58200 34.32200
H  45.92000 28.94300 35.19800
N  47.18300 23.74100 28.18600
C  46.70600 23.06300 29.29200
C  46.07500 21.89100 28.83800
C  46.30300 21.74100 27.47600
C  47.01900 22.98200 27.09500
C  45.35600 21.01800 29.77700
C  46.08800 20.55700 26.52400
O  46.44700 20.47600 25.35100
C  45.34400 19.32400 27.05600
N  48.52500 25.48700 26.06500
C  48.10400 24.40900 25.29300
C  48.35300 24.68600 23.75600
C  48.76200 26.21800 23.79500
C  48.89700 26.56600 25.28300
C  49.41200 23.74300 23.13600
C  47.82300 27.14500 22.92900
C  48.69900 27.99800 21.93800
N  49.14700 27.37600 28.07100
C  49.70100 28.11100 27.02800
C  50.31900 29.32800 27.57800
C  50.10800 29.20400 28.92300
C  49.43000 28.03700 29.22700
C  51.00600 30.43900 26.83100
C  50.35800 29.90100 30.19300
O  51.01100 30.90400 30.48900
C  49.60700 29.07400 31.21800
C  50.37600 28.65800 32.47300
O  51.23200 27.77800 32.49600
O  50.12500 29.49200 33.48800
C  50.90200 29.32400 34.74700
H  46.22800 23.03200 31.34800
H  47.27800 22.52000 25.08800
H  49.93700 28.39900 24.94400
H  48.55700 26.82100 33.17000
H  45.94000 25.44300 32.71600
H  47.78300 23.37600 33.27700
H  46.87000 24.26900 34.53700
H  48.44800 24.76800 34.02800
H  45.81200 27.52900 33.12800
H  46.55500 28.64000 32.14800
H  47.68900 29.52200 34.28400
H  47.77700 27.95200 34.94200
H  45.09900 21.32100 30.79200
H  45.89400 20.07600 29.88500
H  44.37400 20.82900 29.34500
H  45.32800 18.52200 26.31800
H  44.33800 19.62800 27.34500
H  45.66000 18.94500 28.02700
H  47.37000 24.49700 23.32200
H  49.79600 26.23100 23.45100
H  49.49500 22.99300 23.92400
H  50.29600 24.33100 22.88900
H  48.91300 23.33200 22.25900
H  47.26300 27.93200 23.43500
H  47.13300 26.52400 22.35700
H  48.09400 28.86200 21.66500
H  48.77000 27.36700 21.05100
H  49.67100 28.28000 22.34200
H  51.75200 30.65600 27.59500
H  50.32000 31.20000 26.46000
H  51.48700 30.06500 25.92700
H  48.81200 29.70900 31.60700
H  51.13000 30.30300 35.16900
H  51.81100 28.74300 34.59400
H  50.29800 28.69300 35.40000
Mg 5.23600 54.28500 40.95400
C  4.18800 50.87500 40.71700
C  7.95500 53.39300 38.92000
C  6.11400 57.49700 40.77400
C  2.11800 55.00000 42.30900
N  5.90600 52.34500 39.83700
C  5.32800 51.11700 39.91000
C  5.99700 50.16000 38.92500
C  7.37600 50.91400 38.69900
C  7.09500 52.33100 39.20800
C  8.63600 50.25100 39.28800
C  5.12500 49.80600 37.75900
C  4.98400 48.33000 37.31300
H  5.46800 47.84100 35.94500
N  6.85200 55.27600 40.07100
C  7.84100 54.75400 39.31300
C  8.92500 55.81100 39.16000
C  8.39300 57.03300 39.65400
C  7.13600 56.64900 40.19600
C  10.30100 55.39900 38.65200
C  9.12200 58.30100 39.71500
O  10.22200 58.41100 39.14000
C  8.65500 59.53100 40.51100
N  4.21200 55.95700 41.37400
C  4.77800 57.17300 41.23800
C  3.80100 58.25900 41.70900
C  2.49000 57.47400 42.07400
C  2.93500 56.03800 41.86600
C  4.27300 59.14800 42.86000
C  1.33000 57.76700 41.04600
C  -0.06300 57.98400 41.59000
N  3.47000 53.21200 41.62600
C  2.28800 53.61700 42.16200
C  1.61900 52.41400 42.56100
C  2.27400 51.34000 42.04100
C  3.42400 51.87300 41.42200
C  0.32100 52.35500 43.43500
C  2.31100 49.83600 41.97000
O  1.72600 48.92100 42.50800
C  3.57700 49.49000 41.11600
C  3.22500 48.47900 40.13500
O  2.24000 48.51500 39.40300
O  4.09600 47.37100 40.28200
C  3.52600 46.11100 39.78500
H  8.89500 53.14000 38.42600
H  6.30100 58.57300 40.79900
H  1.19400 55.34200 42.78000
H  6.23900 49.16800 39.30700
H  7.43700 51.02300 37.61600
H  9.55100 50.46300 38.73500
H  8.55500 49.22700 39.65000
H  8.69600 50.83400 40.20700
H  5.36400 50.42400 36.89300
H  4.07400 50.05600 37.90000
H  3.90800 48.15800 37.28300
H  5.35000 47.56200 37.99400
H  10.45400 54.37100 38.98200
H  10.99900 55.93700 39.29300
H  10.44400 55.61100 37.59200
H  7.78400 59.99300 40.04600
H  9.53100 60.16800 40.63700
H  8.45300 59.20200 41.53000
H  3.63200 58.92300 40.86100
H  2.08400 57.66200 43.06800
H  4.33500 60.19500 42.56300
H  5.17600 58.75500 43.32500
H  3.49000 59.18600 43.61700
H  1.32500 56.99000 40.28200
H  1.38600 58.69300 40.47400
H  -0.78500 57.47900 40.94900
H  -0.30800 59.03300 41.42500
H  -0.21100 57.59900 42.59900
H  -0.19300 53.31300 43.36200
H  0.41800 52.29400 44.51900
H  -0.37000 51.56700 43.13400
H  4.38300 49.11200 41.74400
H  3.64900 46.01500 38.70600
H  2.54200 45.87400 40.18800
H  4.21500 45.35300 40.15900

