158

Mg -0.13300 44.30200 27.29800
C  2.27200 44.29000 29.96600
C  -2.61400 43.63500 29.60400
C  -2.14500 43.63500 24.69200
C  2.62600 44.56500 25.03300
N  -0.15200 43.85500 29.53600
C  0.89900 44.10500 30.38400
C  0.40900 44.05000 31.86000
C  -1.04800 43.41900 31.66200
C  -1.33400 43.68600 30.16700
C  -1.34700 41.89800 32.06500
C  0.52500 45.44000 32.57700
C  0.82700 45.33600 34.07500
H  0.68200 43.97500 34.81700
N  -2.15100 43.83300 27.21900
C  -2.98700 43.68600 28.27800
C  -4.33700 43.62100 27.71100
C  -4.20400 43.56700 26.33000
C  -2.81000 43.73000 25.98300
C  -5.58400 43.56800 28.61200
C  -5.36400 43.45700 25.19600
O  -5.11900 43.42900 24.00800
C  -6.77300 43.44300 25.57300
N  0.19300 44.05600 25.12300
C  -0.80300 43.83800 24.27800
C  -0.34000 43.87500 22.82800
C  1.04700 44.53800 22.96300
C  1.33700 44.29100 24.47200
C  -0.17900 42.49700 22.10900
C  1.10900 46.01600 22.57700
C  1.05900 47.04100 23.71000
N  2.07800 44.44400 27.44100
C  3.01100 44.61600 26.43400
C  4.30800 44.71700 26.96500
C  4.04900 44.64000 28.36500
C  2.66700 44.43500 28.61600
C  5.58400 44.90600 26.20300
C  4.66700 44.66200 29.72900
O  5.84300 44.69100 30.12900
C  3.54100 44.58200 30.78600
C  3.84200 43.49000 31.75600
O  3.64200 42.26300 31.50800
O  4.18400 43.96100 32.94500
C  4.77200 42.84800 33.80000
H  -3.44200 43.42500 30.28300
H  -2.85300 43.63300 23.86200
H  3.50200 44.69400 24.39300
H  1.05500 43.33200 32.36600
H  -1.69400 44.07600 32.24500
H  -1.76000 41.39900 31.18800
H  -2.13800 41.81800 32.81000
H  -0.39800 41.40100 32.26600
H  -0.42800 45.96900 32.56900
H  1.27300 46.08700 32.11900
H  0.19400 46.02700 34.63100
H  1.89500 45.55500 34.09400
H  -5.34300 43.33900 29.65000
H  -6.13800 42.72400 28.20200
H  -6.23200 44.41800 28.39800
H  -6.81000 44.13000 26.41900
H  -7.15800 42.47200 25.88500
H  -7.35500 43.97100 24.81800
H  -1.02900 44.46900 22.22900
H  1.85100 44.03700 22.42300
H  -0.40100 41.67800 22.79400
H  0.74800 42.33600 21.55900
H  -0.91500 42.45100 21.30600
H  0.22100 46.28500 22.00500
H  1.99600 46.23000 21.98200
H  1.11600 46.81600 24.77500
H  0.31500 47.82800 23.59300
H  2.03000 47.51900 23.58200
H  5.62900 44.40500 25.23600
H  6.22200 44.49600 26.98600
H  5.95700 45.91900 26.04700
H  3.56100 45.57800 31.22800
H  4.11600 42.03100 34.09800
H  5.32600 43.15900 34.68500
H  5.55700 42.45400 33.15400
Mg -4.94900 25.89700 26.48300
C  -3.79100 27.49000 29.44900
C  -6.66400 23.62600 28.52900
C  -5.78400 24.12100 23.75600
C  -2.87600 27.92900 24.66500
N  -5.28500 25.72000 28.70900
C  -4.71800 26.49100 29.72500
C  -5.24600 26.12300 31.12900
C  -5.78600 24.64100 30.78200
C  -5.92700 24.61600 29.23800
C  -4.86000 23.53000 31.30800
C  -6.43800 27.06600 31.59400
C  -6.76500 26.94800 33.10500
H  -6.21400 25.72100 33.88400
N  -6.11300 24.14000 26.16700
C  -6.73800 23.41600 27.14300
C  -7.64500 22.48300 26.45500
C  -7.39600 22.63100 25.09000
C  -6.43600 23.67500 24.91800
C  -8.74500 21.63000 27.22100
C  -8.14900 22.04800 23.92700
O  -7.81900 22.23400 22.77000
C  -9.34200 21.12200 24.14500
N  -4.49600 26.10100 24.49800
C  -4.86900 25.19600 23.51300
C  -4.16900 25.54800 22.20000
C  -3.53800 26.87600 22.49200
C  -3.60500 26.97000 23.98500
C  -3.26400 24.36500 21.68500
C  -4.37800 28.02400 21.87700
C  -3.73400 28.68600 20.63900
N  -3.61700 27.36100 26.88800
C  -2.88500 28.14100 26.06200
C  -2.18100 29.21900 26.70400
C  -2.49800 28.93800 28.04700
C  -3.37500 27.85200 28.14500
C  -1.29800 30.30000 26.14100
C  -2.23700 29.40000 29.38100
O  -1.48900 30.29100 29.74400
C  -3.12400 28.57200 30.38900
C  -2.31300 28.04900 31.45300
O  -1.28700 27.40300 31.30900
O  -2.94600 28.38800 32.71700
C  -2.47400 27.81600 33.99600
H  -7.16600 22.85200 29.11400
H  -5.91100 23.53700 22.84200
H  -2.28300 28.69500 24.16200
H  -4.48100 26.22700 31.89900
H  -6.74900 24.55800 31.28700
H  -4.02200 23.86600 31.92000
H  -4.55000 23.05500 30.37800
H  -5.34700 22.72500 31.85800
H  -7.35200 26.84600 31.04200
H  -6.12000 28.08300 31.36400
H  -7.85200 26.95900 33.18700
H  -6.41000 27.91900 33.44900
H  -9.53000 22.33900 27.48300
H  -8.37500 21.18200 28.14400
H  -9.27700 20.89300 26.61900
H  -10.12100 21.56300 24.76600
H  -8.98900 20.25800 24.70700
H  -9.63800 20.80000 23.14600
H  -4.95900 25.60000 21.45100
H  -2.47700 27.00200 22.27500
H  -3.19600 23.54200 22.39600
H  -2.22300 24.66600 21.57000
H  -3.71300 24.15400 20.71500
H  -4.55200 28.77800 22.64500
H  -5.40800 27.68300 21.77000
H  -3.17700 29.56300 20.96900
H  -4.52100 28.97900 19.94300
H  -3.06000 28.02300 20.09700
H  -0.72400 29.74400 25.39900
H  -0.61800 30.75200 26.86200
H  -1.95900 31.01400 25.65100
H  -3.99900 29.11900 30.74000
H  -2.91400 26.84300 34.21400
H  -2.70300 28.56500 34.75400
H  -1.39900 27.66300 33.90000

