158

Mg 26.04300 -0.90000 29.28500
C  28.00200 -0.89100 32.25800
C  23.26300 -0.58500 31.29800
C  24.20700 -0.66100 26.58700
C  28.90400 -1.16400 27.45700
N  25.69800 -0.84500 31.53800
C  26.64300 -0.76800 32.52200
C  26.02000 -0.53500 33.90800
C  24.49300 -0.46100 33.59700
C  24.45500 -0.59000 32.06600
C  23.68000 -1.57700 34.21200
C  26.54300 0.77600 34.59600
C  25.94400 1.17000 35.92000
H  26.89500 1.30400 37.13800
N  24.02900 -0.65000 28.98800
C  23.03500 -0.68800 29.92500
C  21.76600 -0.66700 29.34800
C  21.99600 -0.47000 27.90600
C  23.46200 -0.64800 27.72300
C  20.52900 -0.56300 30.21000
C  20.98200 -0.32700 26.79500
O  21.30700 -0.09500 25.58300
C  19.48800 -0.29900 27.11600
N  26.45500 -1.17000 27.26100
C  25.54800 -0.84500 26.34400
C  26.18000 -0.71700 24.93000
C  27.67300 -0.73800 25.25800
C  27.68000 -1.09600 26.76400
C  25.71500 -1.92600 24.03000
C  28.46200 0.55800 24.90700
C  29.84100 0.37800 24.15500
N  28.05400 -1.11600 29.72000
C  29.10400 -1.28600 28.86200
C  30.36100 -1.30300 29.60000
C  30.00100 -1.20800 30.93500
C  28.56300 -1.07000 30.92800
C  31.71100 -1.38300 28.96500
C  30.51500 -1.19500 32.33700
O  31.65400 -1.52900 32.73400
C  29.24000 -0.89400 33.22900
C  29.08000 -1.84800 34.37500
O  28.62900 -2.95300 34.28100
O  29.52600 -1.25200 35.55700
C  29.41300 -2.12500 36.72700
H  22.40500 -0.47900 31.96600
H  23.79500 -0.68600 25.57600
H  29.80700 -1.15800 26.84400
H  26.41200 -1.29100 34.58800
H  24.09500 0.49300 33.94200
H  24.17800 -2.29800 34.86000
H  23.11800 -2.18100 33.50000
H  22.98400 -1.26300 34.99000
H  26.46500 1.62500 33.91600
H  27.58500 0.57300 34.84300
H  25.04200 0.59100 36.12000
H  25.45600 2.13600 35.78500
H  19.82500 -1.31600 29.85700
H  20.20800 0.46600 30.04500
H  20.47400 -0.72900 31.28600
H  18.96200 0.22900 26.32100
H  19.25100 0.26700 28.01700
H  19.18700 -1.33100 27.29700
H  25.82700 0.25500 24.58600
H  28.19100 -1.50600 24.68400
H  26.58600 -2.41600 23.59500
H  25.04500 -1.63900 23.21900
H  25.20100 -2.70200 24.59600
H  28.72400 1.12700 25.79900
H  27.87800 1.15700 24.20800
H  29.70700 0.33000 23.07400
H  30.18600 -0.63400 24.36900
H  30.65100 1.06800 24.38900
H  31.78200 -2.32700 28.42600
H  32.37700 -1.34600 29.82700
H  31.91800 -0.61600 28.21800
H  29.36100 0.12900 33.58400
H  30.12000 -1.78200 37.48200
H  29.61900 -3.17200 36.50500
H  28.38700 -1.92600 37.03600
Mg 7.34300 57.67900 41.58600
C  6.44400 54.29200 41.51100
C  10.42900 56.70100 40.20300
C  8.04300 60.86200 41.04200
C  4.18400 58.46800 42.57500
N  8.37600 55.65000 40.86600
C  7.77100 54.42600 41.03500
C  8.69600 53.35900 40.54000
C  10.08000 54.08300 40.42500
C  9.67500 55.55800 40.51300
C  11.10000 53.69500 41.44500
C  8.28700 52.64700 39.19700
C  8.53200 51.14100 39.03800
H  8.74200 50.49600 37.68400
N  8.97900 58.67100 40.70900
C  10.11300 58.08900 40.24400
C  11.00300 59.08700 39.75400
C  10.44300 60.36900 39.92800
C  9.09900 59.97700 40.61200
C  12.38000 58.74500 39.26500
C  11.04000 61.70200 39.49500
O  12.20200 61.85000 39.18500
C  10.10500 62.82500 39.60400
N  6.18500 59.44300 41.71000
C  6.78300 60.63800 41.52300
C  5.82600 61.79800 42.09300
C  4.63700 60.97200 42.66000
C  5.01000 59.53900 42.30900
C  6.46200 62.79400 43.16500
C  3.28200 61.49500 42.17000
C  2.17400 61.84000 43.22900
N  5.59500 56.64900 42.00600
C  4.39900 57.06700 42.44300
C  3.57700 55.91900 42.85000
C  4.33600 54.80900 42.37900
C  5.53900 55.30100 41.99800
C  2.22800 55.93800 43.40800
C  4.32700 53.35300 42.31600
O  3.58800 52.43400 42.61900
C  5.69300 53.01500 41.63400
C  5.22000 52.24500 40.39200
O  4.79500 52.70800 39.35700
O  5.44000 50.89900 40.67200
C  4.97100 49.90300 39.64600
H  11.39000 56.37700 39.79900
H  8.25200 61.93100 40.95600
H  3.18400 58.77700 42.88500
H  8.90300 52.58000 41.27400
H  10.56700 53.96500 39.45700
H  11.12500 52.71000 41.91000
H  11.09500 54.44700 42.23400
H  12.11600 53.77700 41.05900
H  8.84900 53.14100 38.40400
H  7.24400 52.82100 38.93400
H  7.62500 50.67000 39.41600
H  9.36900 50.83000 39.66200
H  12.51200 57.81900 38.70500
H  13.06000 58.90300 40.10200
H  12.77300 59.51500 38.60100
H  9.80400 62.98200 40.64000
H  9.19900 62.43300 39.14200
H  10.48500 63.75700 39.18700
H  5.45000 62.35900 41.23700
H  4.60900 60.94700 43.74900
H  6.33000 63.80600 42.78100
H  7.52600 62.61000 43.31100
H  5.94900 62.85300 44.12500
H  2.74100 60.73300 41.61000
H  3.37900 62.42600 41.61000
H  1.37800 62.39100 42.72700
H  2.42300 62.46300 44.08900
H  1.74800 60.93700 43.66600
H  1.45900 56.43300 42.81500
H  2.25600 56.49000 44.34800
H  1.94400 54.89500 43.55200
H  6.22300 52.30600 42.27000
H  5.83200 49.26800 39.43800
H  4.74300 50.35700 38.68100
H  4.08500 49.41400 40.05000

