158

Mg 48.27100 15.19700 29.07800
C  46.25900 15.35700 31.99000
C  50.59500 16.97600 30.82600
C  50.17800 15.28000 26.24000
C  45.56900 14.08700 27.27200
N  48.33800 16.10400 31.22600
C  47.50100 15.95400 32.24100
C  47.97400 16.50800 33.53200
C  49.37500 17.05500 33.17100
C  49.49500 16.72400 31.67300
C  49.47500 18.56000 33.51400
C  47.83300 15.45100 34.69300
C  47.00700 15.82700 35.89700
H  47.04300 17.34700 36.25700
N  50.15000 15.91700 28.60500
C  50.92000 16.58500 29.48400
C  52.13600 16.95900 28.76400
C  52.16200 16.36200 27.50400
C  50.77000 15.80400 27.39200
C  53.19800 17.68000 29.37000
C  53.22400 16.29300 26.39900
O  52.99700 15.70600 25.34400
C  54.47300 17.04800 26.54400
N  47.88600 14.78600 27.04900
C  48.88600 14.82000 25.99700
C  48.24200 14.33200 24.66100
C  46.81400 13.94100 25.15000
C  46.74500 14.29100 26.59200
C  48.33800 15.30800 23.51800
C  46.54000 12.42500 24.92500
C  46.18400 11.95800 23.53800
N  46.36400 14.75800 29.50100
C  45.34600 14.23700 28.65800
C  44.14500 14.07600 29.38300
C  44.47400 14.55800 30.64600
C  45.83800 14.87000 30.73000
C  42.90200 13.56800 28.75400
C  43.86900 14.67500 31.91600
O  42.73900 14.45400 32.33600
C  44.99700 15.25500 32.83700
C  44.55800 16.56300 33.41800
O  44.83000 17.69900 32.99800
O  43.78200 16.36300 34.55600
C  43.02100 17.43500 35.19600
H  51.35300 17.59500 31.30800
H  50.79400 15.26600 25.33800
H  44.68800 13.71300 26.74700
H  47.19600 17.24400 33.73200
H  50.08100 16.51300 33.80000
H  49.75800 19.11200 32.61800
H  50.15800 18.64200 34.36000
H  48.48100 18.98300 33.66000
H  48.83800 15.21500 35.04600
H  47.49300 14.54200 34.19600
H  47.26700 15.16600 36.72300
H  45.97000 15.70700 35.58100
H  53.37000 18.51600 28.69200
H  54.07700 17.04700 29.24300
H  53.02500 18.12000 30.35200
H  54.99900 16.89200 25.60200
H  54.98400 16.64600 27.41900
H  54.26800 18.08900 26.79400
H  48.84300 13.44800 24.44700
H  46.02400 14.51400 24.66600
H  48.94800 14.73500 22.82000
H  48.88200 16.16100 23.92500
H  47.39200 15.60400 23.06400
H  45.78300 12.05600 25.61700
H  47.46100 11.90900 25.19900
H  46.93900 11.35200 23.03800
H  45.96000 12.84300 22.94200
H  45.29200 11.33300 23.49700
H  43.16400 12.52600 28.57200
H  42.56100 14.13000 27.88400
H  42.03300 13.59500 29.41200
H  45.10900 14.56000 33.66900
H  43.64600 18.32200 35.29800
H  42.62800 17.22500 36.19100
H  42.19800 17.60400 34.50100
Mg 6.46200 54.06300 41.50100
C  5.94400 50.53600 41.16400
C  9.71500 53.43800 40.40300
C  6.93300 57.42100 41.12700
C  3.24100 54.45800 42.37600
N  7.66400 52.15600 40.84000
C  7.24500 50.86000 40.70700
C  8.35500 49.99200 40.21700
C  9.58700 50.84300 40.53100
C  8.98300 52.28100 40.57300
C  10.39300 50.66800 41.83000
C  8.34600 49.56000 38.73600
C  7.81500 50.56100 37.73300
H  6.81600 50.10900 36.63000
N  8.08500 55.25400 40.80400
C  9.31300 54.78000 40.45100
C  10.16900 55.94800 40.27600
C  9.45300 57.15100 40.53000
C  8.05700 56.64600 40.74000
C  11.73800 55.88100 40.06100
C  9.92300 58.54400 40.41800
O  11.14300 58.68300 40.21500
C  9.01600 59.66900 40.50000
N  5.26700 55.71900 41.62000
C  5.65800 56.97200 41.54900
C  4.59500 57.95800 41.99800
C  3.41000 56.98000 42.26400
C  3.99800 55.60000 42.10900
C  5.07800 58.91100 43.14300
C  2.05500 57.18600 41.45500
C  2.05800 56.45900 40.04500
N  4.87400 52.75900 41.71500
C  3.57100 53.09000 42.10600
C  2.78100 51.93900 42.31900
C  3.68400 50.86200 41.94000
C  4.93100 51.43700 41.58800
C  1.45800 51.76900 42.92800
C  3.79800 49.40900 41.83600
O  3.00800 48.55600 42.12400
C  5.29000 49.19100 41.43200
C  5.37200 48.40400 40.15900
O  5.12500 48.84300 39.03600
O  5.72800 47.15300 40.51900
C  5.61900 46.15500 39.39400
H  10.79400 53.35300 40.26000
H  6.99600 58.51100 41.08800
H  2.22200 54.67500 42.70400
H  8.33800 49.03400 40.73600
H  10.35300 50.78400 39.75800
H  9.87700 50.00100 42.52000
H  10.53000 51.63800 42.30800
H  11.39000 50.25000 41.68700
H  7.88200 48.57600 38.80300
H  9.41500 49.47300 38.53900
H  8.71100 50.86100 37.18900
H  7.44000 51.46700 38.20900
H  12.00500 56.41000 39.14700
H  12.17000 54.89700 39.87600
H  12.14600 56.21100 41.01600
H  9.49200 60.59200 40.16800
H  8.73300 59.87700 41.53200
H  8.16600 59.46500 39.84900
H  4.37500 58.64000 41.17600
H  3.23800 57.07100 43.33600
H  5.99700 58.53600 43.59300
H  4.19800 59.02000 43.77700
H  5.36400 59.88900 42.75700
H  1.94900 58.25500 41.27000
H  1.12100 56.97900 41.97800
H  2.29600 57.09300 39.19000
H  1.06100 56.08600 39.81400
H  2.66100 55.55200 39.99300
H  1.51800 51.44100 43.96500
H  0.80500 51.04100 42.44700
H  0.84300 52.66600 42.85000
H  5.90100 48.65600 42.15900
H  5.86300 45.16400 39.77800
H  6.29700 46.38200 38.57100
H  4.59200 46.11300 39.03200

