158

Mg 24.98600 -5.14700 46.33700
C  27.26700 -2.83200 44.69100
C  22.75200 -4.49200 43.95300
C  23.40500 -7.86500 47.32200
C  27.83900 -6.04100 48.25800
N  25.06100 -3.82500 44.55300
C  25.98900 -2.88800 44.18700
C  25.44100 -2.03600 42.97600
C  23.93800 -2.41900 43.02800
C  23.89800 -3.65800 43.87300
C  22.92000 -1.36000 43.55500
C  26.07500 -2.43000 41.63900
C  26.34600 -1.31500 40.51800
H  25.79400 -1.57200 39.08600
N  23.18900 -5.95300 45.90200
C  22.42400 -5.50900 44.84800
C  21.23400 -6.27700 44.84900
C  21.32500 -7.22900 45.94400
C  22.67200 -7.10500 46.44500
C  20.00800 -6.00100 43.94800
C  20.31100 -8.21500 46.50500
O  19.24900 -8.43700 45.88500
C  20.57500 -9.15500 47.70900
N  25.56200 -6.75400 47.53600
C  24.73000 -7.76400 47.85200
C  25.35700 -8.92100 48.58000
C  26.81200 -8.24300 48.85600
C  26.76200 -6.94500 48.17300
C  24.49800 -9.42800 49.74600
C  28.01900 -9.08100 48.46200
C  28.18000 -10.46800 49.20200
N  27.06900 -4.48900 46.63000
C  27.99600 -4.84700 47.53800
C  29.21200 -4.06200 47.42500
C  28.94700 -3.27500 46.31900
C  27.64600 -3.59600 45.83000
C  30.56400 -4.25200 48.11700
C  29.55200 -2.32200 45.40800
O  30.69400 -1.87600 45.39900
C  28.48900 -2.03000 44.30800
C  28.11400 -0.63700 44.40800
O  27.83200 0.07000 45.35600
O  28.23500 -0.08400 43.04900
C  28.09800 1.42400 42.87500
H  22.05200 -4.25000 43.15000
H  23.00200 -8.83400 47.62300
H  28.74400 -6.37200 48.77000
H  25.63100 -0.98000 43.17000
H  23.66300 -2.77000 42.03300
H  23.39500 -0.38200 43.63400
H  22.57800 -1.59400 44.56400
H  22.04200 -1.32200 42.91000
H  25.53000 -3.25300 41.17600
H  27.03700 -2.90400 41.83300
H  27.39900 -1.07200 40.37100
H  25.89300 -0.42500 40.95400
H  19.39100 -5.22900 44.40800
H  19.44600 -6.92800 43.83500
H  20.42800 -5.73000 42.98000
H  20.89700 -8.58100 48.57800
H  21.25500 -9.91700 47.32900
H  19.60800 -9.61600 47.91100
H  25.59100 -9.73300 47.89100
H  26.80000 -8.18900 49.94500
H  23.41600 -9.29600 49.72900
H  24.94600 -9.17800 50.70800
H  24.47000 -10.51800 49.74700
H  28.92800 -8.58700 48.80600
H  28.13700 -9.46000 47.44700
H  28.03700 -11.27100 48.47900
H  27.48700 -10.48100 50.04400
H  29.21400 -10.52000 49.54200
H  30.93300 -5.21200 47.75500
H  30.40500 -4.30400 49.19400
H  31.22300 -3.41300 47.89100
H  28.81300 -2.40600 43.33700
H  28.62600 1.97900 43.65100
H  27.02900 1.63400 42.84500
H  28.55700 1.68500 41.92200
Mg 47.79800 24.52200 27.41200
C  48.94300 26.69200 29.82800
C  47.63000 22.06800 29.93400
C  47.02100 22.19600 25.08600
C  49.05700 26.57100 24.96700
N  48.07600 24.51500 29.69000
C  48.52000 25.52000 30.46800
C  48.38600 25.14600 31.98200
C  48.11600 23.61100 31.94000
C  47.92900 23.35200 30.47400
C  49.19500 22.70300 32.50900
C  47.27900 25.95400 32.72600
C  47.70700 26.56900 34.14200
H  46.68100 26.33800 35.37500
N  47.26200 22.47600 27.54500
C  47.25300 21.62600 28.63300
C  46.80900 20.32200 28.28600
C  46.36300 20.39600 26.91200
C  46.83600 21.73800 26.43400
C  46.96100 19.20700 29.30000
C  45.68200 19.39000 26.06000
O  45.46500 19.67500 24.86700
C  45.17600 18.00300 26.56100
N  48.27100 24.24600 25.22400
C  47.54700 23.31300 24.52100
C  47.76800 23.51500 23.00700
C  48.25300 25.01900 23.00000
C  48.58900 25.31000 24.45700
C  48.77000 22.47600 22.45000
C  47.20700 26.09700 22.48100
C  47.49800 26.49200 21.07500
N  48.58700 26.36800 27.30600
C  49.01100 27.07100 26.24600
C  49.62500 28.34500 26.72500
C  49.46800 28.26600 28.14500
C  48.92500 27.00300 28.42400
C  50.16100 29.40500 25.82700
C  49.62800 28.92200 29.38900
O  50.11000 29.99400 29.68300
C  49.22200 27.99700 30.53100
C  50.26300 27.92800 31.59900
O  51.34300 27.41500 31.57300
O  49.91400 28.82500 32.57700
C  50.70800 28.90400 33.82400
H  47.41600 21.49400 30.83800
H  46.80400 21.40100 24.36900
H  49.37400 27.28500 24.20400
H  49.36600 25.35900 32.40700
H  47.23600 23.35000 32.52900
H  49.83200 22.35300 31.69700
H  48.64100 21.91200 33.01400
H  49.77400 23.15900 33.31300
H  46.40400 25.33100 32.91400
H  46.95300 26.78500 32.10200
H  47.68600 27.65000 34.00700
H  48.72400 26.31800 34.44400
H  46.01200 18.99100 29.79200
H  47.71100 19.52000 30.02600
H  47.38300 18.33600 28.79800
H  45.93300 17.23000 26.69200
H  44.55500 17.65500 25.73600
H  44.58700 18.33100 27.41700
H  46.79800 23.39900 22.52300
H  49.19800 25.11800 22.46500
H  48.54100 22.39400 21.38700
H  48.70000 21.52200 22.97200
H  49.77500 22.78500 22.73600
H  47.26700 26.98600 23.10900
H  46.17300 25.75600 22.53800
H  48.31600 26.04100 20.51300
H  47.57800 27.57800 21.01400
H  46.64700 26.15400 20.48300
H  49.46400 29.67000 25.03200
H  51.05200 29.06400 25.30100
H  50.38800 30.22200 26.51200
H  48.32100 28.42000 30.97600
H  50.02100 29.01300 34.66300
H  51.08000 29.92800 33.81500
H  51.51500 28.20200 34.03500

