158

Mg 8.62500 3.10000 27.36400
C  9.63700 1.61900 30.31200
C  6.53400 5.11400 29.31900
C  7.34700 4.27300 24.58900
C  10.12400 0.50100 25.57200
N  8.11500 3.28000 29.61900
C  8.79900 2.67400 30.58000
C  8.40600 3.23200 31.98600
C  7.33400 4.39800 31.65900
C  7.27400 4.23500 30.12600
C  6.09200 4.35500 32.46800
C  9.59700 3.80900 32.84000
C  9.98300 3.18200 34.15200
H  10.13800 4.09300 35.36800
N  7.22600 4.53600 27.01900
C  6.42900 5.27400 27.90700
C  5.72300 6.23400 27.21600
C  5.98600 6.03400 25.83300
C  6.90300 4.93300 25.73500
C  4.91700 7.26900 27.94200
C  5.54500 6.81800 24.61100
O  5.75300 6.57700 23.41500
C  4.57400 7.94400 24.86100
N  8.58800 2.37500 25.39900
C  8.08600 3.12000 24.43600
C  8.12200 2.42800 23.11500
C  9.35700 1.56600 23.34100
C  9.35400 1.43900 24.85300
C  6.80500 1.61100 22.85600
C  10.72700 2.03400 22.82600
C  11.61900 0.92000 22.23000
N  9.66000 1.34800 27.74600
C  10.24800 0.44300 26.92300
C  11.02400 -0.44900 27.75000
C  10.90900 0.00000 29.07400
C  9.99700 1.10300 29.05500
C  11.85400 -1.50300 27.23500
C  11.30100 -0.26900 30.46300
O  12.06600 -1.11800 30.92500
C  10.40600 0.71000 31.30700
C  9.53200 0.06400 32.23100
O  8.45100 -0.41300 31.98900
O  10.17300 -0.18700 33.48100
C  9.41700 -0.89200 34.53700
H  6.06200 5.90400 29.90700
H  7.10500 4.77400 23.64900
H  10.67100 -0.22800 24.97000
H  7.84400 2.43200 32.46800
H  7.81500 5.37600 31.67600
H  5.95000 3.46200 33.07600
H  5.19300 4.40300 31.85400
H  6.05100 5.29800 33.01300
H  9.38400 4.85900 33.04100
H  10.54500 3.83800 32.30400
H  10.97600 2.73500 34.11800
H  9.20400 2.46400 34.41000
H  5.36700 8.20500 27.61100
H  4.98700 7.30100 29.02900
H  3.86700 7.30200 27.65100
H  3.68400 7.54800 25.35000
H  4.21200 8.34200 23.91300
H  5.21100 8.59100 25.46500
H  8.24600 3.14000 22.29900
H  9.15700 0.59600 22.88400
H  6.17400 1.84500 23.71300
H  7.09700 0.56900 22.73000
H  6.32400 2.01700 21.96500
H  11.14600 2.50800 23.71400
H  10.63700 2.87400 22.13600
H  12.46800 0.79900 22.90300
H  11.93200 1.30400 21.25900
H  11.00100 0.04300 22.03900
H  11.25800 -2.29900 26.78800
H  12.55300 -1.83400 28.00300
H  12.46500 -1.05500 26.45100
H  11.04900 1.43200 31.81000
H  8.71100 -1.57200 34.05900
H  8.82400 -0.19300 35.12700
H  10.02100 -1.53400 35.17800
Mg 42.93400 4.49600 47.89900
C  40.99300 7.42300 48.01100
C  40.08000 2.56700 47.73100
C  44.80800 1.86200 47.07600
C  45.79200 6.56500 47.63000
N  40.83300 5.03300 47.64900
C  40.25300 6.29500 47.81000
C  38.75000 6.22200 47.91700
C  38.57300 4.70700 48.16400
C  39.89700 4.02600 47.71500
C  38.36100 4.37800 49.63400
C  37.99300 6.72000 46.66100
C  38.73500 6.62400 45.26900
H  38.98900 7.67500 44.28300
N  42.47500 2.51600 47.49000
C  41.32000 1.89800 47.60600
C  41.42600 0.45100 47.43200
C  42.82200 0.19900 47.23500
C  43.44100 1.57900 47.25000
C  40.22900 -0.42000 47.46400
C  43.41700 -1.14800 47.10000
O  42.69600 -2.14100 47.16700
C  44.92700 -1.39400 46.85100
N  45.01600 4.29000 47.42100
C  45.49900 3.07100 47.04500
C  46.99600 3.11000 46.93200
C  47.37000 4.59500 47.23400
C  45.99500 5.21300 47.43100
C  47.70100 2.07900 47.85300
C  48.28500 5.25700 46.13700
C  49.60700 5.81400 46.60000
N  43.38500 6.54600 47.92100
C  44.62100 7.24900 47.86000
C  44.30800 8.69100 47.95600
C  42.94500 8.76000 47.97100
C  42.42900 7.49000 47.98200
C  45.41700 9.78200 47.99900
C  41.89500 9.74000 48.17300
O  41.92200 10.97300 48.32900
C  40.58500 8.86900 48.11100
C  39.78100 9.10500 49.28900
O  40.09900 8.71700 50.40600
O  38.75600 9.94400 48.98100
C  37.94900 10.32700 50.15100
H  39.19800 1.93400 47.85100
H  45.47100 1.02200 46.85700
H  46.69200 7.18200 47.58000
H  38.54400 6.94400 48.70600
H  37.75200 4.17300 47.68400
H  37.76200 5.14000 50.13300
H  39.31100 4.27300 50.15800
H  37.70600 3.50800 49.68700
H  37.85300 7.79700 46.75600
H  37.00200 6.27300 46.73200
H  38.18400 5.82000 44.78200
H  39.77400 6.30100 45.33200
H  39.48300 -0.15600 46.71400
H  39.65100 -0.32100 48.38300
H  40.38100 -1.48600 47.29700
H  45.59300 -1.05500 47.64400
H  45.21700 -0.83500 45.96100
H  44.93300 -2.46000 46.62000
H  47.25900 2.78400 45.92500
H  47.81100 4.72500 48.22200
H  47.03000 1.45900 48.44700
H  48.37600 2.70500 48.43700
H  48.29700 1.38200 47.26300
H  47.70200 6.09100 45.74600
H  48.41500 4.51600 45.34800
H  49.61700 6.81000 46.15700
H  50.49600 5.38900 46.13400
H  49.66800 5.88200 47.68700
H  46.42500 9.38200 47.88500
H  45.34000 10.35900 48.92000
H  45.33000 10.40500 47.10900
H  39.99200 9.08800 47.22400
H  36.89600 10.04900 50.12200
H  37.82100 11.40700 50.22200
H  38.30800 10.01800 51.13300

