158

Mg -2.22700 33.61000 26.57800
C  -4.07400 32.15100 29.38200
C  -0.76200 35.74300 28.73900
C  -1.05000 35.15200 23.91400
C  -4.46500 31.60700 24.44000
N  -2.43300 33.84400 28.83600
C  -3.16200 33.09500 29.80900
C  -2.83500 33.54300 31.24000
C  -1.85600 34.73900 30.92900
C  -1.59000 34.77600 29.35700
C  -2.28500 36.08500 31.56100
C  -2.31800 32.38300 32.14900
C  -2.81800 32.34400 33.55700
H  -1.84000 32.24400 34.78400
N  -1.04900 35.28400 26.32500
C  -0.42500 35.96100 27.35900
C  0.53200 36.96600 26.80700
C  0.56000 36.64400 25.39100
C  -0.57400 35.67700 25.16400
C  1.40400 37.98900 27.51100
C  1.38900 37.35000 24.37900
O  1.22800 37.21800 23.14200
C  2.43900 38.33400 24.84400
N  -2.92300 33.55400 24.36900
C  -2.08300 34.26300 23.51400
C  -2.38400 33.77200 22.06600
C  -3.40300 32.62500 22.24500
C  -3.53400 32.45000 23.77000
C  -2.93600 35.01500 21.29600
C  -3.04000 31.39600 21.43200
C  -2.05500 30.41500 22.05400
N  -3.83600 32.13200 26.79300
C  -4.58700 31.44500 25.86000
C  -5.54100 30.54500 26.47900
C  -5.37500 30.78000 27.86300
C  -4.32900 31.71800 28.02500
C  -6.46800 29.63800 25.73300
C  -5.83500 30.39000 29.15900
O  -6.67800 29.55700 29.45900
C  -5.03100 31.29800 30.14400
C  -6.02500 32.10400 30.85900
O  -6.95900 32.66600 30.28900
O  -5.92300 31.93800 32.22600
C  -7.09900 32.32200 33.00100
H  -0.20200 36.42500 29.38200
H  -0.40200 35.50400 23.10800
H  -5.13000 30.86900 23.98600
H  -3.79200 33.88700 31.63100
H  -0.84300 34.71200 31.33200
H  -3.14100 35.94500 32.22200
H  -2.53200 36.66700 30.67300
H  -1.46800 36.54100 32.11900
H  -1.22900 32.41000 32.11000
H  -2.64000 31.41500 31.76500
H  -3.45600 31.46300 33.62600
H  -3.45500 33.20500 33.75900
H  2.46700 37.74600 27.51200
H  1.09400 37.90700 28.55300
H  1.28400 39.05600 27.32300
H  1.94500 39.22200 25.24000
H  2.97800 38.62000 23.94100
H  3.16800 37.88600 25.51900
H  -1.46200 33.48800 21.55600
H  -4.37000 32.96000 21.87000
H  -2.85800 35.92500 21.89200
H  -3.93000 34.86700 20.87200
H  -2.37300 35.25600 20.39500
H  -2.57400 31.78300 20.52600
H  -3.88400 30.82000 21.05000
H  -1.36100 30.16900 21.25000
H  -2.58400 29.51200 22.36100
H  -1.54300 30.90000 22.88500
H  -6.96700 30.26700 24.99600
H  -7.18800 29.27400 26.46600
H  -5.94000 28.87600 25.16000
H  -4.55500 30.52800 30.75000
H  -7.77300 31.46600 33.02300
H  -7.51700 33.28700 32.71600
H  -6.67800 32.35300 34.00600
Mg -6.23800 24.64500 26.04700
C  -4.40900 25.92200 28.81000
C  -8.11900 22.63000 28.15800
C  -7.49400 22.92100 23.41300
C  -4.13000 26.48500 24.03800
N  -6.22600 24.30700 28.20300
C  -5.33300 24.91500 29.10100
C  -5.76600 24.39900 30.60700
C  -6.65600 23.19300 30.30800
C  -7.10800 23.39400 28.80500
C  -5.91700 21.86800 30.57400
C  -6.55600 25.54900 31.37300
C  -5.80400 26.01600 32.64700
H  -5.53100 25.00500 33.84600
N  -7.73000 23.11400 25.77900
C  -8.39100 22.51500 26.74700
C  -9.43400 21.64900 26.13300
C  -9.22200 21.67900 24.76900
C  -8.08600 22.58100 24.59100
C  -10.49000 20.83700 26.94200
C  -9.89600 20.99100 23.61600
O  -9.57700 21.16100 22.46300
C  -10.91400 20.01000 23.93400
N  -5.60900 24.45000 24.10000
C  -6.34500 23.71200 23.17000
C  -5.80000 23.94900 21.74400
C  -4.72600 25.14900 21.92800
C  -4.80800 25.39200 23.44900
C  -5.28300 22.64300 21.05100
C  -5.05700 26.36500 20.94100
C  -3.90800 26.89500 20.03100
N  -4.70200 26.13600 26.31600
C  -3.98900 26.76900 25.35900
C  -3.11100 27.72100 25.95800
C  -3.18400 27.44700 27.36500
C  -4.20100 26.47400 27.49700
C  -2.18600 28.65800 25.25900
C  -2.58900 27.72700 28.70200
O  -1.64700 28.41200 29.10600
C  -3.42700 26.72000 29.61200
C  -2.47100 25.81500 30.29300
O  -2.12900 24.74400 29.99400
O  -2.06900 26.37100 31.47500
C  -1.28700 25.45900 32.38000
H  -8.65200 22.00700 28.87900
H  -7.77300 22.45400 22.46600
H  -3.50600 26.95500 23.27500
H  -4.87000 24.15800 31.17900
H  -7.55300 23.16900 30.92700
H  -4.92700 21.95400 31.02100
H  -5.83000 21.31300 29.64000
H  -6.45200 21.20800 31.25800
H  -7.62900 25.38700 31.48000
H  -6.50500 26.40100 30.69500
H  -6.31600 26.86900 33.09100
H  -4.82600 26.31100 32.26700
H  -10.28600 20.70200 28.00500
H  -10.60700 19.79200 26.65400
H  -11.51100 21.11800 26.68500
H  -11.33600 19.49700 23.06900
H  -11.68400 20.55900 24.47700
H  -10.32300 19.27900 24.48400
H  -6.69200 24.23000 21.18500
H  -3.79100 24.62300 21.73700
H  -5.56700 21.76500 21.63200
H  -4.20100 22.74600 21.13700
H  -5.49200 22.66600 19.98200
H  -5.31700 27.21800 21.56700
H  -5.90400 26.15800 20.28700
H  -3.83800 27.96300 20.23600
H  -4.21800 26.72400 19.00000
H  -2.95500 26.37100 20.10000
H  -2.71000 29.59500 25.07500
H  -1.93400 28.24900 24.28000
H  -1.35900 28.79100 25.95700
H  -3.89900 27.37300 30.34600
H  -0.35900 25.19500 31.87300
H  -1.86000 24.57700 32.66600
H  -1.04800 26.06100 33.25700

