158

Mg 17.31200 -2.09700 27.61800
C  16.37400 -0.43000 30.50300
C  19.33500 -4.02700 29.54500
C  18.28500 -3.78500 24.73800
C  15.57800 0.22600 25.74900
N  17.85400 -2.14100 29.71900
C  17.25700 -1.44900 30.74000
C  17.69500 -1.96900 32.11900
C  18.90800 -2.90100 31.80000
C  18.76100 -3.05200 30.26500
C  20.37000 -2.63900 32.23200
C  16.54200 -2.64700 32.87300
C  16.42300 -2.16600 34.34900
H  17.74600 -1.93000 35.13900
N  18.65500 -3.64700 27.22000
C  19.26500 -4.33700 28.19800
C  19.99600 -5.43100 27.58200
C  19.67800 -5.48000 26.11800
C  18.85300 -4.24000 25.92700
C  20.78600 -6.45700 28.38500
C  20.16900 -6.44700 25.05100
O  19.81700 -6.32800 23.87500
C  21.30200 -7.47300 25.34000
N  16.98400 -1.89700 25.53100
C  17.41600 -2.72000 24.53400
C  17.00500 -2.17400 23.16100
C  15.88700 -1.04800 23.53200
C  16.24400 -0.83300 25.03300
C  18.20300 -1.77400 22.19800
C  14.37900 -1.24900 23.34400
C  13.90100 -0.84800 21.95200
N  16.13500 -0.52000 27.89400
C  15.49300 0.36400 27.08500
C  14.77000 1.41000 27.83700
C  15.13300 1.16400 29.19800
C  15.90900 -0.02000 29.18600
C  14.01200 2.56900 27.21100
C  15.07100 1.69800 30.48100
O  14.51600 2.73700 30.79000
C  15.64100 0.61200 31.43200
C  16.62300 1.32100 32.39800
O  17.80100 1.55300 32.18300
O  15.91800 1.70700 33.54700
C  16.68600 2.52100 34.45200
H  19.74700 -4.77200 30.23000
H  18.52700 -4.38500 23.85800
H  15.01100 0.96100 25.17400
H  18.06200 -1.08700 32.64400
H  18.65300 -3.85300 32.26500
H  20.39400 -1.58900 32.52600
H  21.06400 -2.68000 31.39200
H  20.72800 -3.16700 33.11500
H  16.65700 -3.72800 32.78600
H  15.66900 -2.32400 32.30600
H  16.04500 -3.00300 34.93500
H  15.69600 -1.36800 34.50200
H  21.03900 -6.16300 29.40400
H  21.67400 -6.95300 27.99500
H  20.05100 -7.25700 28.47200
H  21.59100 -8.04600 24.45900
H  21.02800 -8.18800 26.11600
H  22.22800 -6.98200 25.64000
H  16.48800 -3.00900 22.68700
H  16.10400 -0.09500 23.05000
H  19.16400 -1.77700 22.71200
H  18.12200 -0.88200 21.57700
H  18.19900 -2.57100 21.45400
H  13.75400 -1.02100 24.20700
H  14.21900 -2.32700 23.31100
H  12.83300 -1.01700 22.09200
H  14.26800 -1.54100 21.19500
H  13.96600 0.19600 21.64400
H  13.95700 3.47700 27.81100
H  13.00200 2.16400 27.13800
H  14.48900 2.79100 26.25600
H  14.85200 0.13800 32.01500
H  17.69900 2.24400 34.74300
H  16.09600 2.53600 35.36800
H  16.70400 3.55500 34.10800
Mg 53.54500 23.78000 44.40400
C  50.96100 26.00400 43.68300
C  51.51300 21.14100 43.27100
C  56.28800 21.75500 44.12200
C  55.47800 26.47400 45.29000
N  51.46800 23.61000 43.68800
C  50.63600 24.65600 43.35400
C  49.31500 24.11800 42.87900
C  49.46300 22.56200 43.11700
C  50.91200 22.39500 43.42200
C  48.52800 21.90700 44.11000
C  49.11500 24.48100 41.32100
C  47.69400 24.82000 40.94500
H  47.30300 24.17900 39.50800
N  53.86100 21.65600 43.76700
C  52.89300 20.82800 43.26300
C  53.47900 19.51400 42.95000
C  54.82900 19.70400 43.07700
C  55.10100 21.05200 43.69000
C  52.69000 18.33500 42.63200
C  55.83600 18.62000 42.85500
O  55.55500 17.43200 42.56700
C  57.32400 18.91300 42.91600
N  55.62400 24.04100 44.67000
C  56.49800 23.10200 44.53600
C  57.90800 23.63800 44.75800
C  57.67100 25.12400 45.24800
C  56.14300 25.24300 45.05400
C  58.74300 22.79300 45.75300
C  58.38000 26.15300 44.41700
C  59.03900 27.30700 45.13600
N  53.34400 25.85500 44.54300
C  54.15000 26.80800 45.03900
C  53.47700 28.09000 45.16700
C  52.22000 27.78900 44.55900
C  52.17100 26.43400 44.24600
C  53.91300 29.46300 45.71500
C  50.96800 28.35000 44.16800
O  50.49800 29.47600 44.32100
C  50.17400 27.21500 43.42500
C  49.89500 27.66700 42.06500
O  50.72900 27.86700 41.17700
O  48.51900 27.80300 41.92800
C  48.14600 28.38800 40.60400
H  50.91700 20.22900 43.19300
H  57.15700 21.09500 44.08200
H  56.17100 27.29300 45.49800
H  48.51200 24.52200 43.49500
H  49.20300 21.99100 42.22600
H  47.63500 22.49400 44.32900
H  48.98500 21.78900 45.09300
H  48.15000 20.95500 43.73800
H  49.29700 23.50400 40.87400
H  49.83500 25.21900 40.96900
H  47.52500 25.89500 41.00700
H  47.01600 24.39400 41.68400
H  51.86100 18.55600 41.96000
H  52.32600 17.77400 43.49300
H  53.30500 17.63900 42.06100
H  57.71700 19.79700 42.41400
H  57.74600 18.13000 42.28500
H  57.62500 18.92700 43.96300
H  58.32900 23.60000 43.75400
H  57.70800 25.23000 46.33200
H  58.23600 21.89100 46.09800
H  58.96700 23.43900 46.60100
H  59.63900 22.40600 45.26600
H  57.82800 26.59900 43.58900
H  59.22000 25.63200 43.95900
H  60.12800 27.26400 45.15000
H  58.55600 27.50800 46.09200
H  58.82600 28.19800 44.54600
H  54.61400 29.82900 44.96400
H  54.60200 29.40100 46.55700
H  53.09000 30.16800 45.83600
H  49.33200 27.09100 44.10500
H  47.05600 28.39300 40.59800
H  48.42200 27.87000 39.68500
H  48.52500 29.39900 40.75400

