158

Mg 7.84600 2.95200 26.81400
C  8.90200 1.54700 29.75300
C  6.16700 5.38500 28.68500
C  6.56700 4.39800 23.93300
C  9.05200 0.24300 24.98500
N  7.57200 3.41900 28.98600
C  8.13600 2.69900 29.97300
C  7.90700 3.38200 31.32700
C  6.80900 4.48000 30.94500
C  6.86700 4.47900 29.44900
C  5.38300 4.13500 31.47800
C  9.21800 3.94300 31.92700
C  9.78300 3.50100 33.26700
H  9.89900 4.67100 34.28200
N  6.49500 4.61300 26.32900
C  5.98700 5.48100 27.27800
C  5.25300 6.55000 26.62000
C  5.36800 6.25000 25.17600
C  6.18000 5.09200 25.07500
C  4.50700 7.61900 27.33200
C  4.71300 7.00600 24.03400
O  4.90600 6.62500 22.85000
C  3.77000 8.11800 24.31900
N  7.87500 2.39900 24.79900
C  7.29300 3.20300 23.79100
C  7.27000 2.41700 22.46600
C  8.25800 1.19700 22.75500
C  8.39300 1.23600 24.29800
C  5.75400 1.92000 22.07600
C  9.67600 1.33700 22.12300
C  10.08000 0.21000 21.19600
N  8.68300 1.17000 27.23800
C  9.21900 0.22000 26.39100
C  9.93400 -0.71900 27.15100
C  9.76200 -0.24500 28.47300
C  9.03800 0.91600 28.47200
C  10.79300 -1.85700 26.69100
C  10.17900 -0.48600 29.85400
O  10.85900 -1.34100 30.36900
C  9.64600 0.74300 30.70700
C  8.89000 0.15700 31.90900
O  7.83500 -0.42400 31.89700
O  9.64700 0.29700 33.03600
C  9.24800 -0.25700 34.36900
H  5.67200 6.16200 29.27200
H  6.24000 4.64000 22.92000
H  9.44800 -0.58400 24.39300
H  7.52900 2.72100 32.10700
H  7.01700 5.44900 31.39700
H  5.32300 3.33300 32.21400
H  4.73800 3.84100 30.65000
H  4.84300 4.97900 31.90700
H  9.05900 5.01400 32.05500
H  10.06000 3.71000 31.27600
H  10.66000 2.92400 32.97300
H  9.10300 2.77500 33.71100
H  3.48700 7.23500 27.31200
H  4.51100 8.65400 26.99000
H  4.77300 7.70800 28.38500
H  2.93800 7.65900 24.85200
H  3.34300 8.37400 23.34900
H  4.16900 9.02300 24.77700
H  7.78800 3.07100 21.76400
H  7.73900 0.27400 22.49800
H  5.09600 2.13900 22.91700
H  5.78400 0.86800 21.79000
H  5.43100 2.47400 21.19600
H  10.41400 1.48800 22.91100
H  9.67900 2.29900 21.61100
H  10.12100 0.73100 20.23900
H  9.31400 -0.54300 21.01200
H  11.08600 -0.12400 21.44900
H  11.30300 -2.28800 27.55200
H  11.44800 -1.45700 25.91700
H  10.26700 -2.64000 26.14400
H  10.52700 1.34800 30.92000
H  10.05200 -0.91500 34.69600
H  8.30500 -0.80300 34.40200
H  9.12100 0.57600 35.06100
Mg 36.17800 49.22900 24.86300
C  36.30900 47.44100 27.83500
C  35.21600 52.01500 26.60800
C  35.51100 50.85400 21.93900
C  36.71700 46.20900 23.17700
N  35.91100 49.68200 27.05800
C  35.98300 48.80300 28.11100
C  35.60400 49.45700 29.48100
C  35.06700 50.90400 29.01100
C  35.34900 50.87600 27.46400
C  33.56100 51.10700 29.35700
C  36.84800 49.66600 30.41500
C  36.61100 49.12400 31.84300
H  35.22700 49.11900 32.41000
N  35.60200 51.20100 24.36500
C  35.28600 52.17100 25.22500
C  34.85400 53.36000 24.53700
C  34.95600 53.14500 23.11400
C  35.37000 51.70400 23.04600
C  34.44100 54.70500 25.21100
C  34.57000 53.98600 21.92600
O  34.56900 53.60200 20.74400
C  34.06500 55.46100 22.22400
N  36.00000 48.61000 22.82200
C  35.94800 49.55400 21.84100
C  36.28900 48.85000 20.44200
C  36.76300 47.43900 20.80100
C  36.57800 47.37800 22.39600
C  35.12000 48.79800 19.44700
C  38.21700 47.14100 20.38900
C  39.30000 47.73500 21.29500
N  36.52000 47.23200 25.35000
C  36.73700 46.13500 24.55500
C  37.14700 45.00900 25.30700
C  36.98800 45.45000 26.66400
C  36.50900 46.79100 26.62700
C  37.58000 43.71100 24.78100
C  37.06000 45.07300 28.00100
O  37.30900 43.97800 28.50600
C  36.60100 46.30700 28.84200
C  35.43900 46.01100 29.78600
O  34.21500 45.92800 29.49500
O  35.82400 45.77900 31.06100
C  34.80200 45.05000 31.82300
H  34.77300 52.89700 27.07400
H  35.33400 51.33100 20.97200
H  36.94600 45.37700 22.50900
H  34.83400 48.81500 29.91000
H  35.70600 51.66900 29.45200
H  33.00900 51.23200 28.42600
H  33.30100 51.91300 30.04400
H  33.14600 50.23300 29.85900
H  37.21100 50.67900 30.58900
H  37.66900 49.16000 29.90800
H  37.22700 49.69500 32.53800
H  37.08800 48.14500 31.82200
H  34.65100 54.88500 26.26500
H  33.35800 54.72500 25.09200
H  34.86700 55.58800 24.73500
H  33.12200 55.44500 22.76900
H  33.99000 55.85800 21.21100
H  34.88000 56.01400 22.69200
H  37.09200 49.37500 19.92400
H  36.06300 46.69600 20.41800
H  34.53400 49.71200 19.54400
H  34.44900 47.94100 19.51400
H  35.65200 48.80400 18.49600
H  38.34900 47.43200 19.34700
H  38.32500 46.05800 20.45100
H  39.90600 48.38900 20.66800
H  39.93600 47.00400 21.79500
H  38.92600 48.37700 22.09300
H  38.08900 43.84800 23.82700
H  36.69400 43.12900 24.52700
H  38.23400 43.19100 25.48100
H  37.44300 46.66700 29.43300
H  34.48600 44.15000 31.29600
H  34.03000 45.74000 32.16500
H  35.33500 44.78100 32.73500

