158

Mg 41.97200 41.06500 27.78600
C  41.50200 43.61400 30.00200
C  43.40800 39.13300 30.21500
C  42.31600 38.66100 25.42200
C  41.33200 43.37400 25.14800
N  42.29000 41.27400 29.85500
C  41.88400 42.39100 30.60200
C  41.97900 42.08400 32.09400
C  42.77700 40.70400 32.17100
C  42.81600 40.31200 30.63700
C  44.16800 40.78900 32.75200
C  40.59800 41.90700 32.79300
C  40.27700 42.79100 33.99000
H  39.68500 42.16700 35.31200
N  42.64400 39.11900 27.82900
C  43.25100 38.52600 28.89200
C  43.57000 37.16900 28.55000
C  43.16200 36.97900 27.18800
C  42.67900 38.26600 26.72600
C  44.33800 36.14900 29.38600
C  43.17900 35.66200 26.29800
O  42.75500 35.70500 25.13300
C  43.76900 34.36400 26.76800
N  41.80700 41.00000 25.59400
C  41.92300 39.90100 24.88300
C  41.52600 40.01800 23.38100
C  41.17000 41.56400 23.39400
C  41.49900 42.07400 24.78800
C  42.75800 39.62700 22.50800
C  39.63600 41.92200 22.89100
C  38.58300 41.76800 24.01100
N  41.49900 43.06900 27.55800
C  41.28400 43.86300 26.46400
C  40.96600 45.23800 26.85000
C  41.02500 45.10700 28.28400
C  41.37600 43.81500 28.63300
C  40.66800 46.36600 25.96900
C  40.84000 45.86700 29.46200
O  40.57600 47.05000 29.60900
C  40.87500 44.81000 30.62500
C  41.86200 45.35600 31.59200
O  43.04300 45.21500 31.36900
O  41.32400 45.97300 32.67200
C  42.29800 46.49800 33.65900
H  43.78800 38.42400 30.95300
H  42.47800 37.84600 24.71400
H  41.06200 44.08700 24.36700
H  42.48700 42.87400 32.64700
H  42.28400 39.95900 32.79500
H  44.57600 41.71400 32.34500
H  44.92900 40.06700 32.45600
H  44.07400 40.78600 33.83800
H  40.42000 40.89300 33.15000
H  39.85200 42.12800 32.03000
H  39.62600 43.61700 33.70700
H  41.16700 43.35200 34.27500
H  44.71700 36.60500 30.30000
H  45.13100 35.79300 28.72900
H  43.68300 35.31500 29.64200
H  43.31200 34.02200 27.69700
H  44.75300 34.38800 27.23800
H  43.59100 33.53400 26.08400
H  40.60400 39.46600 23.19900
H  41.88700 42.05200 22.73400
H  43.60600 39.36000 23.13800
H  43.10800 40.52100 21.99000
H  42.41700 38.80400 21.88000
H  39.30200 41.26500 22.08700
H  39.66200 42.94600 22.51700
H  39.00700 41.94300 25.00000
H  38.39900 40.69500 24.06600
H  37.64700 42.30500 23.85500
H  39.65500 46.73100 26.13800
H  40.74400 46.08100 24.91900
H  41.41300 47.13200 26.18200
H  39.83300 44.80000 30.94400
H  41.68100 47.32100 34.02100
H  43.24000 46.80700 33.20700
H  42.47700 45.72700 34.40900
Mg -10.18000 16.73900 40.89400
C  -6.74500 16.25400 41.24000
C  -9.67600 19.99300 40.01100
C  -13.41400 16.87900 40.11300
C  -10.61600 13.11300 41.25400
N  -8.34700 17.88000 40.49100
C  -7.05600 17.54600 40.81900
C  -6.14600 18.60100 40.37700
C  -7.08000 19.87900 40.38400
C  -8.46100 19.27000 40.30500
C  -6.83300 20.92000 41.52900
C  -5.58000 18.22000 39.00700
C  -4.13000 17.61000 38.99700
H  -3.92300 16.20600 38.40500
N  -11.37700 18.28000 40.10800
C  -10.98200 19.53900 39.87200
C  -12.21900 20.30200 39.55000
C  -13.31500 19.42100 39.38700
C  -12.73200 18.12000 39.83200
C  -12.06900 21.77900 39.15200
C  -14.69100 19.67200 38.90300
O  -14.87300 20.79400 38.40600
C  -15.94500 18.74000 38.86600
N  -11.79800 15.19300 40.86700
C  -13.01100 15.60500 40.58300
C  -14.00800 14.42400 40.46400
C  -13.20600 13.31400 41.04500
C  -11.76400 13.90800 40.97000
C  -15.27500 14.61400 41.38500
C  -13.35700 11.95000 40.26500
C  -13.87100 10.81200 41.12400
N  -9.01000 15.02100 41.30600
C  -9.32500 13.64800 41.36900
C  -8.09900 12.93800 41.69500
C  -7.09100 13.92000 41.73100
C  -7.68900 15.11300 41.32500
C  -8.01300 11.41600 41.94400
C  -5.73200 14.12900 42.01400
O  -4.91300 13.37700 42.47700
C  -5.39900 15.63200 41.71500
C  -5.10000 16.28400 42.99800
O  -5.74300 16.12400 44.02600
O  -4.01200 17.14300 42.86600
C  -3.40500 17.41600 44.17700
H  -9.64200 21.06700 39.81800
H  -14.47800 16.98800 39.89200
H  -10.72200 12.03000 41.34300
H  -5.39000 18.71900 41.15300
H  -7.01900 20.41300 39.43500
H  -7.68300 20.97200 42.21000
H  -6.63600 21.90600 41.10700
H  -5.95500 20.69000 42.13200
H  -5.50600 19.06200 38.31900
H  -6.29600 17.53700 38.55100
H  -3.68300 17.65200 39.99000
H  -3.58200 18.26300 38.31800
H  -11.33900 22.34800 39.72800
H  -12.92400 22.37700 39.46700
H  -11.88000 21.91600 38.08700
H  -16.83100 19.18600 38.41400
H  -16.25500 18.53700 39.89100
H  -15.58800 17.86300 38.32600
H  -14.19400 14.37300 39.39100
H  -13.37500 13.19300 42.11500
H  -15.41900 13.82500 42.12300
H  -16.15400 14.59300 40.74100
H  -15.14000 15.55800 41.91200
H  -12.40800 11.54900 39.91000
H  -14.01700 12.09900 39.41100
H  -14.85800 10.45700 40.82700
H  -13.91900 11.11800 42.16900
H  -13.15100 9.99600 41.17700
H  -8.92500 10.87000 42.18500
H  -7.24200 11.12000 42.65600
H  -7.67600 10.98000 41.00400
H  -4.62500 15.83200 40.97300
H  -3.97500 18.12900 44.77300
H  -2.58700 18.06000 43.85300
H  -3.11600 16.53400 44.74800

