158

Mg 0.06700 7.13700 25.36200
C  0.76200 9.04500 28.22600
C  0.22800 4.31600 27.25100
C  -0.18900 5.41500 22.59200
C  0.80500 10.03300 23.43500
N  0.33700 6.80800 27.49300
C  0.50700 7.67600 28.53000
C  0.51800 6.97600 29.87000
C  0.54500 5.45400 29.56300
C  0.43600 5.51500 27.99700
C  1.77300 4.70300 30.05500
C  -0.58700 7.46500 30.90600
C  -0.40400 7.12800 32.33200
H  0.84300 6.46100 32.92200
N  -0.25500 5.12800 25.04000
C  -0.00300 4.15100 25.87900
C  -0.13500 2.89300 25.29400
C  -0.37200 3.13300 23.87600
C  -0.32700 4.64100 23.72800
C  -0.02000 1.52500 26.11100
C  -0.59200 2.26300 22.66100
O  -0.92800 2.72800 21.60200
C  -0.44700 0.83900 22.77900
N  0.47700 7.59700 23.25900
C  0.09200 6.75400 22.34400
C  -0.02300 7.42200 20.92500
C  0.21600 8.96700 21.27300
C  0.49800 8.85100 22.75400
C  0.98500 6.91400 19.84500
C  -0.92500 9.91200 20.73200
C  -2.17100 10.10500 21.63000
N  0.85300 9.12000 25.70000
C  1.02900 10.17900 24.83500
C  1.29800 11.40200 25.65300
C  1.21200 10.99500 26.94300
C  0.98300 9.63800 26.94300
C  1.57900 12.78500 25.18600
C  1.41000 11.46500 28.29000
O  1.69000 12.56700 28.72600
C  1.07800 10.20700 29.21100
C  2.22300 9.98800 30.07800
O  3.17400 9.34000 29.79000
O  2.01600 10.69700 31.20800
C  2.87900 10.30800 32.33200
H  0.28000 3.43900 27.89900
H  -0.51100 4.90300 21.68300
H  0.87300 10.95800 22.85700
H  1.48700 7.22500 30.30400
H  -0.35000 4.90300 29.85500
H  1.52200 4.00000 30.84900
H  2.45100 5.39300 30.55700
H  2.33500 4.17700 29.28400
H  -1.56800 7.15200 30.54900
H  -0.77500 8.53400 30.80100
H  -1.32600 6.62300 32.62000
H  -0.49700 8.08500 32.84500
H  0.97500 1.54400 26.55800
H  0.22800 0.62400 25.55000
H  -0.67100 1.28800 26.95300
H  -0.93800 0.29600 21.97200
H  -0.85400 0.56700 23.75300
H  0.63400 0.73100 22.68200
H  -0.99100 7.25000 20.45500
H  1.11600 9.42100 20.86000
H  1.75300 6.24700 20.23700
H  1.56600 7.73800 19.43300
H  0.42400 6.44500 19.03700
H  -1.29100 9.40000 19.84200
H  -0.52000 10.87700 20.42700
H  -2.18300 9.41900 22.47600
H  -2.99800 9.83300 20.97300
H  -2.24300 11.13400 21.98100
H  1.77400 12.99500 24.13500
H  2.35000 13.25600 25.79500
H  0.69800 13.34800 25.49600
H  0.19800 10.40600 29.82400
H  3.92300 10.16900 32.04900
H  2.47100 9.33500 32.60500
H  2.75800 11.05800 33.11300
Mg 8.01500 2.49100 27.25600
C  9.50800 1.19000 30.16700
C  6.11200 4.58100 29.31100
C  6.02300 3.53400 24.70100
C  9.40900 0.15100 25.34000
N  7.93800 2.91300 29.48600
C  8.62400 2.23700 30.48400
C  8.38200 2.90600 31.91000
C  7.13800 3.88700 31.60400
C  7.03700 3.75500 30.01600
C  5.79000 3.56100 32.26900
C  9.65200 3.57600 32.62000
C  9.43700 3.99700 33.99400
H  10.22900 3.52100 35.16000
N  6.40300 3.87000 27.00500
C  5.82400 4.69700 27.95900
C  4.85800 5.65000 27.32300
C  4.91800 5.35500 25.94100
C  5.84700 4.21800 25.81700
C  4.13200 6.67500 28.14100
C  4.09300 5.99900 24.85700
O  4.27700 5.62700 23.66000
C  3.04800 7.13000 25.15600
N  7.77800 2.00200 25.20300
C  6.88100 2.50800 24.36300
C  7.03900 1.79400 22.92200
C  8.22100 0.81200 23.16900
C  8.52200 0.97500 24.60200
C  5.80400 0.89800 22.58500
C  9.44500 1.02500 22.32100
C  10.07000 -0.20300 21.59300
N  9.25400 1.08700 27.58400
C  9.78900 0.21900 26.73500
C  10.81000 -0.58800 27.44300
C  10.65800 -0.34000 28.83600
C  9.78500 0.73800 28.84100
C  11.62500 -1.71400 26.82800
C  10.93700 -0.78300 30.17900
O  11.74000 -1.65400 30.63900
C  10.37800 0.33800 31.12900
C  9.69300 -0.27600 32.26500
O  8.73000 -1.08100 32.21000
O  10.53400 -0.09700 33.41000
C  10.07200 -0.69800 34.70100
H  5.51300 5.28500 29.89200
H  5.41100 3.75400 23.82300
H  9.94000 -0.52900 24.67000
H  8.21300 2.01400 32.51300
H  7.46500 4.86800 31.95000
H  5.02000 3.51500 31.49800
H  5.70000 4.45900 32.88000
H  5.75800 2.62200 32.82200
H  10.08600 4.33900 31.97400
H  10.49600 2.88600 32.62900
H  8.38100 3.97300 34.26300
H  9.58200 5.07600 33.94500
H  3.05600 6.57400 28.00200
H  4.58900 7.65200 27.98400
H  4.17300 6.53900 29.22100
H  2.08700 6.66500 25.37900
H  2.89700 7.82300 24.32900
H  3.35800 7.73400 26.00900
H  7.24700 2.57600 22.19100
H  7.93100 -0.23700 23.21500
H  5.01900 1.01100 23.33200
H  6.02800 -0.12800 22.29300
H  5.43400 1.13400 21.58700
H  10.19800 1.43000 22.99700
H  9.26900 1.73600 21.51400
H  10.17800 0.05700 20.54000
H  9.42500 -1.07700 21.49900
H  10.96200 -0.56100 22.10700
H  12.16000 -1.44400 25.91800
H  10.94000 -2.51100 26.53800
H  12.26000 -2.18700 27.57700
H  11.21500 0.89700 31.54900
H  9.38900 -1.53200 34.53700
H  9.58300 0.02200 35.35700
H  10.86700 -1.03000 35.36900

