158

Mg 26.71900 49.22000 26.40900
C  24.79900 50.52700 29.17300
C  29.01600 48.16000 28.88400
C  28.73800 48.23400 24.01500
C  24.50200 50.76900 24.27100
N  26.79700 49.24800 28.81300
C  25.85100 49.80800 29.63500
C  26.23500 49.55000 31.13000
C  27.63500 48.93100 31.01400
C  27.85900 48.70500 29.48900
C  28.86600 49.58800 31.83000
C  25.18000 48.80600 31.95200
C  24.53900 49.41300 33.19700
H  24.02100 48.54400 34.26700
N  28.62100 48.30900 26.38600
C  29.42000 47.89400 27.52500
C  30.60700 47.17000 27.01900
C  30.52500 47.19400 25.62700
C  29.30600 47.98400 25.26700
C  31.74400 46.61100 27.92100
C  31.52000 46.67300 24.55200
O  31.42900 46.94400 23.34900
C  32.69900 45.80000 25.02900
N  26.55000 49.35800 24.44500
C  27.53500 48.88000 23.64500
C  27.25800 49.32400 22.18500
C  25.84800 49.89700 22.24700
C  25.57400 50.02500 23.71500
C  28.20800 50.33000 21.67500
C  24.75500 48.93900 21.62500
C  23.63700 49.68400 20.90200
N  25.01900 50.47400 26.66200
C  24.23500 50.95800 25.64500
C  23.14900 51.77400 26.26700
C  23.32900 51.62900 27.62200
C  24.44100 50.75100 27.79900
C  22.00100 52.38900 25.47000
C  22.83700 51.95500 28.90600
O  21.88900 52.71800 29.18400
C  23.66400 51.18500 29.98700
C  24.16300 52.23900 30.87100
O  25.17200 52.96500 30.79100
O  23.23900 52.37300 31.86100
C  23.43100 53.46800 32.76600
H  29.83400 47.77900 29.50000
H  29.41300 48.04300 23.17800
H  23.75200 51.23600 23.63000
H  26.32300 50.53700 31.58500
H  27.70600 47.91400 31.40000
H  29.26700 48.85600 32.53200
H  28.53300 50.47800 32.36400
H  29.67900 49.91100 31.17900
H  25.54200 47.80500 32.18600
H  24.35200 48.68300 31.25400
H  23.65600 49.99300 32.92900
H  25.26400 50.10800 33.62100
H  32.70800 46.83500 27.46400
H  31.72400 45.52200 27.86700
H  31.79100 47.14500 28.87000
H  32.31400 44.99900 25.66100
H  33.32900 46.44800 25.63900
H  33.34000 45.48000 24.20900
H  27.27000 48.48600 21.48900
H  25.71700 50.88500 21.80600
H  28.81100 50.83100 22.43200
H  27.76400 51.09100 21.03300
H  28.84000 49.84900 20.92800
H  24.32000 48.35500 22.43600
H  25.07100 48.16400 20.92700
H  23.56700 49.42100 19.84600
H  23.80400 50.75900 20.83700
H  22.63500 49.57400 21.31700
H  21.10000 52.39500 26.08200
H  21.67300 51.83100 24.59200
H  22.33800 53.39900 25.23600
H  22.98000 50.49600 30.48300
H  23.43800 54.40500 32.20900
H  24.34400 53.39000 33.35500
H  22.60400 53.55000 33.47100
Mg 9.35500 48.13200 25.88000
C  7.26000 48.73300 28.60100
C  12.02200 49.11200 27.85600
C  11.31800 47.58700 23.30300
C  6.53400 47.82900 23.90000
N  9.58900 48.98700 27.98500
C  8.61000 48.95600 28.91700
C  9.16700 49.29100 30.34600
C  10.63700 49.66900 29.95100
C  10.76400 49.16800 28.50800
C  11.16400 51.10000 30.14300
C  9.15900 48.17000 31.53600
C  9.78900 48.53800 32.89400
H  9.14800 48.00700 34.22300
N  11.45100 48.35200 25.58900
C  12.37000 48.74700 26.54400
C  13.72000 48.59100 25.97700
C  13.46800 48.06600 24.60800
C  12.05000 48.07300 24.43300
C  15.00400 48.77200 26.77000
C  14.45700 47.58500 23.58600
O  14.16800 47.19600 22.44000
C  15.92200 47.46300 24.01000
N  8.96400 47.75100 23.80600
C  10.00300 47.52500 22.95600
C  9.41500 46.96900 21.60500
C  7.86300 47.05100 21.81700
C  7.73900 47.47800 23.24200
C  9.98200 47.75200 20.40300
C  7.02300 45.74400 21.52200
C  5.80700 45.97500 20.55500
N  7.35100 48.19400 26.15900
C  6.31800 48.04000 25.25900
C  5.01700 48.12300 25.89700
C  5.38700 48.42100 27.26000
C  6.77500 48.42900 27.33900
C  3.57800 47.98900 25.31700
C  4.82100 48.72700 28.55700
O  3.64800 48.82200 28.82700
C  6.04000 48.90100 29.49000
C  5.81400 47.79700 30.47200
O  5.62400 46.63000 30.23100
O  5.68000 48.30700 31.74500
C  5.19300 47.43200 32.76500
H  12.78900 49.27400 28.61600
H  12.01000 47.46400 22.46700
H  5.67600 47.69800 23.23700
H  8.70600 50.21300 30.70200
H  11.31900 49.06200 30.54600
H  10.42300 51.58900 30.77500
H  11.32500 51.67200 29.22900
H  12.09000 51.13700 30.71700
H  9.68600 47.32100 31.10100
H  8.12000 47.91600 31.74800
H  9.81100 49.62300 32.99500
H  10.82800 48.21800 32.97200
H  15.61900 49.53300 26.29000
H  15.52900 47.81900 26.70900
H  14.95200 49.14800 27.79200
H  16.55600 47.19100 23.16500
H  15.93300 46.75300 24.83600
H  16.14100 48.51200 24.21200
H  9.63400 45.90200 21.55600
H  7.53300 47.85400 21.15700
H  10.55500 48.64900 20.63600
H  9.16500 47.98500 19.72000
H  10.77700 47.12100 20.00600
H  6.79600 45.14600 22.40500
H  7.71700 45.17000 20.90800
H  5.59000 46.96100 20.14400
H  4.93900 45.54900 21.05800
H  6.05100 45.40800 19.65700
H  3.52300 47.50500 24.34200
H  3.04800 48.93600 25.21600
H  3.09600 47.30800 26.01800
H  5.98200 49.89900 29.92400
H  4.12500 47.30600 32.58900
H  5.39600 47.94300 33.70700
H  5.71500 46.47800 32.69800

