158

Mg 8.54600 47.64600 25.01100
C  6.52400 47.59800 27.93000
C  11.17100 48.45800 27.02700
C  10.43900 47.66500 22.28900
C  5.69700 47.59400 23.03700
N  8.76400 48.12100 27.17000
C  7.84200 48.02200 28.21000
C  8.39900 48.53100 29.54200
C  9.77600 49.18800 29.04900
C  9.97900 48.51100 27.68800
C  9.84100 50.72800 28.95200
C  8.67300 47.30500 30.51800
C  9.04100 47.58400 31.96300
H  8.81300 46.52500 32.99500
N  10.51500 47.94200 24.68100
C  11.41900 48.16800 25.67100
C  12.73900 48.13300 25.05600
C  12.60800 47.80600 23.69300
C  11.13400 47.72900 23.49700
C  14.03600 48.42800 25.80000
C  13.69400 47.67000 22.55800
O  13.38500 47.49300 21.42200
C  15.10900 47.69400 22.87700
N  8.13400 47.48900 22.99300
C  9.08000 47.66000 22.04800
C  8.53200 47.74000 20.62400
C  7.07200 47.70100 20.90000
C  6.93100 47.52600 22.38400
C  9.09700 48.88000 19.70300
C  6.25400 46.60000 20.07600
C  6.12500 46.76300 18.53400
N  6.52500 47.53800 25.36700
C  5.52800 47.46100 24.45400
C  4.32700 47.27100 25.20700
C  4.66100 47.38000 26.57200
C  5.98400 47.54200 26.63100
C  2.99700 47.12500 24.71200
C  4.08800 47.25300 27.84000
O  2.95500 47.09800 28.14800
C  5.27400 47.30200 28.81800
C  5.33800 46.15500 29.73500
O  6.17800 45.24800 29.55000
O  4.57500 46.27900 30.81800
C  4.65800 45.19900 31.79000
H  11.96000 48.86500 27.66300
H  11.10500 47.50700 21.43800
H  4.82200 47.60600 22.38400
H  7.70000 49.28400 29.90500
H  10.56300 48.87700 29.73500
H  9.92800 51.08100 29.98000
H  8.86100 51.05400 28.60400
H  10.62200 51.10200 28.29100
H  9.43600 46.69700 30.03200
H  7.82800 46.61700 30.47600
H  8.52600 48.47300 32.32700
H  10.10100 47.81600 31.86100
H  14.39000 49.39500 25.44200
H  14.78900 47.64400 25.71900
H  13.84300 48.56800 26.86400
H  15.52700 48.66700 23.13700
H  15.75600 47.43100 22.04000
H  15.36500 47.00200 23.67900
H  8.80500 46.72700 20.33100
H  6.63800 48.68400 20.71600
H  9.79000 49.43400 20.33600
H  8.24100 49.51500 19.47300
H  9.48500 48.40700 18.80200
H  5.26200 46.50600 20.51800
H  6.78500 45.65200 20.16000
H  6.74900 47.58600 18.18300
H  5.09000 46.97600 18.26900
H  6.44600 45.81400 18.10400
H  2.89900 46.60800 23.75700
H  2.73700 48.17600 24.58400
H  2.51700 46.49600 25.46200
H  5.05600 48.19100 29.41000
H  4.56700 45.58500 32.80500
H  5.45800 44.46200 31.72300
H  3.77300 44.58600 31.61600
Mg -1.67000 34.45700 26.88600
C  -3.18100 32.72300 29.53000
C  -0.18200 36.48500 28.85500
C  -1.29600 36.60700 24.22100
C  -4.03200 32.60200 24.62000
N  -1.97800 34.77900 28.91900
C  -2.34700 33.83200 29.87700
C  -1.84800 34.13600 31.25300
C  -0.96200 35.37000 30.96100
C  -1.05200 35.60100 29.45800
C  -1.19800 36.59300 31.87000
C  -1.20400 32.94200 32.07600
C  -1.51400 32.99100 33.62700
H  -0.43300 32.69800 34.65500
N  -0.65300 36.20700 26.49800
C  0.00700 36.84800 27.50200
C  0.68900 37.95300 26.95100
C  0.37600 37.97200 25.53500
C  -0.54100 36.92300 25.35300
C  1.43800 39.04200 27.73100
C  0.90200 38.89600 24.46800
O  0.44600 38.90100 23.36100
C  1.87800 39.89000 24.76600
N  -2.58300 34.58600 24.75800
C  -2.31900 35.61700 23.97200
C  -3.02000 35.59800 22.52400
C  -3.81100 34.23500 22.61200
C  -3.43200 33.75600 24.05800
C  -4.01600 36.79200 22.41000
C  -3.27900 33.21200 21.49000
C  -1.68900 32.97300 21.42900
N  -3.13800 32.94100 26.97500
C  -3.93800 32.28200 26.03300
C  -4.72300 31.25000 26.66100
C  -4.39300 31.35100 28.05500
C  -3.54000 32.44600 28.16700
C  -5.64900 30.27300 25.99900
C  -4.73000 30.80800 29.38900
O  -5.48200 29.92400 29.74100
C  -3.86500 31.64700 30.42100
C  -4.73100 32.28300 31.37400
O  -5.60700 33.06900 31.06300
O  -4.55600 31.82300 32.63800
C  -5.45700 32.42600 33.62500
H  0.38500 37.05800 29.59100
H  -1.17900 37.21200 23.31900
H  -4.66300 32.03000 23.93700
H  -2.71400 34.49800 31.80700
H  0.01500 34.92400 31.15100
H  -1.99100 36.37500 32.58500
H  -1.48200 37.42500 31.22500
H  -0.28500 36.76800 32.43800
H  -0.11500 32.96400 32.11500
H  -1.47900 31.95300 31.70700
H  -2.25000 32.20400 33.78900
H  -1.83700 34.01000 33.83700
H  1.68100 38.73900 28.75000
H  0.93700 40.00600 27.64100
H  2.42600 39.12000 27.27800
H  2.37500 40.16700 23.83600
H  2.69800 39.42700 25.31400
H  1.47500 40.75900 25.28600
H  -2.31000 35.66300 21.70000
H  -4.89600 34.31700 22.67900
H  -5.04500 36.51900 22.17800
H  -3.60100 37.34800 21.56900
H  -3.98300 37.44700 23.28100
H  -3.75100 33.42400 20.53000
H  -3.59800 32.18600 21.67600
H  -1.46500 33.16900 20.38100
H  -1.22400 32.02700 21.70400
H  -1.18200 33.75300 21.99800
H  -5.46600 29.27700 26.40200
H  -5.61500 30.24200 24.91000
H  -6.64000 30.58100 26.33300
H  -3.29700 30.89900 30.97400
H  -5.96200 33.34400 33.32800
H  -4.75100 32.71600 34.40400
H  -6.15400 31.78600 34.16700

