158

Mg 0.51600 7.55000 26.26900
C  1.58200 9.40800 29.00000
C  0.85300 4.69000 28.25400
C  0.07200 5.71200 23.54000
C  0.21300 10.44600 24.47600
N  1.00700 7.06700 28.32200
C  1.30400 8.07100 29.29000
C  1.24200 7.42300 30.67100
C  1.39800 5.85400 30.41100
C  1.04100 5.84400 28.87800
C  2.72500 5.14600 30.70100
C  0.01900 7.91700 31.49900
C  0.39200 8.29200 33.00900
H  1.12700 7.26800 33.79100
N  0.32100 5.45000 25.94600
C  0.49800 4.43100 26.90000
C  0.42500 3.16400 26.16200
C  0.12300 3.40500 24.82700
C  0.14000 4.92500 24.70800
C  0.66400 1.84100 26.87100
C  -0.14400 2.45100 23.74600
O  -0.20300 2.80500 22.59200
C  -0.27400 0.95900 23.98200
N  0.42100 8.00500 24.25600
C  0.09300 7.10600 23.32400
C  -0.41700 7.78200 22.01800
C  -0.58400 9.25800 22.45400
C  0.03800 9.26300 23.82600
C  0.58800 7.59100 20.90900
C  -2.05100 9.85800 22.41800
C  -2.89200 9.60000 21.16600
N  0.93200 9.56000 26.62300
C  0.74300 10.62000 25.79300
C  1.12600 11.82100 26.41600
C  1.52700 11.40300 27.71400
C  1.42900 10.02700 27.71400
C  1.18400 13.22800 25.81000
C  2.13000 11.71900 29.03100
O  2.42700 12.79300 29.54500
C  2.03800 10.44700 29.88400
C  3.34300 10.20100 30.56200
O  4.23800 9.40200 30.29000
O  3.34900 10.93100 31.73200
C  4.38700 10.73000 32.72400
H  0.99500 3.77000 28.82500
H  0.09900 5.25200 22.54900
H  0.05100 11.30400 23.82000
H  2.15800 7.65100 31.21700
H  0.56900 5.30800 30.86200
H  2.66000 4.56000 31.61700
H  3.48500 5.89800 30.91600
H  3.15400 4.55200 29.89400
H  -0.62400 7.03700 31.52500
H  -0.59500 8.64600 30.97200
H  -0.60000 8.56400 33.37100
H  0.95000 9.22400 33.09600
H  1.34800 1.22500 26.28700
H  -0.22200 1.24900 27.09700
H  1.30700 2.00300 27.73700
H  -0.38900 0.41900 23.04300
H  -1.20400 0.70800 24.49200
H  0.69800 0.60400 24.32700
H  -1.36800 7.28100 21.83500
H  -0.00300 9.92400 21.81700
H  1.60200 7.52000 21.30400
H  0.57500 8.49100 20.29400
H  0.24700 6.74700 20.31000
H  -1.95700 10.91300 22.67500
H  -2.61300 9.46700 23.26600
H  -2.50600 8.92500 20.40200
H  -2.97200 10.58500 20.70600
H  -3.88800 9.31000 21.49800
H  1.63900 13.89500 26.54200
H  0.16600 13.49600 25.52700
H  1.74100 13.17100 24.87500
H  1.27700 10.68400 30.62800
H  4.22900 9.98500 33.50400
H  4.50300 11.67100 33.26100
H  5.34100 10.39500 32.31600
Mg 24.02900 -6.86500 45.47500
C  26.15900 -4.66400 43.86400
C  21.41400 -5.47800 43.41600
C  22.23200 -9.73500 45.82400
C  26.77800 -8.62700 46.80600
N  23.86600 -5.18000 43.81400
C  24.90700 -4.30100 43.48400
C  24.47200 -3.19500 42.47600
C  22.82200 -3.32000 42.69200
C  22.65600 -4.75600 43.28700
C  22.25400 -2.16700 43.57500
C  24.94500 -3.45300 40.98200
C  25.49900 -2.21600 40.18400
H  24.94500 -1.89300 38.79100
N  22.01100 -7.41500 44.89800
C  21.04900 -6.68900 44.10300
C  19.83300 -7.44800 44.03700
C  20.07400 -8.68500 44.71400
C  21.49700 -8.69100 45.15900
C  18.58800 -6.96900 43.37800
C  18.92700 -9.67700 44.86900
O  17.80200 -9.41400 44.44400
C  19.01600 -10.95700 45.74000
N  24.48100 -9.03600 46.00200
C  23.51900 -9.87800 46.31400
C  24.07300 -11.17200 46.91600
C  25.60100 -10.81500 47.35800
C  25.64300 -9.45700 46.59800
C  23.23900 -11.91600 48.02900
C  26.67200 -11.80100 46.85600
C  27.45400 -12.62100 47.93600
N  26.01400 -6.62600 45.54500
C  27.01500 -7.35600 46.12200
C  28.23500 -6.64200 45.93900
C  28.00800 -5.65600 44.99900
C  26.59900 -5.71800 44.71700
C  29.58000 -6.90100 46.61500
C  28.61000 -4.55500 44.26400
O  29.76900 -4.19500 44.32400
C  27.43200 -3.99300 43.29300
C  27.38700 -2.55500 43.41200
O  27.62000 -1.77400 42.46400
O  26.88100 -2.14900 44.63900
C  26.89100 -0.67700 44.83300
H  20.70600 -4.85100 42.86900
H  21.69300 -10.68000 45.91100
H  27.63900 -9.01000 47.35800
H  24.79800 -2.26400 42.93900
H  22.34300 -3.17100 41.72400
H  21.53800 -1.56900 43.01100
H  22.98400 -1.51900 44.06000
H  21.68800 -2.45000 44.46200
H  24.03700 -3.81300 40.49800
H  25.73200 -4.20300 40.89900
H  26.57800 -2.33500 40.08200
H  25.43900 -1.38400 40.88500
H  18.21700 -7.56100 42.54100
H  18.76400 -5.97000 42.97700
H  17.70700 -6.88200 44.01400
H  19.33600 -10.56900 46.70700
H  19.63400 -11.68800 45.21800
H  18.03800 -11.41400 45.89300
H  24.02100 -11.88200 46.09000
H  25.50500 -10.57500 48.41700
H  22.35100 -11.31000 48.21300
H  23.77300 -11.84500 48.97700
H  22.98900 -12.95700 47.82500
H  27.45100 -11.23000 46.35200
H  26.16200 -12.40100 46.10200
H  27.00200 -12.45400 48.91400
H  28.52900 -12.46000 47.84900
H  27.26900 -13.69200 47.85600
H  29.41000 -7.19700 47.65000
H  30.15900 -5.98500 46.73000
H  30.16500 -7.66300 46.09800
H  27.53700 -4.26600 42.24300
H  27.90000 -0.28200 44.70900
H  26.61400 -0.48300 45.87000
H  26.27600 -0.16300 44.09400

