158

Mg 47.16100 25.50100 28.82400
C  47.76400 27.86600 31.34200
C  45.95700 23.31500 31.21500
C  46.80300 23.26100 26.45300
C  48.74600 27.75600 26.60200
N  46.73100 25.63700 31.02600
C  47.10200 26.69100 31.87500
C  46.90000 26.31100 33.32200
C  46.40700 24.80800 33.17200
C  46.29000 24.61800 31.67500
C  47.30400 23.76600 33.90600
C  45.86800 27.18000 34.07400
C  45.58700 26.73100 35.54300
H  45.71600 27.79400 36.63500
N  46.35900 23.62000 28.78500
C  45.95900 22.85700 29.86300
C  45.52500 21.53000 29.40600
C  45.61200 21.57300 28.03200
C  46.24200 22.87900 27.67600
C  44.89400 20.45500 30.32500
C  45.44600 20.45700 26.94200
O  45.40400 20.76500 25.75100
C  45.22200 19.05500 27.26100
N  47.61600 25.56200 26.86300
C  47.36600 24.49100 26.12700
C  47.91100 24.68300 24.65800
C  48.21800 26.23000 24.60100
C  48.12000 26.58900 26.08700
C  49.12100 23.78000 24.25300
C  47.11500 27.01700 23.90700
C  45.63100 26.83600 24.36100
N  48.06900 27.39300 28.91200
C  48.69700 28.14100 27.91400
C  49.33500 29.31700 28.48400
C  48.98500 29.26900 29.83300
C  48.16700 28.07900 30.03800
C  50.10800 30.32700 27.71000
C  49.03300 29.86400 31.15100
O  49.62300 30.87400 31.55100
C  48.27400 29.02900 32.15100
C  49.22000 28.57700 33.15700
O  50.14600 27.83900 33.04600
O  48.76400 29.02100 34.37600
C  49.67900 28.77700 35.45700
H  45.68500 22.55100 31.94600
H  46.79500 22.60200 25.58200
H  49.19200 28.37900 25.82300
H  47.80900 26.33100 33.92200
H  45.39100 24.85100 33.56400
H  48.08900 24.29200 34.44900
H  47.72300 23.03100 33.21800
H  46.66500 23.24200 34.61800
H  44.94600 27.10100 33.49700
H  46.18600 28.22000 34.00000
H  46.27800 25.89600 35.66200
H  44.57800 26.31800 35.52500
H  44.91500 20.75500 31.37200
H  45.48800 19.55700 30.15300
H  43.88700 20.17300 30.01700
H  46.23100 18.76600 27.55400
H  44.85600 18.56900 26.35600
H  44.47900 18.99000 28.05500
H  47.02600 24.49100 24.05000
H  49.17500 26.34600 24.09100
H  49.25300 22.90000 24.88100
H  50.07100 24.31000 24.17400
H  48.99900 23.29500 23.28400
H  47.18100 26.65300 22.88200
H  47.33200 28.08400 23.87000
H  45.08400 26.46300 23.49500
H  45.24800 27.82700 24.60400
H  45.38000 26.16300 25.18100
H  49.52300 30.73500 26.88600
H  51.08300 29.91000 27.45700
H  50.32300 31.17500 28.36100
H  47.31700 29.43100 32.48400
H  50.63900 29.27000 35.30200
H  49.74300 27.71900 35.70900
H  49.20100 29.20100 36.34000
Mg 1.07400 42.80800 25.93700
C  3.13600 43.14100 28.72900
C  -1.62200 42.33600 27.96500
C  -0.73400 42.11700 23.12400
C  3.83900 43.23100 23.90100
N  0.81800 42.73200 28.13300
C  1.81600 42.91900 29.09800
C  1.17700 43.04200 30.48700
C  -0.31700 42.56300 30.19400
C  -0.45500 42.60700 28.70500
C  -0.73300 41.21100 30.80700
C  1.32600 44.42600 31.20100
C  1.36400 44.52500 32.74000
H  0.89500 43.23700 33.53000
N  -0.87000 42.27400 25.58500
C  -1.84500 42.29100 26.51800
C  -3.13300 42.24700 25.81900
C  -2.89600 42.12600 24.41600
C  -1.42900 42.16800 24.33100
C  -4.47700 42.36000 26.48700
C  -3.87200 41.97200 23.20800
O  -3.51200 41.78200 22.10500
C  -5.29700 42.14200 23.44900
N  1.51700 42.59100 23.81300
C  0.59800 42.33800 22.87000
C  1.21500 42.40900 21.47800
C  2.70700 42.85600 21.73400
C  2.69800 42.88000 23.27900
C  1.10800 41.15500 20.61400
C  2.92000 44.33300 21.18300
C  2.19100 45.53300 21.87200
N  3.08400 43.10400 26.17900
C  4.09900 43.29100 25.23700
C  5.34100 43.52500 25.94800
C  5.00600 43.38100 27.30800
C  3.60100 43.27100 27.39400
C  6.66000 43.92700 25.29000
C  5.52000 43.41800 28.67200
O  6.67000 43.57200 29.03300
C  4.32900 43.34100 29.60300
C  4.53800 42.18100 30.49900
O  4.81000 41.04500 30.17100
O  4.52200 42.65400 31.78200
C  5.00200 41.75700 32.85800
H  -2.52500 42.19500 28.56300
H  -1.32900 41.92800 22.22800
H  4.69400 43.52500 23.28800
H  1.61400 42.26600 31.11600
H  -0.97300 43.27100 30.70000
H  -1.43300 41.47300 31.60000
H  0.14500 40.65700 31.13900
H  -1.24300 40.54400 30.11200
H  0.40200 44.94500 30.94400
H  2.18000 45.02000 30.87500
H  0.85000 45.43700 33.04400
H  2.41400 44.71100 32.96500
H  -4.87100 43.23800 25.97400
H  -4.43600 42.62400 27.54400
H  -5.15400 41.55600 26.19800
H  -5.63500 41.41300 24.18500
H  -5.87800 41.99200 22.53900
H  -5.39700 43.13100 23.89500
H  0.69900 43.25600 21.02700
H  3.44900 42.14600 21.37000
H  2.08500 40.78200 20.30800
H  0.56400 41.44000 19.71300
H  0.59600 40.31700 21.08800
H  2.57800 44.47500 20.15800
H  4.00100 44.45200 21.24900
H  1.74600 45.29500 22.83800
H  1.47000 45.93800 21.16300
H  2.82700 46.40800 22.00500
H  7.03400 43.08400 24.70900
H  7.45400 44.36600 25.89500
H  6.49700 44.68600 24.52500
H  4.28900 44.32700 30.06600
H  4.60900 42.15200 33.79500
H  6.09100 41.77200 32.81500
H  4.67800 40.71800 32.80300

