158

Mg 25.90500 50.69000 26.03500
C  23.81300 51.79300 28.61800
C  28.03800 49.32800 28.42000
C  28.20600 50.14300 23.64700
C  23.62600 51.94000 23.83800
N  25.90900 50.58300 28.30800
C  24.95500 51.11400 29.17600
C  25.23500 50.92900 30.63300
C  26.60500 50.17200 30.48700
C  26.95100 50.01400 28.98300
C  27.82700 50.78700 31.26800
C  24.08300 50.16500 31.38700
C  24.41900 49.42000 32.73200
H  23.57600 49.80100 33.97400
N  27.81700 49.82200 26.03300
C  28.49500 49.29700 27.05300
C  29.77000 48.64300 26.58300
C  29.85900 48.87800 25.25100
C  28.61900 49.70000 24.89600
C  30.65000 47.80700 27.47000
C  30.87700 48.28800 24.32000
O  30.93400 48.70000 23.20100
C  31.96100 47.30300 24.71800
N  25.99600 51.08100 24.07600
C  26.98100 50.64700 23.26200
C  26.53800 50.87000 21.75600
C  25.05800 51.29700 21.77000
C  24.84600 51.38100 23.34300
C  27.39100 51.81200 21.01000
C  23.99000 50.19800 21.12800
C  23.65300 50.55900 19.68300
N  24.04300 51.55800 26.11200
C  23.20400 51.99600 25.14900
C  22.00000 52.47700 25.63600
C  22.23700 52.54900 26.99500
C  23.47400 51.91500 27.26100
C  20.72100 52.94900 24.86900
C  21.68600 53.02000 28.24800
O  20.64900 53.71400 28.44400
C  22.65800 52.45200 29.38300
C  23.09500 53.53600 30.33900
O  24.16300 54.12300 30.30400
O  22.13500 53.69500 31.28700
C  22.28200 54.62900 32.42000
H  28.55200 48.97500 29.31600
H  29.00200 50.08100 22.90200
H  22.87200 52.22200 23.10100
H  25.33900 51.90900 31.09800
H  26.44500 49.16900 30.88200
H  27.62100 51.52700 32.04100
H  28.63900 51.14500 30.63500
H  28.35500 49.98600 31.78500
H  23.93600 49.30800 30.72900
H  23.12300 50.67700 31.45200
H  25.44800 49.57700 33.05600
H  24.16400 48.36100 32.69900
H  30.52200 46.72900 27.37500
H  30.52400 48.06300 28.52200
H  31.67900 48.13700 27.32300
H  31.53500 46.35600 25.04900
H  32.33400 47.92200 25.53400
H  32.71600 47.14400 23.94800
H  26.69400 49.91400 21.25600
H  24.88400 52.28700 21.34900
H  28.16200 52.21900 21.66500
H  26.80500 52.58000 20.50500
H  27.91700 51.17600 20.29800
H  23.07800 50.30600 21.71400
H  24.62700 49.31600 21.20000
H  22.56800 50.66200 19.66800
H  24.02100 49.76100 19.03800
H  24.04500 51.51400 19.33500
H  20.78400 54.02300 24.69400
H  19.85900 52.84300 25.52700
H  20.60600 52.40900 23.93000
H  21.99900 51.70800 29.82900
H  21.40400 55.26400 32.30000
H  23.13200 55.30700 32.33900
H  22.37900 54.15300 33.39600
Mg 15.87000 51.63000 24.75000
C  17.92200 50.56900 27.42300
C  13.52900 52.50700 26.98400
C  14.19900 52.62600 22.24300
C  18.46400 50.28200 22.59400
N  15.64600 51.31800 26.86500
C  16.69000 51.11200 27.75000
C  16.28000 51.49100 29.18000
C  14.72400 51.68000 29.07000
C  14.64200 51.91400 27.56000
C  13.90000 50.50600 29.53000
C  17.03500 52.67700 29.62800
C  16.90200 53.08500 31.15400
H  15.83600 52.26000 31.97800
N  14.01000 52.50300 24.59700
C  13.26700 52.80900 25.65800
C  12.05300 53.43900 25.15300
C  12.20200 53.47400 23.69600
C  13.52300 52.87100 23.47600
C  10.91100 53.98400 25.91200
C  11.27400 54.01700 22.60800
O  11.55000 54.05300 21.41600
C  9.93800 54.71600 22.97100
N  16.28500 51.43500 22.76700
C  15.40800 51.96700 21.87500
C  15.89800 52.01500 20.47300
C  17.15900 51.12200 20.52800
C  17.32600 50.89900 22.06300
C  14.81100 51.51500 19.43600
C  18.37300 51.75900 19.89200
C  19.31100 50.89000 18.94400
N  17.87500 50.66600 24.92700
C  18.78800 50.12500 23.97000
C  19.92900 49.60900 24.58400
C  19.61300 49.76500 26.02700
C  18.39100 50.39600 26.12200
C  21.06800 49.00500 23.80100
C  20.08400 49.42100 27.34800
O  21.10900 48.83200 27.76500
C  19.03300 50.05400 28.36100
C  18.61000 48.90900 29.29400
O  17.68800 48.14800 29.15500
O  19.44600 48.93000 30.34000
C  18.89100 48.39200 31.57900
H  12.67200 52.77800 27.60400
H  13.64300 52.98800 21.37600
H  19.16200 49.90200 21.84500
H  16.43200 50.69000 29.90300
H  14.27900 52.55600 29.54200
H  12.98100 50.93600 29.92800
H  14.34400 49.79000 30.22100
H  13.69900 49.84400 28.68800
H  16.76600 53.60200 29.11800
H  18.11800 52.56100 29.61500
H  16.62500 54.13900 31.19700
H  17.89500 53.01900 31.59800
H  10.86100 55.07200 25.87200
H  11.02500 53.71900 26.96300
H  9.98700 53.49700 25.59800
H  10.21800 55.60100 23.54200
H  9.27600 54.07500 23.55300
H  9.47700 54.97000 22.01600
H  16.09900 53.07700 20.33000
H  16.88700 50.14200 20.13600
H  14.10300 50.91100 20.00300
H  15.26200 51.02000 18.57600
H  14.37000 52.44200 19.06900
H  19.03500 51.98400 20.72800
H  18.05800 52.60000 19.27300
H  19.29500 51.16800 17.89000
H  18.96200 49.85700 18.92600
H  20.35100 50.92300 19.26900
H  20.92000 48.71900 22.76000
H  21.33400 48.15000 24.42300
H  21.86100 49.75300 23.79900
H  19.59300 50.76800 28.96400
H  18.27500 47.51600 31.37500
H  18.27600 49.15900 32.05000
H  19.74400 48.10200 32.19200

