158

Mg 2.12400 -3.34000 45.62400
C  5.57700 -2.23200 45.28400
C  1.37600 -1.35800 43.00500
C  -0.80100 -4.66900 45.76100
C  3.47700 -6.09100 47.44000
N  3.39800 -2.11800 44.20800
C  4.73300 -1.77000 44.25900
C  5.08500 -0.82600 43.10600
C  3.69300 -0.24800 42.75600
C  2.77200 -1.34500 43.29500
C  3.31100 1.14400 43.34100
C  5.76200 -1.61900 41.95500
C  7.06300 -1.03700 41.36900
H  7.08600 -0.05300 40.19500
N  0.45900 -2.96100 44.66700
C  0.30600 -2.05800 43.60900
C  -1.07700 -1.99500 43.29000
C  -1.72100 -2.78400 44.20000
C  -0.71600 -3.51700 44.97900
C  -1.66900 -1.02400 42.27500
C  -3.25800 -2.85300 44.40200
O  -3.92000 -2.23300 43.60400
C  -3.94300 -3.47500 45.58900
N  1.39000 -5.20800 46.47000
C  0.10700 -5.45600 46.52300
C  -0.20600 -6.67500 47.34800
C  1.21400 -7.27400 47.71800
C  2.09000 -6.17600 47.10000
C  -1.27800 -6.39000 48.44200
C  1.65700 -8.66000 47.26700
C  1.19300 -9.07000 45.81600
N  4.06600 -3.99700 46.30500
C  4.38300 -5.10200 47.06700
C  5.77500 -5.04700 47.44500
C  6.31000 -3.97300 46.73500
C  5.22000 -3.29800 46.06700
C  6.43100 -6.05200 48.44400
C  7.45700 -3.21100 46.43600
O  8.55900 -3.25500 46.93400
C  7.06700 -2.06300 45.46400
C  7.39900 -0.67600 46.08900
O  7.08800 -0.28100 47.15800
O  7.99100 0.18500 45.11800
C  8.20700 1.63300 45.52100
H  1.18500 -0.64900 42.19600
H  -1.86000 -4.92900 45.82100
H  3.84500 -6.85500 48.12800
H  5.65800 0.04700 43.41800
H  3.45000 -0.27000 41.69400
H  4.18400 1.69600 43.69000
H  2.62300 0.97500 44.17000
H  2.81400 1.75500 42.58800
H  5.14000 -1.71500 41.06500
H  6.08800 -2.57800 42.35800
H  7.70100 -1.85000 41.02000
H  7.59800 -0.47600 42.13500
H  -1.95400 -0.04700 42.66600
H  -2.60300 -1.40800 41.86500
H  -0.91800 -0.89700 41.49600
H  -3.89400 -4.54500 45.39100
H  -4.96500 -3.11700 45.71500
H  -3.40400 -3.34900 46.52800
H  -0.65300 -7.36900 46.63600
H  1.33400 -7.28500 48.80100
H  -2.01300 -5.61400 48.23000
H  -0.69000 -6.14400 49.32700
H  -1.69300 -7.38300 48.61400
H  1.01400 -9.40700 47.73100
H  2.72500 -8.86300 47.34700
H  0.49400 -9.89300 45.96300
H  2.07200 -9.40700 45.26800
H  0.68600 -8.24700 45.31200
H  5.65100 -6.44900 49.09400
H  7.18500 -5.47100 48.97600
H  6.83200 -6.73900 47.70000
H  7.54000 -2.06700 44.48200
H  7.24600 2.13900 45.60700
H  8.74900 2.08200 44.68800
H  8.85600 1.75600 46.38900
Mg 16.78800 -2.21600 27.87900
C  15.47100 -0.10800 30.41800
C  18.88500 -3.60100 30.25300
C  18.53500 -3.64600 25.36800
C  15.27900 -0.03800 25.58600
N  17.21200 -1.75500 30.05900
C  16.42200 -1.04200 30.88400
C  16.84700 -1.23700 32.39600
C  18.04400 -2.20400 32.23500
C  18.04300 -2.55700 30.72300
C  19.40900 -1.63600 32.58600
C  15.71300 -1.75700 33.35100
C  15.99400 -1.61600 34.80300
H  17.20400 -0.90300 35.32500
N  18.20500 -3.72100 27.79200
C  18.96600 -4.13100 28.87800
C  19.81500 -5.20600 28.41000
C  19.78500 -5.31900 26.97200
C  18.83000 -4.14800 26.63700
C  20.74900 -5.98100 29.43600
C  20.46900 -6.18600 25.92800
O  20.39800 -5.98500 24.72400
C  21.42200 -7.39300 26.48000
N  17.00700 -1.74600 25.78700
C  17.69400 -2.61200 24.94900
C  17.35800 -2.42500 23.43900
C  16.13800 -1.46000 23.55400
C  16.10300 -1.11200 25.05700
C  18.52400 -1.71100 22.74700
C  14.75600 -1.93600 22.94800
C  13.71700 -2.47500 23.88800
N  15.55100 -0.40000 27.88100
C  15.01100 0.32100 26.86600
C  14.14300 1.26900 27.37900
C  14.30700 1.22400 28.81800
C  15.21100 0.13300 29.05500
C  13.20800 2.13800 26.55800
C  13.86900 1.79700 30.07700
O  13.05100 2.65600 30.30800
C  14.62900 0.98600 31.15300
C  15.39800 1.93000 31.89300
O  16.27500 2.63600 31.47400
O  15.04600 1.92100 33.21100
C  15.87800 2.76500 34.09600
H  19.61700 -3.99500 30.96000
H  19.17100 -4.19700 24.67200
H  14.82100 0.54800 24.78600
H  17.19000 -0.23800 32.66700
H  17.90600 -3.09500 32.84800
H  19.29300 -0.75900 33.22400
H  20.01900 -1.38400 31.71900
H  19.92300 -2.42800 33.13000
H  15.62000 -2.81700 33.11400
H  14.79500 -1.26900 33.02500
H  15.86800 -2.61300 35.22400
H  15.15800 -1.09700 35.27300
H  20.25600 -6.93900 29.59800
H  20.95200 -5.57200 30.42600
H  21.78100 -6.13700 29.12200
H  20.89800 -8.09500 27.12800
H  22.22000 -7.05400 27.14100
H  21.87400 -7.88900 25.62100
H  17.09000 -3.37200 22.97000
H  16.22800 -0.51600 23.01700
H  19.49600 -1.92700 23.19000
H  18.47300 -0.62300 22.70900
H  18.49400 -2.04200 21.70900
H  14.98500 -2.64200 22.14900
H  14.31100 -1.05600 22.48300
H  14.15700 -2.69200 24.86200
H  13.14900 -3.27500 23.41400
H  12.97000 -1.69400 24.02800
H  13.63700 2.77300 25.78200
H  12.75200 2.87200 27.22300
H  12.48900 1.41400 26.17400
H  13.91200 0.62500 31.89000
H  15.74200 2.48400 35.14000
H  15.72400 3.84400 34.06300
H  16.93700 2.76500 33.83700

