158

Mg 48.14600 15.45300 27.55600
C  45.80200 15.57000 30.26400
C  50.22800 17.49200 29.42400
C  50.25100 15.34400 25.01700
C  45.54800 13.96800 25.70700
N  47.99600 16.39900 29.60500
C  47.02300 16.30500 30.54500
C  47.37900 16.94300 31.91300
C  48.72000 17.79600 31.57000
C  49.04500 17.22200 30.12500
C  48.57800 19.26300 31.51500
C  47.70800 15.90700 33.05200
C  47.96700 16.57600 34.46900
H  48.95400 16.06100 35.47800
N  50.00800 16.18900 27.29000
C  50.73800 16.98800 28.19300
C  52.04000 17.27600 27.56900
C  52.16000 16.47700 26.37800
C  50.78800 15.98200 26.14100
C  53.05400 18.17100 28.30500
C  53.35400 16.21500 25.47000
O  53.44700 15.44800 24.48600
C  54.64700 16.96200 25.82700
N  47.87700 14.67800 25.69800
C  48.94100 14.87700 24.79900
C  48.56700 14.29000 23.36400
C  47.10500 13.62000 23.68100
C  46.75800 14.18000 25.07900
C  48.56900 15.35700 22.17700
C  47.11900 12.05100 23.67900
C  47.58700 11.27100 22.41300
N  46.07300 14.94700 27.79400
C  45.16400 14.29600 26.95400
C  43.92300 13.98600 27.68600
C  44.17200 14.38000 28.98500
C  45.50200 14.92500 28.99400
C  42.72000 13.31900 27.04400
C  43.55200 14.60000 30.26800
O  42.33600 14.32200 30.55600
C  44.59200 15.31500 31.18400
C  43.94700 16.47900 31.76100
O  43.21300 17.26200 31.17600
O  44.24500 16.50800 33.10000
C  43.70400 17.61300 33.92500
H  50.82400 18.28700 29.87500
H  51.04200 15.25000 24.27100
H  44.83200 13.41900 25.09300
H  46.61700 17.67200 32.19000
H  49.55000 17.51100 32.21700
H  48.30300 19.61400 30.52000
H  49.55600 19.70300 31.70700
H  47.78200 19.54300 32.20500
H  48.65400 15.45500 32.75300
H  46.83400 15.26500 33.15600
H  47.02200 16.67300 35.00400
H  48.29700 17.57200 34.17400
H  53.61400 17.40500 28.84200
H  52.59200 18.88900 28.98200
H  53.61700 18.86100 27.67700
H  54.55600 18.04600 25.76300
H  55.45900 16.67900 25.15700
H  54.97500 16.60800 26.80400
H  49.34400 13.57000 23.10900
H  46.31000 14.00000 23.03900
H  49.49800 15.19700 21.62900
H  48.45600 16.36200 22.58400
H  47.78800 15.15100 21.44400
H  46.09100 11.82400 23.95900
H  47.81800 11.73800 24.45500
H  47.53300 11.91900 21.53800
H  46.96700 10.41600 22.14700
H  48.62200 10.95300 22.53000
H  43.15300 12.40800 26.63200
H  42.29400 13.91100 26.23400
H  41.85100 13.04700 27.64400
H  44.89100 14.69000 32.02600
H  43.49900 18.52800 33.36900
H  44.33400 17.76700 34.80100
H  42.81000 17.11800 34.30400
Mg 7.14300 56.76400 41.18600
C  6.59700 53.41100 40.59500
C  10.48400 56.29700 40.00900
C  7.64200 60.13300 41.16000
C  3.83200 57.28300 41.87600
N  8.46000 55.05300 40.33200
C  8.02400 53.75500 40.34200
C  9.15400 52.85400 39.86300
C  10.36900 53.67400 40.36800
C  9.76100 55.07500 40.22900
C  10.87600 53.38300 41.79800
C  8.98800 52.52000 38.37400
C  10.36100 52.24300 37.57300
H  10.49900 50.96900 36.70800
N  8.81000 58.03300 40.63900
C  10.03200 57.62600 40.19600
C  10.88200 58.80500 40.04800
C  10.11000 59.87700 40.52200
C  8.79500 59.37900 40.74600
C  12.27600 58.68000 39.46200
C  10.69800 61.27700 40.73800
O  11.86300 61.53900 40.44400
C  9.95200 62.37200 41.45300
N  5.80000 58.47600 41.10800
C  6.27800 59.71800 41.30200
C  5.09100 60.74700 41.31000
C  3.94100 59.83500 41.59600
C  4.51500 58.45800 41.54300
C  5.15000 61.99700 42.28300
C  2.74400 60.15600 40.61300
C  1.26100 59.94000 40.93600
N  5.56600 55.61300 41.30700
C  4.23600 55.92200 41.71800
C  3.59100 54.71000 42.07400
C  4.45500 53.72900 41.61000
C  5.63500 54.27800 41.09400
C  2.27900 54.53100 42.81900
C  4.58200 52.26700 41.49700
O  3.79300 51.35100 41.80700
C  5.86700 52.04400 40.65400
C  5.46700 51.43400 39.35000
O  5.55600 52.01700 38.29600
O  5.00700 50.14200 39.58200
C  4.54600 49.50000 38.35200
H  11.56000 56.12200 39.94200
H  7.72700 61.21900 41.23800
H  2.80600 57.41600 42.22700
H  9.34200 51.95100 40.44400
H  11.30000 53.51900 39.82200
H  10.31200 52.56100 42.23900
H  10.89500 54.21800 42.49800
H  11.90900 53.05000 41.69400
H  8.44200 53.28200 37.81800
H  8.37100 51.63300 38.23100
H  11.16400 52.08200 38.29100
H  10.80000 53.02600 36.95500
H  12.78900 59.36800 40.13400
H  12.32600 58.96300 38.41100
H  12.78900 57.72200 39.54500
H  9.48000 61.93800 42.33400
H  9.29300 62.88900 40.75600
H  10.70400 63.11200 41.72300
H  5.12600 61.11500 40.28500
H  3.65800 60.01700 42.63300
H  6.14100 62.07900 42.73000
H  4.41400 61.93600 43.08400
H  5.03700 62.86600 41.63500
H  2.76700 59.36800 39.86100
H  2.89400 61.18100 40.27400
H  0.83200 59.13500 40.34000
H  0.70700 60.85100 40.71000
H  1.13100 59.75300 42.00200
H  1.63500 54.11100 42.04700
H  1.84200 55.40800 43.29700
H  2.41700 53.88600 43.68700
H  6.55000 51.32600 41.10700
H  3.93500 50.19600 37.77700
H  4.01500 48.58500 38.61400
H  5.34500 49.13500 37.70700

