158

Mg 40.86700 41.22700 27.20500
C  40.24100 43.55600 29.80200
C  41.39000 38.92500 29.67900
C  42.17300 39.21000 24.92900
C  40.68300 43.81000 24.92100
N  40.79000 41.29800 29.44700
C  40.33400 42.25000 30.26500
C  40.26000 41.84600 31.76000
C  40.69200 40.35800 31.67500
C  41.01300 40.16000 30.17900
C  41.98900 39.93700 32.53500
C  38.91100 42.18500 32.50200
C  38.40900 41.21000 33.52400
H  37.87500 41.86000 34.68900
N  41.61400 39.30400 27.29400
C  41.68800 38.48000 28.35900
C  42.33000 37.21800 28.04900
C  42.63300 37.32300 26.69700
C  42.19700 38.68000 26.25500
C  42.59100 36.07600 29.03900
C  43.25200 36.22400 25.78500
O  43.66800 36.35000 24.62900
C  43.39500 34.90800 26.32800
N  41.43500 41.48900 25.19500
C  41.86800 40.46100 24.38800
C  42.01100 40.92000 22.89500
C  41.39100 42.37700 22.98900
C  41.14900 42.57900 24.44300
C  43.36900 40.88000 22.30400
C  40.17700 42.53700 22.10300
C  38.84600 41.83400 22.63700
N  40.40900 43.22400 27.26900
C  40.47100 44.17200 26.28700
C  40.15700 45.46200 26.82800
C  40.06600 45.28600 28.23300
C  40.23000 43.89400 28.40600
C  40.02000 46.75300 26.08900
C  39.80900 45.86100 29.45700
O  39.60300 47.01100 29.81700
C  39.90300 44.77300 30.58800
C  41.01400 45.14000 31.48800
O  42.19500 45.32100 31.25500
O  40.50500 45.27300 32.76400
C  41.42700 45.69500 33.82100
H  41.53200 38.20400 30.48700
H  42.67300 38.50900 24.25700
H  40.73200 44.50300 24.07800
H  41.09500 42.29600 32.29800
H  39.86400 39.69200 31.91700
H  41.68900 39.02200 33.04600
H  42.26900 40.70700 33.25500
H  42.85800 39.75900 31.90200
H  38.07300 42.24800 31.80900
H  39.02600 43.16900 32.95600
H  39.25600 40.62000 33.87300
H  37.71500 40.51100 33.05700
H  42.54000 36.39800 30.08000
H  43.50600 35.49400 28.92700
H  41.88000 35.26500 28.88200
H  42.52700 34.54900 26.88100
H  44.18000 35.06100 27.06900
H  43.61600 34.11200 25.61700
H  41.40400 40.30600 22.23000
H  42.18100 43.06700 22.69400
H  43.39200 41.75900 21.66100
H  43.37800 40.02000 21.63300
H  44.15800 40.83400 23.05500
H  40.40700 41.94900 21.21500
H  40.01000 43.59000 21.87900
H  38.57800 41.09700 21.88000
H  38.05900 42.53000 22.92500
H  39.05300 41.32500 23.57800
H  39.70900 46.55900 25.06300
H  41.01700 47.19300 26.10800
H  39.35400 47.51800 26.48900
H  39.00600 44.70200 31.20400
H  41.98200 46.57300 33.49000
H  42.20100 44.93000 33.88800
H  40.96800 45.92900 34.78100
Mg 0.38200 42.71100 25.08600
C  2.71600 42.37900 27.91300
C  -2.06600 41.82800 27.20200
C  -1.70000 42.46000 22.38500
C  3.12300 43.31200 23.12700
N  0.40800 42.09100 27.31100
C  1.37800 42.16600 28.31800
C  0.78400 42.07900 29.66700
C  -0.70600 41.76400 29.32000
C  -0.82700 41.88100 27.85400
C  -1.11900 40.32600 29.84200
C  0.97700 43.36700 30.53300
C  1.33100 43.20200 32.02200
H  0.88300 42.02900 32.75600
N  -1.58600 42.12400 24.79200
C  -2.46600 41.79500 25.82500
C  -3.77100 41.49900 25.26500
C  -3.66600 41.67600 23.82500
C  -2.29800 42.12100 23.61300
C  -4.98400 41.15400 26.07300
C  -4.73000 41.62900 22.74000
O  -4.45000 41.90500 21.62100
C  -6.09000 41.21700 23.08100
N  0.65800 42.94900 23.11100
C  -0.37600 42.93900 22.24100
C  0.08100 43.42900 20.86700
C  1.56300 44.02400 21.20800
C  1.84300 43.36400 22.58100
C  -0.03000 42.50200 19.60200
C  1.64900 45.60600 21.34200
C  0.96100 46.59500 20.43600
N  2.52200 42.78700 25.32500
C  3.48600 42.90700 24.40000
C  4.77000 42.90900 24.92100
C  4.50000 42.68700 26.31200
C  3.11000 42.68400 26.53000
C  6.09700 43.10900 24.28200
C  5.11300 42.54700 27.58800
O  6.26500 42.38700 27.83600
C  3.98300 42.52100 28.71900
C  4.28600 41.30400 29.51800
O  4.03200 40.13400 29.17200
O  4.90500 41.72300 30.69900
C  5.06200 40.64300 31.64700
H  -2.89400 41.61000 27.88000
H  -2.29300 42.66200 21.49000
H  4.01900 43.54600 22.54800
H  1.33300 41.19900 30.00400
H  -1.49500 42.40100 29.72000
H  -0.48200 39.79600 30.54900
H  -1.11100 39.63100 29.00200
H  -2.14500 40.37400 30.20700
H  0.02300 43.85900 30.34300
H  1.73600 43.95600 30.01800
H  0.84100 44.04200 32.51400
H  2.40500 43.33300 32.15800
H  -4.68700 41.18400 27.12100
H  -5.31400 40.18400 25.70200
H  -5.84200 41.82300 26.02800
H  -6.63200 41.17000 22.13700
H  -6.60300 42.05400 23.55500
H  -6.30100 40.33200 23.68200
H  -0.62200 44.22500 20.62100
H  2.35800 43.65600 20.56000
H  -0.28500 41.50200 19.95400
H  0.84500 42.60500 18.95900
H  -0.87700 42.85000 19.01000
H  2.71800 45.80200 21.25500
H  1.29200 45.83000 22.34700
H  0.20600 47.11500 21.02500
H  0.51400 46.02000 19.62500
H  1.78700 47.23100 20.11700
H  6.35400 44.15700 24.43600
H  6.14300 42.82900 23.23000
H  6.78500 42.43000 24.78700
H  3.99400 43.41800 29.33900
H  5.28100 41.07700 32.62300
H  5.89200 39.97000 31.42900
H  4.16400 40.03000 31.71200

