158

Mg 16.88600 -2.98200 28.53500
C  16.22600 -1.07100 31.20700
C  18.70700 -5.16400 30.56200
C  18.09200 -4.59900 25.72200
C  15.43800 -0.61000 26.41500
N  17.64300 -2.92700 30.57500
C  17.01800 -2.19000 31.53300
C  17.48300 -2.60800 32.92300
C  18.62400 -3.68600 32.67200
C  18.34400 -3.94800 31.13800
C  20.16900 -3.35100 32.95200
C  16.24100 -3.03000 33.83300
C  16.19200 -2.51900 35.27700
H  17.29600 -1.61700 35.75000
N  17.91300 -4.78900 28.27200
C  18.60500 -5.54500 29.19400
C  19.00900 -6.80500 28.59200
C  18.83500 -6.61500 27.19500
C  18.21300 -5.29900 26.98600
C  19.65500 -7.89200 29.41000
C  19.32500 -7.53300 26.11900
O  19.05200 -7.43100 24.96500
C  19.98100 -8.83300 26.45200
N  16.86500 -2.63400 26.46200
C  17.55700 -3.31800 25.47000
C  17.24100 -2.89400 24.06500
C  16.09300 -1.83000 24.21100
C  16.12400 -1.64600 25.80100
C  18.55000 -2.28500 23.32100
C  14.66600 -2.26700 23.68700
C  13.52700 -2.78900 24.64700
N  16.03700 -1.19900 28.70400
C  15.46800 -0.35500 27.76800
C  14.80000 0.73600 28.48800
C  15.09900 0.51200 29.84200
C  15.85200 -0.65600 29.92000
C  14.00000 1.77300 27.90300
C  14.76500 0.87900 31.24300
O  14.06300 1.74900 31.66300
C  15.64900 -0.01800 32.17700
C  16.55800 0.94500 32.88900
O  17.74400 1.12500 32.68300
O  15.87600 1.54400 33.87700
C  16.52600 2.51500 34.80900
H  19.27500 -5.74700 31.29000
H  18.47500 -5.02400 24.79200
H  14.91300 0.13800 25.81800
H  17.95000 -1.64500 33.12600
H  18.37300 -4.58700 33.23200
H  20.79100 -3.43200 32.06100
H  20.47400 -4.09000 33.69400
H  20.23400 -2.38000 33.44300
H  16.36100 -4.11300 33.88000
H  15.27900 -2.83400 33.36000
H  15.96500 -3.32700 35.97100
H  15.28700 -1.92000 35.17100
H  19.23100 -8.88600 29.27400
H  19.79600 -7.68200 30.47100
H  20.68000 -7.89100 29.03900
H  20.99600 -8.77000 26.84400
H  20.17300 -9.43000 25.56000
H  19.30400 -9.40200 27.08800
H  16.83800 -3.77400 23.56300
H  16.38500 -0.88700 23.74900
H  18.26400 -1.62500 22.50200
H  19.18200 -2.99500 22.78800
H  19.10500 -1.70600 24.06100
H  14.96200 -2.90900 22.85700
H  14.20300 -1.35500 23.31100
H  13.85800 -3.39900 25.48800
H  12.89300 -3.39600 24.00000
H  12.98600 -1.98400 25.14300
H  14.68000 2.47700 27.42300
H  13.41800 2.33900 28.63000
H  13.37800 1.33400 27.12300
H  14.96400 -0.30700 32.97400
H  17.59900 2.38000 34.94300
H  16.06000 2.30200 35.77100
H  16.20600 3.52000 34.53400
Mg -9.63100 39.56400 42.66000
C  -8.84000 36.35700 41.80200
C  -6.64700 40.56200 41.22000
C  -10.84600 42.67000 42.42000
C  -12.90500 38.45900 43.66600
N  -8.12400 38.58900 41.41400
C  -7.90900 37.26300 41.40000
C  -6.57400 36.94200 40.60300
C  -5.78400 38.26200 40.82400
C  -6.91300 39.24800 41.23600
C  -4.60700 38.15100 41.79100
C  -6.74200 36.37900 39.16500
C  -5.92200 35.14500 38.72600
H  -5.09200 35.34200 37.47300
N  -8.78700 41.39300 41.92000
C  -7.53100 41.65600 41.50300
C  -7.26900 43.06700 41.44700
C  -8.52400 43.71100 41.75400
C  -9.44900 42.57700 42.00100
C  -5.89900 43.54300 40.96500
C  -8.79800 45.22600 41.73700
O  -7.88700 45.98000 41.51200
C  -10.12500 45.81800 41.99300
N  -11.61900 40.39100 42.98600
C  -11.83700 41.72900 42.79000
C  -13.26900 42.15100 43.11200
C  -13.88000 40.84000 43.70300
C  -12.79800 39.81900 43.41000
C  -13.41600 43.36200 44.01400
C  -15.33700 40.34100 43.30100
C  -16.21900 39.73200 44.43500
N  -10.62000 37.76900 42.98100
C  -11.89800 37.48500 43.33800
C  -12.01600 36.06100 43.31200
C  -10.83400 35.59800 42.76700
C  -10.02600 36.66700 42.47900
C  -13.30000 35.35600 43.68300
C  -10.13100 34.38900 42.34800
O  -10.41600 33.18200 42.42300
C  -8.75500 34.87500 41.74600
C  -7.67300 34.29200 42.59200
O  -7.24300 34.82700 43.61100
O  -7.00300 33.27900 41.93000
C  -5.61400 33.18100 42.25300
H  -5.60500 40.84200 41.05000
H  -11.26100 43.67600 42.51200
H  -13.84900 38.18400 44.14000
H  -5.97400 36.16800 41.08000
H  -5.36600 38.48300 39.84200
H  -3.70400 38.21100 41.18400
H  -4.64100 37.27900 42.44400
H  -4.58400 39.06500 42.38400
H  -6.57100 37.12100 38.38500
H  -7.77900 36.09300 38.98800
H  -6.63300 34.32200 38.79500
H  -5.07900 34.91000 39.37600
H  -5.16200 43.35300 41.74400
H  -5.98400 44.59700 40.69900
H  -5.62800 43.05500 40.02800
H  -10.51200 45.54500 42.97500
H  -10.65500 45.40200 41.13700
H  -10.17300 46.86600 41.69600
H  -13.75800 42.42600 42.17800
H  -13.95800 40.98200 44.78100
H  -12.48300 43.59500 44.52700
H  -14.19300 43.07000 44.72000
H  -13.74900 44.23200 43.44800
H  -15.24300 39.48700 42.63100
H  -15.91700 41.14100 42.83900
H  -16.57800 38.73300 44.18700
H  -17.05500 40.42200 44.54200
H  -15.74000 39.61400 45.40800
H  -13.74400 35.72600 44.60700
H  -13.03400 34.32100 43.89500
H  -14.00300 35.25400 42.85700
H  -8.60800 34.49500 40.73500
H  -5.15500 34.06400 42.69700
H  -5.14200 32.72400 41.38300
H  -5.56100 32.36100 42.97000

