158

Mg 55.67600 24.11700 43.92700
C  53.11800 26.50400 43.09700
C  53.69600 21.81500 42.27700
C  58.42100 22.34700 43.62700
C  57.45300 26.79500 45.35500
N  53.61700 24.17600 42.82500
C  52.78500 25.21000 42.56700
C  51.61400 24.67700 41.66700
C  51.65100 23.12600 42.03300
C  53.05300 23.01900 42.47000
C  50.68600 22.64900 43.15900
C  51.92800 25.00600 40.21600
C  50.69900 25.04800 39.28000
H  50.84000 25.75800 37.91700
N  56.02900 22.28800 43.08200
C  55.09900 21.46700 42.54700
C  55.68800 20.16000 42.43000
C  57.01300 20.24800 42.88000
C  57.23600 21.67900 43.18700
C  54.92800 18.91200 41.91900
C  57.97200 19.14300 42.90300
O  57.69000 18.07800 42.39200
C  59.29300 19.30100 43.44000
N  57.66800 24.59600 44.26200
C  58.65500 23.66500 44.19900
C  60.01100 24.19700 44.69500
C  59.63800 25.49200 45.37100
C  58.15600 25.65800 44.95600
C  60.74800 23.14300 45.58700
C  60.55400 26.73700 45.05300
C  60.15100 27.67100 43.89000
N  55.34800 26.17700 44.35600
C  56.16200 27.12000 44.97000
C  55.49800 28.35800 44.96100
C  54.37000 28.16300 44.26600
C  54.25800 26.85800 43.87900
C  55.94500 29.67800 45.48600
C  53.10000 28.82600 43.79200
O  52.73100 30.00000 43.89400
C  52.23700 27.64000 43.19100
C  51.58500 28.20100 42.00200
O  52.11800 28.40900 40.94300
O  50.30700 28.54800 42.28300
C  49.42600 28.53100 41.09900
H  53.12800 21.03300 41.76900
H  59.32500 21.74600 43.74400
H  57.96900 27.62300 45.84600
H  50.66000 25.05800 42.03000
H  51.52000 22.48700 41.15900
H  51.33100 22.34800 43.98500
H  50.05300 21.84300 42.78800
H  50.02600 23.39600 43.59900
H  52.66100 24.35600 39.73800
H  52.22900 26.05300 40.17300
H  49.89800 25.57400 39.79800
H  50.43000 24.00400 39.11900
H  54.09500 19.40000 41.41100
H  54.50600 18.23400 42.66100
H  55.47600 18.47500 41.08600
H  59.15800 19.60700 44.47700
H  59.81900 20.02000 42.81200
H  59.98500 18.46900 43.31100
H  60.56000 24.32800 43.76200
H  59.47400 25.38800 46.44300
H  61.66900 22.78700 45.12600
H  60.26100 22.19200 45.80500
H  61.11700 23.57400 46.51800
H  61.50400 26.33200 44.70300
H  60.70900 27.36000 45.93400
H  61.06400 27.86600 43.32700
H  59.70700 28.61800 44.19800
H  59.51200 27.11000 43.20900
H  55.19200 30.44800 45.65400
H  56.80900 29.99600 44.90300
H  56.32000 29.48800 46.49200
H  51.47200 27.40300 43.93100
H  49.54600 29.45100 40.52700
H  48.37600 28.37900 41.34600
H  49.73100 27.70300 40.45900
Mg -3.12900 35.36300 26.51400
C  -4.65000 33.59000 29.09200
C  -1.76000 37.48600 28.88300
C  -1.83200 37.27000 24.00700
C  -4.88700 33.42800 24.17500
N  -3.32200 35.63000 28.75200
C  -3.81400 34.61600 29.58100
C  -3.52500 34.95800 31.09700
C  -2.72400 36.33000 30.93600
C  -2.63800 36.49400 29.42800
C  -3.53500 37.51500 31.55900
C  -2.65800 33.78000 31.78000
C  -3.37500 33.12200 32.99300
H  -2.55800 32.93000 34.25600
N  -2.00000 37.23200 26.44900
C  -1.53400 37.86300 27.54500
C  -0.50000 38.84000 27.10800
C  -0.36300 38.63400 25.67900
C  -1.40400 37.67500 25.31800
C  0.23400 39.76900 28.12800
C  0.55600 39.30500 24.71500
O  0.54300 39.11600 23.52800
C  1.63500 40.17200 25.25300
N  -3.48800 35.48400 24.40600
C  -2.72800 36.28300 23.58600
C  -2.88000 35.94500 22.08200
C  -3.70800 34.61300 22.15500
C  -4.05900 34.46700 23.67000
C  -3.49900 37.09600 21.32700
C  -3.06900 33.34000 21.50800
C  -1.97700 32.60300 22.33500
N  -4.44100 33.77500 26.59200
C  -5.14800 33.11600 25.49400
C  -5.83100 31.97200 26.03600
C  -5.66500 32.10800 27.46800
C  -4.89800 33.26000 27.71400
C  -6.54800 30.90600 25.20300
C  -6.09300 31.58600 28.75500
O  -6.85900 30.63300 29.09200
C  -5.48400 32.59500 29.87500
C  -6.53900 33.09200 30.76600
O  -7.45900 33.85600 30.46400
O  -6.51300 32.35000 31.92200
C  -7.32700 32.75700 33.06400
H  -1.09400 37.95100 29.61300
H  -1.25100 37.78900 23.24300
H  -5.30900 32.78600 23.39900
H  -4.42300 35.17200 31.67700
H  -1.74800 36.27300 31.41800
H  -2.81900 38.04800 32.18300
H  -4.39200 37.22600 32.16800
H  -3.83700 38.25300 30.81500
H  -1.76000 34.17200 32.25600
H  -2.35800 33.01500 31.06400
H  -3.70500 32.15600 32.61200
H  -4.24300 33.68300 33.33900
H  -0.34500 39.92000 29.03900
H  0.33000 40.81900 27.85300
H  1.20300 39.29700 28.29100
H  2.30200 40.49500 24.45400
H  2.14900 39.69000 26.08400
H  1.35300 41.14300 25.65900
H  -1.98400 35.61600 21.55500
H  -4.60500 34.79400 21.56400
H  -3.57900 37.95000 21.99900
H  -4.53100 36.89700 21.03600
H  -2.82100 37.34500 20.51100
H  -2.56800 33.62100 20.58200
H  -3.89100 32.64000 21.35900
H  -1.86200 31.55500 22.05900
H  -2.25500 32.51500 23.38500
H  -1.03800 33.13900 22.19700
H  -6.25700 29.94300 25.62300
H  -6.50000 30.88400 24.11400
H  -7.57700 31.15300 25.46600
H  -4.74000 32.01500 30.42100
H  -6.79300 33.49500 33.66300
H  -7.52100 31.84100 33.62200
H  -8.28000 33.17200 32.73400

