158

Mg 49.04700 16.88800 29.27300
C  46.90000 16.75700 31.98300
C  51.30900 18.73400 31.04500
C  50.83600 17.14900 26.44700
C  46.24500 15.62500 27.30900
N  49.02800 17.73400 31.20900
C  48.08900 17.51500 32.19100
C  48.58400 18.02700 33.51600
C  49.85300 18.82700 33.17400
C  50.13100 18.41100 31.76500
C  49.66300 20.38400 33.24700
C  48.83900 16.92000 34.53200
C  48.35800 17.24000 35.97500
H  47.78100 18.60400 36.24300
N  50.95000 17.63500 28.85800
C  51.72100 18.32000 29.76100
C  52.98300 18.70800 29.11300
C  52.92700 18.16000 27.81400
C  51.56200 17.59800 27.61500
C  54.00300 19.64400 29.84000
C  53.97000 18.12900 26.65100
O  53.82800 17.61700 25.54900
C  55.29000 18.91400 26.86200
N  48.46400 16.59900 27.14300
C  49.49400 16.79500 26.22700
C  49.00500 16.61100 24.81600
C  47.72000 15.81000 25.08100
C  47.41400 16.05300 26.60200
C  48.71500 17.77900 23.87300
C  47.87400 14.32100 24.73600
C  46.70600 13.53800 24.00200
N  47.01900 16.20700 29.57000
C  46.02400 15.70400 28.69800
C  44.92900 15.31700 29.50600
C  45.18400 15.75600 30.77600
C  46.48500 16.29900 30.73700
C  43.71100 14.62300 29.06200
C  44.64400 15.80400 32.07100
O  43.58700 15.39900 32.52900
C  45.76200 16.40800 32.98600
C  45.10400 17.63000 33.51700
O  45.08800 18.77300 32.99000
O  44.33000 17.13000 34.57800
C  43.34600 18.12400 35.07700
H  52.03700 19.38200 31.53700
H  51.38400 17.07800 25.50500
H  45.58600 15.05300 26.65200
H  47.76200 18.68800 33.79000
H  50.64300 18.77300 33.92300
H  48.62700 20.53000 33.55200
H  49.72600 20.84800 32.26200
H  50.39900 20.76400 33.95500
H  49.92300 16.83200 34.60600
H  48.41800 15.94500 34.28500
H  49.16100 16.94800 36.65000
H  47.51200 16.62100 36.27300
H  54.65400 18.99000 30.42000
H  53.49700 20.43300 30.39600
H  54.60900 20.32400 29.24200
H  55.97900 18.84100 26.02100
H  55.81700 18.43400 27.68700
H  55.05000 19.95100 27.09800
H  49.70300 15.95800 24.29200
H  46.94300 16.09500 24.37200
H  48.91400 17.52700 22.83200
H  49.42300 18.58300 24.07800
H  47.72100 18.18800 24.05100
H  48.07400 13.88700 25.71600
H  48.76200 14.18900 24.11800
H  47.06800 12.71800 23.38200
H  46.12700 14.21200 23.37100
H  46.00900 13.10800 24.72100
H  43.96600 13.79400 28.40200
H  43.00000 15.26000 28.53600
H  43.24600 14.20900 29.95700
H  46.00700 15.63800 33.71800
H  43.72600 18.99800 35.60700
H  42.61800 17.59200 35.68900
H  42.76300 18.39900 34.19800
Mg 42.33200 41.18100 25.62700
C  41.58500 43.44500 28.10800
C  43.47500 39.12400 28.02200
C  43.31300 39.09400 23.25000
C  41.73900 43.58300 23.20200
N  42.53800 41.38400 27.89700
C  41.90300 42.20700 28.64500
C  41.94000 41.81000 30.16600
C  42.66900 40.42100 30.12600
C  42.91200 40.27600 28.59300
C  44.03600 40.29800 31.04100
C  40.56300 41.83600 30.91400
C  40.41200 41.31100 32.26600
H  39.79900 42.08100 33.34600
N  43.26600 39.24100 25.63500
C  43.75800 38.62100 26.69800
C  44.24100 37.34900 26.28700
C  44.25400 37.37200 24.93400
C  43.59900 38.55500 24.54000
C  44.68500 36.27600 27.32600
C  44.76800 36.24600 23.97500
O  44.68000 36.31500 22.74800
C  45.35600 35.07300 24.59900
N  42.32800 41.26500 23.57100
C  42.78500 40.23300 22.78700
C  42.57500 40.49500 21.33100
C  42.12700 41.98200 21.29800
C  42.04900 42.28100 22.76200
C  43.83400 40.27600 20.48100
C  40.84900 42.31100 20.49600
C  40.95300 43.41200 19.45000
N  41.77300 43.13300 25.60300
C  41.59300 44.00600 24.53400
C  41.22800 45.26100 25.09200
C  41.18700 45.13600 26.49800
C  41.51600 43.75000 26.74800
C  40.73400 46.37000 24.24300
C  40.83000 45.80300 27.71300
O  40.47900 46.95500 27.95100
C  41.14000 44.75100 28.88500
C  42.25100 45.27000 29.76800
O  43.40300 45.25200 29.40600
O  41.78400 45.51800 31.04700
C  42.86900 45.65200 32.10900
H  43.73400 38.33700 28.73200
H  43.54100 38.36100 22.47300
H  41.42600 44.31100 22.45100
H  42.52700 42.54500 30.71500
H  42.02600 39.69200 30.62000
H  44.03000 41.15800 31.71200
H  44.92800 40.19900 30.42300
H  43.94100 39.42700 31.68900
H  39.89600 41.19300 30.34100
H  40.15100 42.84500 30.93400
H  41.40000 40.99000 32.59700
H  39.91600 40.36800 32.03900
H  44.22700 35.32100 27.06800
H  44.42000 36.49900 28.36000
H  45.77000 36.27100 27.22400
H  44.57800 34.49100 25.09400
H  46.05600 35.39200 25.37000
H  45.86800 34.56300 23.78300
H  41.74200 39.94900 20.88900
H  42.95400 42.55000 20.87100
H  43.96000 39.24400 20.15300
H  44.68600 40.54500 21.10500
H  43.80400 40.82400 19.54000
H  40.00800 42.50300 21.16200
H  40.53200 41.46100 19.89200
H  40.27000 44.23600 19.65600
H  40.58000 43.11500 18.47000
H  41.99600 43.68800 19.29100
H  40.49400 45.94800 23.26700
H  41.58900 47.03200 24.10400
H  39.88600 46.80900 24.76800
H  40.19300 44.61100 29.40700
H  43.11700 44.62600 32.38100
H  42.46900 46.14700 32.99400
H  43.69500 46.20600 31.66400

