158

Mg 15.64900 51.70500 26.05800
C  17.45800 50.62400 28.82400
C  13.06300 52.56900 28.10000
C  13.93000 52.61500 23.30700
C  18.17300 50.41300 23.93900
N  15.32700 51.71300 28.20500
C  16.25000 51.26200 29.15400
C  15.78500 51.66400 30.54800
C  14.22300 51.73300 30.33000
C  14.17200 52.07200 28.77400
C  13.44300 50.38900 30.71000
C  16.42100 52.94000 31.11300
C  16.50000 53.12800 32.64800
H  15.67100 52.15200 33.43200
N  13.73500 52.48200 25.74500
C  12.85200 52.79900 26.75000
C  11.66300 53.39500 26.14800
C  11.88200 53.25600 24.76800
C  13.22300 52.82100 24.51700
C  10.44500 53.91800 26.92100
C  10.92800 53.56200 23.65800
O  11.26800 53.43200 22.49000
C  9.50000 54.02400 24.01700
N  15.91100 51.43000 23.92000
C  15.14200 52.04300 22.99600
C  15.82000 52.06800 21.57100
C  17.00900 51.00500 21.78700
C  17.05700 50.94900 23.30600
C  14.81900 51.72800 20.42100
C  18.29500 51.41300 21.01700
C  18.70800 50.45100 19.87000
N  17.38100 50.62500 26.30600
C  18.35600 50.28700 25.38100
C  19.51600 49.75100 26.03000
C  19.17400 49.86300 27.40900
C  17.91600 50.37500 27.53200
C  20.86100 49.30200 25.45400
C  19.63600 49.56200 28.73900
O  20.68700 49.04800 29.13200
C  18.56100 50.05300 29.73800
C  18.21100 48.92300 30.63900
O  17.60300 47.90300 30.31100
O  18.65400 49.21300 31.94600
C  17.93300 48.49800 33.00800
H  12.25400 52.86200 28.77300
H  13.40500 53.05100 22.45500
H  19.11600 50.20400 23.43000
H  15.94700 50.86700 31.27400
H  13.77200 52.51500 30.94000
H  14.18500 49.60700 30.55200
H  12.51900 50.16100 30.17800
H  13.17100 50.36100 31.76500
H  15.82600 53.79200 30.78300
H  17.39500 53.04000 30.63300
H  16.18500 54.14500 32.87800
H  17.53000 53.06300 32.99800
H  10.08600 54.87900 26.55400
H  10.64900 53.91500 27.99200
H  9.58400 53.27400 26.73700
H  8.92800 53.36400 24.67000
H  8.84800 53.99200 23.14400
H  9.60200 55.08400 24.24900
H  16.18700 53.08900 21.47600
H  16.73800 50.04200 21.35400
H  15.21100 50.87600 19.86600
H  14.59500 52.59800 19.80300
H  13.79800 51.61800 20.78800
H  19.13400 51.80000 21.59500
H  18.05100 52.33100 20.48200
H  18.41900 49.44900 20.18700
H  19.78400 50.44600 19.69900
H  18.19200 50.73500 18.95300
H  20.82100 49.21500 24.36800
H  21.29700 48.36900 25.81100
H  21.54400 50.08600 25.78100
H  19.02000 50.87300 30.29000
H  18.39000 47.54200 33.26400
H  16.87200 48.33900 32.81500
H  17.80400 49.12400 33.89000
Mg -2.45000 33.96400 26.92900
C  -3.92200 32.11100 29.67500
C  -0.88000 35.88700 29.39200
C  -1.43300 35.99400 24.52800
C  -4.11000 31.89600 24.73800
N  -2.43600 33.94800 29.36300
C  -3.01200 33.07000 30.18200
C  -2.62900 33.48200 31.64100
C  -1.79400 34.75000 31.49900
C  -1.63500 34.84600 29.94500
C  -2.27800 36.09700 32.23500
C  -1.90400 32.37900 32.51300
C  -2.48400 32.05200 33.89000
H  -1.48600 32.00200 35.04600
N  -1.32000 35.65200 26.92000
C  -0.71500 36.20800 28.01200
C  -0.06200 37.42200 27.55000
C  -0.18300 37.51700 26.17300
C  -0.93700 36.33300 25.80600
C  0.57700 38.32900 28.51700
C  0.49000 38.57300 25.30700
O  0.35600 38.59000 24.09000
C  1.21200 39.61400 25.89500
N  -2.66300 33.94200 24.87900
C  -2.13900 34.86800 24.08500
C  -2.34600 34.43000 22.51700
C  -3.03200 33.01500 22.64600
C  -3.31300 32.96100 24.16500
C  -3.22800 35.33700 21.63800
C  -2.13100 31.88200 22.13200
C  -2.40800 31.48500 20.63700
N  -3.64900 32.36300 27.14700
C  -4.33300 31.61300 26.14800
C  -5.05400 30.49300 26.70800
C  -4.92300 30.71600 28.07600
C  -4.08800 31.82300 28.37500
C  -5.89900 29.46600 26.06000
C  -5.38600 30.18800 29.36200
O  -6.14000 29.26100 29.65200
C  -4.67400 31.11600 30.44700
C  -5.69800 31.68100 31.29800
O  -6.51800 32.53200 30.97000
O  -5.65000 31.06700 32.52000
C  -6.66600 31.45000 33.57100
H  -0.37400 36.49200 30.14700
H  -1.07100 36.59400 23.69100
H  -4.40900 31.10100 24.05100
H  -3.55600 33.74400 32.15000
H  -0.76400 34.60200 31.82400
H  -2.71200 36.85100 31.57900
H  -1.47200 36.57100 32.79700
H  -3.09700 35.90100 32.92700
H  -0.88200 32.72300 32.67100
H  -1.86100 31.51400 31.85200
H  -2.89300 31.05600 33.71700
H  -3.37800 32.58200 34.21800
H  1.62800 38.04700 28.58200
H  0.19000 38.27600 29.53400
H  0.49100 39.40700 28.37900
H  1.72500 40.14200 25.09200
H  1.93100 39.32200 26.66100
H  0.49200 40.37900 26.18500
H  -1.31800 34.32800 22.17000
H  -4.05600 33.01100 22.27200
H  -4.15400 34.90100 21.26200
H  -2.68500 35.61100 20.73300
H  -3.50200 36.30500 22.05800
H  -2.19300 30.98700 22.75000
H  -1.12000 32.24400 22.31800
H  -1.50000 31.69500 20.07000
H  -3.21200 32.15300 20.32800
H  -2.66800 30.42800 20.60500
H  -5.31200 28.55800 25.92100
H  -6.38700 29.76600 25.13300
H  -6.69600 29.31900 26.78900
H  -4.09100 30.38500 31.00800
H  -7.50000 32.04600 33.20200
H  -6.28700 32.02500 34.41600
H  -7.04500 30.52600 34.00800

