158

Mg 1.53000 8.50800 26.57900
C  2.02600 10.35400 29.42600
C  1.67200 5.64700 28.45500
C  1.09600 6.77800 23.75000
C  1.85700 11.48200 24.69300
N  1.64400 8.03600 28.75200
C  1.80600 8.99000 29.68000
C  1.67000 8.33200 31.05300
C  1.96700 6.84600 30.76400
C  1.70900 6.84100 29.22300
C  3.42200 6.47000 31.05900
C  0.29800 8.54300 31.67100
C  0.12900 8.72200 33.16900
H  1.31500 8.43800 34.13200
N  1.42800 6.46800 26.16200
C  1.36500 5.42300 27.08100
C  1.00800 4.21400 26.42600
C  1.02600 4.52200 25.06000
C  1.16800 5.98700 24.92600
C  0.85600 2.86400 27.11300
C  0.81800 3.62400 23.89100
O  0.67900 4.06500 22.74900
C  0.68100 2.16700 24.11900
N  1.39600 9.12300 24.58000
C  1.22400 8.16700 23.60700
C  1.28000 8.83400 22.18900
C  1.03800 10.30400 22.55800
C  1.53200 10.34500 24.01500
C  2.52400 8.73900 21.30400
C  -0.44200 10.71300 22.52300
C  -0.99500 11.44500 21.29500
N  2.02700 10.52200 26.95600
C  2.16800 11.61300 26.09300
C  2.39800 12.82200 26.86700
C  2.40700 12.30800 28.20200
C  2.13000 10.95900 28.18800
C  2.45700 14.15400 26.45200
C  2.53000 12.72700 29.60900
O  2.85100 13.79900 30.07400
C  2.21200 11.48000 30.43800
C  3.46100 11.28900 31.20800
O  4.44900 10.66000 30.91400
O  3.37200 12.06300 32.30000
C  4.51900 11.94400 33.28600
H  1.72300 4.68200 28.96400
H  0.97600 6.35400 22.75100
H  1.57400 12.36100 24.11100
H  2.41100 8.78400 31.71100
H  1.27000 6.16300 31.25100
H  3.40200 5.69300 31.82300
H  4.08700 7.32000 31.21100
H  3.92700 5.92100 30.26400
H  -0.31500 7.69100 31.37600
H  -0.15500 9.35000 31.09500
H  -0.68000 8.03700 33.42200
H  -0.15000 9.74800 33.41000
H  0.56400 3.03500 28.14900
H  1.84900 2.41500 27.07600
H  0.14700 2.15200 26.69100
H  1.61200 1.80900 24.55900
H  0.46800 1.51000 23.27600
H  -0.24900 2.06000 24.67600
H  0.41800 8.62000 21.55800
H  1.63500 11.02900 22.00500
H  3.09100 7.80800 21.33400
H  3.21700 9.51800 21.61800
H  2.21100 8.95500 20.28200
H  -0.59600 11.37800 23.37200
H  -1.11600 9.89700 22.78400
H  -1.70200 10.84400 20.72100
H  -0.16300 11.61700 20.61200
H  -1.38100 12.44800 21.47200
H  1.85700 14.80700 27.08600
H  2.09700 14.30700 25.43400
H  3.46300 14.57300 26.48100
H  1.30300 11.62800 31.02200
H  4.55700 11.01200 33.85000
H  4.50300 12.82400 33.93000
H  5.40300 11.92800 32.64800
Mg -1.99600 34.91400 26.23100
C  -4.07400 33.20700 28.38600
C  -1.39000 37.15700 28.56100
C  -0.19700 36.67100 23.90100
C  -3.22600 32.82200 23.64700
N  -2.74300 35.08700 28.18500
C  -3.44500 34.24600 28.99500
C  -3.31400 34.55900 30.50100
C  -2.74900 36.00600 30.45800
C  -2.22500 36.06800 29.03400
C  -3.74300 37.11800 30.77400
C  -2.39400 33.55200 31.33400
C  -3.00500 33.14900 32.74600
H  -3.35300 34.25400 33.78900
N  -0.83100 36.56600 26.28900
C  -0.72300 37.38400 27.32900
C  0.03900 38.57100 26.97400
C  0.46600 38.43200 25.66100
C  -0.12400 37.16600 25.26200
C  0.38100 39.64100 28.05100
C  1.40600 39.30300 24.85600
O  1.65400 38.98300 23.69300
C  1.98700 40.45900 25.42200
N  -1.61900 34.67300 24.21300
C  -0.88000 35.54500 23.42600
C  -0.77500 34.96700 22.01500
C  -1.39400 33.57800 22.08600
C  -2.16200 33.72100 23.38700
C  -1.45900 35.84900 20.78700
C  -0.39500 32.38700 22.14900
C  0.50700 32.12200 23.36500
N  -3.50000 33.44700 25.98000
C  -3.87900 32.64800 24.88500
C  -4.74700 31.61300 25.33600
C  -4.92000 31.83200 26.69800
C  -4.10200 32.89300 27.03500
C  -5.50700 30.61800 24.45500
C  -5.63400 31.44900 27.92100
O  -6.41200 30.59100 28.08000
C  -5.02800 32.15300 29.02200
C  -6.06500 32.96800 29.80800
O  -6.44800 34.03600 29.50200
O  -6.42900 32.24700 30.94500
C  -7.43900 32.85900 31.85400
H  -1.25200 37.85200 29.39200
H  0.27500 37.27100 23.11900
H  -3.41000 32.12100 22.83000
H  -4.31000 34.65600 30.93400
H  -1.97800 36.00300 31.22900
H  -4.69700 36.83600 30.32800
H  -3.53500 38.07100 30.28800
H  -3.92500 37.15100 31.84800
H  -1.34600 33.80300 31.50000
H  -2.45600 32.56100 30.88400
H  -2.29000 32.48200 33.22800
H  -3.96300 32.62900 32.71900
H  -0.42200 40.35700 28.22600
H  1.26100 40.25300 27.85400
H  0.52700 39.21200 29.04200
H  2.75900 40.72700 24.70200
H  2.60100 40.05100 26.22500
H  1.30600 41.22900 25.78400
H  0.28600 34.85300 21.79000
H  -2.06900 33.36800 21.25600
H  -0.56600 36.08500 20.20800
H  -1.93500 36.72700 21.22300
H  -2.16700 35.26200 20.20100
H  0.23500 32.46300 21.26300
H  -0.93500 31.45700 21.97200
H  0.19900 32.84400 24.12100
H  1.55700 32.37100 23.21500
H  0.45300 31.07300 23.65800
H  -5.16700 29.59900 24.64100
H  -5.35900 30.75100 23.38300
H  -6.58900 30.67500 24.56900
H  -4.53100 31.43800 29.67700
H  -8.29100 33.14100 31.23600
H  -7.14900 33.74200 32.42300
H  -7.80900 32.05700 32.49300

