158

Mg 2.19400 -1.47800 43.30400
C  5.63900 -1.09800 43.09700
C  1.77200 1.20400 41.23800
C  -1.12800 -2.30400 42.97500
C  2.66900 -4.60400 44.75700
N  3.62900 -0.12700 42.27300
C  5.02600 -0.08100 42.33900
C  5.58500 1.02900 41.47900
C  4.32800 1.72300 40.90500
C  3.10800 0.86900 41.47100
C  4.08200 3.24500 41.23700
C  6.50800 0.38900 40.45600
C  8.01400 0.83100 40.45600
H  8.52500 1.20300 39.06400
N  0.53700 -0.55500 42.35200
C  0.55200 0.51300 41.62000
C  -0.82100 0.79300 41.08200
C  -1.62700 -0.11100 41.73900
C  -0.74000 -1.09100 42.38800
C  -1.13400 2.07000 40.34400
C  -3.11200 -0.17700 41.65500
O  -3.71200 0.63700 40.96000
C  -3.97800 -0.94000 42.54000
N  0.94800 -3.28300 43.85800
C  -0.40600 -3.31300 43.51000
C  -1.09300 -4.53400 44.22500
C  0.13900 -5.29200 44.76900
C  1.33500 -4.40200 44.42000
C  -2.19600 -4.11300 45.24800
C  0.34700 -6.73600 44.35300
C  -0.04400 -7.81100 45.43700
N  3.74200 -2.64700 43.86400
C  3.78100 -3.82400 44.52900
C  5.19200 -4.11600 44.86700
C  5.91700 -3.07700 44.30300
C  4.98900 -2.23000 43.74500
C  5.73900 -5.35300 45.47400
C  7.24200 -2.59800 44.16000
O  8.25400 -2.96600 44.57000
C  7.10700 -1.27100 43.36600
C  7.49800 -0.18100 44.16900
O  7.37300 -0.17900 45.37300
O  8.11800 0.78800 43.49900
C  8.33500 2.08200 44.08600
H  1.71500 2.02600 40.52000
H  -2.18100 -2.52300 42.79000
H  2.95400 -5.44300 45.39600
H  6.11100 1.68700 42.17100
H  4.39400 1.64200 39.82000
H  4.09200 3.79400 40.29500
H  4.91100 3.65700 41.81200
H  3.11700 3.41800 41.71500
H  6.10900 0.62100 39.46900
H  6.48100 -0.69500 40.56100
H  8.60200 0.00900 40.86500
H  8.20800 1.64800 41.15100
H  -0.22200 2.31200 39.79800
H  -1.50800 2.93700 40.89000
H  -1.70000 1.80700 39.45100
H  -5.02600 -0.64100 42.53500
H  -3.62500 -0.92200 43.57100
H  -4.12200 -2.00200 42.33900
H  -1.46100 -5.08700 43.36100
H  -0.02200 -5.17300 45.84100
H  -2.17700 -3.03500 45.40600
H  -2.20800 -4.54100 46.25000
H  -3.13900 -4.19100 44.70700
H  1.37900 -6.87500 44.03000
H  -0.15500 -7.01400 43.42600
H  0.91300 -8.19600 45.78900
H  -0.65000 -8.61800 45.02500
H  -0.54200 -7.44700 46.33600
H  5.34900 -5.54700 46.47300
H  6.82700 -5.38200 45.40900
H  5.43500 -6.22600 44.89700
H  7.75300 -1.34800 42.49100
H  7.61400 2.88200 43.91600
H  9.24900 2.44300 43.61300
H  8.64600 1.98200 45.12600
Mg 49.33700 45.35800 42.38200
C  46.04400 46.31200 41.36700
C  48.87800 42.40200 40.79700
C  52.66400 44.93600 42.41600
C  49.83700 48.67000 43.38500
N  47.58400 44.45900 41.25900
C  46.38500 45.05500 40.93700
C  45.53800 44.04600 40.18800
C  46.38900 42.64300 40.30500
C  47.73300 43.20300 40.81600
C  45.60600 41.57800 41.28400
C  45.13500 44.46000 38.68700
C  43.94400 43.73400 38.06100
H  44.23600 42.65500 37.04400
N  50.59000 43.72700 41.93700
C  50.21100 42.64000 41.23600
C  51.34200 41.76100 41.19400
C  52.41300 42.34200 41.87500
C  51.93400 43.75500 42.08200
C  51.32400 40.39300 40.44300
C  53.83700 41.91100 42.14200
O  54.15800 40.81400 41.75600
C  54.91500 42.64700 42.86000
N  50.96800 46.66800 42.70700
C  52.22700 46.22700 42.67400
C  53.28900 47.32000 42.91900
C  52.43500 48.41200 43.63000
C  50.98700 47.96600 43.26300
C  54.51300 46.93200 43.86300
C  52.81900 49.86600 43.23100
C  53.87600 50.52400 44.15000
N  48.18200 47.08100 42.52100
C  48.54800 48.35700 42.95300
C  47.39800 49.17500 42.90200
C  46.38100 48.44200 42.30200
C  46.89100 47.16300 42.03100
C  47.42200 50.62800 43.33900
C  44.93900 48.40800 41.87200
O  44.00500 49.23700 41.89800
C  44.79800 47.10400 41.09700
C  43.55400 46.46800 41.33500
O  42.66800 46.30400 40.55300
O  43.56600 45.90800 42.60700
C  42.45500 44.93900 42.85700
H  48.71700 41.46700 40.25600
H  53.73500 44.72700 42.38000
H  50.00500 49.67700 43.77300
H  44.63200 43.85000 40.76200
H  46.44600 42.26700 39.28300
H  46.29000 41.36100 42.10400
H  45.41100 40.65900 40.73100
H  44.66900 41.91300 41.73100
H  46.06100 44.19500 38.17700
H  45.12300 45.54500 38.59200
H  43.30200 44.50100 37.62600
H  43.34300 43.38100 38.89900
H  52.23700 39.79700 40.42500
H  50.92100 40.52400 39.43900
H  50.69600 39.98500 41.23500
H  55.36000 43.36100 42.16600
H  55.61800 41.96100 43.33000
H  54.52600 43.06000 43.79100
H  53.69500 47.64300 41.96000
H  52.50900 48.28000 44.71000
H  54.46800 45.92300 44.27500
H  54.73100 47.55700 44.72900
H  55.39800 46.80200 43.24000
H  52.01700 50.60100 43.16600
H  53.34000 49.85900 42.27400
H  54.16400 49.88600 44.98500
H  53.52000 51.45100 44.60100
H  54.75700 50.76500 43.55500
H  47.70200 51.45000 42.68100
H  48.01000 50.73500 44.25000
H  46.45900 51.03700 43.64400
H  44.76900 47.41000 40.05200
H  42.58400 43.98000 42.35600
H  41.46200 45.20000 42.48900
H  42.41900 44.81600 43.94000

