158

Mg 53.96100 24.37100 45.18200
C  51.28400 26.50200 44.30500
C  52.08900 21.77200 44.09700
C  56.67600 22.53100 45.46600
C  55.90400 27.22800 45.79400
N  52.01900 24.25900 44.12700
C  51.02900 25.17600 43.93900
C  49.73500 24.51800 43.54300
C  49.95500 23.01900 43.85400
C  51.43000 22.99700 44.11500
C  49.08300 22.38700 45.05900
C  49.41500 24.79700 42.05100
C  47.93500 24.72300 41.56900
H  47.79800 24.76600 40.05000
N  54.24300 22.41700 44.97700
C  53.39500 21.49800 44.50400
C  53.95100 20.13400 44.54200
C  55.29100 20.26300 45.01500
C  55.47900 21.79000 45.14200
C  53.19200 18.86300 44.24200
C  56.34600 19.16700 45.27100
O  56.11000 17.98800 44.99500
C  57.65200 19.47300 45.79400
N  56.03000 24.85600 45.43800
C  56.94600 23.86500 45.70800
C  58.35700 24.37100 45.80800
C  58.08200 25.91800 45.74300
C  56.53000 26.02200 45.71000
C  59.17300 23.94700 47.08100
C  58.85600 26.66500 44.61200
C  58.22600 26.69800 43.24700
N  53.72500 26.41300 45.08900
C  54.54500 27.45000 45.44300
C  53.79600 28.67100 45.34000
C  52.50200 28.29900 45.00200
C  52.55400 26.95200 44.72500
C  54.35800 30.05100 45.68900
C  51.17400 28.89600 44.78500
O  50.70700 30.06000 44.88500
C  50.37000 27.79000 44.16900
C  49.98200 28.20500 42.85500
O  50.77200 28.39400 41.93000
O  48.62800 28.38700 42.83500
C  48.06200 28.66900 41.55000
H  51.48500 20.92300 43.77000
H  57.58100 21.92300 45.53200
H  56.45900 28.16200 45.90600
H  48.97400 24.92100 44.21100
H  49.81100 22.33500 43.01700
H  49.67600 22.15200 45.94300
H  48.68700 21.41000 44.78300
H  48.24000 23.05000 45.25100
H  50.18600 24.17100 41.60200
H  49.75500 25.81700 41.86700
H  47.41200 25.59500 41.96000
H  47.34300 23.87300 41.90800
H  53.74100 17.92700 44.13800
H  52.58800 19.00200 43.34600
H  52.41000 18.78200 44.99800
H  57.99200 18.53100 46.22300
H  57.34100 20.09600 46.63300
H  58.22300 19.96300 45.00600
H  58.78300 24.02400 44.86700
H  58.45200 26.35800 46.66900
H  58.81800 22.96000 47.37700
H  59.06800 24.63200 47.92200
H  60.21800 23.73200 46.86100
H  59.73500 26.05000 44.41800
H  59.26500 27.61000 44.96800
H  58.82500 26.08100 42.57800
H  58.06200 27.69000 42.82500
H  57.21500 26.29900 43.33700
H  54.95000 30.37700 44.83400
H  54.93600 30.01900 46.61300
H  53.49000 30.70100 45.80100
H  49.52500 27.68400 44.85000
H  48.06800 29.71100 41.22900
H  47.00000 28.42600 41.53700
H  48.54800 28.05100 40.79500
Mg -1.70500 34.09900 27.89300
C  -3.52300 32.18900 30.19800
C  -0.16100 35.52800 30.52100
C  -0.18400 36.07100 25.68800
C  -3.66600 32.58400 25.35100
N  -1.90300 33.82000 30.07200
C  -2.60800 32.98800 30.81400
C  -2.31600 33.15700 32.34300
C  -1.43000 34.45600 32.41100
C  -1.13300 34.61200 30.89200
C  -1.97000 35.77000 33.12400
C  -1.65900 31.89900 33.01600
C  -2.30900 31.44000 34.38300
H  -1.48800 31.43600 35.66200
N  -0.21300 35.43500 28.07100
C  0.20600 35.96200 29.24200
C  1.13700 37.08800 28.98300
C  1.26800 37.13400 27.50700
C  0.30500 36.18100 26.99200
C  1.80000 37.88500 30.06500
C  2.25600 37.97000 26.65600
O  2.25000 37.96300 25.41400
C  3.30100 38.80300 27.28300
N  -2.11300 34.42900 25.78700
C  -1.22000 35.20000 25.10900
C  -1.54500 35.14100 23.59400
C  -2.34200 33.86100 23.45500
C  -2.80400 33.62600 24.92900
C  -2.21200 36.37200 22.94300
C  -1.64800 32.64000 22.87700
C  -1.57300 32.61500 21.39600
N  -3.30300 32.71200 27.77900
C  -3.89800 32.11300 26.69200
C  -4.75400 31.13000 27.04700
C  -4.72500 31.00700 28.49300
C  -3.79000 32.06300 28.85000
C  -5.48700 30.24400 26.07500
C  -5.26500 30.40500 29.66600
O  -6.15200 29.55800 29.79900
C  -4.55300 31.17900 30.80200
C  -5.65100 31.85700 31.63300
O  -6.68600 32.37300 31.11700
O  -5.51000 31.60800 33.01900
C  -6.90400 31.73800 33.58400
H  0.32100 36.05400 31.34700
H  0.42600 36.57200 24.93300
H  -4.16700 31.97000 24.60000
H  -3.26400 33.42300 32.81000
H  -0.51500 34.15500 32.92300
H  -2.67800 35.49100 33.90500
H  -2.39500 36.45700 32.39100
H  -1.25300 36.38200 33.67100
H  -0.61100 32.05100 33.27300
H  -1.59700 31.12400 32.25200
H  -2.69900 30.42500 34.30400
H  -3.25000 31.98800 34.43100
H  1.49800 37.70400 31.09700
H  1.57700 38.91200 29.77600
H  2.86900 37.70300 29.95700
H  4.03500 38.12700 27.72100
H  2.92000 39.49400 28.03500
H  3.78400 39.47300 26.57100
H  -0.64400 34.98500 23.00100
H  -3.23200 34.05200 22.85500
H  -1.69500 36.97000 22.19300
H  -2.38500 37.02400 23.79800
H  -3.17900 36.12000 22.50700
H  -2.27500 31.82500 23.23800
H  -0.62400 32.42300 23.18000
H  -0.55700 32.71800 21.01600
H  -2.29700 33.33900 21.02300
H  -1.99200 31.65600 21.09000
H  -6.25500 30.61700 25.39700
H  -5.99200 29.56200 26.75800
H  -4.72000 29.77100 25.46200
H  -4.06400 30.45300 31.45200
H  -7.03300 31.77300 34.66600
H  -7.47000 30.87800 33.22900
H  -7.42800 32.62000 33.21600

