158

Mg -1.34400 16.96800 25.91200
C  -1.93100 14.84000 28.76500
C  -1.79600 19.72400 28.02000
C  -1.25200 18.83700 23.26300
C  -1.57300 14.09300 23.97800
N  -1.93800 17.30900 28.12800
C  -2.10500 16.24100 29.11600
C  -2.44900 16.93500 30.47500
C  -2.33900 18.48600 30.23100
C  -1.92300 18.50200 28.72300
C  -3.56100 19.38200 30.59800
C  -1.72700 16.45100 31.76300
C  -1.97300 17.20400 33.08000
H  -1.90200 16.31400 34.27900
N  -1.42700 19.04300 25.63500
C  -1.66900 19.98800 26.60500
C  -1.61300 21.27500 25.96000
C  -1.42200 21.07200 24.60300
C  -1.28800 19.61000 24.45900
C  -1.80300 22.54100 26.79500
C  -1.52100 22.13000 23.52200
O  -1.30300 21.88400 22.31900
C  -1.91500 23.56700 23.90800
N  -1.27300 16.46900 23.86500
C  -1.20800 17.48300 22.92300
C  -1.44900 16.93800 21.46800
C  -1.70300 15.39900 21.74400
C  -1.55300 15.29600 23.28300
C  -2.67400 17.65400 20.69900
C  -0.68100 14.50500 21.00400
C  0.80500 14.64500 21.49000
N  -1.45500 14.89500 26.22100
C  -1.43900 13.84800 25.32400
C  -1.53000 12.66300 26.06900
C  -1.61700 12.97800 27.39500
C  -1.75300 14.34300 27.45800
C  -1.63500 11.25000 25.44000
C  -1.72600 12.45300 28.72400
O  -1.66900 11.26900 29.07900
C  -1.89200 13.61800 29.66400
C  -0.79900 13.59900 30.60400
O  0.31100 14.06400 30.50100
O  -1.22400 12.77500 31.62400
C  -0.38800 12.67900 32.85700
H  -1.76500 20.61300 28.65200
H  -1.31100 19.56400 22.45000
H  -1.87700 13.17000 23.48100
H  -3.50000 16.69500 30.63700
H  -1.43600 18.93600 30.64300
H  -4.10600 18.82500 31.36100
H  -4.18500 19.47400 29.70900
H  -3.32700 20.43200 30.77300
H  -0.69300 16.30700 31.44800
H  -2.20400 15.49700 31.98900
H  -2.96000 17.66300 33.11900
H  -1.18500 17.95500 33.14200
H  -2.77400 22.98100 26.56900
H  -0.97400 23.19500 26.52600
H  -1.85300 22.33700 27.86500
H  -1.80800 24.18400 23.01600
H  -1.24600 23.99000 24.65800
H  -2.91100 23.54700 24.35000
H  -0.55200 17.01400 20.85300
H  -2.72300 15.03400 21.62700
H  -3.26900 16.98600 20.07600
H  -2.36700 18.52200 20.11600
H  -3.34700 17.92500 21.51300
H  -0.70200 14.97900 20.02300
H  -0.99100 13.46400 21.10100
H  0.99000 15.26400 22.36800
H  1.36800 15.07200 20.66000
H  1.17800 13.63200 21.64200
H  -0.93300 11.28000 24.60700
H  -2.66600 10.98700 25.20200
H  -1.26500 10.49700 26.13500
H  -2.89200 13.51200 30.08500
H  -1.03200 12.67400 33.73600
H  0.28400 13.53300 32.93600
H  0.15400 11.73400 32.83100
Mg 25.67600 -7.37500 47.90200
C  27.74300 -4.75300 46.85900
C  23.35500 -6.60700 45.58400
C  23.71200 -9.79700 49.33900
C  28.39900 -8.71400 49.84400
N  25.71300 -5.92800 46.26300
C  26.58300 -4.87800 46.05000
C  26.00300 -3.81500 45.10500
C  24.62100 -4.47000 44.68700
C  24.47700 -5.72600 45.62300
C  23.43100 -3.47200 44.66300
C  26.93000 -3.47600 43.89000
C  27.05900 -2.03300 43.58300
H  26.63300 -1.67000 42.20300
N  23.75900 -8.14600 47.46500
C  23.01800 -7.75400 46.42100
C  21.89400 -8.63000 46.35000
C  21.86900 -9.40900 47.48700
C  23.16000 -9.08900 48.20700
C  20.96800 -8.67600 45.17400
C  20.68300 -10.38000 47.94900
O  19.61400 -10.52400 47.35500
C  20.75100 -11.16000 49.28000
N  26.05400 -9.04500 49.32300
C  25.03800 -9.86100 49.76500
C  25.55900 -11.02400 50.64200
C  27.03200 -10.58700 50.85700
C  27.20900 -9.38000 49.93100
C  24.74800 -11.17200 51.99700
C  28.01100 -11.80400 50.58000
C  29.06600 -12.00000 51.67800
N  27.67000 -6.88000 48.32600
C  28.61900 -7.48700 49.08400
C  29.72900 -6.55100 49.11000
C  29.42700 -5.44900 48.32500
C  28.17300 -5.72000 47.80400
C  31.16700 -6.76700 49.62200
C  30.01000 -4.21400 47.74100
O  31.03800 -3.64300 47.93400
C  28.81500 -3.66200 46.90200
C  28.26100 -2.34300 47.57500
O  27.74000 -2.25000 48.66900
O  28.42700 -1.29100 46.66600
C  27.87900 0.04400 46.94300
H  22.60000 -6.40300 44.82200
H  23.04900 -10.44500 49.91600
H  29.36500 -9.00300 50.26300
H  25.89500 -2.90600 45.69700
H  24.65900 -4.81300 43.65300
H  22.53600 -3.95500 45.05400
H  23.34200 -3.18200 43.61600
H  23.62100 -2.53600 45.18900
H  26.48600 -3.97600 43.02800
H  27.88800 -3.96200 44.07200
H  28.12900 -1.82500 43.57300
H  26.40700 -1.49500 44.27100
H  21.43100 -8.07100 44.39400
H  19.97500 -8.29800 45.41900
H  20.92400 -9.73400 44.91700
H  21.60100 -11.84100 49.24300
H  19.86600 -11.78500 49.39300
H  20.84600 -10.57000 50.19200
H  25.54400 -11.97500 50.11000
H  27.17000 -10.10700 51.82600
H  24.20000 -12.11300 52.03100
H  24.04500 -10.38300 52.26600
H  25.44200 -11.26900 52.83300
H  28.55300 -11.58300 49.66100
H  27.50600 -12.75600 50.41900
H  30.04100 -11.86000 51.21200
H  29.04600 -13.03600 52.01700
H  28.85000 -11.40400 52.56500
H  31.78600 -7.20600 48.83900
H  31.26900 -7.43300 50.47800
H  31.51600 -5.81600 50.02400
H  29.14900 -3.35900 45.91000
H  26.82000 0.04300 47.20300
H  28.00900 0.66500 46.05700
H  28.46500 0.28000 47.83100

