158

Mg 48.51800 44.83800 42.64500
C  44.94700 44.38500 42.32100
C  48.93600 41.52000 42.12900
C  51.93200 45.49400 42.36900
C  47.91200 48.31800 42.44100
N  47.03900 43.18000 42.39500
C  45.70900 43.21800 42.12200
C  45.16000 41.88500 41.89100
C  46.43400 40.86800 42.14400
C  47.60300 41.89700 42.22500
C  46.46200 40.03200 43.44100
C  44.35600 41.76700 40.57800
C  44.62900 42.76000 39.38700
H  44.77600 41.99900 38.01800
N  50.17300 43.65000 42.33400
C  50.16000 42.31800 42.09300
C  51.50300 41.88400 41.84900
C  52.38800 42.97400 41.92300
C  51.48000 44.14000 42.24000
C  51.70900 40.44400 41.52000
C  53.88400 42.81700 41.61700
O  54.29300 41.69600 41.46800
C  54.75400 44.02700 41.45600
N  49.79700 46.56000 42.54200
C  51.13900 46.60600 42.50200
C  51.63400 48.06900 42.52400
C  50.34000 48.92700 42.19800
C  49.25700 47.85100 42.51100
C  52.48100 48.46900 43.79800
C  50.26200 49.65900 40.83100
C  50.35700 51.21100 40.94600
N  46.84300 46.13000 42.48100
C  46.75800 47.52700 42.42100
C  45.37500 47.91500 42.32100
C  44.65600 46.72800 42.36900
C  45.59000 45.69200 42.34500
C  44.82100 49.32600 42.17700
C  43.33100 46.14300 42.36000
O  42.22400 46.75000 42.35900
C  43.47400 44.51300 42.32200
C  42.93500 43.95800 43.54400
O  42.09800 43.05200 43.59800
O  43.69600 44.33800 44.65500
C  43.36800 43.48300 45.82700
H  49.13400 40.46200 41.94600
H  52.97200 45.71200 42.11900
H  47.79700 49.40200 42.50300
H  44.50900 41.66900 42.73800
H  46.49200 40.21800 41.27100
H  45.64200 40.42600 44.04200
H  47.42500 40.18100 43.92800
H  46.34400 38.95500 43.32300
H  43.31700 41.77800 40.90600
H  44.57800 40.74300 40.27500
H  45.59200 43.26700 39.43900
H  43.72500 43.36700 39.33600
H  52.22600 40.24000 40.58300
H  50.86300 39.75700 41.54000
H  52.24300 39.84000 42.25500
H  54.69300 44.60300 42.38000
H  54.36000 44.66100 40.66200
H  55.78200 43.67400 41.37300
H  52.28200 48.26000 41.66900
H  50.23000 49.62200 43.03000
H  51.93500 48.82100 44.67300
H  53.21400 49.19300 43.44200
H  52.87700 47.49100 44.07200
H  49.33700 49.45400 40.29200
H  51.12400 49.34700 40.24000
H  51.11500 51.60700 40.27000
H  50.41500 51.65900 41.93800
H  49.46700 51.61300 40.46100
H  44.48000 49.83600 43.07800
H  43.99500 49.08400 41.50800
H  45.48800 49.97000 41.60400
H  43.01300 44.04200 41.45400
H  42.31100 43.65400 46.02900
H  44.05900 43.67800 46.64700
H  43.50600 42.44700 45.51800
Mg 42.50000 41.94600 26.21900
C  41.50300 44.27400 28.70000
C  43.41900 39.77400 28.80000
C  43.50900 39.63300 23.93000
C  41.88700 44.21000 23.80000
N  42.33900 41.98500 28.51900
C  41.91900 43.07300 29.25700
C  41.89600 42.64700 30.76200
C  42.66800 41.22400 30.79500
C  42.75500 40.93600 29.26500
C  43.86600 41.02400 31.69200
C  40.47100 42.57700 31.40900
C  40.33700 43.23600 32.75000
H  41.34600 42.97800 33.84600
N  43.37500 40.07000 26.32600
C  43.66500 39.42000 27.48300
C  44.11300 38.07400 27.12900
C  43.97200 37.91800 25.72600
C  43.67400 39.21000 25.21900
C  44.51000 36.91900 28.17400
C  44.16600 36.70500 24.87400
O  44.04500 36.66800 23.66900
C  44.48100 35.35300 25.50800
N  42.75900 41.89600 24.21400
C  43.26200 40.89700 23.43200
C  43.34400 41.28700 21.92900
C  42.69800 42.71800 21.90200
C  42.39700 42.94100 23.43200
C  44.73000 41.14600 21.15600
C  41.40600 42.69000 21.10700
C  40.18600 42.06400 21.81900
N  41.75000 43.82100 26.20600
C  41.58300 44.66000 25.12200
C  41.18700 46.01900 25.59400
C  41.12700 45.86700 27.00900
C  41.45200 44.51900 27.32200
C  40.93200 47.21100 24.79700
C  40.75100 46.53700 28.23600
O  40.52900 47.76300 28.34600
C  41.01400 45.54200 29.42500
C  42.02300 46.10200 30.24500
O  43.01100 46.59700 29.74200
O  41.79200 45.82100 31.56800
C  42.85200 46.28600 32.43300
H  43.50000 38.99300 29.55900
H  43.87500 38.97000 23.14300
H  41.68700 45.01200 23.08700
H  42.47700 43.35200 31.35500
H  42.10400 40.35400 31.13300
H  44.56000 40.41900 31.10900
H  43.66500 40.58000 32.66800
H  44.44900 41.93000 31.85500
H  40.05800 41.57000 31.37400
H  39.92200 43.16200 30.67100
H  39.40000 42.84800 33.14800
H  40.20500 44.31000 32.61500
H  45.45000 36.44100 27.89900
H  43.68500 36.22200 28.31700
H  44.67600 37.40400 29.13600
H  43.86000 35.21900 26.39400
H  45.56300 35.38400 25.63700
H  44.29400 34.46000 24.91100
H  42.73500 40.57300 21.37300
H  43.38800 43.44500 21.47400
H  45.38200 41.96400 21.46100
H  44.56300 41.24500 20.08300
H  45.09800 40.14400 21.37900
H  41.58000 42.06400 20.23200
H  41.19800 43.73400 20.87300
H  39.83500 41.17400 21.29700
H  39.51900 42.92700 21.83700
H  40.36100 41.69700 22.83000
H  41.40500 46.94300 23.85300
H  41.57600 47.92000 25.31900
H  39.90600 47.52800 24.61100
H  40.14800 45.23300 30.01000
H  43.26000 47.25100 32.13300
H  43.71500 45.62800 32.33900
H  42.51500 46.31600 33.46900

