158

Mg 47.63800 25.20000 28.22700
C  48.69600 27.39700 30.77300
C  46.75500 22.98000 30.64100
C  46.87300 23.01300 25.73700
C  48.61100 27.58600 25.78500
N  47.75100 25.24800 30.47100
C  48.05600 26.30500 31.31000
C  47.71200 26.05500 32.74800
C  47.18800 24.55700 32.61400
C  47.30900 24.18000 31.19600
C  47.78100 23.56100 33.65200
C  46.70900 26.96100 33.45500
C  47.02500 27.20300 34.99200
H  46.00000 27.77800 35.99600
N  46.94400 23.24800 28.21600
C  46.66000 22.46400 29.32900
C  46.11900 21.18100 28.88400
C  46.11800 21.20400 27.42200
C  46.67700 22.53800 27.08800
C  45.65800 20.09700 29.80600
C  45.70200 20.15400 26.39300
O  45.79200 20.34100 25.13800
C  45.32600 18.81200 26.77900
N  47.87600 25.23800 26.11200
C  47.44900 24.23000 25.31700
C  47.65300 24.56700 23.78800
C  47.93800 26.09100 23.84900
C  48.26200 26.36900 25.34300
C  48.71000 23.70200 23.05300
C  46.80500 27.04500 23.31700
C  45.61100 27.31100 24.26800
N  48.69900 26.98900 28.18800
C  48.88000 27.89300 27.14100
C  49.35900 29.14300 27.67500
C  49.33300 28.97600 29.07900
C  48.91200 27.67000 29.40200
C  49.74400 30.32600 26.93300
C  49.57200 29.69100 30.38500
O  50.07500 30.81400 30.58200
C  49.02800 28.65700 31.47800
C  50.07000 28.56000 32.55300
O  50.97400 27.71100 32.63100
O  49.74800 29.39800 33.55000
C  50.63900 29.16200 34.79300
H  46.26800 22.34600 31.38500
H  46.50300 22.39100 24.92000
H  48.83100 28.31800 25.00500
H  48.61500 26.10500 33.35700
H  46.13900 24.66300 32.89000
H  48.71600 23.10900 33.32400
H  46.99700 22.84900 33.91000
H  47.93600 24.03100 34.62400
H  45.68200 26.59700 33.44600
H  46.71000 27.91600 32.92900
H  47.83400 27.93200 35.03300
H  47.39400 26.25200 35.37700
H  44.56900 20.14900 29.83500
H  45.97200 20.35300 30.81800
H  45.99600 19.12000 29.46000
H  45.93200 18.43700 27.60300
H  45.49600 18.13500 25.94200
H  44.30600 18.82700 27.16300
H  46.69400 24.41100 23.29300
H  48.80400 26.39200 23.25900
H  48.26000 23.16300 22.21900
H  49.11600 23.01600 23.79600
H  49.60200 24.15200 22.61600
H  46.50200 26.64500 22.34900
H  47.26800 27.97800 22.99600
H  45.77100 26.94200 25.28100
H  44.72000 26.80500 23.89600
H  45.32100 28.36100 24.23700
H  50.76800 30.26600 26.56200
H  49.71100 31.20000 27.58200
H  49.07600 30.44700 26.08100
H  48.13400 29.13000 31.88600
H  49.94200 28.78300 35.54000
H  51.00900 30.11800 35.16200
H  51.51100 28.51700 34.68400
Mg 26.61800 49.69400 26.17000
C  24.56200 50.77700 28.83100
C  29.02400 48.78200 28.30400
C  28.42600 48.67500 23.37700
C  24.21200 50.90000 24.04200
N  26.66700 49.71000 28.31300
C  25.78200 50.18400 29.27200
C  26.26400 49.87100 30.66200
C  27.74900 49.29800 30.45700
C  27.86100 49.27600 28.94900
C  28.83300 50.10300 31.22300
C  25.29600 48.75800 31.32700
C  24.80800 49.23900 32.72000
H  25.66000 49.69300 33.89900
N  28.49800 48.86600 25.85200
C  29.30200 48.54900 26.87500
C  30.51700 47.91600 26.34200
C  30.39700 47.90300 24.90100
C  29.05300 48.48100 24.65200
C  31.70700 47.59600 27.26900
C  31.42500 47.46900 23.84000
O  31.26700 47.57100 22.61100
C  32.74300 46.82000 24.38500
N  26.45400 49.84300 23.97700
C  27.22600 49.18000 23.04500
C  26.69500 49.32100 21.66200
C  25.33400 49.99000 21.82800
C  25.32800 50.23800 23.40000
C  27.70500 49.95300 20.66800
C  24.24900 49.16600 21.27400
C  23.12700 49.88700 20.44700
N  24.80400 50.63300 26.38200
C  23.94400 51.12000 25.39100
C  22.86400 51.75600 26.00000
C  22.98000 51.62200 27.37100
C  24.21400 50.97700 27.55000
C  21.78800 52.43100 25.25800
C  22.45600 51.94600 28.62500
O  21.57700 52.69700 28.86600
C  23.39800 51.22000 29.62500
C  23.80700 52.24500 30.58500
O  24.57600 53.19400 30.35200
O  22.98400 52.14700 31.72000
C  23.44300 52.92600 32.92900
H  29.83700 48.57300 29.00300
H  29.05100 48.38200 22.53100
H  23.43500 51.23200 23.34900
H  26.29200 50.82000 31.19600
H  27.85300 48.23700 30.68500
H  28.42300 50.89000 31.85600
H  29.40800 50.77800 30.58900
H  29.40300 49.45000 31.88400
H  25.80100 47.79900 31.44900
H  24.36500 48.61000 30.78000
H  24.19800 48.38400 33.00900
H  24.18900 50.09400 32.44600
H  32.14200 46.66400 26.90900
H  31.43800 47.60400 28.32500
H  32.49700 48.32400 27.08500
H  33.36800 46.37600 23.61000
H  32.46300 46.01200 25.06200
H  33.37000 47.54900 24.89800
H  26.57600 48.33000 21.22300
H  25.40800 50.94200 21.30300
H  28.62600 50.28200 21.15000
H  27.23200 50.78800 20.15200
H  27.96400 49.26900 19.86000
H  23.76500 48.60500 22.07400
H  24.71100 48.44600 20.59800
H  23.18000 50.94600 20.70000
H  22.05700 49.71300 20.56200
H  23.30900 49.77300 19.37800
H  21.34400 51.68200 24.60300
H  22.20200 53.14600 24.54800
H  21.08500 52.90400 25.94500
H  22.80100 50.44400 30.10400
H  24.06400 52.31000 33.57800
H  22.49800 53.14000 33.42900
H  23.87700 53.91400 32.78000

