158

Mg 35.85200 49.10900 25.60300
C  36.17700 47.58900 28.66700
C  34.24500 51.87400 27.26700
C  35.16200 50.59200 22.58500
C  37.09800 46.39500 24.06700
N  35.22700 49.66200 27.78000
C  35.59000 48.88000 28.86000
C  35.17100 49.59200 30.14900
C  34.53100 50.96300 29.72600
C  34.65000 50.82500 28.14300
C  33.02100 51.08200 30.15700
C  36.45700 49.65500 31.14000
C  36.10200 49.50400 32.63900
H  34.62400 49.53400 33.08900
N  34.85400 51.00300 25.00400
C  34.34200 51.97600 25.84300
C  33.98700 53.15000 25.01700
C  34.25500 52.80300 23.62500
C  34.69900 51.40600 23.70000
C  33.59300 54.53100 25.69300
C  34.17500 53.69700 22.42300
O  34.54800 53.36000 21.29600
C  33.63600 55.12200 22.56200
N  35.99100 48.52700 23.58100
C  35.77600 49.33400 22.55500
C  36.24200 48.70500 21.27300
C  36.92800 47.33300 21.76500
C  36.74800 47.42600 23.20300
C  35.15400 48.47700 20.14000
C  38.39600 47.23000 21.40500
C  39.46800 48.03500 22.09200
N  36.53000 47.32600 26.18300
C  37.04100 46.26100 25.44400
C  37.40400 45.18100 26.27900
C  37.07700 45.65700 27.56300
C  36.51100 46.97400 27.47400
C  37.94900 43.83500 25.86900
C  36.98300 45.26900 28.99200
O  37.27100 44.23200 29.52800
C  36.48000 46.48900 29.71000
C  35.19800 46.12200 30.44200
O  34.13400 45.96100 29.88900
O  35.46900 45.76700 31.73500
C  34.43200 44.96400 32.42300
H  33.64400 52.63100 27.77600
H  34.90400 51.03300 21.62100
H  37.55100 45.53600 23.56900
H  34.41000 48.92100 30.54800
H  35.05500 51.80300 30.18200
H  32.88800 52.03200 30.67400
H  32.61300 50.38100 30.88500
H  32.33000 51.06100 29.31400
H  37.04400 50.56700 31.02800
H  37.15200 48.87300 30.83000
H  36.68100 50.19000 33.25700
H  36.48900 48.49700 32.79500
H  32.52500 54.75100 25.66100
H  34.14400 55.32500 25.18800
H  34.03100 54.54100 26.69100
H  33.55300 55.59800 21.58500
H  34.41200 55.64700 23.11900
H  32.75000 55.06700 23.19500
H  37.03200 49.34300 20.87600
H  36.43600 46.49100 21.28000
H  34.17100 48.55700 20.60500
H  35.34500 47.49900 19.69700
H  35.38100 49.26900 19.42700
H  38.44500 47.56900 20.37100
H  38.57300 46.17200 21.59900
H  39.56900 47.83800 23.15900
H  39.33800 49.09400 21.86500
H  40.44700 47.83400 21.65700
H  38.73300 44.06400 25.14700
H  37.13500 43.21800 25.48700
H  38.48800 43.43300 26.72700
H  37.22000 46.75800 30.46300
H  34.83200 43.96400 32.58900
H  33.48300 44.94400 31.88700
H  34.12800 45.50800 33.31800
Mg -2.30000 35.12700 26.75300
C  -3.93900 33.13000 29.01300
C  -0.71100 36.64200 29.40300
C  -0.73300 37.24100 24.47500
C  -3.94100 33.60500 24.12900
N  -2.37400 34.96400 28.89700
C  -3.08100 34.00100 29.66600
C  -2.89900 34.08300 31.16800
C  -2.07900 35.41400 31.25300
C  -1.70700 35.70600 29.74700
C  -2.81700 36.68000 31.93200
C  -2.15400 32.84400 31.75200
C  -2.78800 32.09400 32.98500
H  -2.18700 32.20500 34.33400
N  -0.88500 36.71400 26.94500
C  -0.30500 37.16000 28.09900
C  0.75900 38.13200 27.70800
C  0.76800 38.24700 26.30300
C  -0.34200 37.41800 25.84400
C  1.62100 38.80000 28.71600
C  1.58200 39.11700 25.40900
O  1.36600 39.27400 24.22400
C  2.84800 39.74000 25.97100
N  -2.49700 35.60400 24.60400
C  -1.60100 36.30500 23.87300
C  -1.86100 36.13900 22.35000
C  -2.79800 34.85800 22.34400
C  -3.02700 34.58800 23.80500
C  -2.43700 37.44500 21.67100
C  -2.20300 33.55100 21.61300
C  -0.67900 33.37300 21.43300
N  -3.74000 33.62400 26.52300
C  -4.36500 33.15900 25.42800
C  -5.35700 32.10700 25.85300
C  -5.27200 32.13000 27.29500
C  -4.25200 33.11100 27.64300
C  -6.22100 31.21100 25.09600
C  -5.71500 31.45400 28.45400
O  -6.49000 30.42400 28.55700
C  -4.92200 32.11200 29.70200
C  -5.83600 32.74200 30.67900
O  -6.54000 33.73900 30.46900
O  -5.97400 31.92200 31.80400
C  -6.98000 32.23200 32.87100
H  -0.21100 37.11800 30.24900
H  -0.09000 37.62500 23.68000
H  -4.50800 33.03300 23.39100
H  -3.85900 34.19700 31.67200
H  -1.19100 35.19200 31.84500
H  -2.50300 36.85200 32.96200
H  -3.89700 36.55400 32.01400
H  -2.72700 37.58900 31.33700
H  -1.17900 33.22300 32.05900
H  -2.02300 32.11000 30.95600
H  -2.95700 31.08800 32.60000
H  -3.77700 32.50600 33.18000
H  2.66500 38.75000 28.40900
H  1.52300 38.32400 29.69200
H  1.21000 39.80900 28.66600
H  3.43300 40.25200 25.20700
H  3.40600 38.91800 26.42000
H  2.48100 40.47900 26.68300
H  -0.87800 35.98900 21.90300
H  -3.76900 35.09400 21.90900
H  -3.31400 37.23100 21.05900
H  -1.63700 37.83900 21.04600
H  -2.82300 38.10200 22.45100
H  -2.72000 33.44900 20.65800
H  -2.54900 32.65400 22.12700
H  -0.25100 33.83200 20.54200
H  -0.56400 32.29000 21.38700
H  -0.02300 33.73100 22.22600
H  -5.74800 31.04200 24.12900
H  -7.20000 31.69100 25.11800
H  -6.36000 30.26000 25.61100
H  -4.24200 31.41500 30.19200
H  -7.43800 33.21900 32.79500
H  -6.53200 32.42200 33.84600
H  -7.76500 31.47600 32.86000

