158

Mg 44.80400 5.37300 46.94800
C  42.96900 8.31000 46.89100
C  41.92100 3.62500 46.02500
C  46.67500 2.66700 46.49000
C  47.77900 7.38500 47.18200
N  42.72300 5.93600 46.40500
C  42.18600 7.17600 46.53700
C  40.72600 7.28400 46.13800
C  40.45900 5.76300 45.83400
C  41.72500 5.05300 46.25400
C  39.12700 5.09200 46.43800
C  40.15200 8.37900 45.15700
C  40.74100 8.29600 43.69400
H  39.93600 7.78000 42.45700
N  44.36000 3.40400 46.48900
C  43.13700 2.86500 46.17400
C  43.31300 1.40700 45.91400
C  44.64800 1.12000 46.07000
C  45.31100 2.44900 46.38700
C  42.25300 0.51400 45.47600
C  45.31200 -0.25200 45.93300
O  44.65800 -1.26700 45.69600
C  46.80600 -0.53400 45.83700
N  46.93900 5.10200 46.64600
C  47.39900 3.82400 46.54400
C  48.92200 3.95400 46.51800
C  49.38000 5.47000 46.64200
C  47.93900 5.99700 46.84500
C  49.71000 2.97700 47.37700
C  50.01000 6.06900 45.35600
C  51.23700 5.35000 44.77100
N  45.32000 7.38100 47.12600
C  46.54500 8.08300 47.22300
C  46.26400 9.51300 47.43300
C  44.89100 9.67800 47.27200
C  44.35200 8.36100 47.07400
C  47.28300 10.55300 47.62700
C  43.78600 10.57200 47.34400
O  43.82200 11.78800 47.60300
C  42.48700 9.73000 46.98000
C  41.56600 9.95300 48.09500
O  41.75600 9.63800 49.27600
O  40.43800 10.51800 47.59800
C  39.26300 10.68100 48.54600
H  41.02900 3.11200 45.66000
H  47.40300 1.85500 46.54300
H  48.69800 7.95200 47.35000
H  40.26600 7.63300 47.06300
H  40.46400 5.59000 44.75800
H  39.49600 4.71500 47.39200
H  38.58200 4.24900 46.01300
H  38.52300 5.97900 46.62800
H  40.13300 9.40900 45.51200
H  39.09300 8.21800 44.95100
H  41.55000 7.57700 43.82500
H  41.17200 9.28900 43.57400
H  42.55400 0.12400 44.50400
H  41.25500 0.93300 45.34400
H  42.06400 -0.35800 46.10100
H  47.00400 -1.55100 45.49600
H  47.12700 -0.41100 46.87100
H  47.21100 0.24400 45.19000
H  49.09700 3.65400 45.48500
H  49.98000 5.74800 47.50900
H  50.23100 2.25800 46.74400
H  49.02900 2.44600 48.04300
H  50.50400 3.46100 47.94400
H  50.37700 7.06800 45.59300
H  49.25400 6.19100 44.58100
H  51.01200 5.05500 43.74600
H  51.51700 4.52100 45.42200
H  52.07100 6.05200 44.78100
H  47.68300 10.71400 48.62800
H  46.94500 11.51800 47.24900
H  48.16900 10.31100 47.03900
H  42.03400 10.13200 46.07400
H  38.48900 10.03000 48.14100
H  38.95000 11.72100 48.44900
H  39.44000 10.49600 49.60600
Mg 48.67800 35.69300 27.97800
C  46.28300 34.37400 30.18300
C  49.08400 38.20700 30.21100
C  50.63800 37.00600 25.65900
C  47.49100 33.31300 25.66900
N  47.98600 36.07200 30.00500
C  47.17400 35.26900 30.70600
C  47.33300 35.58100 32.21900
C  47.79700 37.06300 32.16000
C  48.27400 37.14600 30.69400
C  46.65900 38.09400 32.46200
C  48.39400 34.61300 32.99000
C  48.87500 35.00000 34.46700
H  48.28900 36.20200 35.23300
N  49.83100 37.29100 28.05100
C  49.81000 38.31600 29.01400
C  50.77000 39.37000 28.61300
C  51.26600 38.91200 27.34600
C  50.66600 37.63500 26.97000
C  51.00200 40.61300 29.44200
C  52.23400 39.69300 26.43100
O  52.55800 39.34900 25.30100
C  52.86700 40.95800 26.95800
N  48.91200 35.25700 25.80300
C  49.89000 35.94000 25.09900
C  50.09700 35.29800 23.68000
C  49.00700 34.15700 23.66100
C  48.48600 34.12900 25.13600
C  50.02500 36.47900 22.56500
C  49.48100 32.73900 23.13600
C  48.80500 32.15700 21.92600
N  47.21000 34.15200 27.93000
C  46.90600 33.27900 26.89500
C  45.80400 32.45100 27.34400
C  45.51500 32.86000 28.60000
C  46.42600 33.86200 28.89700
C  45.23200 31.33200 26.46500
C  44.68100 32.51000 29.75700
O  43.78700 31.67100 29.93000
C  45.12800 33.56600 30.83700
C  45.41700 32.82500 32.10100
O  46.02000 31.72400 32.15000
O  44.86700 33.47600 33.20200
C  44.83500 32.68700 34.47700
H  49.29900 39.07500 30.83800
H  51.44100 37.32600 24.99100
H  47.07600 32.63400 24.92100
H  46.36900 35.58200 32.72700
H  48.58600 37.29700 32.87600
H  46.88800 38.60100 33.39900
H  45.76700 37.51200 32.69200
H  46.49700 38.80800 31.65400
H  49.26900 34.57700 32.34200
H  47.91600 33.63500 33.05000
H  49.94600 35.10100 34.29000
H  48.73500 34.12500 35.10300
H  50.79600 41.53500 28.89700
H  52.05500 40.64800 29.72400
H  50.40000 40.53000 30.34700
H  52.14000 41.77000 26.98500
H  53.77400 41.14800 26.38600
H  53.24500 40.81200 27.97000
H  51.06500 34.80800 23.57600
H  48.20900 34.45100 22.97900
H  49.07800 36.26300 22.07100
H  50.86400 36.48000 21.86900
H  49.89700 37.46700 23.00800
H  49.30700 32.02800 23.94400
H  50.54700 32.71300 22.91100
H  48.39200 32.91400 21.25900
H  48.02200 31.44000 22.17300
H  49.56500 31.60000 21.38000
H  44.91500 31.75500 25.51200
H  44.43000 30.68600 26.82200
H  46.12300 30.75600 26.21400
H  44.26100 34.20700 30.99700
H  43.81300 32.63500 34.85400
H  45.38500 33.29500 35.19500
H  45.11400 31.63500 34.41300

