158

Mg 30.53100 57.09000 39.99700
C  27.83000 55.04100 38.92500
C  32.59800 54.41200 39.25300
C  33.24800 59.17100 40.37300
C  28.43000 59.64700 40.28400
N  30.22200 55.07800 39.07500
C  29.06800 54.45300 38.67700
C  29.33700 53.07100 38.07200
C  30.65300 52.83200 38.80200
C  31.21800 54.19600 39.01900
C  30.43100 52.00100 40.14500
C  29.50300 53.14200 36.50200
C  28.22700 53.15500 35.60300
H  27.95500 54.50200 34.92300
N  32.61700 56.75400 39.99600
C  33.26000 55.63000 39.57900
C  34.68300 55.97500 39.50300
C  34.88300 57.32700 39.93600
C  33.52800 57.81200 40.13700
C  35.69200 54.98800 38.86700
C  36.26200 57.92300 40.19300
O  37.25400 57.21500 39.89900
C  36.56000 59.27500 40.89600
N  30.87800 59.11000 40.34800
C  32.06400 59.79900 40.59200
C  31.83900 61.33100 40.57700
C  30.23800 61.49400 40.57300
C  29.78800 59.98300 40.38000
C  32.64400 62.07100 41.77200
C  29.76600 62.56000 39.59600
C  28.66400 63.52900 40.13100
N  28.54200 57.30000 39.82800
C  27.83600 58.42400 40.03000
C  26.38700 58.15600 39.89600
C  26.40500 56.84900 39.48300
C  27.72400 56.35300 39.41700
C  25.28900 59.11100 39.95200
C  25.50300 55.81400 39.07200
O  24.28200 55.84300 38.98800
C  26.41500 54.60700 38.64100
C  26.02600 53.41900 39.36200
O  26.46800 52.92000 40.40100
O  24.96600 52.85200 38.65000
C  24.13800 51.86200 39.40800
H  33.20200 53.51000 39.13500
H  34.08600 59.87100 40.35300
H  27.76500 60.49800 40.12400
H  28.62400 52.36900 38.50400
H  31.31400 52.32400 38.09900
H  30.89000 52.54500 40.97000
H  30.93800 51.05100 39.97100
H  29.40600 51.76000 40.42700
H  30.26900 52.52900 36.02600
H  29.94800 54.13300 36.41500
H  27.33800 52.79400 36.11800
H  28.38500 52.31200 34.93000
H  36.10600 55.56700 38.04200
H  35.23500 54.15000 38.34100
H  36.46600 54.66900 39.56500
H  37.51400 59.04900 41.37200
H  35.87500 59.71800 41.61800
H  36.65900 60.09300 40.18200
H  32.32800 61.70100 39.67500
H  29.97000 61.73800 41.60100
H  33.41400 61.43300 42.20600
H  31.94700 62.48900 42.50000
H  33.18800 62.86900 41.26700
H  29.38200 62.11700 38.67700
H  30.59500 63.15500 39.21200
H  27.63600 63.18300 40.24200
H  28.58300 64.40500 39.48800
H  28.95400 64.00900 41.06600
H  25.59300 60.04800 39.48500
H  25.27300 59.40100 41.00200
H  24.37200 58.74900 39.48700
H  26.34100 54.40800 37.57200
H  23.59700 52.25400 40.26900
H  24.77100 51.09100 39.84700
H  23.40900 51.38400 38.75300
Mg 27.35100 51.29300 26.15200
C  25.52200 52.43400 28.94600
C  29.79300 50.28200 28.37000
C  29.30700 50.68900 23.53200
C  25.02300 52.83900 24.04700
N  27.60900 51.33500 28.43600
C  26.75800 51.83900 29.34100
C  27.23400 51.51600 30.73800
C  28.71800 51.18200 30.51900
C  28.75800 50.91600 29.03900
C  29.76800 52.12000 31.09700
C  26.43000 50.31300 31.41900
C  25.66000 50.76400 32.70000
H  25.55900 49.67000 33.71200
N  29.23700 50.41300 25.99200
C  29.99900 50.06200 26.98000
C  31.20100 49.39600 26.44900
C  31.04600 49.47900 25.04400
C  29.82500 50.26800 24.79300
C  32.44100 48.87000 27.26100
C  31.78200 48.86300 23.86100
O  31.40600 48.79800 22.68200
C  33.17000 48.26600 24.11800
N  27.28500 51.84200 24.02700
C  28.19000 51.40000 23.14400
C  27.71800 51.67700 21.71800
C  26.21900 52.19100 21.96500
C  26.17700 52.33200 23.43000
C  28.59600 52.69600 20.91000
C  25.12900 51.17100 21.46300
C  23.95600 51.68300 20.74300
N  25.58800 52.33800 26.36900
C  24.75600 52.96500 25.39800
C  23.63100 53.48900 26.08400
C  23.95000 53.35700 27.42800
C  25.13400 52.58200 27.55500
C  22.46800 54.19400 25.47900
C  23.46200 53.71300 28.74400
O  22.44600 54.30000 29.11300
C  24.38800 52.99200 29.77500
C  24.87000 54.03900 30.74900
O  25.44100 55.09900 30.42000
O  24.52500 53.57600 31.99500
C  24.89100 54.47000 33.09300
H  30.72500 49.97700 28.85200
H  29.91800 50.41000 22.67100
H  24.16500 53.08300 23.41600
H  27.07400 52.45500 31.26800
H  28.96900 50.20900 30.94200
H  30.40700 51.55400 31.77500
H  29.49400 53.03200 31.62900
H  30.45400 52.35400 30.28300
H  27.04100 49.43600 31.63100
H  25.62400 50.05800 30.73100
H  24.65700 51.14900 32.51700
H  26.17800 51.63400 33.10500
H  33.36200 48.94200 26.68300
H  32.31700 47.84600 27.61500
H  32.59800 49.41400 28.19200
H  33.10000 47.44600 24.83300
H  33.75000 49.02000 24.65100
H  33.77400 47.90700 23.28600
H  27.76800 50.76200 21.12900
H  26.10300 53.20200 21.57500
H  29.63900 52.77200 21.21700
H  28.19400 53.70100 20.78500
H  28.60000 52.29800 19.89600
H  24.89400 50.58200 22.35000
H  25.60600 50.53300 20.71900
H  23.00700 51.29200 21.11100
H  24.06900 51.30400 19.72700
H  24.05200 52.76800 20.70400
H  22.75700 54.59900 24.50900
H  22.22300 55.11200 26.01400
H  21.55200 53.62500 25.32100
H  23.80400 52.24600 30.31400
H  25.70100 53.97100 33.62400
H  24.08400 54.58400 33.81700
H  25.00400 55.49500 32.74000

