158

Mg 47.23600 25.59600 27.63400
C  48.41600 27.61400 30.34300
C  46.39300 23.13200 30.12900
C  46.81900 23.32100 25.15900
C  48.76500 27.70000 25.56600
N  47.36900 25.41700 30.03800
C  47.79100 26.46500 30.87100
C  47.51200 26.09900 32.30200
C  46.92700 24.61000 32.23900
C  46.88600 24.35700 30.75900
C  47.77400 23.60500 32.96700
C  46.57700 27.17200 32.95700
C  47.16500 27.92000 34.17800
H  46.23500 28.07500 35.30200
N  46.58000 23.50100 27.66000
C  46.26100 22.68600 28.77400
C  45.72600 21.42700 28.22100
C  45.81500 21.56900 26.78500
C  46.40400 22.85100 26.48100
C  45.12000 20.34100 29.02900
C  45.33700 20.46000 25.75300
O  45.33300 20.65300 24.54600
C  44.91500 19.06700 26.14400
N  47.87800 25.46200 25.69100
C  47.50100 24.44300 24.84200
C  47.90300 24.73700 23.39700
C  48.24000 26.27800 23.56500
C  48.23400 26.50800 25.00900
C  49.22600 23.85400 23.04300
C  47.19500 27.18600 22.83400
C  45.83300 27.24100 23.60400
N  48.37700 27.31000 27.81900
C  48.83800 28.12900 26.87900
C  49.49500 29.31700 27.46100
C  49.32700 29.12700 28.80100
C  48.68000 27.89300 28.99200
C  50.27200 30.49100 26.74900
C  49.66200 29.66500 30.11500
O  50.27700 30.67400 30.42000
C  49.06900 28.64100 31.16900
C  50.17300 28.16400 32.01000
O  50.98600 27.32700 31.66400
O  50.33100 28.92800 33.12800
C  51.61700 28.73200 33.85700
H  45.98800 22.41000 30.84100
H  46.62800 22.61600 24.34800
H  49.04700 28.50600 24.88500
H  48.44700 26.03600 32.85800
H  45.94300 24.71000 32.69600
H  47.15100 22.76000 33.25900
H  48.36800 24.06200 33.75800
H  48.44300 23.14900 32.23700
H  45.56800 26.82000 33.17300
H  46.31400 27.93300 32.22100
H  47.40300 28.93400 33.85600
H  48.12700 27.51600 34.49100
H  45.21400 20.47400 30.10600
H  45.69400 19.44700 28.78700
H  44.06300 20.35200 28.76200
H  45.80200 18.59000 26.56000
H  44.83800 18.40300 25.28300
H  44.05400 19.06600 26.81300
H  47.09900 24.45500 22.71800
H  49.25400 26.40800 23.18500
H  50.11100 24.45700 22.84200
H  48.92700 23.19600 22.22700
H  49.44100 23.38700 24.00500
H  46.89500 26.76500 21.87500
H  47.63900 28.17100 22.69100
H  45.82200 27.97600 24.40900
H  45.65300 26.28700 24.09900
H  45.02300 27.30100 22.87700
H  50.92000 30.09600 25.96600
H  50.87400 30.98900 27.50900
H  49.52300 31.10000 26.24200
H  48.41400 29.20400 31.83400
H  51.52100 28.13600 34.76400
H  51.91800 29.70600 34.24400
H  52.51800 28.47800 33.29800
Mg 49.43700 47.06500 43.39200
C  45.96100 47.36800 42.49900
C  49.48300 44.15100 41.61300
C  52.74500 47.25600 43.50700
C  49.26800 50.48100 44.49100
N  47.92500 45.91600 42.15800
C  46.59000 46.22000 42.00700
C  45.88700 45.25500 41.07700
C  46.91900 44.08800 40.97300
C  48.16000 44.77700 41.58400
C  46.59600 42.69400 41.73400
C  45.54700 45.76900 39.65600
C  44.37900 45.05200 38.98100
H  44.55500 44.20100 37.77000
N  50.91400 45.83300 42.64200
C  50.73000 44.59800 42.06600
C  52.01900 43.90600 41.96300
C  53.03100 44.78500 42.39700
C  52.24600 46.04500 42.90500
C  52.15300 42.59900 41.35400
C  54.49300 44.60700 42.26800
O  55.00000 43.62100 41.65500
C  55.45500 45.64600 42.78400
N  50.81400 48.71900 43.70700
C  52.14100 48.46700 43.83200
C  52.90200 49.69700 44.39700
C  51.77200 50.70200 44.53100
C  50.52400 49.91700 44.25600
C  53.66900 49.43200 45.75600
C  51.84200 51.91400 43.56700
C  51.58100 53.24200 44.28600
N  47.93200 48.65500 43.54000
C  48.03700 49.94700 44.03400
C  46.71600 50.46900 44.16600
C  45.84700 49.50000 43.68600
C  46.67900 48.40600 43.22600
C  46.44000 51.84400 44.75200
C  44.45300 49.09800 43.48500
O  43.42700 49.66700 43.80100
C  44.44800 47.83800 42.49300
C  43.59400 46.82000 43.08900
O  43.61900 46.33700 44.23900
O  42.62800 46.62600 42.09800
C  41.86100 45.38900 42.34000
H  49.53700 43.13000 41.23100
H  53.82100 47.26500 43.69100
H  49.19300 51.52500 44.80400
H  44.98400 44.87900 41.55700
H  47.13000 43.80900 39.94100
H  45.67600 42.77800 42.31300
H  47.29000 42.33900 42.49600
H  46.60000 41.91600 40.97100
H  46.42800 45.77300 39.01400
H  45.35100 46.84000 39.71000
H  43.60400 45.75700 38.68100
H  43.93300 44.38000 39.71500
H  52.41200 42.62000 40.29500
H  51.31400 41.97500 41.66100
H  52.96900 42.08600 41.86500
H  55.28500 46.67600 42.47200
H  56.47400 45.43900 42.45700
H  55.55500 45.58100 43.86700
H  53.61600 49.98400 43.62500
H  51.69800 50.95500 45.58900
H  54.22400 48.49800 45.67600
H  52.94000 49.40900 46.56600
H  54.25900 50.31200 46.01200
H  51.20600 51.87000 42.68300
H  52.88900 51.96800 43.26900
H  50.90400 53.75400 43.60300
H  52.54400 53.73400 44.42400
H  51.10000 53.05900 45.24700
H  46.90100 52.54000 44.05100
H  46.86100 52.10600 45.72300
H  45.35200 51.91200 44.75100
H  44.09600 48.29500 41.56800
H  42.60600 44.61800 42.53500
H  41.39200 45.14800 41.38600
H  41.10800 45.73900 43.04700

