158

Mg -3.06600 17.18100 26.12600
C  -3.64200 14.76000 28.66500
C  -3.34400 19.51700 28.69200
C  -3.09500 19.48400 23.80600
C  -3.45800 14.80900 23.77500
N  -3.49500 17.08400 28.53900
C  -3.53100 15.94900 29.36300
C  -3.58200 16.40900 30.83200
C  -3.51100 18.04600 30.69600
C  -3.50200 18.24600 29.22900
C  -4.52700 18.86900 31.57300
C  -2.43500 15.78500 31.74100
C  -1.75800 16.49900 32.86000
H  -1.03300 15.65600 33.87000
N  -3.08400 19.15000 26.19500
C  -3.17600 19.96600 27.33600
C  -2.95300 21.34100 26.86100
C  -2.88900 21.40000 25.42600
C  -3.12100 19.99400 25.06800
C  -2.85400 22.57300 27.70900
C  -2.62200 22.53000 24.44300
O  -2.82600 22.39700 23.25600
C  -2.17400 23.90500 24.95200
N  -3.41300 17.18200 23.97500
C  -3.22300 18.18200 23.25000
C  -2.97000 17.85100 21.76800
C  -3.22600 16.34900 21.70200
C  -3.31100 16.06100 23.22500
C  -3.89800 18.68500 20.81300
C  -2.16600 15.51200 20.96100
C  -2.70200 14.52400 19.84700
N  -3.37500 15.16700 26.18000
C  -3.57100 14.33200 25.08900
C  -3.74000 12.93900 25.47900
C  -3.76800 13.09300 26.90500
C  -3.58400 14.45800 27.27900
C  -3.98300 11.73100 24.72500
C  -4.01300 12.32000 28.20000
O  -4.29900 11.19800 28.44300
C  -3.93100 13.43300 29.33800
C  -2.84400 13.01200 30.24100
O  -1.64600 13.02700 29.99900
O  -3.39900 12.59400 31.45700
C  -2.54600 12.09100 32.52500
H  -3.58400 20.36500 29.33700
H  -3.18400 20.25100 23.03400
H  -3.62600 14.04400 23.01500
H  -4.56800 16.11900 31.19500
H  -2.53800 18.33900 31.09100
H  -4.75300 18.22000 32.41800
H  -5.51800 18.98600 31.13400
H  -4.14400 19.82200 31.94000
H  -1.64900 15.35000 31.12500
H  -2.95700 15.01200 32.30400
H  -2.52000 17.11900 33.33200
H  -1.05300 17.20500 32.42300
H  -2.80300 22.21300 28.73700
H  -3.69700 23.26400 27.68100
H  -1.92400 23.09500 27.48400
H  -2.22800 24.64600 24.15400
H  -1.13200 23.80500 25.25800
H  -2.76900 24.32500 25.76300
H  -1.93200 18.16200 21.65300
H  -4.25000 16.29500 21.33300
H  -3.80200 18.23300 19.82600
H  -3.87500 19.77200 20.89300
H  -4.92200 18.50800 21.14300
H  -1.66400 14.81200 21.62900
H  -1.44900 16.18800 20.49500
H  -2.39100 14.94800 18.89300
H  -3.78800 14.52400 19.93500
H  -2.41700 13.51400 20.14400
H  -5.03300 11.45100 24.80900
H  -3.32100 10.97300 25.14300
H  -3.76700 11.97900 23.68500
H  -4.82600 13.49800 29.95700
H  -2.95300 11.22300 33.04400
H  -2.29700 12.91700 33.19100
H  -1.58300 11.69800 32.20100
Mg -0.81100 7.66000 25.17200
C  -0.05500 9.47900 28.23400
C  -0.82100 4.75600 27.09600
C  -1.13900 5.94800 22.40900
C  -0.08700 10.61400 23.40800
N  -0.44500 7.20600 27.44500
C  -0.21400 8.11800 28.48300
C  -0.30500 7.49000 29.83700
C  -0.36900 5.88900 29.52500
C  -0.55300 5.92500 27.92600
C  0.80100 5.09000 30.14800
C  -1.42400 7.89100 30.82500
C  -1.08300 7.95900 32.31000
H  0.06600 7.16500 32.95800
N  -0.94500 5.67600 24.77900
C  -0.91600 4.57000 25.68500
C  -1.16500 3.35900 24.99800
C  -1.22900 3.69700 23.65100
C  -1.07500 5.17200 23.51300
C  -1.28300 2.04600 25.73800
C  -1.39300 2.80200 22.40600
O  -1.49400 3.28600 21.30300
C  -1.59100 1.31100 22.63000
N  -0.52700 8.26900 23.25000
C  -0.86900 7.35200 22.25300
C  -0.82200 7.94800 20.86800
C  -0.51400 9.39500 21.16800
C  -0.35200 9.46800 22.69300
C  0.06500 7.27900 19.78500
C  -1.46200 10.49000 20.67000
C  -2.75700 10.68500 21.49500
N  -0.18300 9.72100 25.65500
C  0.05300 10.80000 24.83000
C  0.48100 11.93100 25.62000
C  0.46000 11.47700 26.95500
C  0.02300 10.13900 26.94800
C  0.73900 13.40300 25.20500
C  0.68800 11.87400 28.35900
O  1.05600 12.99400 28.77400
C  0.29300 10.57600 29.25200
C  1.44800 10.29300 30.17000
O  2.31600 9.43900 29.94200
O  1.30900 11.06700 31.31000
C  2.51500 10.98900 32.18500
H  -0.83100 3.83900 27.68800
H  -1.47000 5.57400 21.43800
H  0.09100 11.51200 22.81100
H  0.59900 7.74100 30.39200
H  -1.30600 5.42900 29.84000
H  1.53900 5.69000 30.68000
H  1.24300 4.67000 29.24500
H  0.42900 4.31800 30.82200
H  -2.26000 7.19200 30.79000
H  -1.69000 8.92600 30.61200
H  -2.00400 7.61200 32.77900
H  -0.92200 8.99500 32.60800
H  -0.84100 2.18800 26.72500
H  -0.66500 1.29900 25.24000
H  -2.35100 1.82600 25.73800
H  -2.49800 1.13400 23.20700
H  -0.64800 1.01000 23.08600
H  -1.63800 0.80500 21.66600
H  -1.84900 7.74100 20.56800
H  0.51900 9.68600 20.97900
H  0.70800 6.48000 20.15300
H  0.73500 8.01500 19.34200
H  -0.57700 6.71900 19.10500
H  -1.74200 10.45300 19.61700
H  -0.88900 11.41600 20.69900
H  -2.79900 10.03500 22.36900
H  -3.65900 10.56500 20.89400
H  -2.80900 11.71300 21.85300
H  1.37500 13.78800 26.00300
H  -0.19800 13.94400 25.33700
H  1.21000 13.58300 24.23900
H  -0.68800 10.71400 29.70700
H  2.74900 9.93300 32.32100
H  2.21900 11.36800 33.16300
H  3.30700 11.59600 31.74700

