158

Mg -10.62700 38.75600 41.46500
C  -8.56100 35.92400 40.74100
C  -8.40700 40.59000 39.59800
C  -12.91600 41.22600 41.39800
C  -13.05700 36.58600 42.62200
N  -8.62300 38.28600 40.49500
C  -8.02800 37.10000 40.20600
C  -6.79900 37.26000 39.34100
C  -6.72600 38.76300 39.15400
C  -7.98000 39.26300 39.77900
C  -5.50100 39.49400 39.72500
C  -6.96700 36.48700 37.92200
C  -5.75800 35.76600 37.47600
H  -5.10500 36.14000 36.14900
N  -10.64800 40.67400 40.71600
C  -9.61100 41.26400 40.01700
C  -10.04600 42.66900 39.75800
C  -11.32400 42.87100 40.20100
C  -11.68800 41.55900 40.79900
C  -9.15100 43.61100 38.93000
C  -12.19400 44.13100 39.91000
O  -11.72900 45.14000 39.43400
C  -13.72500 44.21100 40.26600
N  -12.65800 38.91200 41.89200
C  -13.46400 39.99600 41.82600
C  -14.87600 39.79400 42.39000
C  -14.82100 38.26300 42.78700
C  -13.39900 37.91300 42.45500
C  -15.09600 40.77600 43.55600
C  -15.86400 37.26400 42.09700
C  -16.67100 36.33000 42.99700
N  -10.74100 36.67600 41.72900
C  -11.75800 35.96700 42.27600
C  -11.38900 34.61000 42.33200
C  -10.13500 34.56900 41.79100
C  -9.77300 35.84600 41.34800
C  -12.17200 33.48000 42.94000
C  -9.09900 33.64400 41.40400
O  -8.98800 32.40600 41.53500
C  -7.99000 34.54200 40.69100
C  -6.69900 34.44100 41.50700
O  -5.88200 33.54600 41.30600
O  -6.63200 35.40700 42.47700
C  -5.50700 35.28300 43.38600
H  -7.69100 41.23700 39.08700
H  -13.66200 42.01200 41.53600
H  -13.86600 35.95500 42.99500
H  -6.04200 36.85500 40.01200
H  -6.72200 39.07100 38.10900
H  -5.72900 40.25500 40.47100
H  -4.87900 39.88400 38.91900
H  -4.83600 38.74100 40.14900
H  -7.39800 37.20100 37.21900
H  -7.81000 35.79500 37.91400
H  -5.89500 34.69700 37.63400
H  -4.96100 36.02400 38.17300
H  -8.88500 44.35200 39.68300
H  -9.60900 44.03900 38.03700
H  -8.34200 43.01200 38.51200
H  -13.71400 44.38800 41.34100
H  -14.23300 43.29200 39.97200
H  -14.26400 45.02000 39.77100
H  -15.61600 40.02700 41.62400
H  -15.07300 38.12900 43.83900
H  -14.11600 40.95900 43.99700
H  -15.75800 40.52200 44.38300
H  -15.41200 41.75900 43.20700
H  -15.41000 36.65300 41.31700
H  -16.63700 37.91000 41.67900
H  -16.88600 36.86000 43.92500
H  -16.10200 35.42900 43.22300
H  -17.62200 36.22300 42.47500
H  -12.24500 33.57300 44.02400
H  -11.70300 32.53600 42.66300
H  -13.16700 33.41800 42.50100
H  -7.67500 34.07900 39.75600
H  -5.28200 36.22300 43.88900
H  -4.61800 34.92000 42.86900
H  -5.82300 34.55000 44.12900
Mg -4.52300 26.00600 25.92700
C  -2.96000 27.18300 28.90500
C  -6.45800 24.07400 27.82700
C  -5.46300 24.30400 23.16900
C  -2.12200 27.73600 24.09600
N  -4.60300 25.67300 28.10800
C  -4.02600 26.36200 29.16100
C  -4.69700 25.92700 30.51300
C  -5.59400 24.70300 30.14300
C  -5.58000 24.82900 28.60300
C  -5.01700 23.37600 30.70500
C  -5.52200 27.16200 31.06200
C  -5.34800 27.34900 32.60300
H  -4.81600 26.24800 33.50800
N  -5.93200 24.48200 25.49000
C  -6.61000 23.84900 26.44500
C  -7.55900 22.97300 25.79500
C  -7.15000 22.91600 24.40800
C  -6.16900 23.90100 24.24600
C  -8.52100 22.09500 26.59600
C  -7.71800 22.07800 23.27500
O  -7.20400 22.04100 22.11000
C  -8.81800 21.11800 23.47700
N  -3.84300 25.97100 23.91000
C  -4.37300 25.18300 22.92400
C  -3.52100 25.29400 21.66900
C  -2.63900 26.55900 21.88500
C  -2.86600 26.84600 23.38000
C  -2.89800 23.96000 21.23500
C  -3.11600 27.76100 20.98200
C  -2.08300 28.59500 20.10800
N  -2.96500 27.40200 26.34100
C  -2.12900 28.08500 25.47900
C  -1.29400 28.97200 26.24700
C  -1.54000 28.54500 27.59300
C  -2.61600 27.60800 27.58700
C  -0.41800 30.10700 25.67900
C  -1.17200 28.86100 28.94200
O  -0.33400 29.68900 29.34000
C  -2.08500 27.95900 29.86500
C  -1.22600 27.17700 30.77200
O  -0.36700 26.32400 30.50500
O  -1.52700 27.53400 32.01800
C  -0.76400 26.97300 33.12400
H  -7.14100 23.45200 28.41000
H  -5.69100 23.64300 22.33000
H  -1.38300 28.15300 23.40900
H  -3.91000 25.78600 31.25500
H  -6.60300 24.85700 30.52600
H  -3.97000 23.46500 30.99500
H  -5.06300 22.63500 29.90600
H  -5.66100 23.03300 31.51500
H  -6.52000 27.00100 30.65400
H  -5.09100 28.04300 30.58700
H  -6.26200 27.67400 33.10000
H  -4.63200 28.16300 32.71300
H  -8.05100 21.14100 26.83700
H  -9.38300 21.77100 26.01300
H  -8.81100 22.58000 27.52800
H  -9.09200 20.48600 22.63200
H  -9.65600 21.72100 23.82600
H  -8.52900 20.45400 24.29100
H  -4.20000 25.52400 20.84800
H  -1.62600 26.33500 21.55200
H  -1.82200 23.98800 21.40200
H  -3.15800 23.66200 20.21900
H  -3.20400 23.20100 21.95500
H  -3.64300 28.36900 21.71800
H  -3.84400 27.32900 20.29400
H  -1.25800 27.96700 19.76900
H  -1.83000 29.52600 20.61500
H  -2.49700 28.88000 19.14100
H  -0.33100 30.68300 26.60000
H  -1.01400 30.58600 24.90100
H  0.57200 29.76200 25.38000
H  -2.72400 28.67100 30.38800
H  -0.97800 25.91300 33.26200
H  -1.00400 27.47600 34.06100
H  0.28100 27.07600 32.83200

