158

Mg 9.02200 3.32300 27.40800
C  10.28800 1.62400 30.23600
C  7.30500 5.41200 29.50200
C  7.85000 4.73300 24.68900
C  10.56500 0.84700 25.42000
N  8.73400 3.40800 29.72000
C  9.47200 2.70900 30.65900
C  9.18400 3.19100 32.10200
C  8.24500 4.45400 31.80300
C  8.08600 4.44500 30.27100
C  6.83000 4.47800 32.46900
C  10.49000 3.60600 32.96000
C  10.11200 4.14400 34.31900
H  11.08900 3.87900 35.43500
N  7.87000 4.83800 27.14600
C  7.19400 5.62000 28.06700
C  6.38800 6.61500 27.44900
C  6.53100 6.47200 26.03600
C  7.44100 5.29100 25.88000
C  5.66400 7.72100 28.16600
C  5.94800 7.22600 24.81700
O  6.19600 6.90200 23.67300
C  4.89600 8.26200 24.98200
N  9.07700 2.77500 25.37600
C  8.55400 3.56700 24.40600
C  8.92700 3.17300 22.99300
C  9.90800 1.91300 23.30400
C  9.88200 1.81700 24.76900
C  7.83800 2.94000 21.96500
C  11.35600 2.07100 22.67800
C  11.57100 1.25300 21.36300
N  10.12000 1.59500 27.66600
C  10.66400 0.76700 26.77300
C  11.41800 -0.27200 27.47600
C  11.28700 0.02500 28.82500
C  10.49700 1.17300 28.95100
C  12.08100 -1.54500 26.91900
C  11.62600 -0.36500 30.19000
O  12.33000 -1.28800 30.58200
C  11.01200 0.60400 31.11300
C  10.13600 0.03700 32.14300
O  9.00600 -0.36100 31.92700
O  10.70000 0.11000 33.43300
C  9.87600 -0.10300 34.61400
H  6.77400 6.13100 30.13000
H  7.61300 5.20300 23.73200
H  11.01700 0.04400 24.83500
H  8.78000 2.32800 32.63000
H  8.75100 5.38300 32.06700
H  6.54600 5.43100 32.91500
H  6.92600 3.73700 33.26300
H  6.06000 4.13200 31.78000
H  11.00600 4.38100 32.39300
H  11.24300 2.81800 32.95000
H  9.17000 3.71400 34.66200
H  9.84000 5.19800 34.26500
H  5.86500 7.73200 29.23700
H  4.59700 7.72200 27.94500
H  6.18000 8.60400 27.78900
H  5.38500 9.08600 25.50200
H  4.12400 7.76500 25.56900
H  4.43200 8.72500 24.11100
H  9.66500 3.85600 22.57200
H  9.36500 1.07200 22.87300
H  7.51000 3.94900 21.71400
H  6.99900 2.30600 22.25100
H  8.41900 2.50000 21.15500
H  12.14600 1.78300 23.37200
H  11.64600 3.05700 22.31500
H  11.84700 1.88000 20.51500
H  10.66300 0.74000 21.04600
H  12.39800 0.57700 21.58400
H  11.58400 -1.78900 25.98100
H  11.98000 -2.35300 27.64300
H  13.10200 -1.25300 26.67400
H  11.80300 1.16800 31.60800
H  10.39500 -0.83400 35.23400
H  8.92300 -0.61000 34.46500
H  9.82700 0.81400 35.20300
Mg 42.29700 41.70400 26.20300
C  41.83700 43.96000 28.75200
C  43.28300 39.41400 28.54900
C  43.19600 39.77200 23.68600
C  41.53100 44.22200 23.88700
N  42.49600 41.67500 28.46000
C  42.04300 42.70100 29.28200
C  41.97100 42.22900 30.72700
C  42.72800 40.86700 30.70100
C  42.80900 40.59200 29.16900
C  44.11000 40.85800 31.38600
C  40.46400 42.17100 31.24000
C  40.13600 43.19200 32.34200
H  39.71600 42.61400 33.72400
N  43.05600 39.81400 26.12700
C  43.38000 39.01300 27.16100
C  44.02500 37.75400 26.71700
C  44.01100 37.86500 25.25000
C  43.48900 39.18700 24.92700
C  44.57200 36.63500 27.61100
C  44.51100 36.78200 24.25600
O  44.73900 37.01200 23.07900
C  44.79600 35.46200 24.82500
N  42.17200 41.93800 24.08100
C  42.60100 40.95900 23.24900
C  42.29300 41.30300 21.75300
C  41.51100 42.60000 21.94400
C  41.80100 42.98900 23.38400
C  43.51400 41.50800 20.80800
C  39.96400 42.48100 21.71100
C  39.25400 41.34500 22.54600
N  41.80000 43.65100 26.25500
C  41.45300 44.53300 25.23800
C  41.02100 45.82200 25.78700
C  41.13500 45.57700 27.18700
C  41.62600 44.28100 27.42500
C  40.47300 47.01900 25.15500
C  40.92800 46.18000 28.44900
O  40.52600 47.31900 28.71300
C  41.28800 45.16200 29.50200
C  42.25500 45.67300 30.56500
O  43.48900 45.71700 30.45400
O  41.47800 46.22000 31.54700
C  42.09600 46.85300 32.73300
H  43.74400 38.68800 29.22100
H  43.46600 39.13200 22.84400
H  41.14300 44.94800 23.16900
H  42.51700 42.90800 31.38200
H  42.13500 40.03300 31.07600
H  44.87900 40.22300 30.94700
H  43.98200 40.65500 32.44900
H  44.44700 41.89300 31.32800
H  40.15200 41.20300 31.63100
H  39.83400 42.45600 30.39700
H  39.26900 43.77800 32.03900
H  41.01500 43.81100 32.52100
H  44.02000 35.70400 27.47900
H  44.56700 36.84800 28.68000
H  45.61000 36.42900 27.35200
H  43.94000 35.03600 25.34800
H  45.64800 35.48100 25.50400
H  45.17100 34.79100 24.05200
H  41.60200 40.58800 21.30600
H  41.76700 43.42000 21.27200
H  44.34200 41.10500 21.39100
H  43.75400 42.54800 20.58800
H  43.40800 40.91600 19.89900
H  39.87100 42.17000 20.67100
H  39.43600 43.43500 21.73500
H  39.93800 40.81300 23.20700
H  38.69100 40.66200 21.91000
H  38.53200 41.72200 23.27100
H  39.66000 47.44100 25.74600
H  40.33900 46.69900 24.12200
H  41.27400 47.75700 25.13600
H  40.38700 44.79800 29.99600
H  42.03300 46.00600 33.41600
H  41.55200 47.70900 33.13300
H  43.15100 47.10000 32.61600

