158

Mg 42.86100 41.27700 26.14200
C  42.08400 43.47400 28.66100
C  44.44500 39.26600 28.58500
C  43.85400 39.11300 23.68900
C  42.14500 43.70100 23.74100
N  43.25600 41.40800 28.38900
C  42.63200 42.31000 29.14900
C  42.75500 41.99200 30.65400
C  43.73800 40.72600 30.61800
C  43.79100 40.39700 29.12500
C  45.07900 40.99400 31.21800
C  41.41800 41.87700 31.37000
C  41.54300 42.00500 32.85500
H  40.47500 42.68400 33.62900
N  43.73300 39.32600 26.18200
C  44.38600 38.71600 27.22600
C  44.79500 37.38600 26.79000
C  44.50700 37.30100 25.34400
C  44.06100 38.65700 24.99200
C  45.33800 36.33800 27.74200
C  44.76200 36.18600 24.42500
O  44.48400 36.21200 23.25600
C  45.36600 34.82800 24.97100
N  43.03200 41.43300 23.89700
C  43.37400 40.36800 23.11300
C  43.04400 40.64200 21.67400
C  42.63100 42.16800 21.65800
C  42.60000 42.50200 23.19300
C  44.13800 40.25600 20.64800
C  41.26900 42.49300 20.96900
C  41.35800 43.60600 19.90100
N  42.28900 43.23500 26.08300
C  42.02200 44.08000 25.06900
C  41.49400 45.30900 25.66100
C  41.53800 45.14100 27.04000
C  42.04500 43.88600 27.29200
C  41.08800 46.50600 24.81900
C  41.24100 45.76000 28.35300
O  40.82700 46.86400 28.58500
C  41.63600 44.75500 29.42400
C  42.76800 45.37400 30.28900
O  43.80200 45.95000 29.85400
O  42.29600 45.35600 31.63200
C  43.18000 45.87900 32.62300
H  45.00000 38.57500 29.22300
H  43.89100 38.30900 22.95200
H  41.89600 44.42100 22.95800
H  43.22200 42.84900 31.13900
H  43.17400 39.91100 31.07200
H  45.81800 40.94800 30.41900
H  45.18300 40.20900 31.96700
H  45.14100 41.96600 31.70700
H  41.14600 40.89400 30.98700
H  40.61900 42.56900 31.10100
H  42.50000 42.33300 33.26100
H  41.48500 40.95300 33.13800
H  45.05400 36.58700 28.76500
H  46.42600 36.31200 27.79700
H  44.91700 35.39400 27.39500
H  45.86600 34.28600 24.16800
H  44.55400 34.20600 25.34800
H  46.21500 35.11000 25.59400
H  42.09100 40.14400 21.49300
H  43.40900 42.81700 21.25600
H  44.35100 41.02400 19.90500
H  43.73500 39.51000 19.96300
H  45.02600 39.80800 21.09500
H  40.47300 42.75600 21.66500
H  40.85200 41.57900 20.54500
H  42.04300 43.39100 19.08100
H  41.63600 44.56900 20.33100
H  40.36300 43.75500 19.48400
H  41.96600 46.87800 24.29100
H  40.71100 47.20900 25.56100
H  40.27900 46.30500 24.11600
H  40.77700 44.55300 30.06400
H  44.13000 45.34800 32.68700
H  42.68200 45.78600 33.58800
H  43.53200 46.88900 32.41300
Mg 17.18800 51.10500 26.58300
C  19.02200 49.49900 28.98100
C  14.97400 52.14400 29.01600
C  15.19800 52.29500 24.18900
C  19.24600 49.64800 24.11400
N  16.97400 50.76700 28.73500
C  17.89400 50.16100 29.51300
C  17.63900 50.48900 31.00000
C  16.18300 50.97100 30.96300
C  15.98600 51.30300 29.44900
C  15.13500 50.04100 31.50000
C  18.70200 51.49400 31.53900
C  19.16100 51.16600 32.92600
H  18.13600 50.54900 33.97800
N  15.38000 52.10200 26.59300
C  14.74000 52.56600 27.67400
C  13.79300 53.58300 27.30900
C  13.71700 53.60700 25.89900
C  14.71400 52.56500 25.45800
C  13.02300 54.50500 28.35000
C  12.92400 54.35300 24.84900
O  13.00300 54.14100 23.59800
C  11.99000 55.38500 25.40000
N  17.11300 50.76300 24.45500
C  16.35000 51.57200 23.70300
C  16.52300 51.33800 22.19700
C  17.94400 50.63600 22.20700
C  18.13600 50.36900 23.67600
C  15.35300 50.54800 21.53300
C  19.06000 51.50400 21.43500
C  19.84500 50.66700 20.37100
N  18.82200 49.85300 26.54900
C  19.54000 49.34300 25.47500
C  20.63800 48.54600 26.07000
C  20.47600 48.63600 27.41600
C  19.31500 49.37200 27.66600
C  21.82000 47.95400 25.27700
C  21.11200 48.25200 28.70600
O  22.08900 47.57900 29.00600
C  20.19500 48.83300 29.76800
C  19.83400 47.73700 30.73600
O  19.07200 46.84700 30.49500
O  20.45900 47.96800 31.98200
C  19.98300 47.10800 33.05600
H  14.47600 52.66600 29.83700
H  14.62000 52.67400 23.34400
H  19.98000 49.30900 23.38000
H  17.79700 49.52800 31.49000
H  16.14100 51.91700 31.50300
H  14.43300 50.53100 32.17500
H  15.62500 49.32100 32.15500
H  14.60800 49.53200 30.69300
H  18.16100 52.43700 31.62400
H  19.49700 51.77100 30.84700
H  19.56200 52.06000 33.40400
H  20.03900 50.52100 32.92500
H  13.02700 55.51400 27.93600
H  13.51000 54.45500 29.32300
H  11.99000 54.15900 28.39700
H  11.58400 55.97800 24.58000
H  12.65700 56.09300 25.89200
H  11.22700 55.01400 26.08400
H  16.59100 52.24700 21.60000
H  17.84500 49.68900 21.67700
H  15.82900 49.73700 20.98200
H  14.76700 51.14000 20.82900
H  14.81300 50.03800 22.33000
H  19.82000 51.90000 22.10900
H  18.55300 52.33400 20.94200
H  19.86400 49.59100 20.54500
H  20.91000 50.90000 20.36600
H  19.43700 50.91400 19.39100
H  22.28900 48.78700 24.75500
H  21.27700 47.27200 24.62300
H  22.49700 47.40600 25.93300
H  20.69000 49.65900 30.27700
H  20.13900 46.03100 32.99500
H  18.92900 47.38400 33.08700
H  20.46200 47.43700 33.97800

