158

Mg 17.10200 -2.20200 27.25200
C  16.11500 -0.50200 30.20000
C  18.69500 -4.41500 29.33200
C  17.94200 -3.76000 24.47300
C  15.53000 0.39500 25.45100
N  17.23500 -2.54300 29.51500
C  16.85700 -1.64600 30.48100
C  17.39600 -2.10000 31.91700
C  18.27200 -3.29500 31.58300
C  18.08200 -3.42900 30.03600
C  19.71100 -3.39500 32.14300
C  16.20900 -2.38200 32.89200
C  16.25900 -1.75300 34.33400
H  17.53200 -0.91100 34.69200
N  18.13800 -3.95500 26.97400
C  18.68600 -4.72600 27.96400
C  19.22200 -5.90400 27.28600
C  19.07200 -5.75200 25.88300
C  18.38500 -4.42700 25.69900
C  19.83900 -7.11200 28.01100
C  19.39400 -6.63500 24.66900
O  18.98700 -6.40900 23.56700
C  19.94200 -8.00600 24.94000
N  16.81000 -1.75800 25.32500
C  17.25700 -2.51600 24.31800
C  17.12500 -1.80500 22.94200
C  16.05200 -0.76700 23.31600
C  16.21500 -0.65400 24.81600
C  18.44900 -1.35700 22.25000
C  14.60800 -0.97900 22.84400
C  13.58700 -1.67700 23.76700
N  16.04900 -0.34600 27.69500
C  15.42300 0.48100 26.83500
C  14.72900 1.52800 27.60500
C  14.95400 1.18000 28.92200
C  15.80800 0.00300 28.90700
C  14.03900 2.74200 27.02100
C  14.72300 1.53000 30.29000
O  14.07600 2.49100 30.66000
C  15.50300 0.48300 31.16100
C  16.59900 1.20800 31.91300
O  17.78800 1.38800 31.55500
O  16.00900 1.82000 32.90500
C  16.75000 2.97900 33.44400
H  19.31400 -5.07600 29.94200
H  18.23700 -4.11000 23.48200
H  15.03800 1.21700 24.92800
H  17.98000 -1.23100 32.22000
H  17.78500 -4.13300 32.08000
H  20.43000 -3.56100 31.34000
H  19.73800 -4.23100 32.84100
H  20.11700 -2.51400 32.64100
H  16.24700 -3.44800 33.11200
H  15.29000 -2.40500 32.30700
H  16.30500 -2.57200 35.05100
H  15.37200 -1.12500 34.40900
H  20.82100 -7.39100 27.62900
H  19.01600 -7.82400 27.95200
H  19.91600 -6.87200 29.07100
H  21.03100 -8.04000 24.96300
H  19.59100 -8.63700 24.12400
H  19.62500 -8.56300 25.82200
H  16.67600 -2.67100 22.45500
H  16.35400 0.17100 22.85000
H  18.88900 -2.05400 21.53700
H  19.28400 -1.15700 22.92200
H  18.31100 -0.43000 21.69400
H  14.62500 -1.40000 21.83800
H  14.24500 0.04000 22.70900
H  14.09900 -2.23100 24.55300
H  12.93100 -2.38500 23.26000
H  12.99700 -0.88200 24.22500
H  13.95900 3.51200 27.78900
H  13.08100 2.44000 26.60000
H  14.62300 3.10000 26.17300
H  14.82900 -0.06900 31.81600
H  17.24000 3.51900 32.63400
H  17.56200 2.77600 34.14200
H  16.08200 3.57300 34.06900
Mg 41.48800 40.79800 27.07900
C  40.71900 43.18400 29.25500
C  42.53100 38.63600 29.61200
C  42.41500 38.36000 24.69000
C  40.99800 42.94000 24.41300
N  41.52900 40.94900 29.19900
C  41.09400 41.99800 29.91100
C  41.08400 41.72400 31.45200
C  41.81000 40.34400 31.50800
C  42.02100 39.98400 30.01600
C  43.12700 40.16300 32.34200
C  39.59700 41.87500 32.01200
C  39.42200 42.79900 33.22700
H  38.83300 42.32900 34.57600
N  42.28800 38.74900 27.19000
C  42.61400 38.02800 28.32100
C  43.17500 36.68000 28.00100
C  42.93800 36.55300 26.58000
C  42.55500 37.92300 26.07000
C  43.80300 35.78800 29.02300
C  43.09000 35.36800 25.63600
O  43.16400 35.48200 24.42700
C  43.27900 33.94600 26.24100
N  41.73600 40.67300 24.87200
C  42.07800 39.58800 24.13800
C  41.97500 39.86700 22.58600
C  41.20400 41.22200 22.54500
C  41.36800 41.66600 24.02700
C  43.35000 39.81500 21.82500
C  39.75200 41.13600 22.02900
C  38.87300 39.95300 22.53800
N  41.00300 42.70300 26.78700
C  40.83300 43.49100 25.72900
C  40.47600 44.84600 26.04600
C  40.42000 44.78500 27.50500
C  40.71300 43.44500 27.86200
C  40.27400 45.94500 25.14900
C  40.09900 45.56100 28.64100
O  39.80400 46.74400 28.63600
C  40.32300 44.58200 29.91200
C  41.39800 45.10800 30.78800
O  42.64000 44.95000 30.50800
O  40.86200 45.76900 31.89200
C  41.89200 46.25500 32.79800
H  42.90100 38.08600 30.48000
H  42.73200 37.68500 23.89300
H  40.62000 43.49500 23.55300
H  41.81000 42.43400 31.84700
H  41.11300 39.59400 31.88100
H  43.12900 39.20400 32.86100
H  43.18200 41.03000 32.99900
H  44.03500 40.07300 31.74600
H  39.35000 40.87100 32.35700
H  38.92900 42.13000 31.18800
H  38.69500 43.51000 32.83600
H  40.18200 43.55400 33.42800
H  42.98900 35.27200 29.53000
H  44.28300 36.47600 29.71900
H  44.51100 35.08200 28.58700
H  42.75300 33.88500 27.19300
H  44.32700 33.69100 26.39500
H  42.93100 33.15200 25.57900
H  41.40800 39.01200 22.21600
H  41.75700 41.90100 21.89600
H  43.43800 39.14500 20.97000
H  44.15100 39.48300 22.48600
H  43.65600 40.80500 21.48800
H  39.77500 41.12500 20.94000
H  39.31200 42.07700 22.35900
H  38.59200 39.18000 21.82200
H  37.92600 40.35100 22.90000
H  39.32400 39.38500 23.35200
H  41.19500 46.14900 24.60300
H  39.99400 46.75400 25.82400
H  39.37400 45.79400 24.55400
H  39.43400 44.56300 30.54200
H  41.42100 47.14200 33.22300
H  42.80100 46.53100 32.26500
H  42.04500 45.54600 33.61100

