158

Mg -1.64400 18.04700 27.12100
C  -1.99200 16.06200 30.10700
C  -2.12100 20.79500 29.09100
C  -1.76800 19.91400 24.28000
C  -1.22000 15.21000 25.27800
N  -1.71900 18.40100 29.38900
C  -1.95100 17.41700 30.37900
C  -2.16800 18.08500 31.69900
C  -2.50000 19.56300 31.37700
C  -2.04100 19.63400 29.85900
C  -3.86300 20.18300 31.68700
C  -1.04000 17.86700 32.83800
C  -1.50700 17.73300 34.34200
H  -0.45100 17.59400 35.47700
N  -1.91100 20.04700 26.74900
C  -2.00600 21.01500 27.69400
C  -1.89600 22.33200 27.02800
C  -1.66000 22.09600 25.62800
C  -1.66100 20.62300 25.49300
C  -2.08500 23.62100 27.81900
C  -1.37500 23.06500 24.48600
O  -1.06600 22.68900 23.35800
C  -1.33100 24.57000 24.79000
N  -1.69300 17.67000 25.08800
C  -1.73700 18.55500 24.03000
C  -1.44800 17.88900 22.67600
C  -0.98900 16.46200 23.10600
C  -1.30600 16.44700 24.55600
C  -2.75600 18.09100 21.75600
C  0.47400 16.14800 22.73400
C  1.60100 16.95200 23.35800
N  -1.70700 16.07900 27.57900
C  -1.51100 14.96900 26.67300
C  -1.64000 13.71900 27.38200
C  -1.74700 14.13400 28.73400
C  -1.77100 15.56200 28.80300
C  -1.40000 12.31000 26.88300
C  -1.94200 13.67800 30.10600
O  -2.04000 12.52000 30.46900
C  -2.14800 14.89000 31.00300
C  -1.27600 14.79200 32.21800
O  -0.01300 14.74800 32.18600
O  -2.03700 14.73900 33.30800
C  -1.37900 14.26700 34.53500
H  -2.33300 21.65900 29.72400
H  -1.82700 20.48400 23.35000
H  -0.75200 14.40000 24.71400
H  -3.07900 17.59200 32.03900
H  -1.76700 20.20500 31.86500
H  -4.35000 20.62400 30.81800
H  -3.84300 20.90600 32.50300
H  -4.59300 19.39100 31.85700
H  -0.36900 18.72400 32.77600
H  -0.44200 17.04900 32.43700
H  -2.23700 16.94500 34.52900
H  -2.09000 18.63900 34.50300
H  -2.10500 23.61500 28.90900
H  -2.82000 24.30100 27.38700
H  -1.21100 24.26600 27.73000
H  -0.93400 25.04900 23.89500
H  -0.77000 24.63300 25.72200
H  -2.37800 24.79500 24.99800
H  -0.54300 18.33000 22.26000
H  -1.57700 15.71800 22.56900
H  -3.54300 18.51700 22.37900
H  -3.09600 17.17900 21.26500
H  -2.57000 18.79700 20.94700
H  0.48700 16.34000 21.66100
H  0.62200 15.09100 22.95500
H  2.06600 16.35700 24.14400
H  1.20100 17.93900 23.58900
H  2.24100 17.02200 22.47800
H  -2.29000 11.68300 26.83300
H  -0.59100 11.85900 27.45900
H  -1.04400 12.43400 25.86100
H  -3.19800 14.84300 31.29000
H  -2.03400 14.57400 35.35000
H  -0.39000 14.70300 34.67800
H  -1.34500 13.17700 34.52600
Mg 40.88500 8.36500 29.78900
C  42.69500 9.64800 32.52900
C  38.64400 7.01700 32.06900
C  39.21100 7.26600 27.18500
C  43.52200 9.36100 27.60200
N  40.69100 8.36300 32.10500
C  41.55900 9.00700 32.94700
C  40.97400 8.97500 34.40800
C  39.80800 7.90800 34.34300
C  39.69600 7.71600 32.78800
C  39.96200 6.62000 35.12700
C  40.67900 10.39100 35.01100
C  41.48900 10.81100 36.24600
H  40.98200 11.94000 37.18500
N  39.17400 7.26600 29.58400
C  38.35800 6.78700 30.66100
C  37.15700 6.19200 30.06100
C  37.25100 6.54600 28.62800
C  38.60200 7.03500 28.41100
C  36.11100 5.40200 30.82700
C  36.17900 6.47700 27.65000
O  36.33500 6.76100 26.45000
C  34.83800 6.13100 28.09900
N  41.33600 8.20100 27.73400
C  40.39600 7.78100 26.84000
C  40.88000 7.83900 25.38800
C  42.21200 8.76600 25.51500
C  42.38400 8.78300 27.03400
C  41.05500 6.42100 24.70100
C  42.15000 10.20200 24.82800
C  41.23300 11.25800 25.56200
N  42.78900 9.22200 29.95400
C  43.68600 9.60600 29.00300
C  44.80200 10.22200 29.63900
C  44.42000 10.29000 31.02500
C  43.18600 9.65800 31.15700
C  46.08900 10.71000 28.96100
C  44.92000 10.68400 32.31100
O  46.01700 11.13000 32.60600
C  43.76900 10.37600 33.39100
C  44.31000 9.42600 34.37000
O  44.28600 8.20700 34.27000
O  44.87400 10.15100 35.37800
C  45.46000 9.29900 36.42500
H  37.93500 6.65000 32.81400
H  38.58600 7.04300 26.31800
H  44.32100 9.57300 26.88800
H  41.74200 8.44400 34.97100
H  38.81200 8.22000 34.65700
H  40.93900 6.51400 35.59800
H  39.91000 5.74400 34.48200
H  39.19100 6.51700 35.89200
H  39.66600 10.40500 35.41500
H  40.84700 11.16400 34.26200
H  42.48600 11.14600 35.95800
H  41.70600 9.93300 36.85400
H  36.59800 5.25800 31.79200
H  35.94000 4.42200 30.38300
H  35.24600 6.06500 30.83600
H  34.84900 5.17100 28.61600
H  34.28400 6.00700 27.16800
H  34.39900 6.89800 28.73700
H  40.15600 8.43600 24.83300
H  43.09700 8.21700 25.19300
H  40.52800 5.65000 25.26300
H  42.08400 6.08100 24.58300
H  40.52800 6.47100 23.74800
H  41.94800 10.21200 23.75700
H  43.14000 10.65200 24.90400
H  40.40500 10.75600 26.06200
H  40.83500 12.04300 24.91800
H  41.85700 11.72900 26.32100
H  46.14300 11.69400 28.49400
H  46.42100 9.96900 28.23400
H  46.92900 10.62400 29.65000
H  43.47000 11.30300 33.88100
H  46.52700 9.51900 36.39900
H  45.31200 8.22300 36.32700
H  45.12900 9.64700 37.40300

