158

Mg 24.66400 -8.29300 47.45300
C  27.11100 -6.19700 46.16600
C  22.59400 -7.30900 44.77500
C  22.65400 -10.96800 47.96000
C  27.18200 -9.86400 49.30700
N  24.86200 -7.06300 45.64100
C  25.93400 -6.16700 45.42300
C  25.63600 -5.24800 44.22000
C  24.14300 -5.54100 43.84200
C  23.84200 -6.74200 44.78800
C  23.19000 -4.30800 44.07200
C  26.72200 -5.31800 43.09000
C  27.55000 -3.96600 42.74300
H  27.64900 -3.52900 41.24400
N  22.77400 -8.90400 46.66600
C  22.08600 -8.33900 45.59800
C  20.76700 -9.00000 45.51200
C  20.70900 -9.93200 46.51000
C  22.09000 -9.96600 47.15700
C  19.79900 -8.59700 44.40500
C  19.50900 -10.75400 46.86500
O  18.54900 -10.75700 46.13700
C  19.41200 -11.72600 48.00400
N  24.79000 -10.08500 48.65000
C  23.83100 -11.00500 48.75800
C  24.22500 -12.24600 49.49600
C  25.72600 -11.94600 49.86800
C  25.90600 -10.47400 49.29100
C  23.32300 -12.56600 50.77600
C  26.72100 -12.96800 49.29400
C  27.42300 -13.80300 50.40000
N  26.70500 -7.92900 47.91400
C  27.57600 -8.71300 48.60100
C  28.86200 -8.11300 48.48300
C  28.72300 -7.05700 47.60300
C  27.39100 -7.08100 47.23400
C  30.21400 -8.55000 48.97600
C  29.44700 -6.03500 46.93900
O  30.55600 -5.60800 47.07000
C  28.40600 -5.40600 45.99700
C  28.23800 -3.99000 46.36900
O  27.57300 -3.55000 47.30400
O  28.88700 -3.17800 45.46700
C  28.71100 -1.71400 45.67500
H  21.90900 -6.74200 44.14000
H  21.95700 -11.78100 48.17400
H  27.99900 -10.42600 49.76400
H  25.66800 -4.28700 44.73400
H  24.09000 -5.86500 42.80200
H  22.79600 -4.13000 45.07200
H  22.26600 -4.31200 43.49400
H  23.69900 -3.39100 43.77600
H  26.43100 -5.62400 42.08500
H  27.41500 -6.12500 43.32800
H  28.54200 -4.25300 43.09200
H  27.14000 -3.17100 43.36500
H  18.75400 -8.57900 44.71200
H  19.87500 -9.30000 43.57500
H  19.96700 -7.68900 43.82700
H  19.83800 -11.16000 48.83200
H  19.95600 -12.62400 47.71200
H  18.40200 -11.98400 48.32500
H  24.25100 -13.06800 48.78200
H  25.74800 -11.78000 50.94500
H  22.70400 -13.41300 50.48000
H  22.57600 -11.79800 50.97200
H  23.86500 -12.90100 51.66000
H  27.49300 -12.48700 48.69300
H  26.14900 -13.60400 48.61900
H  26.72200 -14.41500 50.96800
H  27.99600 -13.11000 51.01400
H  28.15900 -14.45600 49.93100
H  30.26700 -9.42600 49.62200
H  30.72800 -7.73000 49.47900
H  30.75700 -8.71400 48.04600
H  28.77400 -5.62400 44.99400
H  29.53700 -1.21000 45.17400
H  28.73600 -1.54700 46.75100
H  27.73700 -1.35100 45.34500
Mg 40.78800 8.20000 29.80700
C  42.38400 9.82200 32.39800
C  38.53000 6.85200 32.04200
C  39.31500 6.64700 27.16000
C  43.44500 9.15300 27.64400
N  40.55300 8.29700 32.00500
C  41.17200 9.17500 32.80800
C  40.67900 9.05600 34.31900
C  39.43300 8.10900 34.19700
C  39.48100 7.71200 32.65500
C  39.41400 6.81000 35.11000
C  40.42500 10.41500 35.00500
C  39.72200 10.32400 36.33100
H  40.49600 10.32200 37.67400
N  39.16700 6.91200 29.60800
C  38.36800 6.54900 30.64700
C  37.22700 5.83500 30.08200
C  37.43800 5.74100 28.71100
C  38.71400 6.46200 28.40100
C  36.09600 5.31100 31.06100
C  36.47600 5.22200 27.63900
O  36.76900 5.08100 26.46800
C  35.18600 4.77200 28.09800
N  41.35000 7.78500 27.78300
C  40.51200 7.26500 26.86000
C  41.08500 7.35400 25.44300
C  42.15400 8.46000 25.63000
C  42.33500 8.44600 27.13200
C  41.69900 6.02700 24.92000
C  41.84200 9.95000 25.18500
C  40.42500 10.38500 25.52700
N  42.62600 9.25400 29.93300
C  43.65600 9.49900 28.98600
C  44.73700 10.27900 29.70000
C  44.30600 10.42700 31.02900
C  43.03400 9.77900 31.08400
C  45.96500 10.77500 28.98700
C  44.56900 11.07900 32.26000
O  45.44700 11.82500 32.60500
C  43.37800 10.74900 33.19000
C  43.94000 10.13200 34.45100
O  44.35400 8.96500 34.52700
O  43.98400 11.12300 35.41800
C  44.63600 10.76600 36.71600
H  37.83200 6.40700 32.75500
H  38.87800 6.16200 26.28500
H  44.12800 9.51200 26.87100
H  41.55700 8.59300 34.77000
H  38.46200 8.60200 34.23600
H  38.52600 6.65000 35.72200
H  40.19100 6.95900 35.86000
H  39.57000 5.93100 34.48500
H  39.85300 11.05100 34.32900
H  41.41300 10.83600 35.19300
H  39.16000 9.39000 36.29700
H  38.94600 11.08600 36.25800
H  35.10100 5.42500 30.63000
H  36.14000 5.79800 32.03500
H  36.31300 4.25800 31.24000
H  34.61600 5.61400 28.48900
H  35.43000 4.02800 28.85600
H  34.66800 4.25600 27.28900
H  40.17200 7.62600 24.91400
H  43.02600 8.14000 25.05900
H  41.30400 5.11800 25.37400
H  42.74600 5.98200 25.21800
H  41.48800 5.92900 23.85500
H  41.89600 10.07400 24.10300
H  42.59000 10.63700 25.58000
H  40.48900 11.43900 25.79800
H  39.84600 9.83200 26.26600
H  39.98000 10.30100 24.53600
H  45.68100 10.73300 27.93600
H  46.67500 9.95200 29.07300
H  46.38200 11.71500 29.34900
H  43.08100 11.76300 33.45700
H  45.27100 9.88000 36.69600
H  43.83800 10.42300 37.37600
H  45.11100 11.67200 37.09200

