158

Mg 17.47500 -1.87700 27.03400
C  16.50400 0.15600 29.83400
C  19.44600 -3.69500 29.31800
C  18.66300 -3.53800 24.43100
C  15.81500 0.31600 24.99400
N  17.98400 -1.73800 29.33600
C  17.35100 -0.92300 30.23100
C  17.77800 -1.24900 31.64300
C  18.84600 -2.40000 31.46800
C  18.73000 -2.63900 29.97300
C  20.29700 -2.09100 31.78800
C  16.54300 -1.57400 32.50800
C  16.43500 -0.85900 33.81500
H  17.78400 -0.69500 34.48700
N  18.84100 -3.37700 26.92000
C  19.46900 -4.08100 27.94200
C  20.20600 -5.12700 27.30400
C  20.02800 -5.11100 25.91600
C  19.12400 -3.94500 25.68500
C  21.03900 -6.10200 28.14200
C  20.63900 -6.05000 24.87800
O  20.32900 -6.03300 23.71000
C  21.61700 -7.10300 25.25700
N  17.28900 -1.65400 25.03100
C  17.88500 -2.37300 24.07500
C  17.56400 -2.03200 22.65100
C  16.47100 -0.96700 22.91300
C  16.49700 -0.73800 24.40400
C  18.71800 -1.51400 21.74100
C  15.03800 -1.27200 22.34500
C  13.95600 -1.64100 23.34800
N  16.30600 -0.15700 27.32900
C  15.63200 0.55800 26.45800
C  14.84100 1.59500 26.97300
C  15.12800 1.47700 28.37100
C  16.01200 0.41700 28.51500
C  13.91000 2.48100 26.28500
C  14.86400 2.00600 29.72200
O  14.21700 3.01000 30.02900
C  15.76900 1.16500 30.69900
C  16.57300 2.14400 31.41100
O  17.71000 2.49100 31.14000
O  15.78600 2.67200 32.41500
C  16.35300 3.72900 33.26600
H  19.99500 -4.31400 30.03100
H  19.09300 -4.16500 23.64700
H  15.27200 0.99700 24.33500
H  18.15600 -0.31600 32.06000
H  18.49200 -3.29600 31.97800
H  20.44500 -1.18300 32.37300
H  20.93800 -1.87000 30.93400
H  20.74400 -2.95600 32.27700
H  16.57500 -2.64400 32.71000
H  15.65400 -1.48400 31.88400
H  15.89800 -1.54300 34.47300
H  15.85100 0.05900 33.74600
H  21.19000 -7.12100 27.78500
H  20.56000 -6.28100 29.10500
H  22.01300 -5.63800 28.29300
H  22.32400 -6.86400 26.05100
H  22.19000 -7.51200 24.42500
H  20.96500 -7.88900 25.63700
H  17.23200 -2.98300 22.23400
H  16.79600 0.01500 22.57000
H  19.60800 -1.48500 22.36900
H  18.44800 -0.56900 21.27100
H  18.84500 -2.19500 20.90000
H  15.11000 -2.10400 21.64500
H  14.66500 -0.37900 21.84200
H  13.38600 -0.74300 23.58700
H  14.45500 -2.09300 24.20500
H  13.40300 -2.43900 22.85300
H  13.44400 1.76100 25.61200
H  14.64400 3.05800 25.72300
H  13.17200 3.06000 26.84100
H  15.17200 0.65700 31.45600
H  15.70500 4.57300 33.03000
H  17.37100 4.04000 33.03100
H  16.20800 3.58800 34.33700
Mg 0.16900 44.05300 25.80700
C  2.51500 43.78900 28.38700
C  -2.30100 43.23400 27.89000
C  -1.74600 44.08000 23.10400
C  2.93600 44.31000 23.50600
N  0.15700 43.51400 27.90900
C  1.15800 43.61700 28.73900
C  0.66300 43.56800 30.19100
C  -0.85900 43.04700 30.03900
C  -1.04200 43.29400 28.52100
C  -1.05000 41.55300 30.56500
C  0.79000 44.94200 30.87900
C  0.49400 44.96600 32.40700
H  0.52800 43.61600 33.15600
N  -1.74800 43.69800 25.50300
C  -2.67500 43.37000 26.49700
C  -3.96000 43.07200 25.87900
C  -3.82600 43.38400 24.50000
C  -2.41300 43.76000 24.29400
C  -5.12900 42.58500 26.72800
C  -4.89300 43.33300 23.45400
O  -4.61900 43.67000 22.27900
C  -6.26100 42.89800 23.76400
N  0.56900 44.37400 23.61400
C  -0.46900 44.34900 22.73700
C  0.01500 44.91600 21.33200
C  1.48900 45.23400 21.60600
C  1.75500 44.63700 22.99600
C  -0.15600 43.93900 20.24600
C  1.96400 46.71300 21.53900
C  1.08400 47.63300 22.42200
N  2.27300 44.06400 25.88000
C  3.25200 44.16100 24.86500
C  4.58500 44.22400 25.49600
C  4.34800 44.11900 26.84100
C  2.95600 44.01000 27.06600
C  5.94400 44.33500 24.78200
C  4.94600 43.99900 28.10200
O  6.10700 43.94700 28.43300
C  3.82400 43.89300 29.16900
C  4.10900 42.77600 30.02300
O  4.22900 41.67100 29.63700
O  4.18900 43.10900 31.35900
C  4.45700 42.12700 32.34100
H  -3.13800 43.22100 28.59100
H  -2.31700 43.96900 22.18000
H  3.75900 44.50600 22.81600
H  1.29700 42.82700 30.67800
H  -1.51000 43.67100 30.65200
H  -1.36300 40.89600 29.75400
H  -1.84700 41.55900 31.30900
H  -0.10900 41.25400 31.02700
H  0.12200 45.58400 30.30500
H  1.79400 45.34900 30.75900
H  -0.43700 45.50600 32.57400
H  1.23400 45.50600 32.99700
H  -5.89400 43.35900 26.78900
H  -4.82600 42.36700 27.75200
H  -5.53800 41.65700 26.32900
H  -6.44800 41.89400 24.14500
H  -6.84300 42.94300 22.84300
H  -6.67300 43.49900 24.57600
H  -0.45700 45.86200 21.06800
H  2.18000 44.76700 20.90300
H  -1.22700 43.82700 20.07600
H  0.26400 42.96100 20.47800
H  0.23300 44.32600 19.30400
H  1.76100 46.99500 20.50600
H  3.01900 46.65500 21.80900
H  0.42200 47.02600 23.04000
H  0.51400 48.43400 21.95100
H  1.68200 48.30000 23.04300
H  5.89100 44.64200 23.73700
H  6.36900 43.34600 24.94900
H  6.57000 45.07200 25.28500
H  3.89700 44.78100 29.79800
H  4.09900 42.41700 33.32900
H  5.48900 41.78600 32.42400
H  3.75700 41.31400 32.14700

