158

Mg 40.91400 9.25000 29.50700
C  42.60400 10.53000 32.32900
C  38.83500 7.73200 31.71800
C  39.39500 7.83800 26.97100
C  43.44100 10.34600 27.50400
N  40.71200 9.21300 31.83200
C  41.46300 9.81600 32.70800
C  40.97500 9.75800 34.15800
C  39.83600 8.70400 33.92300
C  39.78300 8.48100 32.42400
C  40.09100 7.38500 34.66300
C  40.64000 11.07400 34.78700
C  40.12600 10.76300 36.19000
H  40.47700 11.71700 37.28200
N  39.29200 7.94400 29.33900
C  38.58300 7.46600 30.37500
C  37.44000 6.75000 29.83300
C  37.50600 6.88400 28.44600
C  38.80000 7.55300 28.16500
C  36.34200 6.04200 30.64100
C  36.43500 6.44900 27.42300
O  36.67600 6.66500 26.27600
C  35.08500 6.11900 27.79900
N  41.43500 9.01600 27.59800
C  40.60000 8.46400 26.67400
C  41.05500 8.68100 25.25000
C  42.44800 9.37000 25.34800
C  42.44800 9.62400 26.89700
C  41.09900 7.33600 24.36600
C  42.56600 10.61000 24.35500
C  41.87700 11.94100 24.75400
N  42.73500 10.21100 29.79800
C  43.64300 10.66000 28.84700
C  44.69700 11.28800 29.53300
C  44.35000 11.35500 30.93400
C  43.14200 10.60800 31.02900
C  45.71400 11.91200 28.87400
C  44.78800 11.80400 32.24400
O  45.70500 12.45100 32.69000
C  43.66400 11.28800 33.12300
C  44.28000 10.64400 34.32700
O  44.80400 9.54200 34.42300
O  44.13500 11.48700 35.46900
C  44.54700 10.91700 36.76200
H  38.15500 7.13300 32.32700
H  38.72600 7.60100 26.14100
H  44.29200 10.60400 26.87000
H  41.77400 9.26200 34.70900
H  38.89500 9.16500 34.22300
H  39.87500 6.55600 33.99000
H  39.43000 7.27900 35.52300
H  41.10200 7.25700 35.05000
H  39.84600 11.59700 34.25400
H  41.44700 11.77100 35.01200
H  40.53400 9.76700 36.35900
H  39.03600 10.74300 36.16800
H  36.24900 5.09200 30.11400
H  35.46500 6.68400 30.73100
H  36.73700 5.70000 31.59700
H  34.43400 6.29900 26.94400
H  34.67600 6.66400 28.65000
H  35.20500 5.06300 28.04200
H  40.23500 9.28100 24.85600
H  43.19700 8.60500 25.14500
H  41.10800 6.44200 24.98800
H  41.88800 7.27800 23.61700
H  40.13100 7.18400 23.88900
H  42.11800 10.39700 23.38400
H  43.64400 10.75500 24.28900
H  41.01100 12.06700 24.10500
H  42.47400 12.83100 24.56000
H  41.44200 12.01100 25.75100
H  45.44000 12.21700 27.86400
H  46.58300 11.27300 28.71700
H  46.11600 12.78800 29.38300
H  43.17700 12.14800 33.58300
H  45.49900 10.39100 36.68900
H  43.80300 10.47800 37.42600
H  44.77300 11.80500 37.35200
Mg -1.02700 35.21100 27.48700
C  -2.53900 33.40300 29.81000
C  0.19300 37.39600 29.70000
C  -0.02000 37.23200 24.79700
C  -2.60600 33.17100 24.99600
N  -1.23300 35.35000 29.45500
C  -1.82000 34.48800 30.31000
C  -1.56200 34.85600 31.76200
C  -0.89000 36.25200 31.70400
C  -0.54400 36.30300 30.15800
C  -1.68000 37.48300 32.16400
C  -0.68300 33.84300 32.56500
C  -1.24100 33.36900 33.95100
H  -0.29700 33.30700 35.17700
N  0.08000 36.93600 27.24500
C  0.46500 37.69500 28.33800
C  1.24300 38.86900 27.88400
C  1.18900 38.80800 26.43900
C  0.33000 37.66100 26.11000
C  2.04400 39.73200 28.78900
C  1.81400 39.66000 25.43500
O  1.81700 39.35100 24.24600
C  2.67500 40.77400 25.81500
N  -1.25200 35.08200 25.29300
C  -0.62800 36.03900 24.44100
C  -0.93700 35.70800 22.91400
C  -1.47700 34.21400 23.06400
C  -1.83700 34.17500 24.52000
C  -2.00500 36.65100 22.29700
C  -0.42000 33.16100 22.68500
C  -0.87700 31.96200 21.88600
N  -2.25700 33.57500 27.35700
C  -2.87200 32.85800 26.33100
C  -3.76600 31.84600 26.84600
C  -3.57800 31.99800 28.20800
C  -2.78600 33.10800 28.45900
C  -4.61900 30.84600 26.19200
C  -3.97500 31.43200 29.46400
O  -4.67300 30.50700 29.72600
C  -3.29000 32.38500 30.60100
C  -4.48900 32.98400 31.31600
O  -5.07600 34.03000 31.00100
O  -4.81600 32.39900 32.48000
C  -6.05100 32.96300 33.02200
H  0.75000 37.99100 30.42700
H  0.36900 37.70800 23.89500
H  -3.14400 32.55000 24.27700
H  -2.53400 34.80200 32.25200
H  0.09300 36.17400 32.16800
H  -1.23200 38.47600 32.12200
H  -2.12000 37.37500 33.15500
H  -2.54300 37.54200 31.50000
H  0.27600 34.23300 32.90600
H  -0.41300 32.97800 31.95900
H  -1.65600 32.38300 33.74100
H  -2.09200 33.96400 34.28100
H  2.03300 39.32500 29.80000
H  1.51200 40.68000 28.71500
H  3.07200 39.94000 28.49500
H  3.50700 40.38300 26.40100
H  2.09600 41.48500 26.40400
H  2.97700 41.31000 24.91600
H  -0.09200 35.90600 22.25500
H  -2.37500 34.07100 22.46300
H  -2.68500 36.11700 21.63300
H  -1.54200 37.39600 21.65100
H  -2.53000 37.11300 23.13300
H  -0.05800 32.74800 23.62700
H  0.37100 33.76700 22.24400
H  -0.09000 31.63300 21.20700
H  -1.83700 32.09500 21.38700
H  -1.06100 31.05500 22.46200
H  -4.32600 29.82000 26.41800
H  -4.57800 31.05400 25.12300
H  -5.63500 31.02100 26.54600
H  -2.70000 31.81300 31.31700
H  -6.73800 33.16300 32.20000
H  -5.90700 33.90800 33.54800
H  -6.44700 32.18000 33.66900

