158

Mg 43.83300 3.73600 47.59000
C  41.52700 6.33800 47.38100
C  41.10400 1.48000 47.44000
C  46.00900 1.34300 47.02000
C  46.42600 6.19700 47.03000
N  41.57700 3.85700 47.24200
C  40.88200 5.04900 47.40800
C  39.33900 4.79200 47.70700
C  39.32500 3.24100 47.85300
C  40.74400 2.82200 47.55900
C  38.86000 2.76200 49.22500
C  38.39200 5.36800 46.56200
C  38.84100 5.01500 45.10500
H  39.17500 6.14300 44.19900
N  43.58400 1.67600 47.30800
C  42.40400 0.93500 47.35600
C  42.74900 -0.37300 47.00400
C  44.16500 -0.52100 47.08100
C  44.62500 0.86700 47.13300
C  41.68800 -1.40600 46.57200
C  44.96300 -1.80800 46.88400
O  44.36400 -2.84100 46.66600
C  46.47700 -1.86500 46.99400
N  45.92200 3.74200 47.06200
C  46.57700 2.61100 47.07400
C  48.09500 2.82100 47.00100
C  48.22400 4.39900 47.07400
C  46.77100 4.82000 46.96100
C  49.01900 2.01300 48.01400
C  49.18800 5.09900 46.07200
C  50.44700 5.65600 46.71300
N  44.05800 5.91000 47.37600
C  45.14900 6.71900 47.21000
C  44.64700 8.08400 47.30000
C  43.26000 8.03200 47.32900
C  42.97300 6.62200 47.31400
C  45.52300 9.31700 47.47400
C  41.96900 8.72300 47.35800
O  41.76200 9.93800 47.38800
C  40.83600 7.68300 47.42200
C  39.93800 7.93000 48.63300
O  40.12800 7.46200 49.71000
O  38.82800 8.68000 48.32600
C  37.88600 8.91300 49.40300
H  40.26900 0.79300 47.58900
H  46.75100 0.55100 46.89500
H  47.23400 6.93100 46.99500
H  39.06300 5.31200 48.62400
H  38.74100 2.79500 47.04700
H  39.66800 2.47800 49.90000
H  38.16000 1.94700 49.03800
H  38.30500 3.52700 49.76700
H  38.32300 6.45500 46.61300
H  37.41200 4.93700 46.76500
H  38.03300 4.44800 44.64500
H  39.73200 4.39000 45.04800
H  42.01400 -1.80900 45.61300
H  40.74700 -0.86200 46.49500
H  41.73700 -2.14000 47.37700
H  46.66900 -1.39600 47.96000
H  46.89500 -1.44300 46.08000
H  46.68300 -2.92700 46.86300
H  48.41800 2.58200 45.98700
H  48.53000 4.69900 48.07600
H  49.53100 1.22200 47.46500
H  48.37300 1.59600 48.78700
H  49.69100 2.77100 48.41600
H  48.69800 5.83700 45.43700
H  49.56700 4.29000 45.44800
H  51.31100 5.28900 46.16000
H  50.54100 5.37800 47.76300
H  50.39500 6.73500 46.57200
H  45.26000 9.96600 46.64000
H  46.55400 9.01400 47.28700
H  45.35100 9.79900 48.43700
H  40.21900 7.89700 46.54900
H  38.46900 9.35400 50.21100
H  37.52600 7.97900 49.83500
H  37.00500 9.45400 49.05800
Mg 52.71800 23.78800 44.17900
C  50.15900 26.08800 43.47200
C  50.80700 21.32500 42.68900
C  55.45800 21.87200 43.99900
C  54.53400 26.42600 45.49700
N  50.75100 23.77900 43.05700
C  49.95000 24.84900 42.89500
C  48.84800 24.36000 41.93100
C  48.80300 22.83500 42.08200
C  50.22700 22.61900 42.64400
C  47.67500 22.29800 43.07400
C  48.94000 24.77300 40.39800
C  50.33900 25.11900 39.87900
H  50.44300 25.95400 38.64600
N  53.07800 21.77200 43.46000
C  52.18400 20.90600 43.01300
C  52.81300 19.58600 42.98400
C  54.18200 19.78900 43.13600
C  54.30500 21.18000 43.60300
C  52.23600 18.22200 42.61000
C  55.28300 18.72700 42.96900
O  54.99000 17.65700 42.55600
C  56.64500 19.11600 43.01800
N  54.74600 24.22500 44.40800
C  55.68500 23.25900 44.30700
C  57.05400 23.70700 44.79700
C  56.73500 25.07800 45.41300
C  55.26900 25.32300 45.12500
C  57.80100 22.76900 45.81400
C  57.40300 26.32900 44.81100
C  57.86500 27.38400 45.78000
N  52.40800 25.85700 44.48400
C  53.21000 26.72600 45.13400
C  52.56400 27.99600 45.22800
C  51.27800 27.79200 44.70900
C  51.26900 26.48300 44.20700
C  53.11100 29.25300 45.82500
C  49.97600 28.37500 44.47000
O  49.59900 29.48300 44.79900
C  49.24300 27.29000 43.54900
C  48.98000 27.87100 42.18500
O  49.85700 28.00600 41.32100
O  47.72100 28.27200 42.09000
C  47.34800 29.12500 40.98600
H  50.20700 20.51900 42.26300
H  56.42300 21.36400 43.92900
H  55.05800 27.16800 46.10300
H  47.85000 24.68900 42.22000
H  48.67300 22.26400 41.16300
H  47.12900 21.50900 42.55700
H  46.92000 23.01100 43.40500
H  48.25600 21.92000 43.91600
H  48.39400 25.69400 40.19200
H  48.55600 23.90300 39.86600
H  50.80700 24.15600 39.67600
H  50.88500 25.55100 40.71800
H  52.38600 17.90700 41.57700
H  51.19900 18.38200 42.90700
H  52.46400 17.40700 43.29700
H  56.86800 19.37000 44.05400
H  56.86000 19.96900 42.37500
H  57.38700 18.37100 42.73000
H  57.69600 23.71900 43.91600
H  56.76800 25.12600 46.50100
H  57.05300 22.05500 46.15800
H  58.26200 23.30500 46.64400
H  58.54000 22.30000 45.16400
H  56.88300 26.80500 43.98000
H  58.28600 25.99800 44.26400
H  58.87300 27.67300 45.48500
H  57.89900 27.03900 46.81400
H  57.25100 28.26800 45.60700
H  52.42800 29.74100 46.52000
H  53.38700 30.06300 45.14900
H  54.04100 29.16500 46.38600
H  48.31600 27.05100 44.07000
H  48.24700 29.69800 40.75700
H  46.57300 29.86500 41.19000
H  47.14000 28.57300 40.06900

