158

Mg 29.60800 57.54500 41.01900
C  26.65400 55.71100 39.91500
C  31.45100 55.16800 39.58400
C  32.00400 59.65200 41.38300
C  27.20100 60.12100 41.97900
N  29.03400 55.76400 39.70900
C  27.78100 55.19800 39.41700
C  28.00400 53.87200 38.67100
C  29.52700 53.57700 38.89900
C  30.03400 54.90800 39.41600
C  29.83700 52.37100 39.91500
C  27.59600 53.68400 37.13100
C  27.13800 54.95600 36.38900
H  27.50300 55.08700 34.86200
N  31.49600 57.45200 40.52300
C  32.12100 56.33900 40.00700
C  33.48800 56.72800 39.76100
C  33.72500 58.04100 40.35800
C  32.38900 58.44200 40.86100
C  34.44000 55.84900 39.01400
C  35.03300 58.77100 40.43600
O  36.01500 58.17700 40.03200
C  35.22500 60.19800 40.99200
N  29.54700 59.54500 41.61900
C  30.73400 60.22300 41.73400
C  30.55400 61.72100 41.86000
C  29.15600 61.77600 42.33100
C  28.57500 60.40800 42.03700
C  31.69000 62.39900 42.75900
C  28.32500 63.03100 41.81800
C  28.37400 64.12000 42.89700
N  27.42100 57.83700 41.16700
C  26.60800 58.92200 41.61600
C  25.15300 58.62800 41.50000
C  25.21200 57.36400 40.86800
C  26.58500 56.94800 40.69500
C  23.97900 59.37300 41.81600
C  24.28400 56.32400 40.37400
O  23.07600 56.14600 40.51800
C  25.20300 55.23800 39.75500
C  24.78400 53.95100 40.43400
O  24.79500 53.73000 41.64800
O  24.38200 53.18000 39.41900
C  24.14300 51.75700 39.58300
H  32.12900 54.37900 39.25200
H  32.72600 60.45400 41.21700
H  26.54000 60.94400 42.26100
H  27.54500 53.05100 39.22200
H  30.11200 53.39400 37.99800
H  28.94600 51.75700 40.04900
H  30.26100 52.86700 40.78800
H  30.65700 51.80800 39.47000
H  26.63700 53.16700 37.16800
H  28.34000 53.12300 36.56600
H  27.66300 55.77400 36.88200
H  26.06200 54.99600 36.55700
H  35.13000 55.62100 39.82600
H  34.95300 56.42300 38.24200
H  34.15600 54.87300 38.62000
H  34.88000 60.82800 40.17200
H  36.28000 60.39900 41.18200
H  34.73800 60.37900 41.95000
H  30.54300 62.22800 40.89500
H  29.06400 61.62300 43.40700
H  32.07900 61.68600 43.48500
H  31.30100 63.24700 43.32200
H  32.43300 62.91000 42.14500
H  27.26000 62.85600 41.66700
H  28.70100 63.49700 40.90700
H  27.37400 64.07600 43.32900
H  28.78000 65.07000 42.55100
H  29.09000 63.91700 43.69400
H  23.95100 60.34100 41.31500
H  24.10300 59.55700 42.88300
H  23.05500 58.86100 41.54600
H  24.93700 55.13300 38.70300
H  24.42200 51.17000 38.70800
H  23.05400 51.72600 39.56800
H  24.58800 51.37800 40.50400
Mg 36.22400 49.91500 24.61100
C  36.70700 48.32500 27.86000
C  34.81200 52.57700 26.38500
C  35.69100 51.16800 21.69900
C  37.74800 47.10400 23.18300
N  35.97700 50.42600 26.91400
C  36.20000 49.64100 28.00900
C  35.80700 50.34000 29.33000
C  35.14900 51.74300 28.77500
C  35.30000 51.62700 27.27300
C  33.73200 51.99500 29.26900
C  37.08500 50.53800 30.29400
C  36.79800 50.60600 31.79600
H  35.38000 50.35500 32.38900
N  35.46100 51.61600 24.08200
C  34.93300 52.61900 24.88500
C  34.32000 53.62700 24.05900
C  34.61200 53.23900 22.73100
C  35.29900 51.96800 22.77500
C  33.54900 54.80300 24.65400
C  34.41700 54.03300 21.43300
O  34.96200 53.77600 20.32800
C  33.55100 55.29400 21.40000
N  36.79300 49.22400 22.78000
C  36.40000 49.92600 21.73000
C  36.77900 49.23900 20.36400
C  37.70600 48.03200 20.86700
C  37.42300 48.09900 22.36500
C  35.56100 48.89000 19.49000
C  39.25200 48.23000 20.60100
C  40.08300 49.15800 21.48700
N  37.02000 48.12100 25.33300
C  37.52600 47.00100 24.59800
C  37.85500 45.98900 25.49200
C  37.55600 46.46100 26.71700
C  37.01400 47.75900 26.62700
C  38.54900 44.77300 25.13900
C  37.61800 46.03300 28.10100
O  37.98000 44.97000 28.62300
C  36.98600 47.17400 28.89100
C  35.84300 46.74000 29.68100
O  34.63800 47.04200 29.51100
O  36.28200 45.81500 30.59000
C  35.20300 45.42000 31.47400
H  34.34800 53.46800 26.81400
H  35.38600 51.46800 20.69500
H  38.11000 46.18100 22.72500
H  35.07900 49.68500 29.80800
H  35.69000 52.62200 29.12600
H  33.38000 51.20700 29.93600
H  32.99800 52.10200 28.47100
H  33.82800 52.89800 29.87100
H  37.62300 51.47600 30.15900
H  37.78400 49.71100 30.17600
H  37.21700 51.56300 32.11000
H  37.51700 49.88000 32.17500
H  32.63400 54.93500 24.07700
H  34.18400 55.68500 24.57100
H  33.29000 54.60300 25.69300
H  34.06300 55.92700 22.12500
H  32.60600 54.85800 21.72300
H  33.46000 55.71700 20.39900
H  37.35300 50.01100 19.85200
H  37.38400 47.07200 20.46600
H  34.71400 48.75200 20.16100
H  35.65500 47.97800 18.90000
H  35.41000 49.64900 18.72200
H  39.31700 48.57800 19.57000
H  39.65300 47.21600 20.61000
H  39.48500 49.80500 22.12800
H  40.78000 49.73000 20.87300
H  40.69000 48.54200 22.15100
H  39.47700 44.96000 24.59900
H  37.96100 44.27000 24.37100
H  38.75000 44.24700 26.07200
H  37.76500 47.51600 29.57100
H  34.48300 44.79000 30.95200
H  34.51800 46.18400 31.83900
H  35.61000 44.78100 32.25800

