158

Mg 48.43200 35.35700 27.54200
C  46.43000 33.60100 29.90500
C  48.36300 38.03400 29.49400
C  49.94800 37.02600 25.01900
C  47.97700 32.57400 25.42800
N  47.66300 35.65700 29.59500
C  46.93600 34.83100 30.36800
C  46.90600 35.41700 31.78100
C  47.00500 36.93400 31.49000
C  47.70800 36.89700 30.10500
C  45.67900 37.73900 31.47400
C  48.00100 34.68700 32.69800
C  49.07200 35.52500 33.30300
H  48.82000 36.18400 34.71000
N  49.05400 37.29200 27.29000
C  49.01000 38.27900 28.22300
C  49.71500 39.41400 27.78000
C  50.20800 39.12000 26.45900
C  49.65500 37.78300 26.15300
C  49.92600 40.62800 28.70200
C  51.05500 39.89700 25.52000
O  51.22000 39.59500 24.32300
C  51.57400 41.24000 25.84200
N  48.72500 34.94000 25.54800
C  49.35100 35.82300 24.68700
C  49.54800 35.27200 23.33200
C  48.92800 33.83400 23.39800
C  48.59900 33.73200 24.87600
C  48.82500 36.14300 22.26500
C  49.91800 32.61700 22.99300
C  49.41100 31.67500 21.90700
N  47.50000 33.43700 27.57600
C  47.44100 32.42000 26.66700
C  46.66700 31.28600 27.19100
C  46.14100 31.79900 28.45300
C  46.77500 33.07600 28.61200
C  46.30300 29.96700 26.51400
C  45.38400 31.42700 29.58400
O  44.73000 30.42400 29.77200
C  45.37500 32.67400 30.45800
C  45.52400 32.27500 31.86600
O  46.57400 31.81300 32.39600
O  44.47700 32.79600 32.54500
C  44.59800 32.82700 34.01700
H  48.40800 38.86800 30.19700
H  50.51700 37.48600 24.20800
H  47.86000 31.69600 24.78900
H  45.99900 35.03400 32.25000
H  47.65300 37.40900 32.22700
H  45.78100 38.36300 30.58600
H  45.61600 38.50400 32.24800
H  44.75800 37.15600 31.45400
H  48.53400 33.91100 32.14700
H  47.48200 34.27300 33.56200
H  49.42300 36.34600 32.67700
H  49.95700 34.89200 33.23800
H  49.23800 41.41300 28.39000
H  50.91200 41.03300 28.47300
H  49.90400 40.47000 29.78000
H  52.09900 41.32000 26.79400
H  50.84700 42.04300 25.72200
H  52.31300 41.54200 25.10000
H  50.61400 35.12300 23.16300
H  47.96900 33.80100 22.88200
H  48.18400 36.93700 22.64700
H  48.11000 35.60800 21.64000
H  49.64900 36.56500 21.68900
H  50.19100 32.00200 23.85100
H  50.83000 33.02500 22.55700
H  49.90000 31.85900 20.95000
H  48.33000 31.77000 21.80500
H  49.62900 30.65200 22.21600
H  46.87800 29.17500 26.99200
H  46.54300 29.94400 25.45100
H  45.25500 29.85100 26.79000
H  44.43100 33.17600 30.24700
H  43.67300 32.50800 34.49800
H  44.90900 33.81900 34.34400
H  45.28300 32.12500 34.49300
Mg 9.95600 47.60900 25.63700
C  8.09300 47.42900 28.52800
C  12.38200 49.23600 27.29200
C  11.71300 47.48900 22.84600
C  7.17300 46.56700 23.83000
N  10.07100 48.43000 27.67400
C  9.32600 48.11300 28.80000
C  9.88900 48.75700 30.09400
C  10.98400 49.75000 29.45000
C  11.18600 49.12100 28.03700
C  10.73300 51.31300 29.40800
C  10.53200 47.73200 31.01700
C  10.60000 47.98000 32.58300
H  10.12500 46.89800 33.60700
N  11.77100 48.21700 25.16500
C  12.67500 48.76900 26.02000
C  13.97400 48.68200 25.38200
C  13.79100 48.29400 24.04000
C  12.34500 48.02500 23.95000
C  15.30100 48.84900 26.19400
C  14.86700 47.96300 22.99300
O  14.62500 47.47100 21.88800
C  16.27600 48.31800 23.28000
N  9.40800 47.29400 23.55600
C  10.40400 47.18100 22.66600
C  9.84300 46.62200 21.30600
C  8.36900 46.29000 21.61800
C  8.28800 46.76200 23.06600
C  9.92300 47.72000 20.19700
C  8.00000 44.84600 21.41300
C  8.62800 43.86000 22.40100
N  7.93900 47.18700 26.03600
C  6.93300 46.71500 25.25700
C  5.87700 46.40600 26.02600
C  6.26600 46.61300 27.34400
C  7.56000 47.06600 27.30800
C  4.46900 46.02100 25.38200
C  5.92100 46.44500 28.76000
O  4.90000 46.00900 29.30000
C  7.10000 46.91800 29.48500
C  7.55600 45.87000 30.44300
O  8.25700 44.99600 30.01700
O  7.03100 45.95800 31.70300
C  7.39300 44.86800 32.63000
H  13.18400 49.88300 27.65600
H  12.22200 47.37700 21.88600
H  6.38200 46.21400 23.16400
H  9.16200 49.36900 30.62800
H  11.90700 49.74400 30.02900
H  11.37900 51.85600 30.09700
H  9.67200 51.49900 29.57600
H  11.02500 51.73200 28.44600
H  11.53700 47.49200 30.66800
H  9.95500 46.80900 30.96100
H  9.97000 48.81200 32.89800
H  11.62500 48.30200 32.76100
H  15.22300 48.81000 27.28100
H  15.69400 49.83500 25.94600
H  16.01800 48.04700 26.01500
H  16.25100 49.25300 23.84100
H  16.70400 48.55200 22.30600
H  16.75500 47.51900 23.84600
H  10.34000 45.67400 21.10000
H  7.59800 46.75100 21.00100
H  10.73500 48.39200 20.47600
H  8.94900 48.13600 19.94000
H  10.22000 47.19800 19.28700
H  8.45200 44.58500 20.45600
H  6.91400 44.80300 21.33900
H  9.49200 44.29700 22.90200
H  8.89300 42.95400 21.85600
H  7.75100 43.56400 22.97600
H  4.06500 46.86900 24.82900
H  3.78200 45.66900 26.15100
H  4.47900 45.25000 24.61200
H  6.84800 47.77700 30.10700
H  6.52500 44.25900 32.88200
H  7.64700 45.38400 33.55600
H  8.22400 44.18100 32.47200

