158

Mg 23.73300 -5.28400 45.86200
C  25.77100 -2.98000 44.36000
C  21.08900 -4.10900 43.99400
C  21.93500 -8.12000 46.61800
C  26.47700 -6.72100 47.54200
N  23.54300 -3.68300 44.25400
C  24.44100 -2.78400 43.92600
C  23.83200 -1.70900 42.92200
C  22.31100 -1.95900 43.27600
C  22.26400 -3.31900 43.88700
C  21.53200 -1.04000 44.30300
C  24.40400 -2.25300 41.49800
C  25.02300 -1.24400 40.46300
H  24.36000 -1.16800 39.13700
N  21.73900 -5.99600 45.39000
C  20.85600 -5.33500 44.52300
C  19.72700 -6.13500 44.36100
C  19.85500 -7.27500 45.29500
C  21.24200 -7.17200 45.77900
C  18.49000 -5.77100 43.49200
C  18.76600 -8.31200 45.62400
O  17.62300 -8.12300 45.18200
C  19.00500 -9.49100 46.53400
N  24.12600 -7.21900 46.97200
C  23.21000 -8.15100 47.07800
C  23.82400 -9.42500 47.76500
C  25.16800 -8.87400 48.40100
C  25.28300 -7.54400 47.55900
C  22.96200 -10.13000 48.80700
C  26.37300 -9.80700 48.23300
C  27.40400 -9.92400 49.36900
N  25.72800 -4.91800 46.05100
C  26.72300 -5.53800 46.77000
C  27.95500 -4.79100 46.62600
C  27.64600 -3.74000 45.69600
C  26.28500 -3.90900 45.33200
C  29.22400 -5.13700 47.21300
C  28.09600 -2.58100 44.95500
O  29.21500 -2.12300 45.00100
C  27.02500 -2.10100 44.04800
C  26.83400 -0.62100 44.27600
O  26.04400 -0.06900 45.07000
O  27.71800 0.11600 43.47500
C  27.56000 1.52500 43.62800
H  20.26800 -3.72700 43.38300
H  21.31900 -9.01400 46.73900
H  27.31700 -7.07000 48.14600
H  24.24300 -0.72900 43.16400
H  21.74900 -1.99300 42.34300
H  20.73500 -0.61200 43.69500
H  22.20500 -0.28300 44.70500
H  21.12300 -1.53400 45.18400
H  23.61100 -2.87600 41.08400
H  25.24500 -2.94400 41.55700
H  26.03800 -1.61500 40.32000
H  24.90600 -0.29000 40.97800
H  18.18400 -6.57900 42.82800
H  18.66700 -4.99500 42.74700
H  17.70800 -5.30200 44.08800
H  18.15100 -10.16900 46.55100
H  19.37200 -9.08800 47.47800
H  19.79600 -10.02200 46.00300
H  24.24400 -10.14200 47.05900
H  25.15600 -8.54800 49.44100
H  23.01900 -9.66500 49.79100
H  23.12300 -11.20100 48.92500
H  21.89600 -10.13600 48.57600
H  26.92400 -9.36700 47.40200
H  26.04700 -10.84600 48.19100
H  27.29000 -10.80400 50.00200
H  27.21200 -9.11100 50.06900
H  28.41700 -9.80600 48.98400
H  29.94700 -5.44900 46.45900
H  29.18200 -5.95200 47.93500
H  29.65300 -4.31700 47.78900
H  27.38200 -2.22100 43.02500
H  27.74800 1.78400 44.67000
H  26.63300 1.92600 43.21900
H  28.38200 1.98800 43.08100
Mg 33.87800 2.50700 29.35900
C  31.82400 3.34500 32.13100
C  36.44000 2.11500 31.64200
C  35.89100 2.30500 26.77300
C  31.16600 3.29500 27.35700
N  34.05900 2.88100 31.67400
C  33.07600 3.05200 32.55600
C  33.66500 3.03300 33.98100
C  35.23000 2.69600 33.81500
C  35.24700 2.46900 32.26400
C  36.19600 3.83300 34.20700
C  32.80800 2.05300 34.90200
C  32.78400 2.40200 36.43600
H  33.93900 3.15500 37.10700
N  35.86000 2.20900 29.22700
C  36.81000 2.07100 30.26500
C  38.13100 1.92700 29.72800
C  38.04100 2.07200 28.29100
C  36.52800 2.21300 28.06600
C  39.41400 1.73700 30.60600
C  39.11400 1.97800 27.17300
O  38.81500 2.09200 25.99200
C  40.54200 1.61400 27.56900
N  33.56500 2.78100 27.41700
C  34.53500 2.45800 26.50700
C  34.09200 2.61100 25.02900
C  32.50500 2.73500 25.25600
C  32.37700 2.90400 26.76400
C  34.69100 3.85600 24.22200
C  31.66300 1.53300 24.63900
C  30.60500 1.72000 23.55900
N  31.91000 3.22500 29.59500
C  30.93900 3.50300 28.67700
C  29.71100 3.93400 29.28000
C  30.00900 3.94700 30.63300
C  31.37100 3.44700 30.75700
C  28.37700 4.23200 28.59800
C  29.54200 4.23700 31.95300
O  28.44800 4.58800 32.29700
C  30.69300 3.96800 32.92500
C  31.09200 5.22300 33.54800
O  31.55100 6.17600 32.96000
O  30.91900 5.07700 34.89100
C  31.31600 6.10100 35.76500
H  37.29200 2.04600 32.32200
H  36.51000 2.05300 25.91000
H  30.33100 3.48500 26.67900
H  33.60100 4.07400 34.29700
H  35.49600 1.78200 34.34700
H  36.70200 3.37000 35.05500
H  35.61100 4.68400 34.55600
H  36.84000 4.11600 33.37400
H  33.39900 1.13900 34.86200
H  31.78600 1.93300 34.54400
H  32.63500 1.52400 37.06500
H  31.89600 3.03200 36.48000
H  40.36800 2.18600 30.33000
H  39.60100 0.66600 30.68200
H  39.41500 2.11200 31.62900
H  40.62600 0.85700 28.34900
H  40.84500 2.58700 27.95600
H  41.15900 1.44400 26.68600
H  34.38800 1.68300 24.54000
H  32.16800 3.69300 24.86000
H  35.35400 4.35200 24.93200
H  34.01800 4.68900 24.01500
H  35.17700 3.47700 23.32400
H  31.27300 0.90800 25.44200
H  32.34300 0.87700 24.09400
H  29.56600 1.65300 23.88300
H  30.76800 1.00500 22.75300
H  30.77700 2.73200 23.19300
H  28.38700 4.56900 27.56200
H  27.81700 5.03100 29.08500
H  27.79700 3.31300 28.52100
H  30.31700 3.27600 33.67800
H  31.44400 5.69700 36.76900
H  30.44700 6.75900 35.80200
H  32.20500 6.71000 35.60000

