158

Mg 1.76500 -1.76400 44.43800
C  5.14200 -1.15300 43.85800
C  0.97900 0.83800 42.40100
C  -1.38700 -2.92200 44.22000
C  2.75300 -4.64600 46.27600
N  2.86800 -0.48500 43.25800
C  4.24000 -0.48600 43.05700
C  4.68500 0.56900 42.04100
C  3.38600 1.39500 41.85800
C  2.33200 0.53900 42.53200
C  3.41600 2.76500 42.64700
C  5.12600 -0.14800 40.71200
C  6.45700 0.32600 40.15700
H  6.52400 1.14700 38.82700
N  -0.03800 -0.94200 43.59600
C  -0.14600 0.14200 42.79700
C  -1.53900 0.33500 42.44100
C  -2.30700 -0.69800 42.89400
C  -1.25300 -1.62800 43.59600
C  -1.92200 1.59700 41.73500
C  -3.80000 -0.90600 42.79300
O  -4.40400 -0.20900 41.99600
C  -4.50600 -2.00000 43.62000
N  0.82900 -3.62900 45.08700
C  -0.50500 -3.80300 44.94900
C  -0.90100 -5.24100 45.48800
C  0.42300 -5.62700 46.31800
C  1.39000 -4.57000 45.91400
C  -2.17200 -5.39900 46.41500
C  0.97400 -7.03800 46.10600
C  0.95900 -7.86100 47.38300
N  3.55300 -2.77700 45.04800
C  3.84700 -3.88100 45.80400
C  5.22000 -4.01100 45.99300
C  5.83200 -2.99400 45.20400
C  4.76700 -2.23700 44.67400
C  5.97700 -5.09800 46.70900
C  7.08000 -2.47400 44.61600
O  8.23800 -2.87900 44.78300
C  6.70200 -1.09000 43.79800
C  7.24700 0.15400 44.44000
O  6.93000 0.61300 45.51800
O  8.05500 0.80100 43.53900
C  8.54500 2.09300 43.99600
H  0.77200 1.69700 41.76000
H  -2.42200 -3.23800 44.07600
H  3.12300 -5.44000 46.92700
H  5.48300 1.19500 42.44000
H  3.18000 1.51800 40.79500
H  3.37400 3.60500 41.95400
H  4.33400 2.82700 43.23200
H  2.61400 2.81600 43.38200
H  4.29200 -0.10900 40.01100
H  5.28100 -1.17800 41.03300
H  7.30200 -0.35800 40.23200
H  6.85500 1.03500 40.88200
H  -2.85500 1.68800 41.17900
H  -1.15900 1.80900 40.98600
H  -1.70000 2.39700 42.44100
H  -4.42800 -2.99700 43.18600
H  -5.55300 -1.70200 43.68100
H  -4.08800 -1.98600 44.62600
H  -0.98800 -5.87200 44.60300
H  0.17600 -5.36500 47.34700
H  -2.77900 -4.49800 46.33200
H  -1.88400 -5.53200 47.45800
H  -2.68300 -6.25900 45.98200
H  2.00800 -7.07700 45.76400
H  0.36000 -7.66300 45.45700
H  1.66500 -8.66400 47.16700
H  -0.04100 -8.29300 47.39500
H  1.23500 -7.18900 48.19600
H  5.54400 -5.35100 47.67600
H  7.03900 -4.85700 46.75700
H  5.89300 -6.01200 46.12100
H  6.88900 -1.18900 42.72900
H  7.67100 2.74300 44.04200
H  9.22300 2.40700 43.20200
H  8.84300 1.93100 45.03200
Mg -1.59600 34.16900 26.55300
C  -3.43500 32.61600 29.15500
C  0.09900 36.01200 28.94200
C  -0.35800 35.94100 24.13000
C  -3.96100 32.80700 24.31800
N  -1.67900 34.30800 28.81800
C  -2.41800 33.49700 29.62900
C  -2.06500 33.69900 31.05900
C  -0.98900 34.89800 31.00600
C  -0.76900 35.04200 29.51200
C  -1.41500 36.25700 31.66900
C  -1.45000 32.38300 31.66800
C  -2.18900 31.94800 32.92700
H  -1.49200 32.03000 34.27300
N  -0.10500 35.64400 26.50500
C  0.45300 36.23100 27.57100
C  1.45000 37.16600 27.10900
C  1.33100 37.14900 25.69700
C  0.24100 36.29200 25.34900
C  2.31200 38.01400 28.07100
C  2.17800 37.88700 24.71700
O  2.00500 37.91500 23.52300
C  3.28900 38.67000 25.23400
N  -2.07100 34.28900 24.51500
C  -1.31700 35.03400 23.73200
C  -1.70800 34.92100 22.25400
C  -2.87800 33.86100 22.32200
C  -3.05100 33.69600 23.80100
C  -2.21400 36.28900 21.60500
C  -2.55300 32.49900 21.56000
C  -1.46300 31.68800 22.04800
N  -3.18900 32.89000 26.61100
C  -3.97000 32.34500 25.62700
C  -4.79500 31.30200 26.21700
C  -4.67100 31.51300 27.59300
C  -3.64800 32.46100 27.77900
C  -5.87300 30.52400 25.55300
C  -5.26100 31.05600 28.77400
O  -6.11400 30.24700 28.96200
C  -4.45900 31.70000 29.86300
C  -5.46100 32.39100 30.68500
O  -6.23400 33.23700 30.15000
O  -5.43100 32.02100 32.00300
C  -6.36500 32.58100 32.92500
H  0.57800 36.61100 29.71900
H  0.21100 36.38600 23.31100
H  -4.68900 32.29900 23.68200
H  -2.95800 33.96700 31.62400
H  -0.06400 34.66700 31.53400
H  -2.31300 36.59200 31.15100
H  -0.61400 36.99400 31.72900
H  -1.71000 36.12400 32.71000
H  -0.37100 32.53500 31.62700
H  -1.68400 31.52500 31.03700
H  -2.43100 30.88800 32.85100
H  -3.11600 32.52200 32.94800
H  3.34200 37.66300 28.00600
H  2.08200 37.90000 29.13000
H  2.22700 39.07900 27.85700
H  3.10200 39.52600 25.88200
H  3.71400 39.17200 24.36500
H  4.00200 37.94200 25.62100
H  -0.84700 34.53600 21.70900
H  -3.79500 34.35100 21.99500
H  -2.00100 36.25200 20.53700
H  -1.55100 37.09300 21.92200
H  -3.28700 36.45400 21.69900
H  -2.48100 32.68500 20.48800
H  -3.44200 31.87000 21.61900
H  -0.97100 32.17400 22.89000
H  -0.68500 31.47300 21.31500
H  -1.86600 30.72500 22.35900
H  -5.45300 29.84600 24.81000
H  -6.64100 31.17900 25.14200
H  -6.29600 29.85200 26.30100
H  -4.07300 30.82800 30.39100
H  -6.94900 31.73200 33.28100
H  -7.05900 33.37100 32.63900
H  -5.74300 32.92100 33.75400

