158

Mg 40.27000 8.96000 29.22500
C  41.97400 10.10900 31.98600
C  38.38900 6.96800 31.20900
C  38.71700 7.91400 26.47500
C  42.82700 10.51400 27.26900
N  40.08600 8.70000 31.39400
C  40.82300 9.37800 32.34600
C  40.24300 9.14800 33.72100
C  39.37900 7.80300 33.52000
C  39.28300 7.78300 31.93400
C  39.94300 6.55500 34.22200
C  39.46600 10.36000 34.23100
C  39.29400 10.40100 35.81800
H  40.33400 11.12400 36.65000
N  38.63500 7.74100 28.93000
C  38.02800 6.96700 29.83400
C  36.91900 6.23500 29.20100
C  36.88500 6.61600 27.81300
C  38.14500 7.45500 27.64700
C  36.08100 5.20300 29.86500
C  36.06600 6.03600 26.71600
O  36.30600 6.24600 25.53200
C  34.90400 5.23300 27.00700
N  40.79500 9.16900 27.13400
C  39.88700 8.71800 26.23500
C  40.31700 9.09400 24.78600
C  41.66400 9.86400 24.95200
C  41.78900 9.94400 26.54200
C  40.35600 7.93500 23.83100
C  41.68100 11.24500 24.37400
C  40.66900 12.21800 24.92700
N  42.07600 9.96000 29.48000
C  43.04900 10.43900 28.63600
C  44.18300 11.04100 29.29400
C  43.78500 10.95700 30.62200
C  42.47900 10.32200 30.73700
C  45.46200 11.61800 28.71200
C  44.21600 11.21400 31.97400
O  45.14500 11.83900 32.38200
C  43.04700 10.63800 32.92100
C  43.65900 9.67300 33.80700
O  43.73000 8.49000 33.58600
O  44.12500 10.29200 34.90800
C  44.56200 9.44000 36.01800
H  37.80000 6.27400 31.81300
H  38.06300 7.75900 25.61500
H  43.68300 10.93300 26.73700
H  41.06400 9.08600 34.43500
H  38.36800 7.92300 33.90700
H  39.71400 5.73500 33.54200
H  39.33000 6.48400 35.12100
H  41.01700 6.64300 34.38500
H  38.44400 10.06600 33.99100
H  39.78300 11.29200 33.76300
H  39.13600 9.40400 36.22900
H  38.35100 10.93400 35.94200
H  36.36000 4.95600 30.88900
H  36.16200 4.23800 29.36500
H  35.07300 5.60900 29.94800
H  34.25900 5.78100 27.69300
H  35.23600 4.26600 27.38600
H  34.40700 5.10200 26.04500
H  39.53500 9.72900 24.36800
H  42.53600 9.40000 24.49100
H  40.46100 6.98000 24.34600
H  41.20000 7.98700 23.14400
H  39.44300 7.89900 23.23700
H  41.57100 11.21600 23.29000
H  42.69500 11.60700 24.54700
H  41.11400 12.64300 25.82700
H  39.74900 11.70600 25.20600
H  40.46400 13.09300 24.31000
H  45.89800 12.19100 29.53000
H  45.29200 12.35100 27.92300
H  46.11600 10.84600 28.30700
H  42.61600 11.50900 33.41600
H  44.88100 8.43700 35.73600
H  43.93200 9.48800 36.90600
H  45.55300 9.84500 36.22500
Mg -6.01900 25.33300 26.46600
C  -4.29000 26.74200 29.15900
C  -7.49100 23.16600 28.54100
C  -7.26200 23.96000 23.77000
C  -4.01200 27.51200 24.28700
N  -5.80100 24.92000 28.60900
C  -5.15400 25.67400 29.54200
C  -5.61800 25.36400 31.03100
C  -6.39400 24.02500 30.77800
C  -6.63700 24.01500 29.20500
C  -5.62200 22.74000 31.26700
C  -6.51500 26.50200 31.62600
C  -6.27100 27.00000 33.10500
H  -5.69900 25.90600 34.04400
N  -7.28600 23.74600 26.19500
C  -7.86300 23.00400 27.16900
C  -8.64600 21.97900 26.66000
C  -8.54400 22.20300 25.21700
C  -7.65000 23.35000 24.97400
C  -9.35700 20.88400 27.40500
C  -9.24800 21.49400 24.10600
O  -9.05900 21.78600 22.95600
C  -10.38800 20.46800 24.36500
N  -5.59800 25.61800 24.29200
C  -6.35200 24.97600 23.42000
C  -6.10000 25.42400 21.96000
C  -5.02400 26.55300 22.10300
C  -4.78700 26.60300 23.62100
C  -5.51600 24.32300 21.02400
C  -5.53800 28.02500 21.64000
C  -4.62600 28.85000 20.73300
N  -4.55900 26.85000 26.66100
C  -3.87500 27.63600 25.66400
C  -2.98700 28.62700 26.40800
C  -3.14400 28.27000 27.77900
C  -4.08000 27.23600 27.84300
C  -1.89900 29.58000 25.79300
C  -2.56100 28.57700 29.08900
O  -1.77000 29.44600 29.46500
C  -3.37800 27.52900 30.11700
C  -2.43600 26.69500 30.79700
O  -1.85400 25.77000 30.22300
O  -2.32300 27.17300 32.10600
C  -1.28200 26.57100 33.00300
H  -8.07900 22.52600 29.20200
H  -7.68800 23.44400 22.90700
H  -3.47000 28.24000 23.68000
H  -4.75800 25.13700 31.66200
H  -7.33500 23.91500 31.31600
H  -6.34300 21.92900 31.37600
H  -4.99900 22.79300 32.16000
H  -4.90100 22.51700 30.48100
H  -7.57700 26.27700 31.53600
H  -6.30600 27.35300 30.97800
H  -7.20900 27.28600 33.58000
H  -5.47800 27.74200 33.20500
H  -9.20100 19.86700 27.04500
H  -10.43000 21.03300 27.28400
H  -9.09800 20.87400 28.46400
H  -10.78700 20.07100 23.43300
H  -11.08000 20.92900 25.06900
H  -9.81100 19.65000 24.79700
H  -7.07000 25.85100 21.70400
H  -4.02900 26.35900 21.70300
H  -6.22700 24.25100 20.20200
H  -5.54700 23.31600 21.44000
H  -4.48700 24.48000 20.69900
H  -5.75700 28.66500 22.49400
H  -6.42100 27.80900 21.03800
H  -3.59500 28.52100 20.60500
H  -4.54700 29.73800 21.36000
H  -5.06600 29.03100 19.75200
H  -2.22800 30.61800 25.74700
H  -1.74600 29.27800 24.75700
H  -0.99600 29.53600 26.40200
H  -3.87000 28.08400 30.91600
H  -0.67600 27.31100 33.52500
H  -0.64700 25.88600 32.43900
H  -1.67300 26.06600 33.88600

