158

Mg 2.02800 -1.82700 44.50700
C  5.32000 -1.06000 43.75700
C  1.06000 0.83500 42.42700
C  -1.14900 -2.73300 44.96300
C  3.04500 -4.96400 45.72000
N  3.09400 -0.32100 43.17800
C  4.43400 -0.21800 43.04600
C  4.85100 0.86800 42.00600
C  3.47200 1.47900 41.61900
C  2.45500 0.70300 42.49100
C  3.29400 3.03100 41.60900
C  5.67500 0.39700 40.75500
C  6.67400 1.47700 40.28400
H  6.30000 2.17300 39.01800
N  0.19100 -0.92400 43.96200
C  -0.03300 0.11400 43.10700
C  -1.48600 0.40800 43.02900
C  -2.11900 -0.62200 43.80100
C  -0.99300 -1.47900 44.30500
C  -1.91600 1.58400 42.26400
C  -3.64400 -0.78400 43.91600
O  -4.36200 -0.06600 43.29900
C  -4.26800 -1.86900 44.69400
N  1.07200 -3.68100 45.10600
C  -0.23900 -3.71800 45.38800
C  -0.70100 -5.07300 45.96800
C  0.70900 -5.77500 46.16200
C  1.66600 -4.82800 45.52800
C  -1.56200 -5.10700 47.23900
C  0.84100 -7.24100 45.53500
C  1.19000 -8.35500 46.51800
N  3.78500 -2.86300 44.80300
C  4.11100 -4.06500 45.38800
C  5.54500 -4.13400 45.56500
C  6.02900 -2.97000 44.94200
C  4.92700 -2.26800 44.45300
C  6.34300 -5.25100 46.09100
C  7.28800 -2.25700 44.60900
O  8.40100 -2.58100 44.97400
C  6.86900 -0.96500 43.76000
C  7.38700 0.17600 44.46200
O  7.00000 0.59700 45.53600
O  8.36400 0.74900 43.70300
C  9.07800 1.83100 44.38400
H  0.69700 1.62900 41.77100
H  -2.19200 -3.01700 45.11900
H  3.39600 -5.85100 46.25100
H  5.49600 1.54700 42.56400
H  3.27000 1.34200 40.55700
H  2.74300 3.46200 42.44500
H  3.09500 3.37800 40.59500
H  4.29200 3.37900 41.87400
H  5.03500 0.23400 39.88800
H  6.16200 -0.54600 41.00300
H  7.61500 0.94600 40.14000
H  6.73100 2.22600 41.07400
H  -2.06400 1.33600 41.21400
H  -1.23200 2.43100 42.32400
H  -2.88900 1.85000 42.67700
H  -5.35700 -1.84700 44.75100
H  -3.80700 -1.76900 45.67700
H  -3.97700 -2.80400 44.21600
H  -1.33100 -5.48200 45.17800
H  0.92100 -5.82200 47.23000
H  -1.75000 -4.08600 47.57000
H  -1.04700 -5.64700 48.03300
H  -2.58800 -5.35200 46.96200
H  1.63800 -7.17000 44.79500
H  0.01500 -7.44200 44.85200
H  1.44100 -7.98400 47.51200
H  2.13200 -8.76100 46.15000
H  0.40600 -9.11000 46.56700
H  7.40200 -5.04000 46.24200
H  6.23700 -6.09800 45.41300
H  6.04700 -5.36000 47.13400
H  7.40700 -1.10600 42.82300
H  8.39800 2.50600 44.90300
H  9.55200 2.46300 43.63300
H  9.77400 1.44000 45.12700
Mg 35.19400 48.65800 25.92800
C  35.49100 46.68500 28.86500
C  33.87400 51.07500 27.80700
C  34.87100 50.26900 23.15200
C  35.90400 45.62400 24.05700
N  34.59100 48.72200 27.96600
C  34.95100 47.91100 29.03000
C  34.65800 48.59600 30.38600
C  33.78100 49.83200 29.97500
C  34.15100 49.92100 28.46800
C  32.24800 49.72400 30.31300
C  36.02900 49.00700 30.99900
C  36.35400 48.41800 32.40900
H  36.17400 49.37200 33.61500
N  34.56600 50.51100 25.49500
C  34.02900 51.37600 26.44300
C  33.81800 52.63600 25.72700
C  34.21500 52.40700 24.41300
C  34.57400 51.00800 24.32300
C  33.31600 53.80600 26.48200
C  34.26800 53.41400 23.26400
O  34.50900 53.06300 22.14200
C  34.03200 54.89100 23.62000
N  35.26900 48.01700 23.89700
C  35.11700 48.91300 22.91600
C  35.11800 48.27600 21.48300
C  35.75800 46.88900 21.85700
C  35.58100 46.81800 23.37400
C  33.64000 48.21700 20.87000
C  37.24800 46.67900 21.45600
C  37.50700 45.33400 20.66500
N  35.61200 46.51900 26.35700
C  35.89500 45.47700 25.47800
C  36.11700 44.24700 26.28100
C  36.11000 44.72300 27.62300
C  35.66600 46.09800 27.57700
C  36.39200 42.86600 25.78300
C  36.23300 44.38300 29.02100
O  36.52400 43.34400 29.57100
C  35.90100 45.65000 29.89800
C  34.71700 45.16500 30.71600
O  33.53600 44.97400 30.32100
O  35.17000 44.97100 32.01400
C  34.08300 44.82600 33.07700
H  33.49300 51.83000 28.49700
H  34.81900 50.78000 22.18900
H  36.24100 44.78700 23.44200
H  34.13000 47.88900 31.02600
H  33.99800 50.80600 30.41300
H  31.62700 50.16600 29.53400
H  32.06500 50.15500 31.29700
H  32.02900 48.65800 30.36700
H  36.18400 50.08500 30.93900
H  36.88000 48.58400 30.46400
H  37.37000 48.03000 32.48300
H  35.68200 47.59300 32.64400
H  34.07900 54.57900 26.57400
H  32.81800 53.68600 27.44400
H  32.49700 54.25900 25.92500
H  34.52900 55.27400 24.51100
H  32.97300 54.95500 23.87300
H  34.12500 55.48300 22.70900
H  35.76400 48.80800 20.78500
H  35.10500 46.06600 21.56800
H  33.35800 47.21000 20.56500
H  33.46200 48.87000 20.01600
H  32.89400 48.61700 21.55700
H  37.87300 46.57800 22.34300
H  37.61300 47.57900 20.96200
H  38.47200 45.55800 20.21100
H  36.85800 45.21100 19.79700
H  37.48800 44.49000 21.35400
H  36.12100 42.81200 24.72900
H  35.84900 42.01600 26.19600
H  37.46800 42.69300 25.76500
H  36.75300 45.88700 30.53500
H  33.92500 43.77100 33.30200
H  33.12100 45.21200 32.73800
H  34.48700 45.31200 33.96500

