158

Mg 49.22000 47.06500 42.93200
C  45.99500 48.07600 42.14700
C  48.93800 44.31700 40.83200
C  52.51000 46.51000 43.11000
C  49.67500 50.58200 43.68500
N  47.59400 46.33100 41.58700
C  46.40700 46.92400 41.41300
C  45.72500 46.31200 40.22700
C  46.60600 45.04200 39.87500
C  47.76900 45.22100 40.87800
C  45.80800 43.75600 39.82100
C  45.50500 47.29500 39.09000
C  44.03600 47.31800 38.61400
H  43.71500 46.93800 37.20800
N  50.43700 45.44000 42.33000
C  50.15200 44.41300 41.54200
C  51.23800 43.47400 41.57600
C  52.30000 44.04700 42.28700
C  51.77800 45.41000 42.62500
C  51.18900 42.05800 40.96000
C  53.73700 43.31800 42.48900
O  53.96700 42.23900 41.96300
C  54.79900 44.05800 43.25600
N  50.79800 48.40300 43.17800
C  52.09300 47.86700 43.28400
C  53.14400 48.86200 43.76600
C  52.22400 50.18900 43.78100
C  50.80000 49.69800 43.63400
C  53.82500 48.57700 45.09300
C  52.69300 51.22900 42.78700
C  53.57000 52.44200 43.29500
N  48.03900 48.87800 43.33500
C  48.35600 50.17900 43.54200
C  47.11300 50.99400 43.67600
C  46.17000 50.13800 43.26400
C  46.79000 48.93200 42.93500
C  47.09600 52.44900 44.15200
C  44.73700 50.05500 43.00100
O  43.77700 50.78000 43.18900
C  44.60200 48.72900 42.16600
C  43.46400 47.86900 42.71500
O  43.23800 47.53300 43.89500
O  42.87100 47.32800 41.66300
C  41.93500 46.21100 41.76100
H  48.74100 43.48800 40.15000
H  53.54500 46.26400 43.35600
H  49.86300 51.59500 44.04600
H  44.80000 45.94200 40.67000
H  47.06000 45.15300 38.89000
H  44.73600 43.85600 39.99400
H  46.06000 43.10900 40.66100
H  46.05800 43.37700 38.83000
H  46.15200 47.05800 38.24500
H  45.72500 48.29900 39.45300
H  43.53800 48.27800 38.75000
H  43.46300 46.63200 39.23800
H  52.03200 41.87500 40.29500
H  50.26200 41.87200 40.41700
H  51.32000 41.35700 41.78500
H  55.45600 43.30900 43.69800
H  54.32000 44.53800 44.10800
H  55.21900 44.85100 42.63700
H  53.94100 49.06800 43.05200
H  52.32800 50.72200 44.72600
H  53.03700 48.76100 45.82400
H  54.67400 49.23800 45.26800
H  54.06700 47.51800 45.17400
H  51.73100 51.67500 42.53500
H  52.98800 50.85600 41.80700
H  53.29000 52.69800 44.31700
H  53.58900 53.34400 42.68300
H  54.54800 51.96200 43.30300
H  48.10700 52.74300 44.43600
H  46.40600 52.43100 44.99600
H  46.61200 52.96800 43.32500
H  44.27100 49.02800 41.17100
H  40.93600 46.35100 41.34900
H  41.96000 45.89000 42.80200
H  42.31600 45.35200 41.20800
Mg -4.93700 25.18200 26.25600
C  -3.58700 26.44300 29.21400
C  -7.01900 23.23600 28.09600
C  -5.79300 23.61200 23.39700
C  -2.44900 27.06400 24.43000
N  -5.25800 24.88000 28.36900
C  -4.64900 25.50500 29.38400
C  -5.24400 25.19100 30.70600
C  -6.24000 24.05400 30.41500
C  -6.19100 24.07100 28.86000
C  -5.78000 22.62000 30.93700
C  -5.88100 26.41300 31.40400
C  -5.42100 26.78500 32.83300
H  -4.79600 25.68100 33.70000
N  -6.21700 23.69400 25.84600
C  -7.04000 23.06700 26.73100
C  -8.02800 22.27900 25.95800
C  -7.70400 22.39000 24.58500
C  -6.48500 23.29600 24.54700
C  -9.01700 21.52400 26.78700
C  -8.37200 21.73800 23.39000
O  -7.87600 21.69000 22.23600
C  -9.75200 21.14700 23.57000
N  -4.18500 25.33600 24.17100
C  -4.71800 24.54600 23.20700
C  -3.82700 24.56300 21.96900
C  -2.81100 25.75200 22.20600
C  -3.11300 26.05200 23.73100
C  -3.17600 23.15200 21.54900
C  -3.07800 27.05200 21.36600
C  -1.93500 28.02100 20.96800
N  -3.22100 26.52300 26.64300
C  -2.43700 27.27800 25.81800
C  -1.68000 28.14500 26.61800
C  -2.00200 27.89000 28.01100
C  -3.03600 26.91600 27.94600
C  -0.65800 29.15900 26.10300
C  -1.74800 28.17200 29.45900
O  -1.02400 28.93100 30.02800
C  -2.72300 27.19300 30.25300
C  -1.79000 26.22300 30.87800
O  -1.19300 25.35200 30.19600
O  -1.55800 26.47700 32.19700
C  -0.48700 25.76700 32.95000
H  -7.59400 22.57200 28.74500
H  -6.10700 23.14200 22.46300
H  -1.81100 27.70000 23.81300
H  -4.38100 24.88500 31.29800
H  -7.27100 24.27600 30.69100
H  -6.16700 22.52600 31.95200
H  -4.70500 22.53500 31.09600
H  -6.13700 21.75800 30.37400
H  -6.95400 26.25900 31.51900
H  -5.63500 27.31900 30.85100
H  -6.35100 27.08900 33.31400
H  -4.72900 27.62600 32.78300
H  -8.56900 20.86700 27.53300
H  -9.65200 20.82400 26.24400
H  -9.69300 22.21400 27.29100
H  -10.25400 21.17500 22.60300
H  -10.32300 21.73700 24.28700
H  -9.60700 20.13200 23.93900
H  -4.50400 24.86000 21.16800
H  -1.79000 25.40500 22.04600
H  -2.12200 23.17700 21.27200
H  -3.83100 22.81200 20.74700
H  -3.30700 22.45700 22.37800
H  -3.73200 27.70900 21.94000
H  -3.68500 26.69100 20.53600
H  -2.10000 28.96500 21.48700
H  -1.85100 28.13100 19.88700
H  -0.96800 27.64500 21.30200
H  -1.21400 30.08800 26.23100
H  -0.34900 28.88700 25.09300
H  0.23100 29.28000 26.72200
H  -3.28200 27.59100 31.10100
H  0.00700 25.14000 32.20800
H  -1.08700 25.12700 33.59600
H  0.20300 26.41700 33.48800

