158

Mg 34.93300 3.33300 30.41600
C  32.62500 4.44600 32.85200
C  37.31400 3.56700 32.61000
C  37.17900 2.92100 27.76100
C  32.36500 3.58000 28.01100
N  34.90200 4.04900 32.37600
C  33.91300 4.22400 33.34100
C  34.28700 4.26900 34.78300
C  35.82200 4.12800 34.63900
C  36.01600 3.91700 33.09900
C  36.66900 5.28100 35.37700
C  33.61800 3.04400 35.48600
C  33.10500 3.38800 36.89100
H  33.74500 4.55200 37.59100
N  36.98100 3.06100 30.21400
C  37.76700 3.30500 31.30600
C  39.09000 2.97200 30.88500
C  39.09900 2.65100 29.48400
C  37.73600 2.86900 29.06400
C  40.26100 3.15700 31.84400
C  40.30800 2.29100 28.55800
O  40.24700 2.14700 27.33700
C  41.68400 1.98200 29.06800
N  34.72000 3.24300 28.17100
C  35.85000 3.05400 27.37500
C  35.35500 3.02500 25.88600
C  33.84600 3.20300 25.96600
C  33.60000 3.26800 27.43600
C  36.04200 3.99600 24.81000
C  33.09500 2.08700 25.13800
C  32.66800 0.70200 25.74100
N  32.87300 3.89300 30.41800
C  31.93100 3.84900 29.30700
C  30.62100 4.29800 29.81300
C  30.83500 4.44100 31.23000
C  32.24300 4.23100 31.52400
C  29.37200 4.54900 28.99500
C  30.22100 4.82600 32.42600
O  29.07500 5.12500 32.68900
C  31.37000 4.73300 33.51800
C  31.26900 5.99600 34.26400
O  31.99800 6.95300 34.19500
O  30.35400 5.78700 35.22900
C  30.34800 6.82000 36.21600
H  38.10900 3.60500 33.35700
H  37.95300 2.89100 26.99100
H  31.53300 3.77100 27.32900
H  34.04300 5.27200 35.13300
H  36.13000 3.15400 35.02000
H  36.90900 6.01000 34.60300
H  37.62200 4.84700 35.67700
H  36.11100 5.64000 36.24200
H  34.27300 2.20200 35.71100
H  32.90900 2.64600 34.76000
H  33.28500 2.46400 37.44000
H  32.02400 3.50800 36.96400
H  41.22800 2.74400 31.55700
H  39.98400 2.67900 32.78300
H  40.49200 4.21000 32.00300
H  41.60700 1.21000 29.83400
H  42.04300 2.95000 29.41800
H  42.23100 1.51000 28.25200
H  35.69300 2.03000 25.59400
H  33.59200 4.17100 25.53400
H  36.78300 3.41300 24.26400
H  36.53100 4.84300 25.28900
H  35.25400 4.50200 24.25100
H  33.54500 1.92700 24.15800
H  32.17700 2.61300 24.87600
H  31.76800 0.98800 26.28500
H  33.41600 0.43900 26.49000
H  32.63200 -0.07200 24.97400
H  29.54500 5.36000 28.28800
H  28.58100 4.76700 29.71300
H  29.15800 3.62100 28.46500
H  31.17200 3.90200 34.19500
H  29.69100 7.64200 35.93200
H  31.33100 7.23500 36.44000
H  29.97600 6.37900 37.14100
Mg 40.89100 9.34400 29.74600
C  42.59300 10.58700 32.74200
C  38.63200 8.06800 31.83200
C  39.32300 8.43200 27.12000
C  43.73400 10.06900 27.91600
N  40.61900 9.45700 32.16200
C  41.40300 9.97900 33.11700
C  40.79400 9.87700 34.46100
C  39.71000 8.77700 34.18300
C  39.64800 8.74600 32.60800
C  39.85700 7.44100 34.98400
C  40.28900 11.25200 35.04500
C  40.05300 11.23900 36.57800
H  40.67600 12.28400 37.55800
N  39.22300 8.46000 29.47400
C  38.36400 8.07300 30.46800
C  37.19000 7.38200 29.89600
C  37.41700 7.52900 28.46300
C  38.68400 8.13800 28.30400
C  35.99900 6.83300 30.66500
C  36.49500 7.03800 27.34300
O  36.79200 7.02800 26.17600
C  35.08900 6.65100 27.65500
N  41.44200 9.30300 27.75100
C  40.55900 9.01400 26.82900
C  41.21000 8.94800 25.40400
C  42.64100 9.47300 25.71000
C  42.66200 9.60000 27.18000
C  41.10500 7.70400 24.52200
C  43.06700 10.76300 24.96100
C  42.35800 12.05100 25.32600
N  42.78500 10.15400 30.13800
C  43.72100 10.57500 29.26400
C  44.67600 11.35500 29.92000
C  44.28500 11.40000 31.27600
C  43.09000 10.61400 31.37400
C  45.84800 11.92000 29.32000
C  44.71900 11.85800 32.59900
O  45.64700 12.51000 33.07300
C  43.60200 11.44800 33.52700
C  44.07800 10.69100 34.77400
O  44.49600 9.54600 34.65100
O  44.16800 11.38700 35.88100
C  44.56100 10.80500 37.14700
H  37.91600 7.45400 32.38200
H  38.75800 8.08300 26.25400
H  44.65000 10.26900 27.35600
H  41.48700 9.45700 35.19000
H  38.75900 9.23400 34.45600
H  39.94400 6.58400 34.31600
H  38.95100 7.46000 35.58900
H  40.77100 7.68600 35.52500
H  39.43700 11.58400 34.45100
H  41.01000 12.04800 34.86300
H  40.42600 10.32100 37.03100
H  38.99300 11.16800 36.82000
H  36.07400 7.15600 31.70300
H  35.88800 5.75100 30.58700
H  35.03900 7.19500 30.29800
H  34.36700 7.46000 27.76700
H  35.05700 5.86900 28.41400
H  34.83500 6.14400 26.72400
H  40.82100 9.78500 24.82500
H  43.45400 8.77000 25.52500
H  40.54700 6.88100 24.96800
H  42.08700 7.26900 24.33700
H  40.62500 7.97900 23.58300
H  42.96100 10.65200 23.88100
H  44.12800 10.81400 25.20100
H  43.18900 12.72700 25.52300
H  41.79500 11.92600 26.25100
H  41.74300 12.44700 24.51800
H  45.91300 11.94200 28.23300
H  46.73400 11.40400 29.69100
H  45.94200 12.97600 29.57500
H  43.20400 12.43800 33.75100
H  44.19500 11.57700 37.82500
H  45.63400 10.68900 37.30100
H  43.93600 9.91500 37.21500

