158

Mg 41.46900 9.32600 29.83500
C  43.39200 10.55300 32.47500
C  39.34600 7.94600 32.18600
C  39.58100 8.24700 27.25200
C  43.90700 10.28100 27.59700
N  41.48400 9.09200 32.14100
C  42.27200 9.86500 32.94100
C  41.82400 9.81900 34.36200
C  40.65000 8.77400 34.28000
C  40.43200 8.57900 32.81300
C  41.04600 7.40100 34.86500
C  41.50500 11.21200 34.92400
C  40.39100 11.36800 36.03000
H  40.92000 11.89000 37.34300
N  39.73800 8.18100 29.74600
C  39.00700 7.74600 30.85100
C  37.83000 6.98100 30.34700
C  37.90100 7.11800 28.91900
C  39.11600 7.82100 28.60200
C  36.84600 6.27400 31.29500
C  36.83200 6.72500 27.89800
O  36.90100 6.90200 26.65000
C  35.66000 6.08900 28.49100
N  41.65000 9.25600 27.75900
C  40.66500 9.04000 26.92600
C  41.15300 9.11700 25.44900
C  42.40600 10.01400 25.52500
C  42.71700 9.78800 27.02900
C  41.50300 7.77200 24.85200
C  42.14100 11.45800 25.10900
C  41.19600 12.34400 25.89200
N  43.34000 10.10600 29.93800
C  44.21600 10.52400 28.96200
C  45.40200 11.04900 29.51600
C  45.09200 11.12300 30.89400
C  43.80100 10.58000 31.08800
C  46.51800 11.73400 28.83400
C  45.53000 11.59100 32.15200
O  46.55200 12.15100 32.54600
C  44.46900 11.21900 33.21200
C  45.16700 10.31200 34.19100
O  45.40000 9.10800 34.05700
O  45.58500 11.11600 35.26600
C  46.32300 10.41100 36.27300
H  38.62900 7.62300 32.94500
H  39.05600 7.79900 26.40600
H  44.71600 10.65900 26.96900
H  42.63600 9.47700 35.00300
H  39.64000 9.10500 34.52100
H  40.20300 6.80000 35.20600
H  41.77900 7.52500 35.66200
H  41.45900 6.79500 34.05800
H  41.16000 11.85900 34.11800
H  42.45200 11.63200 35.26600
H  39.91000 10.42200 36.27800
H  39.63200 12.07800 35.70300
H  35.83800 6.68900 31.26000
H  37.18800 6.37900 32.32400
H  36.86500 5.24400 30.94100
H  35.97500 5.17800 29.00100
H  34.91600 5.85800 27.72800
H  35.11600 6.76700 29.14900
H  40.43200 9.62300 24.80700
H  43.26800 9.60800 24.99600
H  42.47600 7.81100 24.36100
H  40.77700 7.52700 24.07700
H  41.54700 6.96100 25.57900
H  41.74500 11.31800 24.10300
H  43.08200 11.99500 24.99200
H  40.75100 11.85700 26.75900
H  40.38900 12.64500 25.22400
H  41.59500 13.31000 26.20100
H  46.89800 12.50300 29.50700
H  46.52600 12.04900 27.79100
H  47.21800 10.89900 28.82400
H  44.13700 12.11300 33.74000
H  47.31600 10.11200 35.93600
H  45.79800 9.54100 36.66900
H  46.52200 11.06600 37.12100
Mg 26.47900 50.46000 26.47200
C  24.47700 51.75000 29.20200
C  28.73300 49.42400 28.79400
C  28.23900 49.23900 23.92200
C  24.27600 51.93400 24.26200
N  26.50800 50.58900 28.76900
C  25.59500 51.09700 29.67700
C  26.00200 50.81400 31.14000
C  27.47900 50.23900 30.91300
C  27.58100 50.00500 29.38300
C  28.58200 51.18700 31.51000
C  25.08100 49.79500 31.85100
C  24.60700 50.33700 33.22500
H  25.64800 50.26100 34.32000
N  28.23600 49.52500 26.34100
C  29.05700 49.13700 27.42600
C  30.25900 48.54400 26.90300
C  30.02300 48.29400 25.48000
C  28.78200 49.03000 25.14700
C  31.46200 48.06500 27.75500
C  30.87100 47.53700 24.41600
O  30.53800 47.40200 23.24200
C  32.09100 46.95900 24.86300
N  26.28900 50.61100 24.31100
C  27.11000 49.93000 23.47100
C  26.68500 50.02000 21.99900
C  25.32500 50.84900 22.12300
C  25.28600 51.21600 23.62100
C  27.74000 50.55600 20.99300
C  24.00200 50.06700 21.79900
C  22.80400 50.95100 21.25000
N  24.78000 51.52500 26.57100
C  24.00300 52.08100 25.60700
C  22.85000 52.74700 26.18100
C  23.03700 52.65800 27.54100
C  24.24100 51.92000 27.75400
C  21.88900 53.58100 25.31200
C  22.41400 53.03600 28.86700
O  21.33300 53.58800 29.13000
C  23.41300 52.45200 30.00400
C  23.81600 53.64700 30.88700
O  24.56900 54.56900 30.57800
O  23.24300 53.41600 32.11100
C  23.66900 54.27700 33.19800
H  29.47400 49.09100 29.52300
H  28.71000 48.68500 23.10700
H  23.57000 52.40900 23.57800
H  26.01900 51.67500 31.80800
H  27.59700 49.26400 31.38400
H  29.19500 51.78500 30.83600
H  29.36000 50.63400 32.03600
H  28.05900 51.84300 32.20600
H  25.65400 48.90700 32.11900
H  24.28400 49.46900 31.18200
H  23.71600 49.82700 33.59000
H  24.43000 51.41200 33.25400
H  32.38000 48.18900 27.18100
H  31.35900 47.03500 28.09700
H  31.60000 48.70600 28.62600
H  32.74600 47.83100 24.87100
H  32.38500 46.30200 24.04400
H  32.04500 46.44700 25.82400
H  26.45300 48.96800 21.83400
H  25.40900 51.75400 21.52100
H  27.37400 51.27200 20.25800
H  28.12200 49.74500 20.37300
H  28.54900 51.00000 21.57200
H  23.63800 49.50100 22.65600
H  24.19600 49.16900 21.21300
H  22.50600 50.55600 20.27900
H  23.12300 51.99100 21.17800
H  21.93100 50.90900 21.90200
H  21.29800 53.08500 24.54200
H  22.54100 54.31400 24.83600
H  21.26700 54.08600 26.05100
H  22.92400 51.68700 30.60800
H  23.55300 55.31000 32.87200
H  24.68200 53.98600 33.47500
H  23.02400 54.24300 34.07600

