158

Mg -0.60000 7.04200 26.52200
C  0.59700 8.97700 29.36600
C  -0.74900 4.38300 28.63300
C  -1.09500 5.29600 23.79400
C  0.06000 9.87000 24.55500
N  0.00300 6.72700 28.78900
C  0.31800 7.66300 29.74900
C  0.13900 7.02500 31.14800
C  -0.17900 5.52700 30.87300
C  -0.36200 5.52100 29.34700
C  0.80100 4.46000 31.52400
C  -1.03200 7.70800 31.91800
C  -0.76400 8.33900 33.25600
H  0.27000 7.74000 34.25100
N  -0.83100 5.05000 26.22900
C  -0.91900 4.13500 27.17000
C  -1.38400 2.84800 26.57400
C  -1.35500 3.06800 25.13500
C  -1.05400 4.54700 24.99900
C  -1.79200 1.62800 27.41200
C  -1.67900 2.09700 24.04000
O  -1.63900 2.32400 22.81800
C  -2.04300 0.60100 24.22400
N  -0.39100 7.45400 24.48000
C  -0.81900 6.57200 23.50200
C  -0.62700 7.11300 22.08500
C  -0.67200 8.67000 22.38600
C  -0.27900 8.72000 23.87900
C  0.75600 6.67400 21.45900
C  -2.15300 9.32000 22.23700
C  -2.31400 10.07600 20.95000
N  0.15600 8.95000 26.82400
C  0.32000 10.01700 25.92800
C  0.70500 11.23200 26.59200
C  0.96500 10.87600 27.90100
C  0.51900 9.52700 28.00300
C  0.89300 12.62400 26.00800
C  1.26300 11.39900 29.22200
O  1.71200 12.46900 29.63700
C  0.96600 10.19800 30.23900
C  2.19000 9.95700 31.05800
O  3.25200 9.47800 30.67300
O  2.09700 10.47100 32.25300
C  3.30200 10.39700 33.07300
H  -0.80900 3.48000 29.24400
H  -1.22600 4.64200 22.92900
H  0.06400 10.79800 23.97900
H  1.05600 7.17000 31.71900
H  -1.15200 5.34500 31.32900
H  0.31300 3.89300 32.31700
H  1.75000 4.88900 31.84500
H  1.15800 3.75900 30.77000
H  -1.96900 7.16800 32.05400
H  -1.21700 8.55300 31.25500
H  -1.68500 8.30500 33.83900
H  -0.46100 9.36800 33.06300
H  -1.35500 1.55200 28.40800
H  -1.28200 0.75500 27.00400
H  -2.86600 1.65900 27.59300
H  -2.72200 0.32900 25.03300
H  -1.15700 0.06100 24.56000
H  -2.35200 0.29300 23.22500
H  -1.57000 6.95000 21.56300
H  -0.00800 9.40700 21.93300
H  0.98300 5.82100 22.09900
H  1.59200 7.37100 21.40300
H  0.60900 6.35400 20.42700
H  -2.41900 10.00400 23.04300
H  -2.86800 8.51300 22.07100
H  -1.56900 9.70000 20.24800
H  -2.15800 11.12300 21.20800
H  -3.36900 10.04200 20.67600
H  -0.07100 12.89000 25.57200
H  1.56000 12.52800 25.15200
H  1.25600 13.38800 26.69500
H  0.21500 10.54000 30.95100
H  2.88300 10.50400 34.07300
H  4.06900 11.11300 32.77700
H  3.79000 9.42200 33.06200
Mg -2.00500 33.50300 27.37400
C  -3.74800 31.49800 29.48000
C  -0.79400 35.29300 30.15900
C  -0.29800 35.77300 25.34500
C  -3.32900 32.16500 24.63700
N  -2.45000 33.56600 29.59600
C  -3.09800 32.54600 30.20000
C  -2.93400 32.65800 31.75200
C  -1.83500 33.72200 31.98600
C  -1.76300 34.32800 30.54600
C  -2.18000 35.02000 32.87900
C  -2.64900 31.27800 32.50900
C  -3.41000 30.96200 33.75500
H  -2.58300 30.76100 35.02500
N  -0.78400 35.34700 27.75600
C  -0.37300 35.84500 28.91500
C  0.52800 36.93400 28.70600
C  0.74600 37.10400 27.30700
C  -0.12400 36.07900 26.73100
C  1.05700 37.83400 29.82500
C  1.70400 38.13300 26.60700
O  1.84000 38.14700 25.41000
C  2.56300 39.01800 27.37400
N  -1.93500 33.99800 25.34000
C  -1.16300 34.89200 24.69900
C  -1.16600 34.77800 23.16100
C  -1.97000 33.42600 22.96100
C  -2.44700 33.21000 24.39200
C  -1.83700 35.96000 22.47700
C  -1.11800 32.24400 22.43200
C  -1.46100 31.77800 21.05300
N  -3.39600 32.15500 27.07100
C  -3.81400 31.60100 25.89900
C  -4.78700 30.55900 26.15900
C  -4.78700 30.40500 27.58300
C  -3.90000 31.40500 28.09500
C  -5.44200 29.76300 25.13700
C  -5.26300 29.68400 28.70600
O  -6.05200 28.71100 28.70500
C  -4.66400 30.35200 29.94400
C  -5.74800 30.78300 30.90700
O  -6.51400 31.79200 30.87500
O  -5.81100 29.73000 31.81200
C  -6.94300 29.62400 32.73200
H  -0.26700 35.70100 31.02300
H  0.17200 36.51500 24.69600
H  -3.51800 31.52900 23.76900
H  -3.87500 33.07000 32.11800
H  -0.94500 33.23200 32.37800
H  -2.61200 35.83700 32.30200
H  -1.29100 35.37700 33.39700
H  -2.84000 34.60400 33.64100
H  -1.57700 31.24700 32.69900
H  -2.79200 30.45300 31.81100
H  -3.86700 30.00100 33.51600
H  -4.32400 31.55300 33.81700
H  2.09800 37.58100 30.02800
H  0.42900 37.55400 30.67100
H  1.03500 38.89900 29.59200
H  2.04100 39.74900 27.99100
H  3.21000 39.51000 26.64700
H  3.21100 38.35800 27.95000
H  -0.12600 34.68700 22.84800
H  -2.89800 33.68000 22.44800
H  -2.59100 36.32700 23.17400
H  -2.44600 35.73500 21.60200
H  -1.09000 36.73200 22.29000
H  -1.13200 31.41000 23.13400
H  -0.09300 32.61100 22.37600
H  -1.87800 30.77900 20.93400
H  -0.55600 31.74600 20.44600
H  -2.11500 32.47500 20.52900
H  -6.29700 30.34900 24.79700
H  -5.76600 28.79100 25.50800
H  -4.72600 29.64700 24.32300
H  -4.03200 29.59600 30.41100
H  -6.50200 29.65000 33.72800
H  -7.40100 28.63800 32.65900
H  -7.71500 30.38200 32.59400

