158

Mg 1.98900 -1.30700 43.58600
C  5.43700 -1.40300 42.88200
C  1.78700 1.55100 41.76700
C  -1.30300 -1.85300 43.25700
C  2.31900 -4.71900 44.60600
N  3.41000 -0.11800 42.36500
C  4.77000 -0.28500 42.29700
C  5.42000 0.73600 41.26700
C  4.30500 1.84800 41.29700
C  3.10100 1.13000 41.91900
C  4.70200 3.13100 42.09600
C  5.75500 0.12700 39.81600
C  7.03800 0.67500 39.11800
H  6.93500 1.22000 37.71200
N  0.40500 -0.15400 42.82300
C  0.55900 1.01100 42.16000
C  -0.75000 1.64400 41.96900
C  -1.68700 0.54500 42.07500
C  -0.89300 -0.56100 42.66800
C  -0.95700 3.01100 41.37800
C  -3.13600 0.58600 41.70000
O  -3.61900 1.58400 41.18700
C  -3.96700 -0.68200 41.85300
N  0.68800 -3.14200 43.75600
C  -0.65700 -2.88600 43.83700
C  -1.33500 -4.09600 44.43600
C  -0.20000 -5.00900 44.98300
C  1.00500 -4.27200 44.46600
C  -2.45700 -3.82600 45.47500
C  -0.23400 -6.52700 44.41100
C  0.24000 -7.70700 45.31800
N  3.52100 -2.71300 43.93000
C  3.49200 -4.07700 44.19000
C  4.85900 -4.46000 44.52400
C  5.66200 -3.47300 43.96100
C  4.79800 -2.41800 43.64600
C  5.24900 -5.78400 45.11200
C  7.04900 -3.15700 43.55800
O  8.11700 -3.73000 43.74600
C  6.88400 -1.85100 42.70900
C  7.87200 -0.75100 43.27200
O  8.93000 -0.46800 42.78500
O  7.41400 -0.30000 44.40900
C  8.08200 0.80300 45.08800
H  1.77100 2.57600 41.39000
H  -2.37200 -1.98600 43.43000
H  2.34900 -5.70400 45.07700
H  6.41300 0.95600 41.66000
H  4.09800 2.11700 40.26100
H  4.03600 3.35700 42.92900
H  4.57500 3.97900 41.42200
H  5.71700 3.20700 42.48300
H  5.00200 0.42200 39.08500
H  6.03800 -0.92400 39.88000
H  7.80800 -0.09700 39.13800
H  7.51600 1.45500 39.71100
H  -0.17100 3.68500 41.71900
H  -1.87200 3.56000 41.60300
H  -0.80700 2.93100 40.30200
H  -4.94700 -0.36900 41.49300
H  -4.11100 -0.85600 42.91900
H  -3.50800 -1.55600 41.39000
H  -1.75200 -4.65300 43.59700
H  -0.18100 -5.09300 46.06900
H  -2.30800 -2.84700 45.92900
H  -2.48900 -4.56900 46.27200
H  -3.33900 -3.89300 44.83800
H  0.30700 -6.53900 43.46500
H  -1.29100 -6.69700 44.20600
H  -0.58900 -8.38500 45.11600
H  0.11600 -7.47400 46.37600
H  1.20300 -8.04200 44.93400
H  5.13600 -6.51300 44.31000
H  4.74200 -6.07100 46.03300
H  6.30300 -5.90300 45.36500
H  7.29700 -2.03700 41.71700
H  7.85300 1.78000 44.66300
H  9.11800 0.51800 45.27100
H  7.69200 0.90800 46.10100
Mg -1.50900 35.25700 26.42200
C  -2.86300 33.32400 28.92300
C  -0.75400 37.70200 28.73700
C  -0.09200 36.97600 23.91500
C  -2.94500 33.05100 24.02000
N  -2.01200 35.53400 28.62200
C  -2.42300 34.53600 29.45900
C  -2.24500 34.99800 30.91100
C  -1.64800 36.52900 30.76100
C  -1.48500 36.63500 29.27000
C  -2.63500 37.58400 31.33500
C  -1.18200 34.10300 31.68700
C  -1.50300 33.26900 32.87500
H  -0.62400 33.36000 34.13000
N  -0.53800 37.02200 26.30800
C  -0.34900 37.88900 27.38000
C  0.51600 38.94200 26.92000
C  0.68400 38.79500 25.49500
C  0.03300 37.51400 25.19000
C  1.15600 39.95000 27.83300
C  1.38900 39.73300 24.56000
O  1.64100 39.45700 23.37400
C  1.88000 41.03600 25.05600
N  -1.49300 35.00800 24.29200
C  -0.71500 35.77000 23.47900
C  -0.67400 35.35100 21.95700
C  -1.48800 33.99200 22.12100
C  -2.08100 34.06600 23.57700
C  -1.28400 36.29400 20.93500
C  -0.67800 32.70200 21.76000
C  0.48200 32.39900 22.78200
N  -2.89500 33.68800 26.45000
C  -3.36300 32.94000 25.40100
C  -4.15400 31.94200 25.97300
C  -3.91000 31.95700 27.35600
C  -3.24800 33.16500 27.57900
C  -4.95000 30.91200 25.15700
C  -4.18900 31.22700 28.56100
O  -4.89900 30.23400 28.72100
C  -3.42500 32.11800 29.69200
C  -4.41000 32.35600 30.82800
O  -5.18900 33.24400 30.91400
O  -4.17300 31.39000 31.68600
C  -5.18700 31.34600 32.78300
H  -0.35400 38.37400 29.49900
H  0.22800 37.59500 23.07300
H  -3.36200 32.31100 23.33400
H  -3.16800 34.93200 31.48800
H  -0.66700 36.60900 31.22900
H  -3.37700 36.98400 31.86100
H  -3.03100 38.13400 30.48100
H  -2.19600 38.27400 32.05600
H  -0.27300 34.68500 31.83900
H  -0.99700 33.25900 31.02200
H  -1.47000 32.24600 32.50000
H  -2.50900 33.65900 33.02500
H  0.83500 39.89000 28.87300
H  1.04100 40.94300 27.39700
H  2.23000 39.76600 27.85400
H  2.61200 40.83700 25.83900
H  0.98400 41.53400 25.42700
H  2.23200 41.59600 24.18900
H  0.35100 35.08500 21.69600
H  -2.39700 33.99700 21.51900
H  -2.20900 35.87100 20.54300
H  -0.66900 36.36700 20.03800
H  -1.49500 37.27600 21.35900
H  -0.25700 32.91300 20.77700
H  -1.21700 31.75800 21.68200
H  0.20800 31.41700 23.16800
H  0.41600 33.08500 23.62700
H  1.44800 32.46800 22.28200
H  -5.96100 31.31400 25.08900
H  -5.05000 29.97000 25.69600
H  -4.45400 30.78700 24.19500
H  -2.60200 31.56400 30.14400
H  -5.19100 30.36200 33.25200
H  -6.20200 31.65800 32.53500
H  -4.73200 32.08300 33.44300

