158

Mg 25.71000 0.23600 28.69500
C  27.45700 -0.50100 31.57700
C  22.88500 0.49400 30.54900
C  24.08800 0.75100 25.79100
C  28.71500 -0.61900 26.74400
N  25.23400 0.01800 30.83800
C  26.14300 -0.17300 31.85900
C  25.43600 -0.01800 33.27600
C  23.91600 -0.07300 32.89000
C  23.99100 0.14500 31.33300
C  23.01200 -1.22200 33.44300
C  25.86500 1.29600 33.95500
C  26.79200 1.18200 35.20100
H  26.55000 1.93900 36.44100
N  23.75100 0.72200 28.27100
C  22.71100 0.75800 29.13800
C  21.52000 1.13800 28.45200
C  21.85400 1.13600 27.06700
C  23.28700 0.85400 26.98800
C  20.22200 1.44600 29.23500
C  20.96900 1.36000 25.87600
O  21.37900 1.28000 24.70100
C  19.48300 1.62200 25.96200
N  26.27400 -0.09200 26.50200
C  25.41800 0.36600 25.55600
C  26.05200 0.41100 24.14900
C  27.54900 0.22100 24.53700
C  27.54000 -0.23000 26.01100
C  25.55800 -0.79100 23.27400
C  28.48900 1.44100 24.28800
C  28.47300 2.69100 25.31200
N  27.68800 -0.56700 29.01300
C  28.76600 -0.70800 28.14700
C  29.87900 -1.19900 28.98000
C  29.44700 -1.10200 30.34800
C  28.06600 -0.66300 30.27700
C  31.24100 -1.57700 28.52400
C  29.90300 -1.15200 31.69700
O  31.05600 -1.26400 32.19300
C  28.60100 -0.81600 32.53900
C  28.12300 -1.95600 33.41500
O  27.48300 -2.95100 33.06800
O  28.56300 -1.87400 34.69900
C  27.98700 -2.77600 35.71000
H  22.02100 0.56500 31.21300
H  23.49500 0.90400 24.88700
H  29.64700 -0.62700 26.17400
H  25.64800 -0.93600 33.82500
H  23.38900 0.79400 33.28900
H  22.17500 -0.67300 33.87300
H  23.52700 -1.64600 34.30400
H  22.71100 -1.92000 32.66100
H  24.92300 1.74800 34.26300
H  26.43900 1.85500 33.21600
H  27.82200 1.50900 35.05200
H  26.83900 0.11000 35.39400
H  20.35900 1.26400 30.30100
H  19.46600 0.69600 29.00200
H  19.69500 2.38100 29.04800
H  19.43000 2.70100 25.81400
H  19.15800 1.44800 26.98700
H  18.77400 1.21300 25.24200
H  26.03900 1.36500 23.62300
H  27.89100 -0.65900 23.99100
H  24.94800 -1.42500 23.91800
H  26.31700 -1.53500 23.03200
H  24.97800 -0.44100 22.42000
H  28.35500 1.74300 23.24900
H  29.47600 0.97900 24.30700
H  27.81900 2.59900 26.17900
H  28.07900 3.52600 24.73300
H  29.47900 3.02500 25.56600
H  31.89000 -1.03800 29.21400
H  31.52500 -1.30600 27.50700
H  31.33100 -2.66000 28.59900
H  28.80300 0.02300 33.20400
H  28.24700 -2.36800 36.68600
H  28.36300 -3.79800 35.76000
H  26.90200 -2.70000 35.78400
Mg 34.96400 49.04700 25.41800
C  34.89000 47.37400 28.47000
C  33.81800 51.88500 27.00800
C  34.53700 50.35100 22.40000
C  36.08800 46.11500 23.88200
N  34.61200 49.56600 27.54800
C  34.65400 48.78100 28.60900
C  34.50600 49.51200 29.98800
C  33.98000 50.89200 29.41200
C  34.13800 50.78100 27.84600
C  32.56400 51.34400 29.90500
C  35.81700 49.63500 30.82800
C  35.66600 49.90700 32.32400
H  34.32200 49.95900 33.01300
N  34.35500 50.88800 24.81900
C  33.94200 51.93400 25.60100
C  33.48500 53.04500 24.80300
C  33.72100 52.67800 23.43700
C  34.26000 51.22700 23.49100
C  32.88500 54.35000 25.33000
C  33.63700 53.53800 22.15500
O  34.05100 53.06300 21.07300
C  33.12000 54.93400 22.07800
N  35.08200 48.22200 23.48300
C  35.01400 49.04100 22.39700
C  35.18500 48.32300 21.02900
C  35.86700 47.05900 21.52700
C  35.74500 47.13700 23.05600
C  33.86000 48.06800 20.15200
C  37.29000 46.79300 20.93700
C  38.47300 47.34600 21.78800
N  35.48800 47.16000 26.01700
C  35.96200 46.01300 25.26000
C  36.18900 44.93000 26.14500
C  35.77600 45.42200 27.41900
C  35.32000 46.73800 27.30300
C  36.64600 43.50700 25.78600
C  35.52900 44.96600 28.78600
O  35.77300 43.95700 29.48000
C  34.97300 46.27700 29.51900
C  33.74600 45.87500 30.27100
O  32.64000 45.80200 29.78400
O  34.03000 45.59800 31.63100
C  32.92800 45.04700 32.44800
H  33.46800 52.76600 27.55000
H  34.35100 50.85100 21.44700
H  36.45700 45.25800 23.31500
H  33.71700 49.06700 30.59400
H  34.59200 51.73600 29.73200
H  32.23500 50.51900 30.53700
H  31.89600 51.52500 29.06300
H  32.58700 52.24000 30.52600
H  36.54100 50.36200 30.46200
H  36.40800 48.72700 30.70800
H  36.21800 50.82600 32.52200
H  36.24000 49.16300 32.87700
H  32.67700 54.52700 26.38500
H  31.96900 54.44400 24.74600
H  33.53600 55.15900 24.99700
H  33.73200 55.59400 22.69500
H  32.05800 54.89400 22.31900
H  33.10200 55.36400 21.07700
H  35.79300 48.86100 20.30100
H  35.22400 46.21100 21.29200
H  33.48500 47.04900 20.05600
H  34.02700 48.37300 19.11900
H  33.03000 48.51100 20.70300
H  37.38600 47.32900 19.99200
H  37.44700 45.73000 20.75500
H  39.07900 46.50500 22.12600
H  38.30100 47.92200 22.69700
H  39.06900 47.91200 21.07200
H  37.30600 43.52000 24.91900
H  35.78600 42.87500 25.56700
H  37.27100 43.13500 26.59800
H  35.69200 46.59600 30.27300
H  32.18900 44.47600 31.88700
H  32.41300 45.95100 32.77300
H  33.23100 44.38300 33.25800

