158

Mg 47.62500 15.40800 28.56800
C  45.54000 15.62900 31.29900
C  50.03200 17.26500 30.49100
C  49.67400 15.51300 26.03700
C  44.96000 14.29200 26.66400
N  47.68000 16.35800 30.58600
C  46.76300 16.22900 31.60500
C  47.31200 16.64300 32.97700
C  48.63300 17.36000 32.60500
C  48.83500 16.93000 31.10700
C  48.62600 18.91500 32.89700
C  47.44200 15.42200 33.92400
C  47.24500 15.67800 35.44600
H  46.78400 17.07000 35.89100
N  49.63400 16.10300 28.25700
C  50.41000 16.82500 29.17400
C  51.64900 17.09700 28.58000
C  51.67000 16.51700 27.28000
C  50.30000 15.99500 27.16800
C  52.77100 17.85900 29.30500
C  52.79100 16.31400 26.22000
O  52.64500 15.88600 25.11900
C  54.13900 16.83900 26.49700
N  47.37100 14.87100 26.62600
C  48.41300 14.94100 25.76800
C  47.90000 14.66500 24.38300
C  46.53200 14.04300 24.56800
C  46.22500 14.44500 26.01000
C  47.93500 15.87000 23.41700
C  46.47600 12.47100 24.42000
C  47.43300 11.60300 25.24500
N  45.63900 14.97400 28.83700
C  44.68100 14.46400 28.03600
C  43.47800 14.22800 28.74700
C  43.71000 14.64500 30.09400
C  45.05000 15.09000 30.09600
C  42.27200 13.62400 28.14000
C  43.22800 14.70900 31.44000
O  42.18500 14.29700 31.92200
C  44.40700 15.29800 32.29300
C  43.87400 16.48800 33.02700
O  44.04900 17.66500 32.71800
O  43.14100 16.08300 34.10500
C  42.27300 16.97000 34.84100
H  50.74300 17.88600 31.03900
H  50.30100 15.64300 25.15200
H  44.21200 13.74500 26.08600
H  46.55100 17.33800 33.33300
H  49.45900 16.99800 33.21600
H  49.43000 19.30400 33.52200
H  47.71700 19.28400 33.37100
H  48.75300 19.43000 31.94500
H  48.40900 14.94800 33.75300
H  46.65600 14.72800 33.62600
H  48.07700 15.43300 36.10600
H  46.54300 14.91700 35.78600
H  53.57400 18.25700 28.68400
H  52.99000 17.28700 30.20600
H  52.25400 18.76000 29.63700
H  54.25800 17.89700 26.26600
H  54.82900 16.37200 25.79400
H  54.42600 16.64800 27.53100
H  48.55200 13.92100 23.92700
H  45.76800 14.54200 23.97100
H  48.17000 16.72400 24.05200
H  46.95900 16.00100 22.95000
H  48.70100 15.76100 22.65000
H  46.61900 12.19100 23.37600
H  45.46200 12.12000 24.61000
H  48.05600 11.05700 24.53700
H  46.89300 10.86600 25.84100
H  48.03200 12.18300 25.94700
H  42.21900 13.74400 27.05800
H  41.43700 13.92900 28.77000
H  42.38900 12.54000 28.14400
H  44.71700 14.59700 33.06800
H  42.41900 17.99400 34.49500
H  42.58200 17.01900 35.88500
H  41.21100 16.74200 34.75500
Mg -8.33700 39.23000 39.49400
C  -7.62400 35.87500 38.70100
C  -5.18100 40.12600 38.47700
C  -9.46300 42.35200 39.31700
C  -11.77200 38.18500 39.81000
N  -6.65300 38.07100 38.50100
C  -6.50300 36.75800 38.51500
C  -5.02200 36.37400 38.30300
C  -4.30100 37.75600 38.57200
C  -5.44600 38.72200 38.55300
C  -3.51500 37.97100 39.84100
C  -4.90400 35.74900 36.93200
C  -5.45300 36.46300 35.70400
H  -6.57500 35.88800 34.89800
N  -7.44100 40.97300 39.03300
C  -6.09200 41.17900 38.62600
C  -5.80600 42.49800 38.39800
C  -7.02400 43.24800 38.64300
C  -8.03400 42.19700 38.97900
C  -4.42400 43.01300 37.89800
C  -7.21600 44.76800 38.44100
O  -6.29700 45.40200 37.92100
C  -8.54500 45.45700 38.75300
N  -10.37300 40.15100 39.48600
C  -10.53000 41.47800 39.39900
C  -11.98900 41.90200 39.78000
C  -12.63400 40.54700 39.95200
C  -11.56700 39.53500 39.68200
C  -12.21400 42.79600 41.01100
C  -13.91400 40.36400 38.98400
C  -15.20200 39.69200 39.54600
N  -9.51600 37.40500 39.34400
C  -10.82300 37.13600 39.58700
C  -11.06000 35.71200 39.48000
C  -9.81700 35.16400 39.13600
C  -8.94100 36.24900 38.99800
C  -12.35800 34.97000 39.57500
C  -9.11700 33.93800 38.97700
O  -9.49900 32.82000 38.99200
C  -7.61900 34.35300 38.75900
C  -6.68900 33.75000 39.67900
O  -6.69700 33.70400 40.90200
O  -5.79100 33.05600 38.90000
C  -4.80700 32.30900 39.67800
H  -4.11100 40.31600 38.37100
H  -9.74300 43.39000 39.50800
H  -12.79900 37.85200 39.97300
H  -4.65700 35.61000 38.99000
H  -3.85000 38.01200 37.61300
H  -4.08100 38.41100 40.66200
H  -2.75200 38.71500 39.61200
H  -3.22600 36.96600 40.14700
H  -5.29000 34.73600 37.04100
H  -3.83400 35.61800 36.77000
H  -4.62400 36.43500 34.99600
H  -5.79200 37.46600 35.96500
H  -3.77900 42.23900 37.48000
H  -3.91500 43.46000 38.75200
H  -4.69900 43.69300 37.09200
H  -8.70300 45.43600 39.83100
H  -9.40300 44.98600 38.27300
H  -8.44400 46.50600 38.47500
H  -12.32600 42.47400 38.91600
H  -12.94000 40.23800 40.95100
H  -12.84900 43.58500 40.60700
H  -11.29700 43.19900 41.44100
H  -12.75800 42.21800 41.75700
H  -13.57500 39.71800 38.17300
H  -14.17100 41.27000 38.43500
H  -15.40900 40.14200 40.51700
H  -15.08600 38.61000 39.60100
H  -15.95000 39.88600 38.77800
H  -13.21100 35.64700 39.61100
H  -12.31500 34.21600 40.36100
H  -12.51800 34.36900 38.67900
H  -7.42400 33.96600 37.75900
H  -5.24300 31.82300 40.55100
H  -3.99900 32.95100 40.02800
H  -4.32900 31.57500 39.02900

