158

Mg 8.43400 3.35000 27.68700
C  10.01000 2.06200 30.42600
C  6.44400 5.28500 29.79500
C  6.58600 4.29400 24.96600
C  10.26400 1.06200 25.66800
N  8.24800 3.57300 29.83900
C  8.98900 2.93600 30.81300
C  8.57100 3.43400 32.27800
C  7.45300 4.48300 31.93600
C  7.36600 4.48000 30.42100
C  6.08800 4.19300 32.60400
C  9.81600 3.98800 33.03400
C  9.52100 5.11800 34.10700
H  10.20200 5.02400 35.47800
N  6.78000 4.53800 27.38400
C  6.17900 5.32200 28.35900
C  5.18900 6.27900 27.71600
C  5.28300 6.02200 26.33200
C  6.24000 4.89500 26.16700
C  4.35200 7.29300 28.41900
C  4.57500 6.75800 25.19800
O  4.68500 6.45900 23.99300
C  3.61400 7.86200 25.50000
N  8.25300 2.56700 25.68400
C  7.49200 3.29500 24.71200
C  7.97100 2.92300 23.28900
C  9.25600 2.12900 23.52000
C  9.25100 1.90700 25.03600
C  6.79600 2.13700 22.49200
C  10.57800 2.83000 22.97100
C  11.28100 3.90100 23.86000
N  9.72300 1.71000 27.97000
C  10.40000 0.94500 27.04700
C  11.43200 0.23400 27.70700
C  11.29700 0.60300 29.12600
C  10.26400 1.49900 29.18900
C  12.47100 -0.68600 26.96900
C  11.83500 0.43400 30.43800
O  12.71800 -0.34900 30.80100
C  11.04900 1.38700 31.36500
C  10.38700 0.62300 32.43300
O  9.47300 -0.18100 32.26200
O  11.07000 0.72400 33.59900
C  10.42100 0.08800 34.72600
H  5.76500 5.89000 30.40000
H  6.21800 4.77000 24.05500
H  10.96300 0.45800 25.08700
H  8.20900 2.51100 32.73100
H  7.76400 5.49700 32.18900
H  5.49300 3.47300 32.04200
H  5.74400 5.22600 32.55900
H  6.11600 3.79500 33.61800
H  10.52600 4.34300 32.28800
H  10.35900 3.23200 33.60000
H  8.44400 5.02700 34.25300
H  9.73900 6.00000 33.50500
H  3.27800 7.24100 28.24200
H  4.67600 8.29600 28.14200
H  4.44400 7.16700 29.49800
H  2.71500 7.43000 25.94000
H  3.37400 8.16200 24.48100
H  4.14800 8.65400 26.02600
H  8.14100 3.85500 22.74900
H  9.11200 1.19900 22.97100
H  5.88400 2.08100 23.08700
H  7.02600 1.12900 22.14600
H  6.51600 2.76700 21.64800
H  10.28300 3.28000 22.02300
H  11.35200 2.08700 22.77500
H  10.70800 4.04600 24.77600
H  11.27000 4.87000 23.36200
H  12.27000 3.51900 24.11400
H  12.77800 -0.09600 26.10600
H  11.93300 -1.61200 26.76700
H  13.25700 -0.91500 27.68800
H  11.76000 2.08300 31.81000
H  9.90900 0.90900 35.22800
H  11.23300 -0.27300 35.35700
H  9.76200 -0.74500 34.48200
Mg -5.41500 25.45000 25.52800
C  -4.09900 26.81200 28.42700
C  -7.36100 23.42100 27.25200
C  -6.29800 24.10200 22.54500
C  -3.00300 27.43100 23.76900
N  -5.48200 24.94300 27.66800
C  -5.01400 25.78700 28.68100
C  -5.60000 25.39800 30.00600
C  -6.62800 24.24100 29.60600
C  -6.47800 24.14700 28.07000
C  -6.48900 22.93000 30.42400
C  -6.35700 26.52400 30.79900
C  -6.09700 26.55900 32.33400
H  -5.65900 25.29200 32.99800
N  -6.62300 23.90900 24.99600
C  -7.41500 23.21300 25.86600
C  -8.34400 22.29500 25.17900
C  -8.06500 22.54600 23.72900
C  -6.93200 23.55600 23.70500
C  -9.24400 21.39300 25.93800
C  -8.66800 21.81100 22.52300
O  -8.31500 22.09700 21.34500
C  -9.80900 20.87900 22.73100
N  -4.71700 25.69800 23.44200
C  -5.33700 25.07000 22.46400
C  -4.66100 25.33700 21.11000
C  -3.98200 26.65700 21.48800
C  -3.85000 26.59200 22.99800
C  -3.59900 24.26400 20.73800
C  -4.77400 27.84300 20.88400
C  -3.96900 28.82400 19.91400
N  -3.91300 26.95400 25.98200
C  -3.02400 27.63500 25.17000
C  -2.17300 28.49800 25.94100
C  -2.56400 28.19500 27.28300
C  -3.57900 27.23700 27.24100
C  -1.05300 29.41700 25.50000
C  -2.28400 28.49900 28.57200
O  -1.51600 29.28700 29.01500
C  -3.36900 27.69500 29.44900
C  -2.67500 26.99600 30.56900
O  -1.90800 26.08600 30.39400
O  -2.74800 27.64000 31.78700
C  -2.06700 27.01000 32.93400
H  -8.23500 23.05600 27.79600
H  -6.58600 23.72200 21.56200
H  -2.24700 27.84600 23.09900
H  -4.75900 24.99700 30.57100
H  -7.66600 24.53200 29.77200
H  -5.99400 22.25200 29.72800
H  -7.50700 22.65100 30.69600
H  -5.89900 23.06700 31.33000
H  -7.42500 26.49200 30.58500
H  -6.00800 27.46200 30.36700
H  -6.93100 26.95000 32.91600
H  -5.28400 27.23800 32.59000
H  -8.89300 21.23200 26.95700
H  -9.35000 20.40200 25.49500
H  -10.19800 21.90700 26.05600
H  -10.62400 21.44800 23.17700
H  -9.42800 20.09500 23.38600
H  -10.23300 20.41300 21.84200
H  -5.44900 25.43900 20.36300
H  -2.97000 26.66700 21.08200
H  -3.43700 23.98000 19.69800
H  -3.83300 23.32100 21.23300
H  -2.61400 24.57400 21.08600
H  -5.15000 28.27600 21.81000
H  -5.60700 27.55800 20.24100
H  -3.09500 28.26400 19.58300
H  -3.44700 29.55700 20.52900
H  -4.63200 29.18900 19.12900
H  -1.48600 29.92700 24.64000
H  -0.14500 28.82300 25.39400
H  -0.87900 30.10200 26.33000
H  -3.97400 28.45500 29.94400
H  -1.04300 26.70000 32.72200
H  -2.58100 26.25000 33.52200
H  -1.94900 27.86000 33.60500

