158

Mg 46.49200 34.64700 28.19100
C  44.87700 32.67900 30.58900
C  46.52200 37.30600 30.37500
C  47.22500 36.72600 25.57900
C  45.39000 32.20900 25.71100
N  46.01200 34.76900 30.29800
C  45.44900 33.82600 31.10000
C  45.40400 34.32800 32.50500
C  45.45500 35.90600 32.30700
C  46.01700 36.05500 30.87800
C  44.19800 36.74800 32.62300
C  46.63900 33.84200 33.25700
C  46.52700 33.81100 34.80000
H  45.60400 34.77200 35.52600
N  47.05900 36.64900 28.10400
C  47.04900 37.56200 29.14400
C  47.71100 38.76300 28.64200
C  47.84200 38.64700 27.23200
C  47.33800 37.30100 26.90700
C  47.98800 39.90800 29.61700
C  48.40900 39.66200 26.30600
O  48.60200 39.45500 25.10400
C  48.82500 41.09500 26.84500
N  46.26200 34.52700 25.90500
C  46.86400 35.42200 25.16100
C  46.85100 34.97900 23.64400
C  46.48200 33.44800 23.81600
C  46.01700 33.36500 25.23100
C  45.80200 35.82800 22.83300
C  47.70700 32.53400 23.54200
C  47.44500 31.21400 22.80400
N  45.47100 32.76400 28.10100
C  45.15800 31.89300 27.05100
C  44.60800 30.69200 27.67700
C  44.53900 30.98600 29.03900
C  44.96300 32.27200 29.21900
C  44.29200 29.45700 26.84600
C  44.11800 30.42200 30.30800
O  43.82300 29.31300 30.58800
C  43.92400 31.62600 31.26800
C  44.18600 31.22300 32.73000
O  44.98700 30.36400 33.09200
O  43.23700 31.78700 33.48000
C  43.03700 31.48100 34.86600
H  46.27200 38.12500 31.05300
H  47.50300 37.46600 24.82500
H  45.25100 31.42500 24.96400
H  44.50400 33.93300 32.97500
H  46.11400 36.20800 33.12000
H  44.26700 37.42100 33.47800
H  43.46900 35.96500 32.83400
H  43.86300 37.49700 31.90700
H  47.55500 34.29200 32.87700
H  46.77600 32.79300 32.99200
H  47.52600 33.99100 35.19500
H  46.30700 32.79200 35.12000
H  47.89600 39.53500 30.63700
H  47.39700 40.79000 29.36800
H  49.04100 40.14400 29.45900
H  49.07100 41.64700 25.93900
H  49.71100 41.01200 27.47500
H  47.99400 41.56400 27.37400
H  47.79500 35.10900 23.11500
H  45.72100 33.06800 23.13500
H  44.86400 35.35900 22.53600
H  46.32700 36.39300 22.06300
H  45.53700 36.60600 23.55000
H  48.20300 32.31200 24.48700
H  48.45200 33.10300 22.98600
H  46.47900 31.27200 22.30200
H  47.53300 30.33700 23.44500
H  48.19400 31.22600 22.01300
H  45.17700 29.19800 26.26500
H  43.48200 29.59100 26.12900
H  44.07200 28.62400 27.51300
H  42.93500 32.08400 31.28100
H  41.98400 31.32400 35.10000
H  43.50900 32.24900 35.47900
H  43.66500 30.59900 34.99100
Mg -8.98900 19.04800 42.66600
C  -5.62200 18.70900 42.85700
C  -8.60900 22.39800 41.89700
C  -12.40600 19.32200 42.25500
C  -9.28300 15.55500 42.54600
N  -7.30000 20.34800 42.39300
C  -5.99400 20.01900 42.51800
C  -5.06600 21.20600 42.25000
C  -6.09300 22.34700 42.11700
C  -7.45200 21.65800 42.16100
C  -5.95500 23.54400 43.14500
C  -4.21600 20.89100 40.98200
C  -4.78700 20.06200 39.74700
H  -4.33400 20.51700 38.35300
N  -10.38100 20.66600 42.05500
C  -9.97600 21.96600 41.86000
C  -11.16700 22.76500 41.66800
C  -12.33600 21.89400 41.91400
C  -11.72000 20.53400 42.06200
C  -11.17200 24.16600 41.13300
C  -13.72800 22.36800 41.84900
O  -13.96100 23.55100 41.61600
C  -14.99700 21.44400 41.96600
N  -10.59800 17.63100 42.15900
C  -11.88700 18.00800 42.27700
C  -12.84900 16.79500 42.37000
C  -11.87400 15.55500 42.10700
C  -10.47000 16.23700 42.24500
C  -13.54600 16.74000 43.71000
C  -12.10000 14.79800 40.69900
C  -12.19700 13.29200 40.73000
N  -7.76900 17.46700 42.74400
C  -7.95600 16.09300 42.74800
C  -6.81100 15.37300 43.02300
C  -5.80200 16.40400 43.05100
C  -6.46000 17.61500 42.82900
C  -6.70500 13.90800 43.07500
C  -4.40700 16.67800 43.28600
O  -3.45900 15.92600 43.61300
C  -4.22200 18.16200 43.19300
C  -3.70400 18.80800 44.38000
O  -2.68500 19.53600 44.40300
O  -4.48900 18.31000 45.43100
C  -4.01000 18.67500 46.84100
H  -8.53100 23.48600 41.84000
H  -13.49600 19.38500 42.27400
H  -9.34400 14.48000 42.72700
H  -4.43100 21.20800 43.13700
H  -6.04000 22.91500 41.18700
H  -5.85600 24.46900 42.57600
H  -5.06100 23.44000 43.76000
H  -6.82600 23.55100 43.80100
H  -3.26000 20.43700 41.24100
H  -3.85700 21.83600 40.57500
H  -5.87000 20.13600 39.65900
H  -4.62900 18.98500 39.81000
H  -11.76100 24.20600 40.21700
H  -10.11500 24.39400 40.99700
H  -11.59800 24.77100 41.93300
H  -14.98000 20.90800 42.91500
H  -14.96600 20.60400 41.27200
H  -15.85600 22.09500 41.80100
H  -13.61100 16.96100 41.60900
H  -11.90400 14.75300 42.84400
H  -14.56400 16.37700 43.56700
H  -13.59500 17.70700 44.21100
H  -13.01300 16.17300 44.47300
H  -11.25100 15.07800 40.07600
H  -12.98900 15.10300 40.14600
H  -12.98700 12.86200 40.11500
H  -12.14800 12.83800 41.72000
H  -11.39800 12.90100 40.10000
H  -5.72400 13.56800 42.74300
H  -7.33400 13.50100 42.28400
H  -6.97000 13.36900 43.98500
H  -3.54100 18.46800 42.39900
H  -2.96700 18.97300 46.73300
H  -4.04300 17.80500 47.49600
H  -4.48200 19.59600 47.18400

