158

Mg 1.70900 -1.29700 43.39800
C  5.10600 -0.25400 43.32200
C  0.96800 1.57900 41.72200
C  -1.42900 -2.42500 42.97700
C  2.82400 -4.47800 44.18400
N  2.88300 0.27400 42.53100
C  4.18700 0.59800 42.61700
C  4.62800 1.94300 42.00300
C  3.18600 2.56300 42.03000
C  2.27200 1.38000 42.07900
C  2.94200 3.73900 43.04500
C  5.15800 1.63600 40.52300
C  6.12700 2.72100 39.80000
H  5.52800 3.62000 38.65700
N  -0.02800 -0.48900 42.59100
C  -0.12400 0.71200 41.91700
C  -1.49000 0.91100 41.49200
C  -2.25400 -0.17900 41.98800
C  -1.25000 -1.08900 42.58100
C  -2.04800 2.20500 40.90300
C  -3.77100 -0.22800 42.13100
O  -4.50900 0.66100 41.70500
C  -4.49100 -1.34700 42.75800
N  0.84100 -3.18700 43.53500
C  -0.49700 -3.40200 43.31400
C  -0.80200 -4.92400 43.40400
C  0.48400 -5.45100 44.09700
C  1.46900 -4.29700 43.90500
C  -2.03300 -5.32600 44.16100
C  1.01300 -6.82900 43.66200
C  1.79300 -7.71800 44.71200
N  3.52700 -2.22400 43.71200
C  3.82100 -3.55400 43.98200
C  5.28800 -3.74300 44.04300
C  5.81400 -2.49400 43.88400
C  4.74200 -1.59400 43.61900
C  6.07100 -4.95500 44.47900
C  6.98800 -1.80300 43.90000
O  8.16200 -2.13500 44.11200
C  6.59500 -0.25000 43.42400
C  6.99000 0.57600 44.56300
O  6.77000 0.39400 45.71500
O  7.87100 1.50800 44.08500
C  8.66400 2.24700 45.10700
H  0.77400 2.56800 41.30000
H  -2.39500 -2.88000 42.74900
H  3.15600 -5.50800 44.32500
H  5.31900 2.61200 42.51400
H  3.11400 3.03200 41.04800
H  3.77200 4.43800 42.94700
H  2.86700 3.53900 44.11300
H  2.05600 4.32000 42.78600
H  4.34800 1.23500 39.91300
H  5.75500 0.73700 40.67100
H  7.04500 2.20700 39.51500
H  6.27900 3.44500 40.60100
H  -1.28700 2.97600 40.78200
H  -2.72000 2.59600 41.66700
H  -2.52500 1.91100 39.96800
H  -5.54500 -1.10000 42.88500
H  -4.02200 -1.43100 43.73800
H  -4.27900 -2.28400 42.24400
H  -0.73600 -5.31900 42.39000
H  0.32800 -5.47600 45.17500
H  -1.85300 -5.81200 45.12000
H  -2.55500 -6.19400 43.75600
H  -2.75300 -4.51300 44.24400
H  1.52200 -6.76500 42.70100
H  0.11600 -7.40400 43.43200
H  1.14000 -8.45700 45.17600
H  2.30000 -7.20800 45.53200
H  2.49700 -8.27200 44.09100
H  5.37400 -5.50200 45.11300
H  6.90900 -4.52200 45.02600
H  6.44800 -5.46600 43.59300
H  7.26700 -0.02300 42.59700
H  8.68700 3.32500 44.94700
H  9.64700 1.77900 45.05500
H  8.41900 2.12300 46.16200
Mg 2.03800 8.24500 27.06200
C  2.15000 10.45000 29.86500
C  2.07200 5.69700 29.32900
C  1.91600 6.15800 24.50300
C  2.46200 10.96900 24.87700
N  2.05300 8.12800 29.38100
C  2.00800 9.10100 30.25200
C  1.86400 8.57500 31.71800
C  2.20800 7.05900 31.59800
C  2.19000 6.93800 30.02700
C  3.62100 6.60300 32.22900
C  0.44300 8.85300 32.39800
C  0.54000 9.60400 33.70300
H  1.13100 8.83600 34.92300
N  1.87500 6.27200 26.90000
C  1.90500 5.35200 27.93400
C  1.78300 3.97800 27.44400
C  1.81600 4.09400 26.06200
C  1.88800 5.57400 25.80200
C  1.57600 2.75000 28.39800
C  1.74600 3.02900 24.94700
O  1.90300 3.25500 23.77100
C  1.64400 1.58600 25.33500
N  2.01200 8.51900 25.02300
C  1.98000 7.49000 24.11400
C  2.19400 8.08400 22.67500
C  1.86600 9.58800 22.88700
C  2.25000 9.69200 24.35600
C  3.58800 7.85400 21.98100
C  0.35500 9.98800 22.57600
C  -0.00900 11.35600 22.11400
N  2.42300 10.27200 27.27500
C  2.60100 11.24200 26.27700
C  2.73900 12.47100 26.93600
C  2.63000 12.21500 28.33000
C  2.49000 10.84300 28.52200
C  2.95800 13.83500 26.20800
C  2.55200 12.80200 29.66200
O  2.76000 13.93200 30.02700
C  2.25600 11.67300 30.63900
C  3.34000 11.61500 31.69300
O  4.44100 11.07900 31.62600
O  2.81800 12.18700 32.85700
C  3.71200 12.08700 34.00900
H  2.03400 4.90300 30.07900
H  1.74600 5.46200 23.67900
H  2.75000 11.74800 24.16800
H  2.68800 9.03200 32.26600
H  1.50300 6.39200 32.09400
H  3.37900 5.60800 32.60300
H  3.95100 7.34000 32.96100
H  4.43800 6.59600 31.50800
H  -0.11200 7.93700 32.60100
H  -0.14500 9.38100 31.64600
H  -0.44900 10.03100 33.86900
H  1.17600 10.45500 33.46000
H  2.47000 2.42600 28.93000
H  1.13800 1.91500 27.85000
H  0.93700 3.05800 29.22700
H  0.63200 1.28400 25.60300
H  2.31400 1.51200 26.19100
H  2.00200 0.85700 24.60700
H  1.50300 7.67800 21.93700
H  2.68700 10.01600 22.31200
H  4.00900 7.03200 22.56100
H  4.29800 8.68000 22.00500
H  3.47800 7.40200 20.99500
H  -0.21600 9.76700 23.47800
H  0.03800 9.24400 21.84500
H  0.87200 11.83100 21.68100
H  -0.56600 11.99500 22.79900
H  -0.74800 11.30700 21.31400
H  2.18000 13.83700 25.44500
H  3.92000 13.91700 25.70300
H  2.78800 14.69000 26.86300
H  1.33600 11.86700 31.19000
H  3.78300 11.05600 34.35600
H  3.40100 12.75700 34.81000
H  4.71300 12.43200 33.75100

