158

Mg 47.33700 44.88000 44.10600
C  43.93400 44.33300 43.66900
C  47.92900 41.58900 43.05000
C  50.66600 45.72400 43.50000
C  46.63300 48.25900 44.66000
N  46.11100 43.20900 43.37400
C  44.72000 43.21800 43.48000
C  44.17500 41.96300 42.79200
C  45.38200 40.96300 43.13000
C  46.58700 41.93500 43.18400
C  45.22200 40.18400 44.47400
C  43.97600 42.06200 41.24800
C  42.52300 41.92700 40.78200
H  42.29600 41.32300 39.37300
N  49.09000 43.78300 43.49700
C  49.07400 42.45400 43.08200
C  50.40400 42.10500 42.79600
C  51.19100 43.24800 42.95100
C  50.32000 44.32500 43.31600
C  50.72000 40.70400 42.37600
C  52.66100 43.29000 42.68500
O  53.27300 42.27900 42.48900
C  53.47200 44.53400 42.93100
N  48.51200 46.72200 44.05900
C  49.83600 46.80400 43.84100
C  50.36000 48.25900 44.05000
C  49.01700 49.07400 44.41100
C  47.98200 47.93800 44.45000
C  51.57000 48.43800 45.08300
C  48.72900 50.16200 43.29500
C  47.91200 51.33200 43.66500
N  45.62200 46.05500 44.34100
C  45.52700 47.40300 44.53700
C  44.17200 47.75400 44.61600
C  43.44600 46.61400 44.25100
C  44.41200 45.59600 44.07800
C  43.54400 49.05200 44.74600
C  42.24600 46.02200 43.89700
O  41.09600 46.60800 43.76100
C  42.36100 44.50800 43.67100
C  41.64400 43.83500 44.85000
O  40.48000 43.44600 44.87500
O  42.44900 43.73900 45.96500
C  41.83100 43.05300 47.13300
H  48.02500 40.53200 42.79300
H  51.65200 46.05500 43.16500
H  46.25600 49.28100 44.74100
H  43.28600 41.61100 43.31500
H  45.66900 40.26800 42.34100
H  44.17400 39.98600 44.70000
H  45.66200 40.79000 45.26600
H  45.67100 39.19100 44.49500
H  44.61400 41.32600 40.76000
H  44.24200 43.09400 41.02000
H  42.04900 42.90800 40.76100
H  42.03800 41.27300 41.50700
H  50.57300 40.73700 41.29600
H  50.13700 39.94600 42.89900
H  51.74400 40.57300 42.72700
H  54.54300 44.33200 42.91300
H  53.21100 44.81100 43.95300
H  53.23700 45.37600 42.28100
H  50.88900 48.53700 43.13900
H  49.08100 49.40200 45.44800
H  51.39100 49.25100 45.78600
H  52.53000 48.53200 44.57600
H  51.72100 47.54700 45.69200
H  48.11400 49.79900 42.47200
H  49.60200 50.52300 42.75200
H  48.62700 52.15400 43.64300
H  47.62100 51.39300 44.71300
H  47.01200 51.57400 43.09900
H  42.58800 48.92700 44.23700
H  44.19000 49.83100 44.34200
H  43.38500 49.20500 45.81300
H  41.93600 44.17700 42.72400
H  41.75500 41.97200 47.01900
H  40.98200 43.66600 47.43600
H  42.55000 43.12600 47.95000
Mg 29.64300 58.40600 41.79700
C  26.91400 56.60500 40.57400
C  31.67700 56.22700 40.00800
C  32.30600 60.47700 42.15400
C  27.51300 61.08300 42.62400
N  29.30000 56.60500 40.44400
C  28.09000 56.04100 40.11700
C  28.15900 54.87400 39.15200
C  29.71900 54.56100 39.31800
C  30.29000 55.87000 39.91900
C  30.09400 53.30100 40.18200
C  27.71400 55.25500 37.72400
C  26.56300 54.44400 37.12800
H  26.68600 53.75500 35.83100
N  31.72100 58.31300 41.33200
C  32.31700 57.31100 40.60000
C  33.73400 57.44700 40.73500
C  34.02600 58.72100 41.30800
C  32.67300 59.26100 41.63000
C  34.75200 56.42000 40.30600
C  35.37200 59.33200 41.66000
O  36.34900 58.64200 41.49900
C  35.62300 60.68300 42.21300
N  29.85800 60.42100 42.43800
C  31.10000 61.08000 42.52600
C  30.95900 62.56400 43.07900
C  29.40200 62.70300 43.26900
C  28.90200 61.34100 42.71900
C  31.80500 63.10500 44.31400
C  28.67800 63.90900 42.53000
C  27.86600 64.87200 43.40500
N  27.59100 58.82900 41.70100
C  26.88200 59.91400 42.03900
C  25.49200 59.65100 41.86700
C  25.41400 58.36300 41.26900
C  26.77000 57.93200 41.20600
C  24.36600 60.58200 42.24800
C  24.49500 57.35000 40.72200
O  23.27900 57.29300 40.72100
C  25.49800 56.12600 40.18000
C  25.05700 54.91600 40.94700
O  25.36600 54.71300 42.11200
O  24.18000 54.20100 40.22500
C  23.91700 52.83600 40.84800
H  32.19800 55.47000 39.41800
H  33.11700 61.20400 42.22500
H  26.81600 61.90700 42.78900
H  27.59100 54.02900 39.54400
H  30.13800 54.43700 38.32000
H  30.13700 52.41600 39.54700
H  29.25600 53.12700 40.85600
H  30.92600 53.50700 40.85500
H  28.45500 55.14400 36.93200
H  27.46000 56.31400 37.68500
H  25.66700 55.04400 36.97500
H  26.29300 53.59400 37.75400
H  35.57200 56.74800 39.66600
H  34.19000 55.54100 39.99000
H  35.27700 56.12100 41.21300
H  35.19600 61.43700 41.55200
H  36.68400 60.93300 42.21600
H  35.06300 60.74000 43.14700
H  31.18700 63.19700 42.22200
H  29.17200 62.84400 44.32500
H  32.28600 64.05000 44.06300
H  32.49200 62.34300 44.68100
H  31.20000 63.42000 45.16500
H  28.17100 63.44900 41.68200
H  29.46300 64.45100 42.00300
H  28.36600 65.10900 44.34400
H  26.91800 64.35900 43.56700
H  27.64700 65.76800 42.82400
H  24.12600 61.40300 41.57200
H  24.48800 61.00800 43.24400
H  23.48500 59.94200 42.26500
H  25.43500 55.92000 39.11200
H  23.13000 52.45300 40.19700
H  23.39400 52.88200 41.80400
H  24.79100 52.18600 40.86900

