158

Mg 46.79300 24.24900 28.18300
C  47.64700 26.63900 30.67900
C  46.02500 22.10300 30.88300
C  46.13100 21.74600 25.95100
C  47.79600 26.33800 25.75900
N  46.57700 24.48000 30.53600
C  47.07300 25.50300 31.28500
C  46.95000 25.33100 32.79400
C  46.68700 23.75200 32.83600
C  46.38200 23.42300 31.29300
C  47.79200 22.84200 33.30000
C  45.90300 26.25600 33.49700
C  46.42700 27.34900 34.40400
H  45.58800 27.44200 35.67500
N  46.09500 22.21600 28.37100
C  45.83300 21.54700 29.50700
C  45.35000 20.25700 29.18000
C  45.12800 20.24200 27.76500
C  45.83700 21.41100 27.31400
C  44.98900 19.23100 30.20900
C  44.41300 19.23000 26.88700
O  44.33200 19.34400 25.67800
C  43.67200 18.10300 27.48200
N  47.13000 23.97200 26.14500
C  46.68500 22.92000 25.41700
C  46.75400 23.24100 23.94400
C  47.23300 24.75300 23.82100
C  47.32200 25.09100 25.32700
C  47.65100 22.25300 23.11200
C  46.17400 25.70000 23.04900
C  46.66900 26.24900 21.69800
N  47.57600 26.06300 28.15400
C  48.00300 26.81000 27.07900
C  48.51800 28.10900 27.49700
C  48.30200 28.07800 28.95100
C  47.84300 26.79800 29.29400
C  49.05400 29.16000 26.69200
C  48.59400 28.86200 30.14700
O  49.03200 29.97800 30.38400
C  48.13600 27.94200 31.38800
C  49.38800 27.65600 32.18300
O  50.21100 26.86600 31.93300
O  49.38700 28.36500 33.36000
C  50.58400 28.31200 34.26600
H  45.69300 21.44800 31.69100
H  45.76900 21.06100 25.18200
H  48.01200 27.01600 24.93100
H  47.93300 25.55800 33.20600
H  45.80700 23.46800 33.41400
H  48.31700 23.37600 34.09200
H  48.53200 22.57900 32.54400
H  47.44800 21.91400 33.75600
H  45.20400 25.67100 34.09400
H  45.40800 26.63900 32.60400
H  46.48700 28.32600 33.92500
H  47.40100 26.92500 34.64600
H  44.76100 18.24100 29.81500
H  44.17200 19.57500 30.84400
H  45.82000 19.12000 30.90600
H  43.08300 18.42000 28.34300
H  44.45700 17.40600 27.77700
H  43.02800 17.55600 26.79400
H  45.72800 23.18600 23.58100
H  48.16500 24.82500 23.26200
H  48.02700 22.73000 22.20600
H  46.95800 21.54200 22.66200
H  48.32500 21.64200 23.71200
H  46.05500 26.66300 23.54500
H  45.16900 25.29000 22.95000
H  45.75500 26.23700 21.10400
H  47.50000 25.66900 21.29700
H  46.91000 27.30800 21.78000
H  48.73600 30.03100 27.26500
H  48.47700 29.21200 25.76800
H  50.13300 29.19500 26.54400
H  47.27700 28.38000 31.89800
H  50.97200 29.33000 34.30200
H  51.22900 27.47300 34.00400
H  50.38200 28.06600 35.30800
Mg 50.45300 45.21100 41.40200
C  47.30900 46.03400 40.04000
C  49.85700 41.89900 40.30700
C  53.88700 44.48900 41.45600
C  51.25900 48.58900 41.32500
N  48.67900 44.08500 40.58700
C  47.50400 44.57400 40.04400
C  46.69300 43.44000 39.44400
C  47.35500 42.13100 39.90200
C  48.74000 42.71300 40.38100
C  46.76700 41.33400 41.04000
C  46.74700 43.60300 37.88000
C  45.36600 43.60200 37.18100
H  45.22300 44.54100 35.99400
N  51.59500 43.41800 41.15100
C  51.19900 42.22700 40.65900
C  52.41600 41.46500 40.41700
C  53.54000 42.08700 40.99400
C  53.02800 43.36100 41.30200
C  52.34800 40.22100 39.61800
C  54.95400 41.50700 41.13200
O  55.35000 40.49300 40.55700
C  55.93200 42.10200 42.02100
N  52.30000 46.34600 41.41100
C  53.57700 45.80800 41.55900
C  54.63100 46.95800 41.38100
C  53.80000 48.22100 41.38000
C  52.35000 47.71000 41.44500
C  55.75800 46.85800 42.42800
C  53.98800 49.22800 40.23100
C  54.39300 50.65600 40.72500
N  49.46400 46.96000 41.03800
C  49.89600 48.25400 41.07100
C  48.81900 49.22300 40.78500
C  47.77500 48.33800 40.36700
C  48.19300 47.00500 40.44600
C  48.91700 50.64900 40.70200
C  46.43400 48.38900 39.82500
O  45.69900 49.32100 39.50800
C  46.15500 46.91400 39.47900
C  44.82900 46.51400 40.04000
O  43.85900 46.20400 39.35800
O  44.76700 46.54700 41.40100
C  43.40100 46.60400 41.99700
H  49.81000 40.92800 39.80900
H  54.97000 44.37900 41.37000
H  51.40000 49.66500 41.44600
H  45.68500 43.49000 39.85700
H  47.48400 41.45700 39.05500
H  46.14500 42.02200 41.61300
H  47.48600 40.88000 41.72200
H  46.11900 40.65700 40.48400
H  47.39900 42.81200 37.50800
H  47.27100 44.53600 37.67300
H  44.51700 43.65700 37.86200
H  45.18400 42.56100 36.91100
H  51.42700 39.72900 39.93200
H  53.11300 39.46300 39.78700
H  52.16000 40.42500 38.56400
H  55.49200 42.69800 42.82100
H  56.61100 42.72900 41.44300
H  56.54200 41.32600 42.48400
H  54.99900 46.80900 40.36600
H  54.01300 48.69500 42.33900
H  56.09800 47.80100 42.85700
H  56.70000 46.54500 41.97800
H  55.60400 46.11100 43.20700
H  53.06300 49.26000 39.65600
H  54.69100 48.81700 39.50600
H  55.10300 51.05500 40.00000
H  54.88300 50.79000 41.68900
H  53.52600 51.31100 40.63800
H  47.90100 51.03000 40.80900
H  49.40200 50.97700 39.78300
H  49.52500 50.94600 41.55600
H  45.98400 46.80700 38.40800
H  43.39800 46.48500 43.08000
H  42.80800 45.82600 41.51600
H  42.86600 47.49400 41.66500

