158

Mg 24.58800 -5.02500 45.80500
C  26.84500 -2.60800 44.45700
C  22.25700 -3.78100 43.64700
C  22.83000 -7.73300 46.32600
C  27.42900 -6.38600 47.49800
N  24.59600 -3.32400 44.15400
C  25.58600 -2.47700 43.87900
C  25.06100 -1.35900 42.96600
C  23.52300 -1.49900 43.23700
C  23.43500 -2.99100 43.63200
C  22.91800 -0.53300 44.25900
C  25.63800 -1.62500 41.55700
C  25.72300 -0.36500 40.57500
H  25.08000 -0.45800 39.27900
N  22.75400 -5.61000 45.26400
C  21.95300 -4.94200 44.38200
C  20.73200 -5.71000 44.20300
C  20.73000 -6.74000 45.11400
C  22.09900 -6.74900 45.70700
C  19.60500 -5.22800 43.29900
C  19.57200 -7.63900 45.40400
O  18.48500 -7.60200 44.87300
C  19.71200 -8.59200 46.66400
N  25.01400 -6.76800 46.90300
C  24.15400 -7.78700 46.84500
C  24.74000 -9.09800 47.42600
C  26.19800 -8.65500 47.75900
C  26.20400 -7.14500 47.44700
C  23.88500 -9.84100 48.43500
C  27.35200 -9.41000 47.06100
C  28.56700 -9.58500 47.93800
N  26.76900 -4.47000 46.11400
C  27.71600 -5.18000 46.84400
C  28.89500 -4.41800 46.84900
C  28.67600 -3.35900 45.93800
C  27.32800 -3.49400 45.45900
C  30.19300 -4.72800 47.52600
C  29.21000 -2.19800 45.30000
O  30.24200 -1.60700 45.54200
C  28.14200 -1.75200 44.20000
C  27.87300 -0.28200 44.51700
O  27.14400 0.05100 45.45600
O  28.42500 0.51300 43.56400
C  28.36300 1.99600 43.84600
H  21.44400 -3.30700 43.09300
H  22.33700 -8.67800 46.56000
H  28.30600 -6.91400 47.88000
H  25.49800 -0.40300 43.25700
H  22.93300 -1.46800 42.32100
H  22.86500 -0.96400 45.25900
H  21.88300 -0.31000 44.00000
H  23.60600 0.31300 44.27400
H  25.00200 -2.32200 41.01000
H  26.61900 -2.10000 41.55500
H  26.78600 -0.12300 40.55000
H  25.29400 0.49600 41.08800
H  19.38900 -5.78600 42.38800
H  19.56300 -4.14600 43.17500
H  18.65600 -5.38300 43.81200
H  20.22300 -8.15100 47.52000
H  20.16000 -9.51900 46.30500
H  18.75200 -9.02600 46.94000
H  24.84300 -9.80300 46.60000
H  26.25500 -8.79400 48.83800
H  23.13800 -9.10600 48.73400
H  24.42500 -10.09100 49.34800
H  23.43700 -10.73400 47.99700
H  27.73400 -8.89400 46.18000
H  26.98300 -10.38700 46.75100
H  28.54400 -9.21400 48.96300
H  29.44800 -9.09400 47.52700
H  28.86500 -10.62900 48.03900
H  30.66700 -5.53200 46.96300
H  29.84000 -5.18900 48.44900
H  30.79400 -3.84500 47.74000
H  28.59000 -1.84600 43.21100
H  28.41400 2.15500 44.92300
H  27.48600 2.50900 43.45000
H  29.14500 2.41700 43.21300
Mg 26.44200 50.39600 27.80600
C  24.20200 51.71000 30.18700
C  28.57300 49.52900 30.41700
C  28.58100 49.29300 25.52300
C  24.33400 51.65800 25.26400
N  26.41200 50.70300 30.06800
C  25.36900 51.17200 30.86200
C  25.71600 51.02700 32.40800
C  27.15800 50.40400 32.33500
C  27.40600 50.16200 30.82100
C  28.35500 51.19400 33.00000
C  24.67500 50.16000 33.17200
C  24.31700 50.59700 34.52200
H  25.40600 50.88000 35.51600
N  28.33400 49.52400 27.98400
C  29.04600 49.24300 29.10100
C  30.35600 48.70800 28.79400
C  30.34500 48.55800 27.36500
C  29.00200 49.09600 26.91400
C  31.27300 48.16200 29.88300
C  31.35900 47.95900 26.47600
O  31.05400 47.78700 25.31600
C  32.75400 47.54200 26.97800
N  26.52700 50.61400 25.73700
C  27.50300 49.99000 25.00200
C  27.13500 50.05300 23.41900
C  25.73000 50.60100 23.36800
C  25.49500 50.97000 24.85000
C  28.17400 50.89000 22.62100
C  24.72000 49.46400 22.89600
C  23.55300 49.99300 21.98500
N  24.59300 51.34800 27.68000
C  23.94500 51.85200 26.58600
C  22.73200 52.47200 27.01200
C  22.78400 52.42200 28.40300
C  23.99400 51.74700 28.79300
C  21.67400 53.00000 26.06300
C  22.09200 52.82100 29.67600
O  21.06900 53.49600 29.88100
C  22.98400 52.38900 30.81000
C  23.29100 53.51200 31.66900
O  23.92100 54.49200 31.29300
O  22.90500 53.19000 33.00100
C  23.11700 54.25700 33.96500
H  29.31900 49.23000 31.15700
H  29.32000 49.11100 24.74000
H  23.65000 52.07200 24.52000
H  25.89000 52.03800 32.77600
H  27.12000 49.45000 32.86100
H  28.81500 50.52600 33.72800
H  27.82900 52.05400 33.41500
H  28.97300 51.56800 32.18300
H  24.93400 49.11300 33.32600
H  23.78300 50.19700 32.54700
H  23.56800 49.92400 34.93800
H  23.81400 51.56400 34.54800
H  32.30200 48.44000 29.65900
H  31.18300 47.07700 29.81900
H  31.14600 48.64100 30.85400
H  32.68200 46.58500 27.49400
H  33.30300 48.30900 27.52500
H  33.38100 47.36800 26.10400
H  27.17500 49.03800 23.02300
H  25.72600 51.41200 22.64000
H  29.22000 50.87000 22.92800
H  28.02500 51.96600 22.70700
H  28.19400 50.52800 21.59300
H  24.20400 48.93000 23.69400
H  25.23600 48.69200 22.32400
H  23.82200 50.83400 21.34600
H  22.68200 50.12800 22.62600
H  23.21000 49.15300 21.38100
H  20.94300 53.56000 26.64600
H  21.22800 52.11200 25.61600
H  22.09500 53.49400 25.18700
H  22.44100 51.66800 31.42100
H  24.11000 54.21700 34.41200
H  22.34900 54.13400 34.72700
H  22.89100 55.19600 33.45800

