158

Mg 48.49200 34.40800 26.07500
C  46.73100 33.16500 28.74300
C  48.79800 37.37300 27.72400
C  49.69800 35.71200 23.30700
C  47.67100 31.47600 24.20800
N  47.97300 35.03800 28.10200
C  47.30400 34.36500 29.05500
C  47.36500 35.09900 30.39000
C  47.78800 36.57500 29.98400
C  48.24900 36.33900 28.53100
C  46.61000 37.60600 29.95000
C  48.52500 34.50600 31.35300
C  48.45000 34.76800 32.83300
H  47.31300 35.58800 33.30900
N  49.21800 36.29800 25.59100
C  49.22100 37.37800 26.39900
C  49.90800 38.43700 25.71800
C  50.23400 38.01700 24.45900
C  49.67500 36.65700 24.35700
C  50.13400 39.79300 26.24900
C  50.86100 38.67600 23.31600
O  51.05300 38.13000 22.21500
C  51.37400 40.16500 23.48900
N  48.31200 33.85300 23.98700
C  48.99300 34.57900 23.10500
C  49.06200 33.87900 21.76100
C  49.03600 32.40000 22.17500
C  48.23200 32.54000 23.53600
C  47.86200 34.31000 20.81600
C  50.46800 31.71900 22.47300
C  50.90200 30.55800 21.56500
N  47.41700 32.69800 26.38000
C  47.12800 31.59900 25.51900
C  46.45700 30.54100 26.22100
C  46.17300 31.13700 27.45100
C  46.80600 32.44500 27.49100
C  46.08800 29.32700 25.70500
C  45.52500 30.98700 28.67200
O  44.74000 30.14400 28.97700
C  45.83500 32.21200 29.56400
C  46.46500 31.69400 30.76100
O  47.60500 31.25600 30.81600
O  45.59800 31.70100 31.87800
C  46.18300 31.55400 33.25000
H  48.66300 38.35400 28.18400
H  50.22100 36.05200 22.41100
H  47.67700 30.51800 23.68500
H  46.33400 35.11100 30.74600
H  48.54600 37.08500 30.57700
H  45.68300 37.13600 30.27800
H  46.38200 38.07200 28.99100
H  46.91500 38.39100 30.64200
H  49.45800 34.96900 31.03200
H  48.69100 33.44100 31.19500
H  49.44000 35.13800 33.09900
H  48.42600 33.90100 33.49400
H  51.20500 39.99200 26.25200
H  49.78000 39.77900 27.28000
H  49.54800 40.50300 25.66600
H  52.20100 40.26000 24.19300
H  50.59900 40.90500 23.68700
H  51.87200 40.50600 22.58200
H  50.00300 34.10400 21.25800
H  48.41900 31.78500 21.52000
H  47.41800 33.49400 20.24700
H  48.26700 35.05800 20.13500
H  47.07800 34.66400 21.48600
H  50.49200 31.40100 23.51500
H  51.16100 32.55800 22.39600
H  51.91600 30.76500 21.22100
H  50.42000 30.63300 20.59000
H  50.83600 29.57800 22.03600
H  45.34100 28.91100 26.38200
H  46.99200 28.71900 25.73800
H  45.71200 29.33600 24.68200
H  44.88600 32.66100 29.85700
H  47.23500 31.84000 33.24200
H  46.06800 30.64600 33.84200
H  45.66900 32.22000 33.94300
Mg -5.52200 25.58200 26.29100
C  -4.53300 27.42900 29.32300
C  -7.35700 23.59500 28.54500
C  -6.31700 23.72400 23.80100
C  -3.30000 27.53000 24.60300
N  -5.94700 25.59600 28.71600
C  -5.34900 26.36600 29.70600
C  -5.80600 25.85000 31.11900
C  -6.68100 24.57000 30.83700
C  -6.71700 24.59600 29.30300
C  -6.04100 23.21500 31.48000
C  -6.60400 26.89700 31.88800
C  -6.42000 27.01900 33.41800
H  -5.84400 25.93500 34.23800
N  -6.72000 23.98000 26.16900
C  -7.35000 23.27900 27.17500
C  -8.21600 22.22900 26.55400
C  -7.90400 22.26900 25.15900
C  -6.96900 23.34500 25.02700
C  -9.15700 21.36600 27.36900
C  -8.42400 21.39100 24.06100
O  -7.98800 21.38000 22.92300
C  -9.54400 20.37900 24.34600
N  -4.93800 25.66400 24.49000
C  -5.39200 24.71000 23.56800
C  -4.72300 24.88700 22.14700
C  -3.86900 26.26000 22.38000
C  -4.03100 26.45200 23.91200
C  -3.90200 23.60200 21.68600
C  -4.38300 27.65100 21.74100
C  -4.10700 27.82200 20.28900
N  -4.25100 27.18300 26.72700
C  -3.38600 27.83800 25.93100
C  -2.72600 28.87100 26.64800
C  -3.15600 28.78300 27.94200
C  -4.12900 27.75800 27.98000
C  -1.84100 29.85800 25.98000
C  -3.04000 29.32700 29.26300
O  -2.25900 30.20000 29.64900
C  -3.83200 28.47800 30.19400
C  -2.83600 27.79100 31.05300
O  -2.19400 26.80900 30.66300
O  -2.69300 28.35000 32.27500
C  -1.97300 27.50700 33.27700
H  -7.78500 22.84200 29.21000
H  -6.50200 23.14800 22.89200
H  -2.66700 28.24000 24.06700
H  -4.91500 25.59200 31.69100
H  -7.73000 24.70100 31.10300
H  -6.78900 22.65100 32.03600
H  -5.24800 23.54000 32.15300
H  -5.64400 22.56300 30.70100
H  -7.61000 26.93900 31.47000
H  -6.18400 27.77300 31.39400
H  -7.44300 27.03400 33.79200
H  -5.84400 27.94000 33.50900
H  -10.10600 21.11900 26.89400
H  -9.34100 21.74900 28.37300
H  -8.63000 20.42700 27.53800
H  -9.38100 19.67400 25.16100
H  -9.63700 19.76100 23.45200
H  -10.48600 20.91500 24.46100
H  -5.34000 24.99800 21.25600
H  -2.82100 26.11800 22.11600
H  -2.86400 23.77100 21.39900
H  -4.27300 23.23600 20.72900
H  -4.02200 22.71400 22.30700
H  -4.11100 28.51400 22.34800
H  -5.46700 27.54900 21.77900
H  -3.91100 26.82800 19.88700
H  -3.17600 28.38900 20.30000
H  -4.86000 28.40100 19.75500
H  -2.35900 30.34500 25.15400
H  -1.05600 29.34400 25.42600
H  -1.34800 30.56400 26.64900
H  -4.54900 29.04300 30.78900
H  -2.06200 26.42900 33.14000
H  -2.32700 27.82100 34.25800
H  -0.89900 27.69000 33.24200

