158

Mg 24.34700 -5.89500 45.61500
C  26.34500 -3.43400 44.13000
C  21.79500 -4.95000 43.50200
C  22.55300 -8.59700 46.54700
C  27.19400 -7.11500 47.21500
N  24.20600 -4.47600 43.95400
C  25.07900 -3.48400 43.63300
C  24.53600 -2.59700 42.58300
C  22.99100 -2.80400 42.77800
C  22.98800 -4.20100 43.36500
C  22.36600 -1.76700 43.74900
C  25.04200 -3.08000 41.17100
C  25.37200 -2.01300 40.14400
H  26.03800 -2.52400 38.90100
N  22.41900 -6.70900 45.01200
C  21.53600 -6.08100 44.17800
C  20.36700 -6.89300 44.08200
C  20.55200 -8.03800 44.94700
C  21.88000 -7.82900 45.56200
C  19.16500 -6.62400 43.12000
C  19.53900 -9.13300 45.23500
O  18.50600 -9.17600 44.65400
C  19.74700 -10.10200 46.28000
N  24.79600 -7.64600 46.63700
C  23.86100 -8.56200 47.05800
C  24.51400 -9.58000 47.98200
C  25.95300 -9.15000 48.15300
C  25.98100 -7.87000 47.33700
C  23.81700 -10.02700 49.22600
C  27.05600 -10.25600 47.67500
C  28.19100 -10.47200 48.68000
N  26.42100 -5.27900 45.90700
C  27.40500 -5.91400 46.55300
C  28.64200 -5.10600 46.42100
C  28.26100 -4.12400 45.50900
C  26.87700 -4.26700 45.17800
C  29.92700 -5.38800 47.06000
C  28.74500 -3.07100 44.75400
O  29.85300 -2.63400 44.70900
C  27.53600 -2.61500 43.74600
C  27.41100 -1.16400 43.95900
O  27.44900 -0.65200 45.08200
O  27.22000 -0.46000 42.83100
C  27.06600 1.01600 42.97000
H  20.91900 -4.62900 42.93500
H  22.10300 -9.53300 46.88600
H  28.08200 -7.37100 47.79700
H  24.93800 -1.61700 42.83700
H  22.48900 -2.76700 41.81100
H  21.87600 -2.13300 44.65200
H  21.53800 -1.28600 43.22900
H  23.02300 -0.94200 44.02400
H  24.27300 -3.63900 40.63700
H  25.90700 -3.74300 41.18800
H  26.00100 -1.22000 40.54900
H  24.39900 -1.66000 39.80200
H  19.12200 -5.55100 42.93800
H  18.22800 -6.87000 43.62100
H  19.23100 -7.24400 42.22600
H  18.82100 -10.62200 46.52700
H  20.09800 -9.55400 47.15400
H  20.45800 -10.81500 45.86200
H  24.41100 -10.50400 47.41200
H  26.04500 -8.76200 49.16700
H  23.67600 -11.10600 49.15100
H  22.81500 -9.60000 49.18200
H  24.37000 -9.91800 50.15900
H  27.58200 -10.04100 46.74500
H  26.50600 -11.18900 47.54600
H  28.08600 -9.73700 49.47800
H  29.11200 -10.28300 48.12700
H  28.35200 -11.47100 49.08700
H  29.80500 -5.51600 48.13600
H  30.65000 -4.57400 47.00500
H  30.42700 -6.31200 46.77000
H  27.84500 -2.77400 42.71300
H  27.82400 1.30600 43.69800
H  26.15900 1.35200 43.47200
H  27.28600 1.56100 42.05200
Mg 46.87500 16.64700 27.55800
C  45.07600 16.38200 30.65000
C  49.05200 18.75300 29.22100
C  48.18700 17.36600 24.61200
C  44.17700 15.18000 25.98700
N  47.00800 17.53500 29.76500
C  46.23000 17.09400 30.83700
C  46.79200 17.67900 32.11000
C  47.97800 18.56300 31.64400
C  48.07100 18.26000 30.13300
C  47.85000 20.05000 32.06800
C  47.23100 16.47100 33.05500
C  47.00600 16.65800 34.54300
H  47.24700 18.09600 35.05500
N  48.46000 17.84600 27.02900
C  49.23800 18.63700 27.82100
C  50.35000 19.15100 27.02100
C  50.18200 18.71400 25.68300
C  48.90300 17.92800 25.73700
C  51.46200 19.88700 27.64200
C  51.04400 18.91400 24.48400
O  50.74300 18.49600 23.37100
C  52.41600 19.62100 24.63200
N  46.33300 16.31200 25.65200
C  47.02300 16.65100 24.52600
C  46.41400 16.16300 23.19400
C  45.12000 15.45500 23.68800
C  45.25800 15.62600 25.24000
C  46.01100 17.31100 22.12400
C  44.97200 14.02400 23.17300
C  45.66900 12.99700 23.99300
N  45.06700 15.87800 28.10000
C  44.02700 15.30800 27.31600
C  42.92600 14.91600 28.18000
C  43.27000 15.32400 29.53500
C  44.53700 15.95400 29.38600
C  41.69700 14.25700 27.79900
C  42.77300 15.41100 30.88000
O  41.79700 14.96800 31.45800
C  43.98400 16.03600 31.67000
C  43.45500 17.16300 32.56400
O  43.28800 18.31900 32.15300
O  43.20100 16.74900 33.89200
C  42.80700 17.72500 34.87700
H  49.77900 19.34200 29.78400
H  48.54000 17.64100 23.61600
H  43.32200 14.74800 25.46200
H  45.99000 18.20000 32.63200
H  48.89000 18.23500 32.14100
H  47.05800 20.21500 32.79800
H  47.52700 20.58600 31.17500
H  48.77000 20.48800 32.45600
H  48.28800 16.25400 32.90300
H  46.69800 15.53700 32.87500
H  47.49500 15.90800 35.16500
H  45.95100 16.39900 34.63500
H  51.44800 19.87700 28.73200
H  51.39800 20.87100 27.17800
H  52.34500 19.29900 27.39200
H  52.33000 20.59100 25.12300
H  52.75500 19.79100 23.61000
H  53.03900 19.00300 25.27800
H  47.14200 15.48800 22.74500
H  44.19400 15.99300 23.48900
H  46.46200 18.22400 22.51400
H  44.95900 17.50300 21.91200
H  46.44300 17.04600 21.15900
H  45.42200 13.93000 22.18500
H  43.90700 13.79900 23.22500
H  46.14500 12.26900 23.33600
H  45.00500 12.49700 24.69800
H  46.51600 13.37200 24.56800
H  41.36600 14.61300 26.82400
H  40.88600 14.46700 28.49600
H  41.84200 13.18100 27.70100
H  44.28400 15.30200 32.41800
H  42.51000 17.30800 35.84000
H  41.97400 18.32100 34.50500
H  43.70400 18.34300 34.91600

