158

Mg 44.78200 3.27100 47.38900
C  42.57500 6.02600 47.21000
C  42.07300 1.24200 47.03900
C  46.90100 0.52800 47.38300
C  47.42300 5.39800 47.38400
N  42.59900 3.64900 47.08300
C  41.91000 4.83700 47.03200
C  40.39500 4.68100 46.64900
C  40.30400 3.10800 47.02400
C  41.74100 2.61300 47.04500
C  39.42100 2.78100 48.31600
C  39.97100 5.03000 45.15800
C  39.01800 6.21800 45.03300
H  38.39400 6.34400 43.63600
N  44.51100 1.15300 47.25700
C  43.28700 0.52800 47.10500
C  43.57300 -0.90000 47.00700
C  44.95600 -1.09900 46.87800
C  45.58500 0.22200 47.20500
C  42.47100 -1.90800 46.95500
C  45.60200 -2.45000 46.51200
O  44.89000 -3.42300 46.29100
C  47.16800 -2.62100 46.34400
N  46.85500 2.97700 47.09900
C  47.51500 1.76800 47.40300
C  49.03900 1.98100 47.64200
C  49.16900 3.53900 47.58700
C  47.72200 4.05600 47.34600
C  49.58000 1.31500 48.89300
C  50.13900 4.00700 46.42700
C  51.45800 4.75800 46.81900
N  45.06000 5.32500 47.22700
C  46.15400 6.04400 47.31000
C  45.85100 7.46700 47.31700
C  44.45800 7.48300 47.20900
C  43.97500 6.14300 47.23800
C  46.74600 8.61500 47.34100
C  43.30600 8.36100 47.12700
O  43.27500 9.60100 47.06000
C  42.05500 7.42600 47.05100
C  41.18100 7.72200 48.18800
O  41.53100 7.60500 49.37400
O  39.92600 8.26900 47.82100
C  38.94600 8.61600 48.78700
H  41.15900 0.68200 46.83100
H  47.63800 -0.26900 47.26000
H  48.31500 6.01400 47.51900
H  39.81900 5.26100 47.37100
H  39.87300 2.57700 46.17600
H  39.12600 3.74000 48.74300
H  40.02200 2.27200 49.07000
H  38.56200 2.19800 47.98500
H  39.46200 4.12900 44.81600
H  40.86700 5.00200 44.53800
H  39.47500 7.15300 45.35800
H  38.17900 6.01700 45.69900
H  42.57600 -2.53000 46.06700
H  41.45500 -1.52200 46.87600
H  42.49900 -2.52600 47.85300
H  47.48200 -1.82400 45.67000
H  47.34400 -3.62900 45.96800
H  47.66000 -2.53900 47.31300
H  49.58800 1.50600 46.82900
H  49.52000 3.83300 48.57600
H  48.75100 1.23700 49.59600
H  50.37900 1.95900 49.26200
H  50.02100 0.35000 48.64300
H  49.67700 4.64600 45.67400
H  50.46400 3.16000 45.82300
H  51.44200 5.77100 46.41900
H  52.17800 4.19200 46.22800
H  51.61000 4.66700 47.89400
H  46.95000 8.86400 46.30000
H  47.58400 8.24300 47.93200
H  46.09500 9.39300 47.73900
H  41.48300 7.51200 46.12700
H  39.15600 8.24300 49.78900
H  37.95100 8.36200 48.42200
H  39.00400 9.70200 48.85900
Mg 8.72700 48.40700 28.02000
C  7.17600 47.58000 30.97900
C  11.61200 48.84700 29.64400
C  10.17900 49.44600 25.17500
C  5.58900 48.60900 26.46800
N  9.25600 48.28500 30.10700
C  8.44000 47.96700 31.19600
C  9.21100 48.30900 32.50000
C  10.43100 49.13700 31.90700
C  10.46600 48.76000 30.42000
C  10.37900 50.67100 32.09800
C  9.51000 47.08100 33.44000
C  9.07500 47.27900 34.91400
H  9.50800 46.29000 35.99800
N  10.67400 48.70000 27.39600
C  11.74300 48.82500 28.23900
C  12.94500 48.79100 27.40200
C  12.56500 48.92000 26.06600
C  11.06100 48.97600 26.14400
C  14.27600 48.68700 28.08300
C  13.36800 49.02000 24.79200
O  12.80300 49.03500 23.74900
C  14.91300 48.97400 24.90900
N  7.99200 48.92000 26.13200
C  8.81200 49.50700 25.15700
C  8.05700 50.08900 24.00400
C  6.60900 49.58500 24.28200
C  6.68900 48.96000 25.72200
C  8.09200 51.66200 24.08600
C  6.13800 48.55300 23.19800
C  5.00200 49.07500 22.29300
N  6.74300 48.18100 28.56300
C  5.60100 48.15200 27.78600
C  4.53000 47.78600 28.64100
C  5.10900 47.48700 29.91100
C  6.45000 47.75200 29.79200
C  3.00200 47.66300 28.27400
C  4.78400 47.10300 31.28600
O  3.64800 46.83800 31.71400
C  6.15100 47.06000 31.97800
C  6.30600 45.74700 32.52600
O  6.93200 44.84100 31.94300
O  5.92100 45.75500 33.84000
C  6.43500 44.59800 34.63300
H  12.46300 49.06400 30.29200
H  10.64500 49.96300 24.33300
H  4.62600 48.59800 25.95200
H  8.56300 48.96200 33.08400
H  11.28300 48.81500 32.50600
H  9.56900 50.95400 32.77000
H  10.18600 51.24200 31.18900
H  11.32800 51.02400 32.50300
H  10.54700 46.76100 33.34200
H  8.88700 46.28300 33.03600
H  7.98600 47.25500 34.96400
H  9.27000 48.28500 35.28500
H  14.17500 48.41400 29.13400
H  14.75100 49.66700 28.11900
H  14.83000 47.85100 27.65800
H  15.23400 49.88000 25.42400
H  15.31100 48.83100 23.90500
H  15.33000 48.12800 25.45500
H  8.53700 49.82700 23.06200
H  5.91700 50.41600 24.41900
H  7.20900 52.18600 23.72100
H  8.87500 52.08200 23.45500
H  8.29800 51.88600 25.13300
H  6.00200 47.57100 23.65300
H  6.95300 48.33200 22.50800
H  5.07800 49.11000 21.20600
H  4.69900 50.07400 22.60800
H  4.17200 48.36900 22.30500
H  2.33700 47.64800 29.13800
H  2.89800 46.67900 27.81600
H  2.74900 48.39000 27.50200
H  6.02800 47.81100 32.75800
H  7.25300 44.85100 35.30700
H  6.64500 43.65600 34.12700
H  5.56100 44.40500 35.25600

