158

Mg 7.54200 3.04500 26.96600
C  8.68300 1.53800 29.83400
C  5.44000 4.86800 28.92900
C  6.58900 4.67100 24.21300
C  9.03900 0.53500 25.09300
N  7.12800 3.23200 29.19000
C  7.81100 2.59100 30.12700
C  7.45100 3.01900 31.48600
C  6.19000 3.95200 31.18400
C  6.22900 4.04700 29.65100
C  4.86400 3.36600 31.81100
C  8.53400 3.69800 32.24500
C  8.40400 3.78300 33.74400
H  9.65500 3.93500 34.68500
N  6.19100 4.52700 26.62200
C  5.45200 5.25600 27.55900
C  4.73400 6.26000 26.92100
C  5.05700 6.24600 25.52500
C  6.05500 5.16600 25.39600
C  3.95400 7.28900 27.65100
C  4.57600 7.15300 24.34300
O  4.92200 7.05500 23.17300
C  3.68600 8.28200 24.64700
N  7.73400 2.56300 24.92900
C  7.39700 3.48700 24.00900
C  7.60200 2.89600 22.58300
C  8.27600 1.46000 22.83500
C  8.38000 1.44800 24.35900
C  6.25000 3.05200 21.74100
C  9.51000 1.16400 21.92300
C  9.27100 -0.17100 21.17300
N  8.56100 1.38300 27.33900
C  9.15500 0.48900 26.49600
C  10.03600 -0.38800 27.26800
C  9.75800 -0.07100 28.61500
C  8.92000 0.97500 28.57600
C  10.92500 -1.41800 26.75500
C  10.17800 -0.35700 29.95400
O  10.89500 -1.24000 30.38600
C  9.59200 0.71900 30.79100
C  8.84700 0.10900 31.98500
O  7.78000 -0.47000 31.92500
O  9.66100 0.12300 33.09100
C  9.10700 -0.49500 34.37200
H  4.72100 5.41500 29.54300
H  6.28300 5.09900 23.25600
H  9.54700 -0.22400 24.49300
H  7.07600 2.24700 32.15800
H  6.27800 4.95900 31.59300
H  4.01900 3.48400 31.13200
H  4.79700 3.95200 32.72800
H  4.81100 2.28600 31.94400
H  8.56100 4.75000 31.96000
H  9.56000 3.50200 31.93600
H  7.99600 2.81000 34.01700
H  7.68600 4.56600 33.98700
H  3.51400 7.04400 28.61800
H  3.08800 7.44300 27.00700
H  4.34800 8.30500 27.66100
H  3.44700 8.76700 23.70000
H  4.17900 8.95500 25.34800
H  2.69500 7.93600 24.94100
H  8.27000 3.50200 21.97100
H  7.48200 0.78100 22.52500
H  5.34500 3.26100 22.31200
H  6.13400 2.02800 21.38700
H  6.43700 3.79400 20.96500
H  10.47500 1.05500 22.41800
H  9.52100 1.86900 21.09100
H  9.22000 -0.04000 20.09200
H  8.40800 -0.74000 21.52000
H  10.12900 -0.83300 21.29600
H  11.34500 -1.14400 25.78800
H  10.48900 -2.40800 26.61500
H  11.80700 -1.30400 27.38500
H  10.37800 1.28200 31.29400
H  8.43400 0.13400 34.95500
H  9.90700 -0.76500 35.06100
H  8.65800 -1.43400 34.04800
Mg 47.75100 15.83800 28.55300
C  45.66200 16.04100 31.47500
C  49.97400 17.58800 30.38400
C  49.44200 16.27400 25.68800
C  45.04900 14.41700 26.88000
N  47.85600 16.64300 30.76800
C  46.92800 16.51700 31.74800
C  47.48000 17.00800 33.12500
C  48.87700 17.64800 32.67800
C  48.88600 17.36300 31.12600
C  48.85500 19.22800 32.87800
C  47.47200 15.89200 34.21000
C  47.48300 16.38400 35.73400
H  47.28300 17.86700 36.05700
N  49.47300 16.64800 28.19400
C  50.31800 17.22500 29.04400
C  51.57200 17.61900 28.45100
C  51.43600 17.26200 27.06200
C  50.09800 16.68200 26.91500
C  52.77800 18.23600 29.14100
C  52.41800 17.49000 25.96200
O  52.30500 17.00400 24.83900
C  53.69100 18.23700 26.27500
N  47.25300 15.32200 26.61200
C  48.14100 15.66500 25.60500
C  47.64300 15.29500 24.23000
C  46.21100 14.62600 24.59500
C  46.19000 14.68200 26.10400
C  47.47100 16.59100 23.38600
C  45.96300 13.14900 24.00800
C  45.39800 12.96800 22.58600
N  45.72300 15.43500 28.95600
C  44.76700 14.72500 28.23200
C  43.60100 14.40000 29.00300
C  43.87500 14.88200 30.23900
C  45.19300 15.57500 30.20500
C  42.40400 13.73100 28.48000
C  43.41900 15.00400 31.63300
O  42.45500 14.47500 32.14300
C  44.54900 15.79900 32.41600
C  44.00800 16.93700 33.16900
O  43.99100 18.10900 32.77400
O  43.54700 16.49900 34.39300
C  42.91300 17.51400 35.26700
H  50.65600 18.20600 30.97200
H  49.95500 16.31400 24.72500
H  44.25100 13.89500 26.34800
H  46.87700 17.83400 33.50400
H  49.65300 17.04100 33.14500
H  49.85700 19.48700 33.22200
H  48.12400 19.57100 33.61000
H  48.79200 19.75000 31.92300
H  48.43400 15.42600 33.99400
H  46.71900 15.12400 34.03400
H  48.40300 15.98500 36.16000
H  46.61300 15.80800 36.04900
H  52.65600 18.23400 30.22400
H  53.07900 19.27400 28.99500
H  53.57500 17.53500 28.89500
H  53.41900 19.13400 26.83200
H  54.09100 18.48300 25.29100
H  54.40900 17.59100 26.77800
H  48.31900 14.54400 23.82000
H  45.42200 15.30800 24.28000
H  46.52400 16.49000 22.85600
H  48.27500 16.65800 22.65400
H  47.59400 17.44500 24.05200
H  45.16900 12.71100 24.61200
H  46.86500 12.53800 24.05100
H  45.45400 13.91700 22.05400
H  44.33200 12.74700 22.63800
H  45.90600 12.12200 22.12300
H  42.09800 14.05600 27.48500
H  41.51500 13.95000 29.07000
H  42.51800 12.64700 28.46100
H  44.82400 15.15600 33.25300
H  43.11300 18.58200 35.18000
H  43.15900 17.11800 36.25200
H  41.84100 17.40000 35.10900

