158

Mg 42.86900 4.16100 47.19700
C  41.14900 7.08700 47.10200
C  40.06000 2.36100 46.88100
C  44.77900 1.38200 46.68300
C  45.94800 6.25900 46.72900
N  40.82000 4.74800 46.87300
C  40.33500 5.92900 47.08400
C  38.75000 5.93800 47.07000
C  38.45800 4.40000 47.10100
C  39.89600 3.76400 46.91700
C  37.76500 3.88900 48.39500
C  38.16000 6.71800 45.90900
C  39.04500 6.69000 44.57400
H  38.31100 6.11600 43.33300
N  42.45400 2.06800 46.93300
C  41.23200 1.55900 46.75300
C  41.29900 0.18100 46.60400
C  42.69400 -0.17900 46.48100
C  43.39200 1.12400 46.71600
C  40.02500 -0.77100 46.38200
C  43.21700 -1.57500 46.24500
O  42.40600 -2.49700 46.30500
C  44.64400 -1.87000 46.26200
N  44.99000 3.89200 46.70600
C  45.46800 2.59000 46.68000
C  47.03500 2.65300 46.59700
C  47.35500 4.17200 46.52900
C  45.95900 4.83500 46.63400
C  47.69600 1.93600 47.72800
C  48.31300 4.65800 45.40600
C  49.53100 5.46800 45.78900
N  43.46100 6.29400 47.02000
C  44.68900 6.95300 46.87100
C  44.49800 8.33300 46.79400
C  43.10000 8.48500 46.96100
C  42.54200 7.19400 46.94800
C  45.57700 9.32600 46.38300
C  42.01900 9.39500 47.15200
O  42.08700 10.64700 47.25400
C  40.73300 8.56700 47.07500
C  39.77600 8.93900 48.21100
O  39.68300 8.43200 49.34400
O  38.93400 9.87200 47.69600
C  37.82700 10.14600 48.55500
H  39.16500 1.73700 46.84400
H  45.39900 0.50300 46.49200
H  46.93500 6.72200 46.65600
H  38.37800 6.43500 47.96600
H  37.84600 4.14400 46.23600
H  37.39600 4.73800 48.97000
H  38.52400 3.41800 49.02000
H  36.94400 3.18200 48.27400
H  38.01300 7.71500 46.32400
H  37.17400 6.34300 45.63200
H  39.95100 6.08700 44.63900
H  39.36000 7.71500 44.37600
H  39.67000 -0.75400 45.35100
H  39.21300 -0.34900 46.97400
H  40.26000 -1.77400 46.73900
H  45.16000 -1.45800 47.12900
H  45.05300 -1.64100 45.27800
H  44.62400 -2.95900 46.28000
H  47.33600 2.15000 45.67700
H  47.85900 4.38500 47.47200
H  48.00800 0.92800 47.45700
H  47.04800 1.85300 48.60100
H  48.61000 2.46500 47.99600
H  47.68700 5.21900 44.71300
H  48.61100 3.82000 44.77500
H  50.43500 4.90300 45.56100
H  49.52900 5.65900 46.86200
H  49.54100 6.37600 45.18700
H  46.00900 9.02000 45.43000
H  46.36700 9.32800 47.13400
H  45.27600 10.36800 46.27500
H  40.28900 8.65700 46.08300
H  37.04100 10.65300 47.99500
H  38.13300 10.64200 49.47600
H  37.43900 9.13800 48.70600
Mg -12.03300 16.94900 41.60000
C  -9.15200 14.96300 41.11900
C  -10.45300 19.48200 40.12000
C  -15.00300 18.50700 41.23800
C  -13.70700 13.96000 42.64900
N  -10.04100 17.13400 40.55300
C  -9.01600 16.23300 40.54100
C  -7.71500 16.81500 40.04100
C  -8.12000 18.34700 40.02900
C  -9.66600 18.30300 40.29500
C  -7.47400 19.30400 41.03800
C  -7.24000 16.15600 38.74400
C  -5.76900 15.84700 38.57400
H  -5.09100 16.39400 37.28600
N  -12.61700 18.78500 40.66800
C  -11.81600 19.74500 40.25200
C  -12.56400 20.94400 39.97100
C  -13.92100 20.69100 40.24400
C  -13.94500 19.28700 40.78100
C  -11.99100 22.23300 39.44900
C  -15.11000 21.64800 40.18100
O  -14.98900 22.87000 40.03600
C  -16.53500 21.16800 40.38900
N  -14.05700 16.31300 41.92500
C  -15.14100 17.21200 41.66100
C  -16.44700 16.37600 41.67800
C  -16.05000 14.98200 42.29500
C  -14.52200 15.05500 42.22900
C  -17.64900 17.15300 42.35800
C  -16.73400 13.81500 41.43000
C  -17.10300 12.47800 42.07500
N  -11.57900 14.92500 41.99800
C  -12.30700 13.88900 42.45800
C  -11.47700 12.73000 42.66200
C  -10.24600 13.12700 42.15600
C  -10.36000 14.48500 41.69000
C  -11.87600 11.37800 43.17700
C  -8.87800 12.69600 41.84900
O  -8.36400 11.59900 42.03400
C  -8.12300 13.84500 41.05600
C  -6.88900 14.15900 41.83300
O  -6.83500 14.83900 42.84100
O  -5.69700 13.66900 41.26500
C  -4.48700 14.34400 41.81100
H  -9.88900 20.38700 39.88600
H  -16.00800 18.93500 41.24400
H  -14.30300 13.05600 42.79100
H  -6.87400 16.64100 40.71300
H  -8.01900 18.76500 39.02700
H  -6.75000 18.68900 41.57100
H  -8.27700 19.69400 41.66300
H  -6.94300 20.24400 40.88400
H  -7.54100 16.84500 37.95500
H  -7.74300 15.21300 38.52700
H  -5.69400 14.76100 38.63300
H  -5.28500 16.26200 39.45800
H  -11.47400 21.94800 38.53200
H  -11.22000 22.50800 40.16800
H  -12.64300 23.03600 39.10600
H  -17.24200 21.96600 40.16200
H  -16.62000 20.90700 41.44400
H  -16.76300 20.28100 39.79800
H  -16.64000 16.33400 40.60600
H  -16.32200 14.98600 43.35000
H  -18.43800 17.31200 41.62300
H  -17.42000 18.06700 42.90600
H  -17.91300 16.56300 43.23500
H  -15.96200 13.50800 40.72500
H  -17.55300 14.22800 40.84200
H  -16.53100 11.68900 41.58800
H  -18.15000 12.22100 41.91600
H  -16.86000 12.42400 43.13700
H  -12.09900 11.62100 44.21600
H  -11.19600 10.54400 43.00300
H  -12.78700 11.21800 42.60100
H  -7.89100 13.57300 40.02600
H  -4.55900 15.42300 41.94300
H  -3.69600 13.99800 41.14400
H  -4.27400 13.98600 42.81800

