158

Mg 34.75000 2.79300 29.02700
C  32.75500 3.31400 31.85700
C  37.43400 2.21300 31.15700
C  36.61400 2.44400 26.34000
C  31.88600 3.64500 27.01300
N  35.04600 2.87100 31.22900
C  34.08000 2.90200 32.19400
C  34.60000 2.74000 33.64200
C  36.18800 2.60700 33.34200
C  36.31200 2.63400 31.82400
C  37.04900 3.78400 33.98500
C  33.93300 1.59200 34.39800
C  33.58600 1.78000 35.90400
H  34.43400 2.65600 36.81900
N  36.73700 2.44900 28.72800
C  37.65900 2.19400 29.72000
C  39.00100 2.02700 29.05300
C  38.83100 2.14100 27.66700
C  37.32700 2.27100 27.48300
C  40.30000 2.01700 29.81800
C  39.88900 2.08200 26.64300
O  39.52100 2.17300 25.44300
C  41.32100 1.68800 26.89700
N  34.30900 3.25300 26.93000
C  35.26100 2.85500 26.03100
C  34.76900 3.15100 24.59500
C  33.22900 3.37100 24.83600
C  33.12300 3.46600 26.39700
C  35.55700 4.21400 23.92100
C  32.24500 2.33000 24.20800
C  32.28700 0.92200 24.74600
N  32.76100 3.23700 29.32300
C  31.69700 3.56400 28.45600
C  30.48100 3.72300 29.16600
C  30.83500 3.66800 30.49400
C  32.16300 3.35900 30.59700
C  29.11000 4.04700 28.70300
C  30.34400 3.80200 31.88000
O  29.20600 3.96000 32.32200
C  31.59100 3.55800 32.77500
C  31.74100 4.78500 33.67400
O  32.04700 5.90600 33.29400
O  31.48100 4.56200 34.97800
C  31.62000 5.74200 35.83500
H  38.24500 1.97500 31.84800
H  37.15800 2.38100 25.39500
H  31.11600 3.76300 26.24700
H  34.46100 3.72600 34.08600
H  36.53200 1.70000 33.83900
H  36.39400 4.49400 34.49000
H  37.69000 4.30500 33.27400
H  37.65500 3.23700 34.70600
H  34.71600 0.83700 34.32600
H  33.07200 1.27600 33.81000
H  33.41000 0.79400 36.33200
H  32.61700 2.27800 35.88000
H  40.88900 1.14200 29.54500
H  40.13500 1.94900 30.89300
H  40.81400 2.97600 29.74400
H  41.29400 0.72300 27.40300
H  41.74400 2.26700 27.71800
H  41.78800 1.69600 25.91200
H  34.84600 2.24900 23.98800
H  33.02900 4.37200 24.45500
H  36.00500 4.75400 24.75500
H  34.92000 4.91700 23.38400
H  36.30100 3.84300 23.21700
H  32.44000 2.22800 23.14000
H  31.26400 2.80500 24.20900
H  32.38500 0.25100 23.89300
H  31.37300 0.80900 25.33000
H  33.11600 0.73900 25.42900
H  29.07300 5.02100 28.21300
H  28.45900 4.16000 29.57000
H  28.90200 3.27600 27.96100
H  31.39800 2.67000 33.37800
H  31.07500 5.52800 36.75500
H  31.25500 6.69000 35.43900
H  32.69400 5.83900 35.99300
Mg 16.91500 52.20300 25.67800
C  18.36700 50.59100 28.38700
C  14.44700 53.29600 27.91800
C  15.46100 53.79500 23.20500
C  19.27600 50.85200 23.59900
N  16.43800 51.74400 27.96500
C  17.29000 51.25100 28.82500
C  16.87300 51.42700 30.24800
C  15.45100 52.04400 30.03000
C  15.41200 52.34900 28.51800
C  14.23400 51.11400 30.49100
C  17.82800 52.44400 31.03900
C  18.19700 52.11400 32.52400
H  17.27600 52.64200 33.63200
N  15.23000 53.43200 25.60300
C  14.39700 53.80100 26.64100
C  13.46400 54.70900 26.15500
C  13.72200 54.87000 24.73000
C  14.89800 54.09600 24.49200
C  12.45700 55.42600 27.11000
C  13.05900 55.76400 23.71600
O  13.27200 55.75700 22.49600
C  11.93100 56.67500 24.25200
N  17.38900 52.51800 23.72800
C  16.58000 53.07900 22.84700
C  17.18300 53.13600 21.43800
C  18.57200 52.30200 21.62700
C  18.43400 51.87200 23.08200
C  16.20900 52.59500 20.31300
C  19.87800 53.01700 21.30200
C  19.95400 54.46300 21.86800
N  18.46800 50.86800 25.86000
C  19.37700 50.36100 24.96000
C  20.36600 49.53300 25.59800
C  19.97700 49.58700 26.96400
C  18.85000 50.40400 27.03300
C  21.59300 48.93500 24.90500
C  20.43800 49.22600 28.30300
O  21.37100 48.53100 28.70900
C  19.49400 50.00700 29.26500
C  18.80200 48.97700 30.15600
O  17.96600 48.12800 29.81500
O  19.29500 49.12600 31.40000
C  19.08900 48.02900 32.38900
H  13.80600 53.73200 28.68800
H  14.98200 54.21200 22.31600
H  19.92100 50.47000 22.80600
H  16.81500 50.45300 30.73400
H  15.39700 53.03400 30.48200
H  13.60800 51.66200 31.19500
H  14.55200 50.25500 31.08200
H  13.59400 50.82000 29.65900
H  17.32300 53.41000 31.03100
H  18.76100 52.53000 30.48200
H  19.16800 52.54600 32.76700
H  18.36700 51.03800 32.52100
H  12.65300 56.49700 27.06300
H  12.50600 55.27300 28.18800
H  11.41100 55.31500 26.82400
H  12.46100 57.26900 24.99600
H  11.18600 56.01700 24.69800
H  11.42000 57.21700 23.45700
H  17.53900 54.09600 21.06400
H  18.42800 51.46200 20.94700
H  15.24800 53.02800 20.59100
H  16.12000 51.52200 20.48200
H  16.54300 52.85900 19.30900
H  20.02800 53.02800 20.22200
H  20.73900 52.45800 21.66700
H  19.11300 54.87300 22.42700
H  20.10300 55.17900 21.06000
H  20.87700 54.51300 22.44700
H  21.71500 47.95000 25.35500
H  22.47600 49.53700 25.12100
H  21.46700 48.86600 23.82500
H  20.02200 50.78700 29.81400
H  18.13000 47.51600 32.31700
H  19.07900 48.57600 33.33200
H  19.91600 47.32600 32.29400

