158

Mg 5.43600 54.15900 40.10500
C  4.61700 50.65800 40.13700
C  8.56600 53.21100 39.05700
C  6.04400 57.31800 39.43300
C  2.05600 54.93400 40.54600
N  6.37300 52.12500 39.45400
C  5.88300 50.87900 39.57000
C  6.95900 49.82700 39.22000
C  8.24500 50.72700 39.38400
C  7.69900 52.15500 39.32500
C  9.20300 50.61300 40.66300
C  6.79300 49.13300 37.87800
C  6.27500 49.84500 36.64600
H  7.12900 50.95200 36.05900
N  7.08200 55.09100 39.23100
C  8.30900 54.60700 39.03200
C  9.23500 55.68200 38.82400
C  8.55500 56.93000 38.79500
C  7.15600 56.49700 39.14800
C  10.76300 55.34700 38.64100
C  9.17200 58.33000 38.59000
O  10.38500 58.49800 38.44700
C  8.26800 59.54200 38.29800
N  4.24300 55.80300 39.94500
C  4.80800 57.06000 39.84700
C  3.76100 58.17700 40.14900
C  2.43800 57.37300 40.28400
C  2.96100 55.94200 40.23100
C  4.01200 59.04200 41.39900
C  1.37600 57.64700 39.23200
C  -0.01700 58.03200 39.86400
N  3.69700 53.04100 40.42800
C  2.41600 53.52400 40.70800
C  1.63200 52.34900 41.04200
C  2.41500 51.18900 40.91500
C  3.65400 51.69900 40.44500
C  0.18100 52.34400 41.36700
C  2.48400 49.81500 41.05000
O  1.61500 49.00300 41.38500
C  3.98200 49.37200 40.64700
C  3.90300 48.33000 39.65500
O  3.86800 48.50400 38.46000
O  4.16500 47.05700 40.14800
C  4.13600 45.88100 39.20700
H  9.59000 52.95400 38.78000
H  6.18900 58.40000 39.39600
H  1.08900 55.16900 40.99700
H  6.96900 49.10200 40.03400
H  8.93500 50.50300 38.57100
H  8.92900 49.72700 41.23600
H  9.04900 51.45600 41.33700
H  10.25200 50.55200 40.37200
H  6.28500 48.20900 38.15400
H  7.77000 48.87100 37.47200
H  5.27300 50.21500 36.86700
H  6.15300 49.06700 35.89200
H  11.17300 56.06700 37.93300
H  10.83600 54.41000 38.08900
H  11.43000 55.20000 39.49000
H  8.76200 60.35500 37.76700
H  7.95600 60.03500 39.21900
H  7.35700 59.25300 37.77400
H  3.76300 58.88700 39.32200
H  2.03900 57.50700 41.29000
H  4.57700 58.37200 42.04800
H  3.06500 59.35900 41.83400
H  4.50700 59.98000 41.14900
H  1.37200 56.87000 38.46800
H  1.69300 58.50600 38.64000
H  0.00400 58.00000 40.95300
H  -0.86700 57.39200 39.62600
H  -0.20000 59.08500 39.65400
H  -0.44000 53.19900 41.09900
H  0.23400 52.32500 42.45600
H  -0.26700 51.42100 41.00000
H  4.47600 48.90000 41.49600
H  3.16800 45.39100 39.09800
H  4.60800 44.98600 39.61200
H  4.47900 46.13200 38.20300
Mg 9.00700 48.79600 25.89200
C  6.91400 49.02800 28.64500
C  11.74200 49.79400 27.96600
C  11.15200 48.33000 23.35600
C  6.35100 48.23600 23.84900
N  9.30600 49.40500 28.05400
C  8.31800 49.20800 29.02000
C  8.95400 49.46200 30.44200
C  10.40100 50.06500 30.10500
C  10.51800 49.75900 28.61300
C  10.67000 51.57500 30.49000
C  9.11800 48.24100 31.43400
C  8.80700 48.50500 32.86800
H  8.58500 47.28800 33.66800
N  11.12100 49.02400 25.63400
C  12.02900 49.47200 26.63600
C  13.40100 49.43300 26.06200
C  13.27800 48.95500 24.72600
C  11.81100 48.73500 24.49100
C  14.66900 49.81700 26.80300
C  14.37900 48.72200 23.70000
O  14.10300 48.20600 22.63400
C  15.89100 49.03400 24.00500
N  8.75900 48.63000 23.80800
C  9.73100 48.26000 23.03800
C  9.24300 47.80200 21.62600
C  7.68300 47.84900 21.75900
C  7.59500 48.27900 23.22700
C  9.83000 48.77900 20.46600
C  6.95300 46.50800 21.48000
C  5.64500 46.72800 20.70900
N  7.05800 48.65200 26.08700
C  6.04500 48.44500 25.16900
C  4.75700 48.40900 25.80400
C  5.03400 48.70400 27.23200
C  6.43400 48.77500 27.31500
C  3.52600 48.09000 25.08700
C  4.45900 48.89400 28.54900
O  3.28400 48.78400 28.98000
C  5.68900 49.10900 29.50400
C  5.58600 48.06200 30.52600
O  5.76800 46.88700 30.43800
O  5.23300 48.76600 31.74800
C  4.91400 47.98900 32.94200
H  12.47200 50.12400 28.70800
H  11.87500 48.05200 22.58600
H  5.46700 48.11400 23.21900
H  8.38700 50.19000 31.02300
H  11.25200 49.62200 30.62200
H  11.16100 51.68100 31.45700
H  9.66200 51.94300 30.67900
H  11.09600 52.18600 29.69400
H  10.12600 47.84000 31.54100
H  8.54900 47.39300 31.05200
H  7.89900 49.09900 32.97600
H  9.58700 49.11100 33.33000
H  15.25400 48.91800 26.99400
H  14.45600 50.33300 27.74000
H  15.19400 50.58000 26.22800
H  16.41700 49.02500 23.05100
H  16.30400 48.32300 24.72100
H  15.93700 50.03400 24.43700
H  9.70700 46.81800 21.56700
H  7.12000 48.54500 21.13700
H  9.35400 49.74600 20.62400
H  9.69800 48.33300 19.48000
H  10.90800 48.84800 20.61500
H  6.81300 45.82500 22.31800
H  7.59600 45.83200 20.91600
H  5.77900 46.05900 19.85900
H  5.56600 47.75900 20.36400
H  4.75300 46.47400 21.28200
H  3.21500 48.91000 24.43900
H  2.94400 47.77400 25.95300
H  3.73400 47.26700 24.40300
H  5.49700 50.10000 29.91600
H  5.83700 47.47900 33.21800
H  4.15400 47.25200 32.68200
H  4.52100 48.54600 33.79200

