158

Mg 8.99300 3.83200 27.20300
C  10.25700 2.22200 30.03000
C  7.03800 5.75000 29.24000
C  7.87400 5.47800 24.50600
C  10.69300 1.57300 25.24800
N  8.68900 3.87500 29.39200
C  9.42100 3.26600 30.38000
C  9.08000 3.90100 31.72700
C  7.85600 4.83200 31.53300
C  7.86400 4.82300 29.95800
C  6.50200 4.41100 32.08600
C  10.32200 4.54500 32.37900
C  10.16900 5.18100 33.77900
H  10.99600 4.62100 34.97700
N  7.62200 5.33900 26.89000
C  6.87300 5.98500 27.84800
C  6.09900 7.10500 27.25300
C  6.49700 7.13900 25.91800
C  7.35400 5.93100 25.72400
C  5.16700 8.02900 27.99700
C  6.18200 8.15000 24.87100
O  6.52400 7.99700 23.67700
C  5.45700 9.48700 25.24900
N  9.02200 3.37300 25.10800
C  8.68600 4.33100 24.24300
C  9.19700 4.02600 22.88300
C  10.06300 2.69200 23.02100
C  9.90600 2.46500 24.53800
C  8.08900 3.95600 21.83400
C  11.55200 2.75200 22.42900
C  11.98400 1.52600 21.67600
N  10.19100 2.15600 27.48600
C  10.82500 1.37500 26.59300
C  11.64400 0.36900 27.22100
C  11.40600 0.67000 28.59900
C  10.49200 1.76100 28.68300
C  12.55000 -0.71100 26.71900
C  11.73800 0.29700 29.87400
O  12.60000 -0.51200 30.14700
C  11.09200 1.27800 30.89900
C  10.38400 0.65700 32.05800
O  9.22200 0.24100 31.96400
O  11.19600 0.68600 33.15900
C  10.39800 0.58100 34.37400
H  6.50600 6.36400 29.96800
H  7.80600 6.24000 23.72700
H  11.26200 0.88300 24.62100
H  8.83200 3.07900 32.39700
H  8.06300 5.87600 31.76500
H  6.62100 3.41400 32.51000
H  5.69700 4.33700 31.35500
H  6.11600 4.98300 32.93000
H  10.74300 5.33600 31.75700
H  11.15600 3.84300 32.39500
H  9.14100 5.13400 34.13800
H  10.36100 6.25000 33.69500
H  5.65500 8.96400 28.26900
H  4.92800 7.59100 28.96600
H  4.23800 8.16600 27.44300
H  5.63600 10.16400 24.41300
H  5.89100 9.96700 26.12600
H  4.43100 9.12500 25.31800
H  9.82600 4.85900 22.57100
H  9.57700 1.82300 22.57700
H  7.17000 4.18300 22.37500
H  7.92600 3.07000 21.22000
H  8.14100 4.74100 21.07900
H  12.25600 2.85800 23.25500
H  11.64900 3.63700 21.80000
H  12.81900 1.00200 22.14100
H  12.20400 1.84000 20.65600
H  11.12300 0.86000 21.61400
H  12.36200 -0.85800 25.65600
H  12.41400 -1.69500 27.16600
H  13.56400 -0.39100 26.96200
H  11.97300 1.82200 31.23900
H  11.06100 0.20300 35.15200
H  9.52600 -0.07300 34.36600
H  10.07500 1.59400 34.61300
Mg 35.44300 49.75600 25.65400
C  36.03300 47.87100 28.51600
C  34.27500 52.25800 27.82600
C  34.46700 51.52300 23.16900
C  36.24200 46.87000 23.64200
N  35.16800 49.99100 27.95200
C  35.54300 49.13200 28.92400
C  35.41300 49.68400 30.37300
C  34.61300 51.08700 30.11100
C  34.65700 51.08500 28.52800
C  33.16800 51.04000 30.64800
C  36.73200 49.91500 31.08700
C  36.90100 49.11500 32.43800
H  36.72800 49.92700 33.68500
N  34.71200 51.71300 25.50000
C  34.35100 52.59400 26.44900
C  34.03400 53.87800 25.83600
C  33.94500 53.67700 24.46300
C  34.33000 52.21100 24.33600
C  33.79700 55.12300 26.66800
C  33.59700 54.65300 23.33200
O  33.42000 54.24300 22.19900
C  33.55600 56.16600 23.57000
N  35.41000 49.26500 23.74300
C  34.88000 50.21500 22.89500
C  34.77400 49.62800 21.41800
C  35.47600 48.20600 21.59000
C  35.67700 48.04200 23.10800
C  33.35600 49.54900 20.82900
C  36.88100 48.03400 20.84000
C  37.48600 46.56700 20.54500
N  36.05100 47.79300 25.94600
C  36.40100 46.75700 25.05500
C  36.83900 45.56600 25.86100
C  36.74500 45.97700 27.17800
C  36.35100 47.34100 27.20900
C  37.38100 44.33800 25.19000
C  37.01500 45.58900 28.54600
O  37.44100 44.46900 28.93100
C  36.58000 46.81200 29.45500
C  35.54700 46.34700 30.45000
O  34.31800 46.44100 30.32100
O  36.10000 45.85500 31.54300
C  35.22500 45.55200 32.68500
H  33.94700 53.06300 28.48700
H  34.20100 52.06300 22.25800
H  36.60800 46.06700 23.00000
H  34.77100 49.03900 30.97300
H  35.12000 51.98800 30.45700
H  32.82400 51.78500 31.36600
H  32.79100 50.12500 31.10500
H  32.61000 51.17600 29.72200
H  36.63900 50.94000 31.44600
H  37.64600 49.70800 30.53100
H  37.89300 48.66400 32.41900
H  36.16000 48.31500 32.43400
H  34.42500 55.93000 26.29100
H  34.10100 55.06500 27.71300
H  32.75400 55.33500 26.43200
H  34.37900 56.43100 24.23300
H  32.57500 56.31400 24.02200
H  33.51400 56.65000 22.59400
H  35.37900 50.21900 20.73100
H  34.75300 47.42000 21.37000
H  33.45500 49.95800 19.82300
H  32.72300 50.26200 21.35700
H  32.88600 48.56600 20.86900
H  37.56900 48.40400 21.60100
H  36.92700 48.70600 19.98400
H  37.98700 46.48000 19.58100
H  36.58500 45.95300 20.55000
H  38.29200 46.34100 21.24200
H  38.47100 44.32100 25.18800
H  36.86400 44.27600 24.23300
H  37.19000 43.51800 25.88300
H  37.43800 47.19100 30.01000
H  35.66700 45.96300 33.59300
H  35.06300 44.53500 33.04000
H  34.23400 46.00100 32.75300

