158

Mg -12.18600 38.44400 42.68600
C  -10.22800 35.61900 41.82000
C  -9.68100 40.49500 41.36400
C  -14.16400 41.22700 42.98000
C  -14.81400 36.28900 43.40100
N  -10.19500 38.05400 41.71900
C  -9.60200 36.83200 41.53900
C  -8.31500 36.99000 40.65600
C  -8.04900 38.56200 40.87800
C  -9.41300 39.08500 41.33900
C  -6.90200 38.96100 41.88200
C  -8.50700 36.52700 39.17600
C  -7.20900 35.81700 38.70900
H  -6.44400 36.47800 37.56100
N  -11.94900 40.60700 42.24900
C  -10.84000 41.17300 41.77300
C  -11.08500 42.61600 41.59300
C  -12.36200 42.90600 42.19800
C  -12.91200 41.55800 42.51500
C  -10.12800 43.62000 40.97500
C  -13.07600 44.19700 42.54500
O  -12.74400 45.32300 42.17600
C  -14.41400 44.19600 43.34300
N  -14.18900 38.74100 43.12400
C  -14.75200 39.94400 43.25300
C  -16.23500 39.91400 43.72700
C  -16.48400 38.28400 43.77600
C  -15.08100 37.72700 43.36700
C  -16.61600 40.68600 44.96600
C  -17.69100 37.72200 42.91200
C  -18.90300 37.38400 43.68800
N  -12.46500 36.39800 42.86100
C  -13.58500 35.65700 43.17900
C  -13.31100 34.28500 42.92300
C  -11.98100 34.23300 42.50900
C  -11.52300 35.58800 42.37800
C  -14.20600 33.07400 43.08900
C  -10.89700 33.38400 42.07100
O  -10.80800 32.18700 42.01800
C  -9.74300 34.24000 41.53000
C  -8.66600 33.90100 42.44800
O  -8.65800 34.11000 43.65200
O  -7.56300 33.24800 41.89100
C  -6.37400 33.11000 42.64800
H  -8.99300 41.10500 40.77500
H  -14.99200 41.87700 43.27100
H  -15.64700 35.65900 43.71900
H  -7.51100 36.42000 41.12100
H  -7.92200 38.99700 39.88700
H  -6.50800 38.03900 42.31000
H  -7.21500 39.70400 42.61500
H  -6.14200 39.37200 41.21800
H  -8.69000 37.32600 38.45900
H  -9.35800 35.84800 39.11400
H  -7.40500 34.77600 38.45200
H  -6.42600 35.78900 39.46700
H  -10.29600 43.62300 39.89800
H  -9.08700 43.31700 41.08800
H  -10.18200 44.63700 41.36300
H  -15.23000 43.84700 42.71000
H  -14.65900 45.18200 43.73900
H  -14.24300 43.61400 44.24800
H  -16.82200 40.21600 42.86000
H  -16.56900 37.97900 44.81800
H  -17.16300 40.13900 45.73300
H  -17.19200 41.56900 44.68900
H  -15.70200 40.97600 45.48400
H  -17.40300 36.85300 42.32100
H  -18.04200 38.50900 42.24400
H  -18.97900 36.30300 43.80100
H  -19.80800 37.73300 43.19100
H  -18.86100 37.78400 44.70100
H  -15.15600 33.35000 42.63200
H  -14.43100 32.90600 44.14200
H  -13.90200 32.20100 42.51200
H  -9.46800 33.99800 40.50300
H  -5.56300 32.96900 41.93300
H  -6.50400 32.15500 43.15700
H  -6.18300 33.94400 43.32200
Mg -1.54100 34.59900 25.88700
C  -3.17500 32.61800 28.44800
C  -0.18400 36.52000 28.26900
C  -0.21500 36.20800 23.40500
C  -3.49500 32.77900 23.47200
N  -1.57900 34.58500 28.13100
C  -2.34500 33.72900 28.91000
C  -2.12200 34.04300 30.42200
C  -1.36600 35.38600 30.34600
C  -0.98400 35.53700 28.89800
C  -2.18000 36.55300 30.77600
C  -1.28100 32.92600 31.19400
C  -1.98100 32.13100 32.29300
H  -1.23100 32.14000 33.64000
N  -0.26900 36.07800 25.81100
C  0.18200 36.79500 26.89500
C  1.07300 37.79700 26.42400
C  1.21800 37.61800 25.02100
C  0.18900 36.63700 24.68500
C  1.83700 38.69900 27.38200
C  2.21700 38.11700 23.99200
O  2.21600 37.93300 22.73400
C  3.21200 39.01200 24.56000
N  -1.88900 34.60600 23.79100
C  -1.21500 35.42200 22.96600
C  -1.63100 35.33900 21.52800
C  -2.49000 34.07500 21.54700
C  -2.67100 33.78800 23.05000
C  -2.42900 36.60400 21.03800
C  -1.87400 32.86600 20.83700
C  -0.53900 32.46200 21.40200
N  -3.06600 33.08900 25.92400
C  -3.79300 32.46500 24.83800
C  -4.58800 31.41800 25.39300
C  -4.33000 31.38900 26.77300
C  -3.46200 32.44500 27.02200
C  -5.17600 30.33200 24.61300
C  -4.62800 30.71800 28.07200
O  -5.34000 29.76700 28.21900
C  -3.86100 31.43500 29.17600
C  -4.90700 31.73500 30.21700
O  -5.47800 32.77500 30.25300
O  -4.92400 30.80300 31.18300
C  -5.54400 30.99000 32.49400
H  0.27700 37.13600 29.04400
H  -0.15600 36.91600 22.57600
H  -4.09400 32.26900 22.71500
H  -3.14400 34.16500 30.78000
H  -0.41200 35.39600 30.87200
H  -3.04000 36.61000 30.10900
H  -1.57000 37.45200 30.68800
H  -2.47400 36.32900 31.80100
H  -0.37400 33.36900 31.60400
H  -0.99900 32.23600 30.39800
H  -2.14100 31.12200 31.91300
H  -2.92000 32.62000 32.54900
H  2.92400 38.64800 27.32300
H  1.59600 38.67200 28.44400
H  1.77400 39.76600 27.17200
H  3.68100 38.49000 25.39500
H  2.69900 39.91000 24.90300
H  4.06700 39.19700 23.91000
H  -0.75000 35.31200 20.88600
H  -3.47200 34.23000 21.09900
H  -1.75500 37.42100 20.78000
H  -3.12500 36.97300 21.79100
H  -2.95500 36.33600 20.12100
H  -1.68200 33.17500 19.80900
H  -2.53400 32.00700 20.95400
H  0.18000 32.37700 20.58700
H  -0.64000 31.47500 21.85400
H  -0.15800 33.16300 22.14400
H  -4.66500 30.03700 23.69600
H  -6.16000 30.61800 24.24000
H  -5.45500 29.49300 25.25100
H  -3.04800 30.89000 29.65700
H  -4.90200 31.70700 33.00600
H  -5.72400 30.06100 33.03500
H  -6.53800 31.43500 32.53000

