158

Mg 16.97200 -1.74600 28.26800
C  15.66400 0.24800 30.63900
C  18.87400 -3.37300 30.60400
C  18.07600 -3.51300 25.72400
C  15.06900 0.21000 25.80100
N  17.29900 -1.53700 30.37200
C  16.55000 -0.67900 31.14800
C  16.96700 -0.75600 32.57200
C  18.16200 -1.80100 32.54400
C  18.10100 -2.34100 31.14900
C  19.54900 -1.23500 32.91200
C  15.81700 -1.13100 33.49300
C  15.92800 -0.58100 34.91900
H  17.32200 0.08900 35.34000
N  18.33100 -3.26000 28.20400
C  19.02800 -3.81500 29.28300
C  19.93800 -4.82500 28.75700
C  19.62200 -4.93100 27.32300
C  18.65300 -3.89600 26.99000
C  20.95200 -5.61600 29.65400
C  20.18700 -5.97100 26.41400
O  19.93400 -5.94800 25.21900
C  21.06900 -7.06300 26.85300
N  16.63200 -1.63800 26.05400
C  17.28800 -2.48600 25.23900
C  16.91000 -2.26400 23.76100
C  15.87200 -1.06200 23.85900
C  15.77700 -0.88000 25.38200
C  18.11800 -2.03600 22.81100
C  14.51000 -1.21800 23.09900
C  14.16900 -0.13000 22.06500
N  15.66200 -0.10200 28.22300
C  14.99700 0.62500 27.17800
C  14.35500 1.78600 27.76400
C  14.70100 1.72000 29.13700
C  15.32600 0.46800 29.32000
C  13.48000 2.85800 27.01900
C  14.47800 2.34500 30.39600
O  13.86300 3.41400 30.60500
C  15.08100 1.50400 31.42400
C  15.97500 2.45500 32.14900
O  17.14500 2.69000 31.84100
O  15.37400 2.94800 33.27400
C  16.16000 3.93800 34.00300
H  19.49900 -3.86200 31.35400
H  18.34000 -4.18400 24.90400
H  14.60500 0.88300 25.07800
H  17.35900 0.21000 32.89300
H  18.01800 -2.72700 33.10100
H  19.64100 -0.16200 32.74500
H  20.35400 -1.66500 32.31500
H  19.83100 -1.53500 33.92100
H  15.82100 -2.22100 33.50500
H  14.86100 -0.82400 33.06900
H  15.66100 -1.27700 35.71500
H  15.19600 0.22700 34.89100
H  21.20200 -4.88800 30.42600
H  21.72200 -5.92400 28.94800
H  20.42600 -6.47400 30.07200
H  21.10600 -7.88200 26.13400
H  20.48000 -7.48400 27.66800
H  22.07500 -6.70300 27.06800
H  16.34900 -3.16300 23.50400
H  16.34200 -0.14600 23.50100
H  18.90200 -2.66600 23.23200
H  18.44500 -0.99600 22.81400
H  17.81300 -2.20200 21.77800
H  13.65000 -1.28200 23.76500
H  14.49100 -2.14400 22.52300
H  13.83400 -0.66700 21.17800
H  15.12200 0.34100 21.82400
H  13.44200 0.61200 22.39400
H  13.81800 2.89100 25.98300
H  13.74800 3.86000 27.35600
H  12.40600 2.67900 26.97300
H  14.20700 1.23600 32.01800
H  16.62000 4.72700 33.40800
H  16.98700 3.51600 34.57500
H  15.40000 4.29200 34.69900
Mg 35.09100 2.34100 29.12900
C  32.84000 3.52500 31.48000
C  37.41400 2.13700 31.56600
C  37.29900 1.51700 26.75300
C  32.71800 2.98200 26.56600
N  35.16800 2.99200 31.32400
C  34.05500 3.26000 32.03400
C  34.36300 3.21400 33.52300
C  35.95500 2.99600 33.59000
C  36.23000 2.70600 32.05800
C  36.86000 4.26900 34.03000
C  33.45200 2.18400 34.32800
C  33.82700 1.84400 35.80800
H  34.44200 2.97800 36.69000
N  37.11500 1.81800 29.23000
C  37.89100 1.77200 30.30300
C  39.26300 1.47200 29.97400
C  39.21800 1.10900 28.56600
C  37.84700 1.49100 28.08100
C  40.39300 1.43800 31.00000
C  40.26800 0.45300 27.63600
O  39.98900 0.04800 26.53000
C  41.62000 0.26100 28.11700
N  34.94500 2.11400 27.06200
C  36.02500 1.72100 26.28600
C  35.69700 1.77900 24.78800
C  34.12500 1.94300 24.85700
C  33.87100 2.32700 26.24200
C  36.37400 3.00000 24.01800
C  33.26300 0.76400 24.30800
C  32.52500 1.04000 23.01700
N  33.10600 3.03700 29.00700
C  32.28500 3.27300 27.93000
C  30.97200 3.70800 28.35700
C  31.14500 3.73700 29.82100
C  32.48900 3.40400 30.13200
C  29.65200 3.91100 27.64100
C  30.51500 4.03700 31.06100
O  29.40300 4.42700 31.37500
C  31.51400 3.82600 32.17500
C  31.47600 5.03600 33.13600
O  31.57100 6.20100 32.77800
O  31.22000 4.57000 34.37500
C  31.55000 5.67800 35.36700
H  38.19800 2.08100 32.32400
H  37.97400 1.32800 25.91500
H  31.96200 3.01300 25.77800
H  34.14300 4.18800 33.96100
H  36.09800 2.18900 34.30800
H  37.57500 4.11700 34.83900
H  36.24500 5.11900 34.32600
H  37.47300 4.46300 33.15000
H  33.67800 1.31600 33.70800
H  32.38500 2.40600 34.32000
H  34.41500 0.92700 35.84800
H  32.94800 1.55000 36.38200
H  40.27400 2.34200 31.59700
H  41.36100 1.52800 30.50800
H  40.42300 0.52900 31.60000
H  41.89900 1.29200 28.33400
H  42.23300 -0.07600 27.28100
H  41.74900 -0.38900 28.98300
H  36.02100 0.86100 24.29800
H  33.85000 2.80800 24.25300
H  37.25200 3.18500 24.63800
H  35.80500 3.92900 24.02400
H  36.78700 2.74500 23.04200
H  32.55300 0.49600 25.09100
H  33.86400 -0.13200 24.15200
H  32.20400 2.07900 22.93700
H  31.58600 0.49800 22.90700
H  33.32900 0.79800 22.32200
H  29.70200 3.61600 26.59300
H  29.32800 4.94700 27.74900
H  28.97900 3.28800 28.23000
H  31.23300 2.92300 32.71700
H  30.74900 6.40300 35.51700
H  32.45400 6.22800 35.10300
H  31.78300 5.16100 36.29800

