158

Mg 8.51100 3.36700 27.77700
C  9.91000 1.80700 30.51900
C  7.09900 5.62400 29.64700
C  6.85600 4.44400 24.95800
C  9.88400 0.75700 25.73100
N  8.54200 3.72500 29.88400
C  9.07100 2.89300 30.85300
C  9.06500 3.55700 32.28500
C  7.93400 4.71100 31.97300
C  7.88500 4.73600 30.40500
C  6.54800 4.40000 32.57700
C  10.43600 4.18800 32.70400
C  10.76100 3.89300 34.21600
H  11.28800 4.97900 35.12900
N  7.15400 4.86800 27.34600
C  6.73400 5.77000 28.28700
C  5.75600 6.67500 27.73900
C  5.64700 6.32900 26.34600
C  6.56200 5.20600 26.14000
C  5.05000 7.82800 28.40500
C  4.81600 6.87400 25.20900
O  4.76300 6.43500 24.03300
C  3.85200 8.09200 25.49200
N  8.34200 2.69800 25.65700
C  7.57600 3.30800 24.73400
C  7.81900 2.70700 23.29100
C  8.95500 1.66800 23.52700
C  9.08200 1.69700 25.05400
C  6.64000 2.22800 22.42500
C  10.30700 1.91300 22.85700
C  11.12300 0.75900 22.24300
N  9.77600 1.64100 28.00300
C  10.22100 0.67900 27.13200
C  11.02400 -0.32200 27.80700
C  11.03300 0.11400 29.13000
C  10.21900 1.28300 29.20000
C  11.68400 -1.53000 27.23600
C  11.45900 -0.20000 30.51100
O  12.21600 -1.05300 30.99300
C  10.77900 0.92000 31.45500
C  10.01100 0.23300 32.59200
O  8.97900 -0.36300 32.36300
O  10.51100 0.38800 33.90500
C  9.76300 -0.26200 35.01600
H  6.51800 6.26100 30.31700
H  6.47500 4.85700 24.02200
H  10.41400 0.05200 25.08600
H  8.70300 2.76800 32.94400
H  8.27200 5.66600 32.37500
H  6.68200 3.61600 33.32200
H  5.84800 4.18400 31.77000
H  6.16800 5.27900 33.09700
H  10.45500 5.22900 32.38100
H  11.23800 3.75400 32.10600
H  11.53800 3.13100 34.27700
H  9.86800 3.45800 34.66400
H  5.36000 8.70100 27.83100
H  5.22000 7.95100 29.47500
H  3.96600 7.77900 28.30000
H  3.15100 7.93300 26.31100
H  3.29800 8.25400 24.56700
H  4.49700 8.91800 25.79100
H  8.20800 3.43100 22.57600
H  8.58800 0.64800 23.41400
H  5.77700 2.18800 23.09100
H  6.88000 1.25800 21.99000
H  6.28500 2.86700 21.61700
H  10.94000 2.31200 23.64900
H  10.15100 2.78000 22.21600
H  10.59300 -0.14500 22.54100
H  12.09600 0.80700 22.73400
H  11.06400 0.69800 21.15700
H  11.30000 -1.75600 26.24100
H  11.42000 -2.39500 27.84400
H  12.72900 -1.22200 27.22400
H  11.49800 1.49900 32.03500
H  8.75900 -0.61500 34.78100
H  9.64900 0.39400 35.87800
H  10.37000 -1.10900 35.33700
Mg -11.44700 16.87800 42.41300
C  -8.21800 15.54800 41.83100
C  -10.19100 19.87400 41.37600
C  -14.63500 18.00600 42.50600
C  -12.59100 13.53400 43.00900
N  -9.48600 17.50700 41.48000
C  -8.32900 16.87400 41.52900
C  -7.10100 17.76500 41.15300
C  -7.73800 19.19300 41.27800
C  -9.26300 18.86200 41.40600
C  -7.08800 20.04000 42.36400
C  -6.68900 17.50100 39.69500
C  -5.18300 17.58900 39.41000
H  -4.75000 18.21500 38.00100
N  -12.26600 18.60800 41.93600
C  -11.60200 19.72000 41.50600
C  -12.55200 20.77100 41.28300
C  -13.87600 20.23000 41.54100
C  -13.63900 18.90400 42.06800
C  -12.20100 22.12000 40.69300
C  -15.21600 21.01800 41.46100
O  -15.22800 22.09100 40.89500
C  -16.50800 20.66000 42.10000
N  -13.33800 15.86900 42.69400
C  -14.46700 16.62500 42.83800
C  -15.66000 15.65600 43.20600
C  -15.05200 14.20900 43.01000
C  -13.56000 14.54600 42.96300
C  -16.34000 15.90600 44.66700
C  -15.44600 13.47500 41.69000
C  -15.47000 11.96600 41.74800
N  -10.60300 14.88500 42.47300
C  -11.20800 13.66900 42.72000
C  -10.18500 12.62400 42.85600
C  -8.99500 13.36000 42.49500
C  -9.30500 14.69500 42.17700
C  -10.40600 11.15100 43.14700
C  -7.54400 13.17000 42.33500
O  -6.90600 12.17400 42.56700
C  -6.97500 14.67500 41.89200
C  -5.87400 14.93400 42.88700
O  -5.93600 14.63100 44.02400
O  -4.76300 15.63400 42.28100
C  -3.68100 15.93300 43.19500
H  -9.76100 20.85400 41.16100
H  -15.64100 18.39800 42.67200
H  -12.90400 12.51600 43.25000
H  -6.25800 17.61200 41.82800
H  -7.66000 19.74100 40.34000
H  -6.08400 19.72400 42.64700
H  -7.67800 20.11500 43.27800
H  -7.12600 21.03100 41.91000
H  -7.11000 18.17100 38.94600
H  -6.99200 16.48000 39.46200
H  -4.73500 16.59700 39.46600
H  -4.73700 18.12100 40.25100
H  -11.20600 22.11400 40.24600
H  -12.17400 22.91400 41.43900
H  -12.96400 22.34500 39.94800
H  -17.27000 21.43900 42.10500
H  -16.28600 20.34700 43.12000
H  -16.89600 19.87200 41.45400
H  -16.44000 15.70200 42.44600
H  -15.06800 13.52400 43.85800
H  -15.75200 16.53600 45.33400
H  -16.51200 14.98700 45.22800
H  -17.36100 16.28300 44.60400
H  -14.85600 13.77700 40.82400
H  -16.41000 13.90800 41.42500
H  -14.72300 11.68100 42.48900
H  -15.11000 11.43900 40.86400
H  -16.41400 11.48000 41.99000
H  -9.62700 10.55600 43.62400
H  -10.60600 10.65800 42.19600
H  -11.34400 10.97800 43.67400
H  -6.46600 14.53000 40.93900
H  -3.93200 16.90300 43.62400
H  -2.77800 16.18000 42.63500
H  -3.38300 15.12000 43.85600

