158

Mg 17.51600 -1.21300 28.21100
C  16.53700 0.67400 31.02100
C  19.70300 -3.03400 30.24500
C  19.03700 -2.60500 25.54700
C  15.83000 1.00500 26.17300
N  18.17200 -1.01300 30.31900
C  17.45200 -0.34900 31.31400
C  17.96100 -0.64900 32.74800
C  19.10100 -1.70300 32.39600
C  18.92500 -2.00200 30.90800
C  20.55900 -1.30100 32.61000
C  16.90000 -1.18200 33.76000
C  16.68900 -0.19800 34.94200
H  17.86700 0.45300 35.51400
N  18.90100 -2.88500 27.95300
C  19.64500 -3.46700 28.90400
C  20.55900 -4.35800 28.23100
C  20.19500 -4.34000 26.83000
C  19.32200 -3.28000 26.74600
C  21.43700 -5.35400 29.06300
C  20.71100 -5.19500 25.70500
O  20.59600 -4.96600 24.54200
C  21.53900 -6.50400 25.90800
N  17.54700 -0.74200 26.11100
C  18.23700 -1.53700 25.25600
C  18.15500 -1.01400 23.86000
C  17.06400 0.05100 24.04200
C  16.78100 0.16800 25.54600
C  19.56600 -0.67300 23.28600
C  15.82300 -0.26400 23.12100
C  14.64100 -0.86300 23.84200
N  16.36900 0.51500 28.48900
C  15.63100 1.24800 27.59500
C  14.88000 2.28700 28.30200
C  15.22200 2.00700 29.64600
C  16.15000 0.99700 29.75100
C  14.05100 3.33600 27.67400
C  14.89900 2.47100 30.96300
O  14.16200 3.32100 31.40400
C  15.78000 1.63700 31.90000
C  16.68600 2.64000 32.57000
O  17.82800 2.80600 32.17500
O  16.01000 3.17700 33.63000
C  16.82100 4.11700 34.44400
H  20.35300 -3.62200 30.89600
H  19.46300 -2.87400 24.57800
H  15.31500 1.71600 25.52300
H  18.43600 0.27400 33.08000
H  18.85000 -2.63000 32.91300
H  21.02200 -0.92400 31.69800
H  21.19700 -2.04200 33.09300
H  20.61700 -0.48600 33.33100
H  17.09500 -2.18100 34.15200
H  15.94900 -1.37000 33.26100
H  16.17100 -0.72400 35.74300
H  15.99800 0.56100 34.57700
H  22.15300 -4.81000 29.67900
H  22.07100 -5.89800 28.36300
H  20.76100 -6.02600 29.59100
H  21.16100 -7.15700 26.69500
H  22.55400 -6.22200 26.18600
H  21.60000 -7.05300 24.96800
H  17.77700 -1.87100 23.30300
H  17.41800 1.04500 23.76900
H  20.47800 -1.00400 23.78200
H  19.68200 0.41100 23.26600
H  19.68200 -1.09600 22.28800
H  16.04900 -1.03200 22.38100
H  15.47500 0.68000 22.70300
H  14.05500 -0.00800 24.18000
H  15.00500 -1.39000 24.72400
H  14.08000 -1.55400 23.21300
H  14.50000 3.70500 26.75200
H  14.03500 4.13500 28.41500
H  13.03200 3.07500 27.38800
H  15.15600 1.27100 32.71500
H  17.85800 4.36300 34.21600
H  16.76700 3.79900 35.48500
H  16.28600 5.06600 34.49300
Mg 0.65500 43.73600 26.02200
C  2.89200 43.25400 28.53200
C  -1.92800 43.41300 28.29400
C  -1.45700 43.66900 23.39400
C  3.36300 43.69400 23.74100
N  0.49500 43.65000 28.19200
C  1.61000 43.48800 28.94900
C  1.16800 43.51900 30.49000
C  -0.40900 43.31800 30.33600
C  -0.66700 43.57700 28.86500
C  -1.12700 41.95800 30.81400
C  1.71900 44.79900 31.32200
C  1.33600 44.90300 32.82100
H  0.95400 43.61500 33.59400
N  -1.47000 43.45700 25.89100
C  -2.37500 43.38700 26.94000
C  -3.69400 43.41700 26.36800
C  -3.55100 43.48800 24.92300
C  -2.10600 43.60400 24.68000
C  -4.95000 43.56700 27.20300
C  -4.55600 43.34700 23.83000
O  -4.29300 43.31000 22.59900
C  -6.00900 43.10500 24.23000
N  0.90000 43.67000 23.89800
C  -0.12600 43.64400 23.05300
C  0.33900 43.68700 21.60100
C  1.87800 43.83500 21.68500
C  2.09700 43.66800 23.17800
C  -0.29400 42.65200 20.64100
C  2.48000 45.11700 21.07700
C  2.04500 45.47400 19.66000
N  2.71200 43.67400 26.06500
C  3.70500 43.59400 25.06800
C  4.92300 43.48700 25.70900
C  4.67200 43.24400 26.99600
C  3.32500 43.39200 27.20400
C  6.24800 43.74900 25.02500
C  5.37100 43.01700 28.25700
O  6.54100 42.99300 28.57900
C  4.20800 43.05700 29.26600
C  4.30600 41.86100 30.13200
O  3.74500 40.80700 29.94300
O  5.00600 42.18500 31.29800
C  5.14800 41.15600 32.40500
H  -2.75200 43.17900 28.97100
H  -2.13200 43.81800 22.54900
H  4.13700 43.66400 22.97200
H  1.51800 42.61100 30.98000
H  -0.92700 44.13300 30.84100
H  -0.36400 41.25500 31.14600
H  -1.69600 41.44400 30.03900
H  -1.88800 42.21200 31.55100
H  1.32400 45.63200 30.74000
H  2.79900 44.93400 31.26900
H  0.53600 45.61600 33.02000
H  2.11000 45.29800 33.47800
H  -5.74900 44.07700 26.66500
H  -4.74200 44.16100 28.09400
H  -5.39000 42.61700 27.50700
H  -6.48200 44.05400 24.48100
H  -5.85700 42.42400 25.06800
H  -6.50200 42.75200 23.32500
H  0.02800 44.68300 21.28500
H  2.28600 43.01700 21.09100
H  -0.81200 41.80000 21.08200
H  0.40600 42.21800 19.92700
H  -1.07100 43.16200 20.07300
H  3.56900 45.10600 21.13300
H  2.20100 45.92900 21.74800
H  1.42600 44.66000 19.28300
H  2.97200 45.44300 19.08800
H  1.56000 46.43500 19.49000
H  6.41500 44.81300 24.85700
H  6.40100 43.16300 24.11900
H  7.01000 43.26100 25.63300
H  4.47000 43.89700 29.91000
H  4.73300 41.60200 33.30800
H  6.19000 40.97800 32.67000
H  4.70200 40.17300 32.25300

