158

Mg 30.33800 58.31800 40.48000
C  27.91000 56.11400 39.24300
C  32.69900 55.86800 39.64900
C  32.77400 60.66100 40.58900
C  27.94800 60.79700 40.53600
N  30.26700 56.19900 39.57000
C  29.17100 55.54700 39.12800
C  29.56500 54.22100 38.43700
C  30.94800 53.97100 39.10800
C  31.37800 55.41400 39.51800
C  30.90700 53.02000 40.35500
C  29.48400 54.44300 36.88400
C  29.10900 53.27300 35.98700
H  28.06200 53.41900 34.87600
N  32.37700 58.23600 40.31000
C  33.21200 57.14500 39.90800
C  34.58900 57.58900 39.78900
C  34.69400 58.89200 40.20700
C  33.23200 59.29900 40.36800
C  35.77000 56.79200 39.39000
C  36.04000 59.68200 40.54800
O  37.09900 59.13700 40.37500
C  35.98800 61.07800 41.08500
N  30.40000 60.39500 40.60700
C  31.50500 61.13800 40.69800
C  31.22100 62.63200 40.87900
C  29.64200 62.58500 41.00400
C  29.31200 61.14800 40.66200
C  31.99500 63.28600 42.01400
C  28.84100 63.49700 40.03300
C  27.69500 64.31000 40.57100
N  28.31600 58.46300 40.32400
C  27.44400 59.57300 40.32200
C  26.09200 59.13300 40.10800
C  26.21200 57.77600 39.64100
C  27.58900 57.44700 39.78500
C  24.87800 60.03300 40.20200
C  25.47500 56.62600 39.18300
O  24.32000 56.51400 38.80500
C  26.59500 55.54800 38.85100
C  26.10400 54.33600 39.64600
O  26.11900 54.26100 40.87200
O  25.80500 53.31200 38.73300
C  25.48600 52.09700 39.38000
H  33.51300 55.15800 39.49100
H  33.62800 61.34100 40.54800
H  27.16000 61.55200 40.58900
H  28.83400 53.48100 38.76100
H  31.68100 53.70100 38.34700
H  31.17700 53.64600 41.20600
H  31.69500 52.27300 40.26000
H  29.92500 52.55200 40.42500
H  30.51600 54.64700 36.59600
H  28.89800 55.34000 36.68300
H  28.80300 52.53500 36.72800
H  30.03700 52.93400 35.52600
H  35.39600 55.86900 38.94700
H  36.40400 56.49100 40.22400
H  36.38700 57.38900 38.71800
H  36.98100 61.26500 41.49200
H  35.19000 61.13100 41.82600
H  35.86700 61.68600 40.18800
H  31.47000 63.00900 39.88700
H  29.39700 62.79700 42.04500
H  32.51600 62.53200 42.60500
H  31.34600 63.89800 42.64000
H  32.66000 63.99300 41.51700
H  28.34100 62.96300 39.22500
H  29.53800 64.19300 39.56500
H  27.98200 65.32700 40.30300
H  27.41600 64.17300 41.61500
H  26.75600 64.18500 40.03200
H  24.79800 60.27200 41.26200
H  24.04600 59.47800 39.76800
H  25.06100 60.94300 39.63100
H  26.53100 55.26800 37.79900
H  25.10700 51.47800 38.56700
H  24.67300 52.31100 40.07300
H  26.36500 51.69000 39.87900
Mg 6.09300 54.84800 42.03400
C  3.07500 52.89400 41.60700
C  7.81800 52.28800 40.55600
C  8.44800 56.87900 41.47000
C  3.87700 57.40100 42.97800
N  5.47900 52.92600 41.04300
C  4.25200 52.31400 41.06400
C  4.36800 50.88800 40.48400
C  5.89800 50.62800 40.48700
C  6.46500 52.00500 40.76700
C  6.41700 49.57100 41.53400
C  3.78600 50.91200 38.99000
C  3.23800 49.58100 38.41200
H  3.98000 48.84400 37.31100
N  7.91100 54.64900 41.11700
C  8.48400 53.50000 40.70100
C  9.89500 53.71700 40.37500
C  10.08000 55.15000 40.47400
C  8.84100 55.64200 40.99600
C  10.69200 52.65100 39.79700
C  11.41500 55.94700 40.12700
O  12.40200 55.32400 39.70900
C  11.40500 57.45900 40.14400
N  6.06200 56.85300 42.03900
C  7.25500 57.40800 42.00800
C  7.30100 58.74100 42.82200
C  5.79800 59.07700 43.00000
C  5.17400 57.70300 42.69900
C  8.06500 58.68200 44.15600
C  5.13100 60.19100 42.08700
C  4.40000 61.32500 42.86300
N  3.90800 55.09400 42.40500
C  3.22300 56.15600 42.89100
C  1.77400 55.81000 43.09500
C  1.70500 54.51900 42.57500
C  3.00500 54.13100 42.20400
C  0.71400 56.68600 43.67400
C  0.74900 53.42700 42.35600
O  -0.44000 53.32200 42.66300
C  1.70200 52.23000 41.83600
C  1.01700 51.48800 40.77100
O  0.57800 51.92600 39.69000
O  0.77500 50.24700 41.28000
C  -0.01800 49.37900 40.45600
H  8.36100 51.40000 40.22700
H  9.33800 57.42400 41.79100
H  3.23700 58.21700 43.32100
H  3.94100 50.16400 41.17800
H  6.27500 50.33900 39.50600
H  7.06900 48.86200 41.02400
H  5.58700 49.06800 42.02900
H  7.09400 49.95300 42.29900
H  4.53700 51.32400 38.31600
H  2.94400 51.60400 39.00700
H  2.20300 49.69800 38.09100
H  3.35500 48.84500 39.20800
H  11.71400 53.01700 39.69900
H  10.32900 52.44700 38.79000
H  10.56400 51.76400 40.41700
H  10.50100 57.83600 39.66500
H  12.22000 57.90800 39.57600
H  11.33400 57.71000 41.20200
H  7.70300 59.51100 42.16400
H  5.61500 59.45900 44.00500
H  9.00900 59.20000 43.99000
H  8.42500 57.73000 44.54500
H  7.40700 59.11200 44.91100
H  4.39900 59.77400 41.39500
H  5.97700 60.57900 41.52200
H  4.38400 61.14800 43.93800
H  3.33000 61.39200 42.66400
H  4.80600 62.31900 42.67400
H  1.17300 57.15600 44.54400
H  -0.12900 56.02000 43.85800
H  0.32700 57.43600 42.98400
H  1.80100 51.61800 42.73200
H  -0.36300 49.70900 39.47600
H  -0.94900 49.12600 40.96400
H  0.51800 48.43700 40.34000

