158

Mg 46.93500 24.66300 27.89700
C  47.47300 26.85700 30.55600
C  46.00900 22.23100 30.25100
C  46.41400 22.30000 25.35900
C  48.22500 26.81500 25.72200
N  46.52500 24.69200 30.13200
C  46.83500 25.70000 31.00600
C  46.57600 25.34300 32.50600
C  46.25600 23.79300 32.33700
C  46.37600 23.51200 30.79000
C  47.16800 22.85200 33.13900
C  45.45300 26.17800 33.13500
C  45.76400 26.65100 34.54900
H  44.69600 26.41100 35.65600
N  46.02400 22.70000 27.77700
C  45.77600 21.85000 28.84200
C  45.14500 20.58500 28.36500
C  45.31300 20.59800 26.95700
C  45.98300 21.92800 26.61100
C  44.64600 19.52200 29.35200
C  45.03600 19.48400 25.96300
O  45.36900 19.64900 24.80700
C  44.33400 18.15200 26.47200
N  47.21700 24.50800 25.84700
C  47.08500 23.49300 25.03200
C  47.55900 23.87400 23.60900
C  47.65800 25.46600 23.65600
C  47.66900 25.59900 25.18900
C  48.84900 23.12900 23.05300
C  46.51400 26.19200 22.91400
C  45.22100 26.61600 23.67900
N  47.89300 26.38900 28.08000
C  48.38000 27.15600 27.06600
C  48.90300 28.38700 27.69800
C  48.60700 28.28700 29.05500
C  47.92600 27.10200 29.21100
C  49.56200 29.48200 26.88700
C  48.73700 28.93600 30.28600
O  49.26300 30.03900 30.58000
C  48.02200 28.01800 31.34200
C  48.85000 27.51800 32.44200
O  49.76000 26.77300 32.27500
O  48.57500 28.05400 33.65800
C  49.47400 27.64100 34.71100
H  45.63700 21.51200 30.98400
H  46.35500 21.57200 24.54700
H  48.52300 27.60400 25.02800
H  47.50000 25.40400 33.08100
H  45.24500 23.52700 32.64500
H  47.36100 21.99700 32.49000
H  46.69500 22.44400 34.03300
H  48.07800 23.36500 33.44900
H  44.47700 25.69200 33.14400
H  45.27800 27.05700 32.51500
H  45.78900 27.74000 34.49700
H  46.73200 26.28900 34.89500
H  43.57000 19.39100 29.23200
H  44.70500 19.92000 30.36500
H  45.22400 18.61700 29.16500
H  43.43500 18.46400 27.00300
H  45.01000 17.46300 26.97900
H  44.04200 17.61300 25.57100
H  46.71300 23.54600 23.00600
H  48.60900 25.84900 23.28600
H  49.18000 22.43400 23.82500
H  49.56100 23.91600 22.80800
H  48.53800 22.53900 22.19000
H  46.28200 25.64300 22.00100
H  46.96800 27.15100 22.66200
H  45.02400 27.68700 23.73300
H  45.30700 26.15600 24.66300
H  44.42700 26.07300 23.16600
H  49.37800 30.49000 27.25900
H  49.21200 29.41500 25.85700
H  50.65000 29.46500 26.82200
H  47.26200 28.63700 31.81800
H  50.38400 27.06300 34.54900
H  48.97000 27.13800 35.53700
H  49.91500 28.56200 35.09200
Mg 16.03100 52.29900 24.84400
C  17.40000 51.45200 27.97600
C  13.09300 53.35300 26.52900
C  14.49400 52.87300 21.85800
C  18.70700 50.70700 23.23700
N  15.39800 52.49700 27.01100
C  16.12500 52.08300 28.09800
C  15.47300 52.35000 29.42200
C  14.06700 52.77400 28.92100
C  14.13800 52.92300 27.40200
C  12.89800 51.91100 29.34900
C  16.19500 53.33400 30.37700
C  16.43100 52.98100 31.85200
H  15.29700 52.10000 32.48200
N  14.10400 53.10700 24.29000
C  13.09800 53.47000 25.12500
C  12.00900 53.91700 24.34100
C  12.39700 53.82800 22.96300
C  13.69400 53.26100 22.98600
C  10.72300 54.35600 24.97500
C  11.74400 54.33600 21.67600
O  12.34900 54.29400 20.56900
C  10.39400 54.97400 21.76500
N  16.49700 51.71000 22.81300
C  15.73100 52.13300 21.72700
C  16.42100 51.74800 20.48400
C  17.94100 51.64200 20.92600
C  17.72600 51.32100 22.41800
C  15.84900 50.38500 19.93300
C  18.89900 52.94300 20.81000
C  19.31700 53.42500 19.43300
N  17.79700 51.41100 25.38800
C  18.75200 50.81600 24.65400
C  19.72100 50.23700 25.49500
C  19.24800 50.50700 26.81400
C  18.00700 51.11000 26.71500
C  21.03100 49.57800 25.06700
C  19.61900 50.31100 28.17700
O  20.57500 49.76700 28.71200
C  18.37000 50.91500 29.04500
C  17.74600 49.86300 29.90000
O  16.93000 49.05100 29.45600
O  18.29900 49.82700 31.20300
C  17.76700 48.78500 32.09900
H  12.31000 53.89700 27.06100
H  14.14500 53.00400 20.83100
H  19.65200 50.48700 22.73600
H  15.54800 51.39200 29.93600
H  13.86000 53.73900 29.38400
H  13.17200 51.10000 30.02300
H  12.36700 51.47800 28.50100
H  12.19100 52.59200 29.82300
H  15.80100 54.34800 30.44500
H  17.18000 53.41700 29.91900
H  16.63200 53.86100 32.46300
H  17.28300 52.30700 31.94300
H  10.06400 53.78800 24.31900
H  10.56400 55.42000 24.79700
H  10.52500 54.09500 26.01500
H  9.96400 55.00200 20.76400
H  10.37600 55.93300 22.28300
H  9.82400 54.21100 22.29500
H  16.35400 52.61600 19.82800
H  18.50200 50.91700 20.33500
H  14.91000 50.19800 20.45400
H  16.57400 49.57400 19.87300
H  15.64500 50.71500 18.91400
H  19.79800 52.81200 21.41300
H  18.46100 53.79000 21.33800
H  19.05000 54.45100 19.18100
H  18.91600 52.66900 18.75800
H  20.40700 53.44300 19.41900
H  20.81000 48.77600 24.36200
H  21.51300 49.14100 25.94200
H  21.71400 50.26800 24.57000
H  18.88400 51.63200 29.68600
H  17.06900 49.18100 32.83600
H  18.67500 48.40200 32.56500
H  17.43300 47.93300 31.50600

