158

Mg -0.64400 7.46500 26.88100
C  0.22200 9.71100 29.55000
C  -0.06100 4.90300 29.10300
C  -1.02200 5.29200 24.36800
C  -0.83300 10.16000 24.64100
N  -0.17500 7.42600 29.11700
C  0.15300 8.38800 30.02100
C  0.30500 7.88300 31.39900
C  0.58300 6.38700 31.15700
C  0.03400 6.15000 29.73200
C  1.96800 5.79100 31.33700
C  -0.98800 8.32500 32.19800
C  -0.74600 8.64000 33.67600
H  0.04600 7.56300 34.49600
N  -0.59400 5.31000 26.81700
C  -0.29200 4.47200 27.79000
C  -0.28900 3.12000 27.32800
C  -0.67500 3.21100 25.97500
C  -0.81100 4.64000 25.64000
C  0.01300 1.88000 28.23600
C  -0.84800 2.05600 24.95800
O  -1.06600 2.22500 23.73300
C  -0.89500 0.60700 25.47700
N  -0.69000 7.67200 24.86200
C  -1.02900 6.64900 24.10700
C  -1.28500 7.07200 22.64900
C  -1.59300 8.56700 22.83500
C  -0.98200 8.84900 24.16600
C  0.02700 6.77000 21.81200
C  -3.12300 8.79100 22.71700
C  -3.66600 9.87300 21.77600
N  -0.26200 9.56200 27.01800
C  -0.32800 10.48300 25.97800
C  0.03900 11.75700 26.54200
C  0.32400 11.50300 27.89700
C  0.07600 10.16000 28.19300
C  -0.03600 12.96700 25.77900
C  0.71900 12.07900 29.11400
O  1.01100 13.27200 29.38100
C  0.65100 10.96900 30.20600
C  1.85800 10.96700 31.10000
O  2.68300 10.13700 31.22100
O  1.85600 12.06500 31.97900
C  2.73700 11.99500 33.17700
H  0.17200 4.11900 29.82600
H  -1.16300 4.64200 23.50200
H  -1.05300 10.87100 23.84200
H  1.14000 8.43000 31.83600
H  -0.05100 5.73900 31.76200
H  1.91600 4.93300 32.00800
H  2.63000 6.55800 31.73900
H  2.34800 5.46300 30.37000
H  -1.79500 7.59700 32.11300
H  -1.29100 9.30900 31.84300
H  -1.72500 8.73500 34.14700
H  -0.25500 9.60500 33.80200
H  -0.66700 1.02800 28.24400
H  0.00500 2.09800 29.30400
H  1.02200 1.57500 27.95800
H  0.04500 0.06400 25.57200
H  -1.49200 -0.00400 24.80000
H  -1.42200 0.53800 26.42900
H  -2.15900 6.56600 22.23900
H  -1.10600 9.18100 22.07800
H  0.42000 7.72600 21.46700
H  -0.15800 6.34100 20.82600
H  0.75300 6.17600 22.36600
H  -3.46700 9.01700 23.72600
H  -3.66300 7.89600 22.40800
H  -4.27500 9.34300 21.04400
H  -2.80100 10.47400 21.49500
H  -4.29700 10.54200 22.36100
H  0.19000 13.79500 26.45000
H  -1.03000 13.15400 25.37300
H  0.67200 12.87700 24.95600
H  -0.14100 11.27000 30.89100
H  3.79100 12.03000 32.89900
H  2.64100 11.04700 33.70600
H  2.47500 12.80700 33.85400
Mg -12.73100 17.00700 41.31100
C  -9.63800 15.25500 41.20800
C  -11.36200 19.38000 39.20400
C  -15.86300 18.36500 40.90300
C  -14.23800 13.98200 42.04900
N  -10.74800 17.20900 40.26100
C  -9.56100 16.51500 40.58300
C  -8.41600 17.01800 39.64100
C  -9.00100 18.36500 39.11200
C  -10.50300 18.30200 39.54000
C  -8.20600 19.67600 39.60200
C  -7.97400 16.03900 38.49300
C  -6.44400 16.04100 38.25800
H  -5.96700 16.42000 36.90800
N  -13.43700 18.79000 40.44700
C  -12.72600 19.54200 39.54800
C  -13.56400 20.65000 39.19100
C  -14.88200 20.32700 39.60800
C  -14.75900 19.11800 40.33400
C  -13.14400 21.86100 38.32000
C  -16.07900 21.15400 39.39300
O  -16.09700 22.16800 38.69800
C  -17.33000 21.06100 40.21100
N  -14.76700 16.27900 41.40400
C  -15.89300 17.06400 41.37300
C  -17.17900 16.20000 41.67300
C  -16.59800 14.76500 41.79200
C  -15.08000 14.99900 41.78300
C  -17.86100 16.69600 43.01400
C  -17.09200 13.71900 40.68300
C  -17.18400 12.25500 41.00000
N  -12.04600 15.00200 41.67400
C  -12.81700 13.89500 41.93100
C  -12.00700 12.75900 42.15600
C  -10.68900 13.25700 41.96900
C  -10.78800 14.58200 41.69800
C  -12.45800 11.42100 42.57000
C  -9.29100 12.88200 41.92800
O  -8.73200 11.80300 42.12300
C  -8.51500 14.12500 41.40100
C  -7.49800 14.67500 42.31800
O  -7.60600 15.57800 43.14400
O  -6.32500 13.88400 42.09400
C  -5.13500 14.55500 42.64000
H  -10.76300 20.01300 38.54600
H  -16.82200 18.70400 40.50500
H  -14.81800 13.07400 42.22300
H  -7.54100 17.20200 40.26400
H  -8.87000 18.46700 38.03500
H  -8.10000 20.32600 38.73400
H  -7.23200 19.41600 40.01600
H  -8.77500 20.23500 40.34500
H  -8.38100 16.42200 37.55800
H  -8.37800 15.03200 38.59400
H  -6.12600 15.01800 38.45800
H  -5.92900 16.61000 39.03300
H  -13.93200 22.22700 37.66200
H  -12.28600 21.60100 37.70000
H  -12.83900 22.78600 38.81000
H  -17.08200 20.80800 41.24200
H  -18.00900 20.39900 39.67400
H  -17.89600 21.99000 40.28500
H  -17.85900 16.14800 40.82300
H  -16.70700 14.34800 42.79300
H  -17.32900 17.52600 43.47800
H  -17.91000 15.88000 43.73500
H  -18.85600 17.06000 42.75600
H  -16.38200 13.62300 39.86200
H  -17.94500 14.12100 40.13700
H  -16.49800 11.67300 40.38500
H  -18.14900 11.81300 40.75200
H  -16.86900 12.12500 42.03500
H  -13.36200 11.19000 42.00700
H  -12.61100 11.53700 43.64300
H  -11.59800 10.75800 42.47400
H  -7.98900 13.92500 40.46700
H  -4.27500 14.02500 42.23100
H  -5.17500 14.67000 43.72400
H  -5.09000 15.58300 42.27900

