158

Mg 17.25100 -1.35700 28.48600
C  16.45200 0.22400 31.35100
C  19.34200 -3.48100 30.16800
C  18.72700 -2.21500 25.57300
C  15.71800 1.42100 26.64400
N  17.96400 -1.53600 30.51700
C  17.39900 -0.77900 31.55300
C  17.77300 -1.29300 32.92500
C  18.95800 -2.30700 32.58700
C  18.73700 -2.48600 31.00600
C  20.39300 -1.86800 33.01800
C  16.61100 -1.85900 33.70600
C  16.33700 -1.45900 35.20800
H  17.39800 -0.71300 36.06400
N  18.62400 -2.80400 27.90700
C  19.33200 -3.62100 28.77300
C  20.19000 -4.57800 28.01400
C  20.02500 -4.22800 26.67000
C  19.11000 -3.01700 26.67000
C  21.11200 -5.52300 28.64600
C  20.58100 -4.77700 25.35900
O  20.27700 -4.34000 24.22500
C  21.39400 -6.05800 25.38900
N  17.14800 -0.54300 26.35000
C  17.92200 -1.12800 25.42200
C  17.80700 -0.38400 24.03900
C  16.74300 0.74800 24.36400
C  16.58900 0.61900 25.90800
C  19.10800 0.19700 23.41500
C  15.32700 0.41700 23.67600
C  15.18200 0.35800 22.17800
N  16.23700 0.38500 28.82800
C  15.62200 1.37800 28.00100
C  14.89400 2.31000 28.84800
C  15.15600 1.90200 30.16400
C  16.03200 0.76700 30.12800
C  14.03100 3.46700 28.37900
C  14.87500 2.20000 31.53400
O  14.25900 3.17400 31.91900
C  15.65200 1.08500 32.42600
C  16.56000 1.91300 33.27900
O  17.66000 2.36000 32.86600
O  15.81300 2.30100 34.41800
C  16.50400 3.16800 35.34700
H  20.07000 -4.13300 30.65400
H  19.18300 -2.37600 24.59400
H  15.15600 2.17100 26.08400
H  18.11600 -0.37200 33.39700
H  18.74800 -3.23100 33.12500
H  20.36700 -0.83100 33.35400
H  20.89100 -1.91600 32.05000
H  20.90100 -2.51800 33.73000
H  16.71300 -2.94400 33.72800
H  15.69100 -1.70600 33.14200
H  16.00800 -2.40900 35.63100
H  15.43600 -0.85400 35.10300
H  22.05500 -5.07900 28.32700
H  20.97300 -6.57700 28.40700
H  21.07700 -5.48200 29.73500
H  22.07300 -6.08900 26.24000
H  22.05800 -6.16500 24.53100
H  20.78500 -6.93000 25.62400
H  17.35000 -1.00700 23.27000
H  16.88900 1.74400 23.94600
H  19.14900 -0.09300 22.36500
H  20.00800 -0.27000 23.81400
H  19.15000 1.28400 23.34300
H  14.84200 1.30200 24.08800
H  14.87900 -0.45900 24.14600
H  14.95700 -0.62900 21.77500
H  16.17200 0.60400 21.79500
H  14.44000 1.05900 21.79700
H  13.92800 4.21400 29.16600
H  13.05800 3.06100 28.10100
H  14.49600 3.96000 27.52400
H  15.03000 0.55200 33.14500
H  16.06700 4.16000 35.23700
H  17.56900 3.36700 35.23100
H  16.32200 2.71600 36.32200
Mg 47.91200 25.18600 28.56200
C  48.87400 27.69700 30.92600
C  47.01000 23.21200 31.17900
C  47.20100 22.93600 26.39900
C  49.30900 27.23100 25.96700
N  48.08300 25.42200 30.78600
C  48.32300 26.54800 31.52900
C  48.11900 26.25500 33.04200
C  47.78500 24.73200 33.03400
C  47.52600 24.45800 31.60000
C  48.89100 23.84000 33.57500
C  46.87800 27.03600 33.53100
C  47.31300 27.92000 34.79600
H  46.30100 28.06000 35.98400
N  47.20000 23.29900 28.71700
C  46.92000 22.62500 29.86900
C  46.60400 21.23200 29.57400
C  46.45100 21.21200 28.14300
C  46.98200 22.51200 27.71000
C  46.29800 20.22100 30.61400
C  45.88500 20.08800 27.25900
O  45.70100 20.20900 26.02600
C  45.51700 18.75600 27.87900
N  48.23300 25.12900 26.48800
C  47.68700 24.11400 25.80500
C  48.03400 24.27500 24.32400
C  48.46500 25.76500 24.08900
C  48.71700 26.01700 25.59600
C  48.82800 23.15000 23.63600
C  47.40600 26.66800 23.52000
C  47.86600 28.02500 22.98600
N  48.69400 27.14100 28.35300
C  49.23500 27.83500 27.25400
C  49.68300 29.17500 27.66800
C  49.55600 29.17000 29.13300
C  48.94900 27.83400 29.51300
C  50.40000 30.24600 27.00200
C  49.66900 29.93500 30.32600
O  50.15800 31.02700 30.49100
C  49.14400 29.08300 31.48900
C  50.10800 28.91000 32.68300
O  51.12300 28.22500 32.68100
O  49.84600 29.74200 33.69100
C  50.70200 29.75900 34.89400
H  46.72100 22.58500 32.02500
H  46.89000 22.19500 25.66000
H  49.79800 27.87500 25.23400
H  48.96700 26.58900 33.63900
H  46.78900 24.53000 33.42800
H  48.45100 22.88800 33.87200
H  49.42600 24.24900 34.43200
H  49.56900 23.70500 32.73200
H  46.00600 26.42900 33.77200
H  46.57600 27.76900 32.78300
H  47.34700 28.95800 34.46600
H  48.26300 27.65400 35.25900
H  45.22900 20.15700 30.81500
H  46.81500 20.50100 31.53200
H  46.67500 19.24900 30.29400
H  46.33400 18.17900 28.31300
H  44.95300 18.10400 27.21300
H  44.86700 18.82700 28.75100
H  47.10200 24.19100 23.76600
H  49.34800 25.86600 23.45800
H  49.63800 23.61100 23.07100
H  48.30100 22.46200 22.97500
H  49.27500 22.50800 24.39500
H  46.77500 26.81900 24.39600
H  46.87700 26.13000 22.73300
H  48.93800 28.22000 23.02700
H  47.34100 28.81100 23.52900
H  47.76400 27.96000 21.90300
H  49.98400 30.47300 26.02000
H  51.47000 30.11200 26.84900
H  50.27000 31.17300 27.56000
H  48.22700 29.58700 31.79500
H  51.71200 29.61900 34.50700
H  50.43100 29.02200 35.65000
H  50.68800 30.76300 35.31900

