158

Mg 2.05900 8.70300 26.88800
C  2.64600 10.18300 29.91500
C  2.48800 5.59200 28.47000
C  1.77500 7.11800 23.79900
C  2.32300 11.74200 25.17800
N  2.36700 7.99400 29.02600
C  2.32100 8.84500 30.08400
C  2.19800 8.07200 31.42900
C  2.36500 6.59100 30.93700
C  2.42000 6.71200 29.41800
C  3.57500 5.86200 31.58300
C  0.87600 8.37300 32.16800
C  0.97200 8.45300 33.70800
H  2.20000 7.78200 34.41000
N  1.88200 6.69000 26.29300
C  2.10700 5.58700 27.05700
C  1.82500 4.42300 26.31200
C  1.45800 4.87000 25.00300
C  1.68300 6.31800 24.99900
C  1.93400 2.99500 26.88000
C  1.00400 4.10300 23.83000
O  0.50400 4.65300 22.84700
C  1.26600 2.61400 23.76200
N  2.05700 9.33100 24.80900
C  2.02300 8.51800 23.73900
C  2.18600 9.33000 22.43700
C  1.69400 10.67300 22.94700
C  1.95000 10.63900 24.41300
C  3.65100 9.27400 21.93000
C  0.24100 11.07900 22.69100
C  -0.10600 12.40300 21.90600
N  2.60000 10.56200 27.40500
C  2.66800 11.70500 26.59600
C  3.17900 12.75600 27.49300
C  3.09800 12.24100 28.78400
C  2.70000 10.88800 28.69000
C  3.45100 14.20800 27.11600
C  3.18800 12.54500 30.18700
O  3.44500 13.59400 30.75900
C  2.90600 11.24800 30.96200
C  3.93800 11.01500 32.01900
O  5.03600 10.46800 31.94700
O  3.43000 11.55300 33.22900
C  4.49300 11.78800 34.20000
H  2.50000 4.66200 29.04300
H  1.82900 6.65300 22.81200
H  2.55800 12.69800 24.70500
H  3.09700 8.39900 31.95200
H  1.49500 5.96700 31.14100
H  4.19200 6.53700 32.17700
H  4.24700 5.36100 30.88700
H  3.15400 5.01700 32.12700
H  0.22700 7.54600 31.88200
H  0.39500 9.26400 31.76700
H  0.02200 8.05200 34.06000
H  0.98100 9.50400 33.99800
H  2.82200 2.53800 26.44500
H  1.06800 2.35800 26.70100
H  2.08500 3.00800 27.96000
H  2.27000 2.30000 24.04800
H  1.11400 2.22100 22.75700
H  0.61400 2.02500 24.40800
H  1.55600 8.96400 21.62700
H  2.24500 11.47400 22.45500
H  4.38600 8.83000 22.60300
H  3.91100 10.33200 21.92900
H  3.65900 8.76000 20.96900
H  -0.24500 11.14000 23.66500
H  -0.26200 10.28100 22.14500
H  0.77200 12.51100 21.26900
H  -0.17700 13.29800 22.52500
H  -1.02700 12.37600 21.32400
H  3.77100 14.87800 27.91400
H  2.59700 14.66600 26.61700
H  4.34400 14.06200 26.50900
H  1.98000 11.29800 31.53400
H  5.40000 12.14700 33.71300
H  4.75400 10.88500 34.75200
H  4.14100 12.47200 34.97200
Mg -12.20100 39.42600 40.08100
C  -10.57400 36.22900 39.85000
C  -9.05200 40.91800 39.04500
C  -13.76700 42.15900 39.63800
C  -15.16300 37.64400 40.76400
N  -10.09500 38.63100 39.50100
C  -9.72300 37.27000 39.39400
C  -8.42700 37.15900 38.59300
C  -7.81000 38.53300 38.97600
C  -9.06900 39.46200 39.13000
C  -7.01200 38.49400 40.22500
C  -8.76500 36.92000 37.07700
C  -7.64800 36.20300 36.31900
H  -7.93800 35.49700 34.94600
N  -11.44300 41.26100 39.58100
C  -10.18400 41.68700 39.20300
C  -10.25000 43.09600 39.20100
C  -11.56900 43.56500 39.42700
C  -12.34200 42.27900 39.51400
C  -8.95000 43.97400 38.92100
C  -12.03500 45.02400 39.51200
O  -11.31500 46.00000 39.30900
C  -13.41700 45.33400 39.99900
N  -14.26000 39.82300 39.93500
C  -14.64300 41.09000 39.91500
C  -16.16900 41.18200 39.98500
C  -16.50800 39.78100 40.62100
C  -15.24900 39.04300 40.43900
C  -16.76600 42.43500 40.68300
C  -17.69200 39.06300 39.86500
C  -18.87800 38.45600 40.61400
N  -12.77800 37.37700 40.35300
C  -14.00300 36.82800 40.61200
C  -13.87900 35.43100 40.80900
C  -12.50100 35.16800 40.59600
C  -11.90200 36.37900 40.22700
C  -15.00900 34.52100 41.21000
C  -11.53300 34.04600 40.41100
O  -11.71100 32.79400 40.46800
C  -10.24300 34.77300 39.92500
C  -9.13500 34.50200 40.90900
O  -9.25800 34.51500 42.10400
O  -7.91700 34.28900 40.30300
C  -6.82000 34.17000 41.22100
H  -8.09900 41.43400 38.90800
H  -14.18300 43.14200 39.41100
H  -16.09500 37.16400 41.06900
H  -7.74500 36.41000 38.99500
H  -7.07900 38.84600 38.23000
H  -6.01800 38.81400 39.91400
H  -7.02200 37.55700 40.78200
H  -7.37100 39.29600 40.86900
H  -8.92000 37.88100 36.58700
H  -9.72200 36.41300 36.96200
H  -7.28600 35.48800 37.05800
H  -6.87900 36.95800 36.15700
H  -8.17400 43.41300 38.40100
H  -8.55100 44.30100 39.88100
H  -9.15500 44.92700 38.43300
H  -13.46800 46.34300 40.40700
H  -13.65700 44.60400 40.77200
H  -14.17000 45.20800 39.22100
H  -16.41900 41.22400 38.92500
H  -16.87000 39.91300 41.64100
H  -17.66900 42.67900 40.12400
H  -16.10900 43.30500 40.65900
H  -17.17500 42.13100 41.64700
H  -17.27500 38.27500 39.23700
H  -18.16400 39.80700 39.22200
H  -19.06500 37.47600 40.17500
H  -19.76900 39.08400 40.61700
H  -18.54400 38.38400 41.64900
H  -15.62700 34.98000 41.98200
H  -14.65900 33.61100 41.69600
H  -15.54700 34.29900 40.28800
H  -9.95300 34.21200 39.03700
H  -6.06400 34.25300 40.44000
H  -6.78200 33.13100 41.54700
H  -6.72700 34.91500 42.01100

