158

Mg 47.00800 35.00500 28.30800
C  45.49700 32.87000 30.73400
C  47.54000 37.27100 30.86000
C  48.14800 36.97900 26.04200
C  46.25000 32.41300 25.86000
N  46.66000 35.03500 30.56200
C  46.08600 34.05100 31.32400
C  46.12900 34.33500 32.78700
C  46.38000 35.88200 32.78200
C  46.88000 36.10200 31.33100
C  45.22100 36.79400 33.22700
C  47.24100 33.31300 33.38400
C  47.68300 33.57700 34.86600
H  46.90500 34.63200 35.75100
N  47.94900 36.86600 28.45200
C  48.04000 37.63500 29.56700
C  48.84100 38.78000 29.26600
C  49.00500 38.79800 27.79100
C  48.34500 37.52700 27.32000
C  49.24600 39.88700 30.28500
C  49.73100 39.72800 26.87800
O  49.81100 39.59100 25.66800
C  50.18500 41.10500 27.31400
N  47.12900 34.74100 26.26700
C  47.52400 35.80800 25.55600
C  47.16700 35.61000 24.10000
C  46.81700 34.11500 23.99000
C  46.73300 33.68400 25.42300
C  46.11100 36.69200 23.58000
C  47.90900 33.17400 23.30200
C  47.43700 32.01800 22.47700
N  46.06700 33.08500 28.26400
C  45.89300 32.15200 27.23200
C  45.26000 30.97800 27.69400
C  45.05100 31.23700 29.04000
C  45.55500 32.54200 29.34100
C  44.67800 29.90000 27.00500
C  44.55900 30.59100 30.25200
O  44.14400 29.47300 30.51100
C  44.48300 31.77100 31.28000
C  44.55800 31.24800 32.65200
O  45.16000 30.23700 32.91700
O  43.78500 31.99300 33.51100
C  43.82700 31.50500 34.90300
H  47.60900 38.05900 31.61300
H  48.49600 37.61100 25.22200
H  46.01100 31.74200 25.03300
H  45.21300 34.07900 33.32000
H  47.21400 36.05800 33.46100
H  44.41900 36.35100 33.81800
H  44.75100 37.33400 32.40600
H  45.76900 37.43600 33.91700
H  48.12200 33.28600 32.74200
H  46.84900 32.30000 33.47300
H  48.73400 33.86200 34.90900
H  47.54900 32.72700 35.53600
H  48.78400 40.81300 29.94300
H  50.32300 40.02400 30.38300
H  48.81800 39.74300 31.27600
H  51.00100 41.03400 28.03300
H  49.29300 41.61100 27.68200
H  50.69900 41.61200 26.49800
H  47.96100 35.93100 23.42600
H  45.85600 34.07400 23.47700
H  45.23100 36.09400 23.34600
H  46.47600 37.18900 22.68100
H  45.79000 37.29200 24.43200
H  48.44600 32.61800 24.07000
H  48.59400 33.90300 22.86900
H  46.38300 32.08500 22.20900
H  47.73100 31.06000 22.90700
H  48.01900 31.96500 21.55700
H  45.16900 29.73300 26.04700
H  43.60900 29.96700 26.79900
H  44.82100 28.97800 27.56900
H  43.47300 32.17200 31.19300
H  44.36500 32.30800 35.40800
H  44.23900 30.50300 35.01700
H  42.88900 31.70200 35.42200
Mg 41.73400 40.77500 27.02200
C  41.29500 43.42300 29.32700
C  42.73900 38.85900 29.63500
C  42.69500 38.51100 24.71300
C  41.20500 43.13900 24.45400
N  41.96700 41.14900 29.24900
C  41.64100 42.23700 29.95500
C  41.58400 41.95200 31.43500
C  42.27200 40.56000 31.51200
C  42.43300 40.17600 30.07500
C  43.64400 40.56000 32.27300
C  40.13400 42.04800 31.94300
C  39.88100 43.03800 33.05100
H  39.05400 42.61400 34.33000
N  42.34200 38.96100 27.17800
C  42.61700 38.28200 28.35000
C  42.92400 36.92900 28.02500
C  42.86000 36.81100 26.61200
C  42.57600 38.11500 26.11500
C  43.22200 35.86500 29.20100
C  42.95100 35.56200 25.74300
O  42.93000 35.57400 24.53200
C  42.96400 34.19200 26.45000
N  41.92000 40.77600 24.93500
C  42.46600 39.80000 24.17000
C  42.32800 40.06600 22.61600
C  41.66200 41.48100 22.61900
C  41.51700 41.81600 24.14700
C  43.57500 39.84400 21.64100
C  40.38500 41.58800 21.86500
C  39.09500 40.79300 22.40300
N  41.32700 42.87500 26.85500
C  41.16200 43.67100 25.73000
C  40.91300 45.00100 26.15500
C  40.80100 44.91700 27.54800
C  41.17900 43.65400 27.90100
C  40.61700 46.18600 25.25500
C  40.57300 45.68100 28.75000
O  40.19300 46.83600 28.81700
C  40.89300 44.73200 29.93800
C  41.97600 45.40300 30.76800
O  43.09000 45.74400 30.39800
O  41.46800 45.62900 32.07300
C  42.49900 46.14100 33.07000
H  42.85900 38.20800 30.50300
H  42.95400 37.76400 23.96100
H  40.95700 43.82500 23.64100
H  42.15800 42.76600 31.87900
H  41.75000 39.69400 31.91900
H  43.97000 41.50900 32.70000
H  44.38600 40.11900 31.60700
H  43.49200 39.93200 33.15000
H  39.99500 41.01500 32.26300
H  39.53100 42.20500 31.04900
H  39.32500 43.79200 32.49500
H  40.80200 43.47400 33.43700
H  43.52300 36.31000 30.14900
H  44.05300 35.21900 28.92000
H  42.45500 35.16800 29.54000
H  42.13300 34.18400 27.15500
H  43.91400 34.15600 26.98300
H  42.99400 33.41900 25.68200
H  41.50800 39.45300 22.24300
H  42.34000 42.21400 22.18200
H  43.26600 39.26500 20.77000
H  44.40900 39.34000 22.12800
H  43.94200 40.73500 21.13200
H  40.48700 41.13800 20.87800
H  40.15200 42.65300 21.84700
H  38.83200 39.97000 21.73900
H  38.22900 41.42400 22.60200
H  39.33500 40.33300 23.36200
H  40.32500 45.87700 24.25100
H  41.58000 46.66500 25.07700
H  39.83600 46.87800 25.57200
H  40.00100 44.59500 30.54900
H  43.50800 46.06600 32.66200
H  42.41600 45.52200 33.96300
H  42.40000 47.19200 33.34000

