158

Mg 30.22200 58.18400 40.10300
C  27.62400 55.67300 39.50600
C  32.39800 55.68500 39.36900
C  32.50300 60.58900 40.07900
C  27.65600 60.43200 40.74500
N  30.00000 55.83200 39.62300
C  28.88400 55.17500 39.21800
C  29.27000 53.75300 38.69200
C  30.83600 53.63600 39.10900
C  31.11000 55.09600 39.40700
C  31.10200 52.60600 40.27800
C  29.17400 53.59600 37.13500
C  27.75100 53.17500 36.66800
H  27.00500 54.13400 35.65600
N  32.19000 58.15200 39.72300
C  32.93600 57.03200 39.50300
C  34.29400 57.40900 39.35600
C  34.37300 58.83000 39.41000
C  33.01700 59.28400 39.69400
C  35.49100 56.43500 39.34700
C  35.66100 59.66600 39.29800
O  36.75400 59.15400 39.09100
C  35.67500 61.12100 39.52000
N  30.05300 60.31000 40.17800
C  31.18400 61.06300 40.27200
C  30.79300 62.48100 40.77800
C  29.24400 62.42600 41.07200
C  28.96600 60.94800 40.68400
C  31.73600 63.06800 41.89800
C  28.33400 63.42800 40.19600
C  27.21700 64.11200 40.97800
N  28.10700 58.14300 40.13800
C  27.25100 59.16300 40.44900
C  25.87900 58.62400 40.34600
C  26.00300 57.22600 40.06700
C  27.34600 57.00100 39.91800
C  24.66200 59.44700 40.62600
C  25.32200 55.93300 39.90000
O  24.11500 55.76000 39.96800
C  26.28400 54.84500 39.42400
C  26.18700 53.71400 40.48200
O  26.66200 53.70800 41.54900
O  25.47800 52.61900 40.00600
C  25.44300 51.48800 40.94700
H  33.13400 54.91700 39.12500
H  33.19600 61.38200 40.36600
H  26.90900 61.16800 41.04700
H  28.58600 53.07600 39.20400
H  31.47700 53.33500 38.28100
H  31.92900 51.95700 39.99000
H  30.21800 52.00400 40.48800
H  31.53200 53.01300 41.19300
H  29.81500 52.76100 36.85200
H  29.47000 54.55900 36.72000
H  27.10800 52.94600 37.51800
H  27.77200 52.20700 36.16800
H  36.04400 56.53700 38.41400
H  35.31600 55.39300 39.61500
H  36.12400 56.81100 40.15100
H  34.92500 61.58700 38.88200
H  36.68600 61.49700 39.36200
H  35.47900 61.45600 40.53800
H  30.83800 63.08800 39.87400
H  28.99200 62.59700 42.11800
H  32.33200 62.23700 42.27600
H  31.28700 63.50600 42.78900
H  32.31000 63.84500 41.39400
H  27.92300 62.91200 39.32800
H  29.06200 64.16000 39.84600
H  27.42500 65.17700 41.07700
H  27.22900 63.61300 41.94700
H  26.38500 63.88600 40.31100
H  23.80700 58.87300 40.98200
H  24.45100 59.75900 39.60300
H  24.88400 60.24500 41.33400
H  25.95400 54.40700 38.48200
H  25.57900 50.50800 40.49000
H  24.43400 51.31800 41.32300
H  26.05000 51.53000 41.85200
Mg -2.60700 34.37500 26.01800
C  -4.08900 32.75300 28.78200
C  -1.44700 36.64200 28.42500
C  -1.22300 36.01500 23.60700
C  -4.35900 32.33400 23.93000
N  -3.00300 34.79300 28.45400
C  -3.40600 33.82400 29.29300
C  -3.11800 34.19800 30.79100
C  -2.41000 35.58200 30.67000
C  -2.21400 35.67000 29.08000
C  -3.30200 36.75200 31.08200
C  -2.35300 33.10000 31.55700
C  -2.80100 32.89700 32.97900
H  -2.34300 33.99900 33.98500
N  -1.48300 36.04200 26.01900
C  -1.06200 36.77000 27.10900
C  -0.16400 37.82900 26.65000
C  -0.13300 37.69000 25.20700
C  -0.97600 36.54500 24.90400
C  0.34500 38.92600 27.51900
C  0.67000 38.53300 24.15800
O  0.75000 38.30700 22.97300
C  1.41600 39.69400 24.80000
N  -2.88700 34.23900 24.03700
C  -2.18700 35.05000 23.20900
C  -2.55800 34.70500 21.71100
C  -3.49600 33.50100 21.80800
C  -3.61900 33.31900 23.39400
C  -3.16300 35.92800 21.00300
C  -3.00000 32.26500 21.10700
C  -2.25700 31.21300 21.92000
N  -4.03700 32.89500 26.22000
C  -4.62700 32.06300 25.28000
C  -5.30900 30.99700 25.92200
C  -5.11600 31.23100 27.32200
C  -4.41900 32.42700 27.43900
C  -6.12500 29.91300 25.22100
C  -5.47400 30.74100 28.63800
O  -6.04500 29.76500 28.98000
C  -4.79900 31.67700 29.61000
C  -5.83200 32.28900 30.54300
O  -6.75700 33.06200 30.26700
O  -5.84200 31.68200 31.80600
C  -6.69200 32.19700 32.90400
H  -0.92900 37.24500 29.17400
H  -0.76400 36.60200 22.80900
H  -4.82400 31.73100 23.14700
H  -4.09100 34.24700 31.28100
H  -1.43300 35.65900 31.14700
H  -2.71900 37.37100 31.76300
H  -4.16000 36.37000 31.63600
H  -3.71500 37.33000 30.25500
H  -1.33700 33.47700 31.67300
H  -2.28300 32.18500 30.97000
H  -2.47200 31.91700 33.32200
H  -3.88900 32.96400 32.98800
H  1.41300 38.89500 27.73100
H  -0.16800 38.90500 28.48100
H  0.05000 39.84400 27.01000
H  2.08100 39.32600 25.58100
H  0.72600 40.49900 25.05400
H  2.09900 40.11700 24.06400
H  -1.63000 34.42100 21.21500
H  -4.50100 33.64900 21.41300
H  -2.48300 36.33100 20.25300
H  -3.36500 36.72000 21.72500
H  -4.06600 35.82600 20.40000
H  -2.39200 32.43100 20.21800
H  -3.90400 31.79900 20.71400
H  -1.74600 31.73100 22.73100
H  -1.52600 30.63500 21.35500
H  -3.00800 30.47100 22.19400
H  -6.22000 29.13500 25.97900
H  -5.73200 29.39900 24.34300
H  -7.07500 30.37200 24.94700
H  -4.09000 31.07600 30.18000
H  -6.33300 31.80800 33.85700
H  -7.77100 32.13900 32.75800
H  -6.38600 33.24300 32.89000

