158

Mg 46.92200 24.96700 29.35600
C  48.02000 27.09700 32.01200
C  46.56200 22.51400 31.69900
C  46.85600 22.63900 26.93900
C  48.02800 27.30500 27.19200
N  47.26500 24.81900 31.63400
C  47.64800 25.84800 32.48100
C  47.37500 25.44300 33.94700
C  47.02900 23.88500 33.81400
C  46.89900 23.73500 32.27300
C  48.00100 22.94000 34.47100
C  46.23100 26.23600 34.66200
C  46.64200 26.97300 35.97300
H  45.49000 27.09600 36.98600
N  46.48900 22.92900 29.26600
C  46.33400 22.10600 30.39100
C  46.06000 20.73700 29.93900
C  46.17800 20.72300 28.49800
C  46.41400 22.15400 28.15200
C  45.67700 19.59300 30.84000
C  46.10700 19.59800 27.53200
O  46.09100 19.80500 26.30100
C  46.03100 18.16200 27.95400
N  47.19000 25.02000 27.29700
C  47.10600 23.91000 26.46000
C  47.42000 24.30500 25.03200
C  47.56200 25.88700 25.11900
C  47.56400 26.14600 26.60000
C  48.71200 23.59200 24.45700
C  46.38900 26.62300 24.50900
C  46.83000 27.75600 23.54900
N  47.68100 26.87300 29.48500
C  48.02400 27.75400 28.52200
C  48.51400 28.95600 29.05200
C  48.43900 28.82900 30.46000
C  48.02100 27.47200 30.67500
C  48.97300 30.06300 28.13100
C  48.69200 29.44300 31.73900
O  49.15600 30.55000 31.95700
C  48.53000 28.28800 32.76400
C  49.86400 28.00100 33.45300
O  50.60000 27.10400 33.09600
O  49.98200 28.78300 34.54300
C  50.89700 28.26000 35.57200
H  46.25900 21.75200 32.42000
H  47.08200 21.84400 26.22500
H  48.38700 27.99300 26.42500
H  48.29500 25.57400 34.51600
H  46.05700 23.80800 34.30000
H  48.94400 23.41000 34.74800
H  48.39200 22.20700 33.76500
H  47.39200 22.42500 35.21300
H  45.32200 25.64500 34.77600
H  45.85700 27.00100 33.98100
H  46.94700 27.98000 35.69000
H  47.57400 26.51700 36.30800
H  46.49700 18.88100 30.74400
H  44.73500 19.06300 30.69400
H  45.74500 19.90900 31.88100
H  45.16500 18.13900 28.61600
H  46.87600 17.97500 28.61600
H  45.93300 17.48700 27.10400
H  46.57600 24.08300 24.37900
H  48.53400 26.09500 24.67300
H  49.38900 23.17000 25.19900
H  49.34500 24.22900 23.84000
H  48.34900 22.83400 23.76200
H  45.88600 27.23900 25.25400
H  45.68800 25.93400 24.03700
H  46.80400 28.69300 24.10600
H  46.15700 27.75400 22.69200
H  47.85400 27.59600 23.20900
H  48.10000 30.65500 27.85200
H  49.34300 29.56900 27.23300
H  49.64200 30.76200 28.63300
H  47.82600 28.58400 33.54100
H  50.94700 29.04600 36.32500
H  51.93200 28.22900 35.23100
H  50.69300 27.23700 35.89000
Mg -5.97600 25.71900 25.57900
C  -4.22700 27.01400 28.44200
C  -6.98300 23.14400 27.67800
C  -7.36400 24.21700 22.97300
C  -4.24700 27.91500 23.61900
N  -5.73600 25.26900 27.84300
C  -5.13700 26.01200 28.83400
C  -5.52000 25.50800 30.23800
C  -6.02800 24.11000 29.93500
C  -6.33200 24.16300 28.37900
C  -5.08300 22.90900 30.50400
C  -6.66400 26.48200 30.76100
C  -6.57900 26.73700 32.29900
H  -6.45700 25.45900 33.21900
N  -7.03000 23.91200 25.33100
C  -7.38300 23.01300 26.30200
C  -8.04000 21.89700 25.70800
C  -8.29700 22.20000 24.30800
C  -7.54400 23.50300 24.16000
C  -8.41600 20.70900 26.57300
C  -9.16600 21.46200 23.28900
O  -9.44900 22.02600 22.19000
C  -9.82600 20.11300 23.57900
N  -5.93000 26.05000 23.63100
C  -6.59200 25.30700 22.66300
C  -6.25700 25.75400 21.25500
C  -5.55900 27.12800 21.58800
C  -5.18500 26.97700 23.07500
C  -5.38600 24.83500 20.38200
C  -6.39900 28.38100 21.47000
C  -6.44600 29.01400 20.13100
N  -4.54900 27.17600 25.95900
C  -3.90900 27.99400 25.02800
C  -2.95400 28.81900 25.64900
C  -3.01700 28.40700 27.02600
C  -4.00500 27.45400 27.12200
C  -1.94900 29.76600 25.05700
C  -2.36400 28.69700 28.33200
O  -1.55800 29.53600 28.66000
C  -3.25300 27.83300 29.26500
C  -2.38400 27.04000 30.24100
O  -1.54800 26.20300 29.97200
O  -2.66500 27.31800 31.57500
C  -1.91400 26.61500 32.66200
H  -7.31600 22.35600 28.35700
H  -7.92800 23.85900 22.10900
H  -3.72400 28.61100 22.95900
H  -4.63000 25.51200 30.86800
H  -7.02700 23.94100 30.33700
H  -4.40600 22.69600 29.67700
H  -5.59300 22.01500 30.86400
H  -4.50700 23.35200 31.31700
H  -7.65700 26.06200 30.59900
H  -6.72600 27.48800 30.34600
H  -7.39000 27.42300 32.54400
H  -5.74800 27.40600 32.52100
H  -9.20100 20.11800 26.10200
H  -8.58300 20.93900 27.62500
H  -7.59200 19.99700 26.62300
H  -9.00200 19.42700 23.77600
H  -10.44500 19.83700 22.72600
H  -10.51800 20.24600 24.41100
H  -7.19800 25.96000 20.74600
H  -4.68000 27.25300 20.95500
H  -4.41800 25.31900 20.24900
H  -5.79700 24.58800 19.40300
H  -5.37700 23.94600 21.01300
H  -6.24400 29.09300 22.28100
H  -7.44400 28.07200 21.47600
H  -7.17200 28.38600 19.61300
H  -5.54500 28.87500 19.53400
H  -6.55100 30.09900 20.14500
H  -1.90500 30.58400 25.77600
H  -2.16800 30.11700 24.04800
H  -1.00000 29.23500 24.97600
H  -3.87400 28.53100 29.82600
H  -2.73100 26.57100 33.38200
H  -1.04700 27.05300 33.15600
H  -1.80100 25.56900 32.37600

