158

Mg 0.51600 7.55000 26.26900
C  1.58200 9.40800 29.00000
C  0.85300 4.69000 28.25400
C  0.07200 5.71200 23.54000
C  0.21300 10.44600 24.47600
N  1.00700 7.06700 28.32200
C  1.30400 8.07100 29.29000
C  1.24200 7.42300 30.67100
C  1.39800 5.85400 30.41100
C  1.04100 5.84400 28.87800
C  2.72500 5.14600 30.70100
C  0.01900 7.91700 31.49900
C  0.39200 8.29200 33.00900
H  1.12700 7.26800 33.79100
N  0.32100 5.45000 25.94600
C  0.49800 4.43100 26.90000
C  0.42500 3.16400 26.16200
C  0.12300 3.40500 24.82700
C  0.14000 4.92500 24.70800
C  0.66400 1.84100 26.87100
C  -0.14400 2.45100 23.74600
O  -0.20300 2.80500 22.59200
C  -0.27400 0.95900 23.98200
N  0.42100 8.00500 24.25600
C  0.09300 7.10600 23.32400
C  -0.41700 7.78200 22.01800
C  -0.58400 9.25800 22.45400
C  0.03800 9.26300 23.82600
C  0.58800 7.59100 20.90900
C  -2.05100 9.85800 22.41800
C  -2.89200 9.60000 21.16600
N  0.93200 9.56000 26.62300
C  0.74300 10.62000 25.79300
C  1.12600 11.82100 26.41600
C  1.52700 11.40300 27.71400
C  1.42900 10.02700 27.71400
C  1.18400 13.22800 25.81000
C  2.13000 11.71900 29.03100
O  2.42700 12.79300 29.54500
C  2.03800 10.44700 29.88400
C  3.34300 10.20100 30.56200
O  4.23800 9.40200 30.29000
O  3.34900 10.93100 31.73200
C  4.38700 10.73000 32.72400
H  0.99500 3.77000 28.82500
H  0.09900 5.25200 22.54900
H  0.05100 11.30400 23.82000
H  2.15800 7.65100 31.21700
H  0.56900 5.30800 30.86200
H  2.66000 4.56000 31.61700
H  3.48500 5.89800 30.91600
H  3.15400 4.55200 29.89400
H  -0.62400 7.03700 31.52500
H  -0.59500 8.64600 30.97200
H  -0.60000 8.56400 33.37100
H  0.95000 9.22400 33.09600
H  1.34800 1.22500 26.28700
H  -0.22200 1.24900 27.09700
H  1.30700 2.00300 27.73700
H  -0.38900 0.41900 23.04300
H  -1.20400 0.70800 24.49200
H  0.69800 0.60400 24.32700
H  -1.36800 7.28100 21.83500
H  -0.00300 9.92400 21.81700
H  1.60200 7.52000 21.30400
H  0.57500 8.49100 20.29400
H  0.24700 6.74700 20.31000
H  -1.95700 10.91300 22.67500
H  -2.61300 9.46700 23.26600
H  -2.50600 8.92500 20.40200
H  -2.97200 10.58500 20.70600
H  -3.88800 9.31000 21.49800
H  1.63900 13.89500 26.54200
H  0.16600 13.49600 25.52700
H  1.74100 13.17100 24.87500
H  1.27700 10.68400 30.62800
H  4.22900 9.98500 33.50400
H  4.50300 11.67100 33.26100
H  5.34100 10.39500 32.31600
Mg 45.00000 2.97000 46.56500
C  42.67500 5.66500 46.15500
C  42.49900 0.82000 45.98200
C  47.30500 0.64700 46.78100
C  47.55600 5.45500 46.26800
N  42.77000 3.22300 46.10000
C  42.07000 4.37900 45.94300
C  40.59000 4.12900 45.65700
C  40.48400 2.58200 45.83300
C  42.01800 2.13900 45.80100
C  39.76400 2.19800 47.21900
C  40.29000 4.59300 44.12100
C  38.98500 5.26700 43.94900
H  38.15700 4.94900 42.65400
N  44.95700 0.92700 46.43400
C  43.81900 0.21000 46.20700
C  44.10900 -1.23100 46.13400
C  45.55100 -1.29400 46.46600
C  46.01500 0.07600 46.65400
C  43.15500 -2.28700 45.70600
C  46.31800 -2.59400 46.70200
O  45.85600 -3.63600 46.48700
C  47.71600 -2.57200 47.21200
N  47.04500 3.00500 46.21100
C  47.74300 1.95200 46.72800
C  49.23000 2.27300 46.83800
C  49.41300 3.63000 46.09500
C  47.91700 4.10500 46.09500
C  49.71800 2.27800 48.35000
C  49.96900 3.46800 44.65500
C  51.47200 3.05900 44.44100
N  45.15500 5.10400 46.44000
C  46.24000 5.96200 46.44000
C  45.86200 7.32000 46.40300
C  44.44100 7.26700 46.33800
C  44.08600 5.88700 46.38000
C  46.74600 8.51300 46.35100
C  43.19100 8.02400 46.32600
O  43.00400 9.21500 46.43400
C  41.93700 7.01200 46.22300
C  41.14900 7.06100 47.50400
O  41.28000 6.28900 48.41400
O  40.07800 7.93500 47.45900
C  39.16100 7.76000 48.61700
H  41.70300 0.07400 45.93400
H  48.13000 -0.03900 46.98600
H  48.38600 6.16300 46.31600
H  39.96300 4.66400 46.37000
H  39.93800 2.15000 44.99500
H  38.91400 1.55600 46.98900
H  39.40500 3.12300 47.67000
H  40.49400 1.76400 47.90300
H  40.37300 3.77000 43.41200
H  41.06900 5.32400 43.90300
H  39.21900 6.33100 43.92200
H  38.30000 5.10500 44.78100
H  43.67500 -3.06200 45.14200
H  42.51700 -1.80300 44.96600
H  42.58100 -2.75100 46.50700
H  48.25200 -2.31600 46.29800
H  48.17600 -3.51800 47.49600
H  47.70800 -1.84300 48.02300
H  49.70500 1.46200 46.28500
H  49.99600 4.34000 46.68100
H  50.46500 3.02900 48.60600
H  50.04700 1.29600 48.69300
H  48.76600 2.49900 48.83100
H  49.61500 4.39700 44.20900
H  49.40500 2.65400 44.19900
H  52.17200 3.87600 44.26400
H  51.52200 2.29400 43.66700
H  51.76300 2.71900 45.43600
H  46.55200 9.20800 47.16800
H  46.45100 9.08200 45.47000
H  47.81900 8.31900 46.32400
H  41.21300 7.28900 45.45700
H  39.30800 8.41800 49.47400
H  39.10400 6.79000 49.11100
H  38.12900 7.99200 48.35300

