158

Mg 41.77200 40.49400 26.90800
C  41.02200 42.77300 29.56400
C  42.96700 38.39200 29.34600
C  42.68700 38.47100 24.39600
C  41.32400 43.06800 24.60700
N  42.05400 40.64400 29.16300
C  41.53900 41.57200 30.07500
C  41.56000 41.15400 31.56100
C  42.19300 39.73400 31.30400
C  42.54000 39.60500 29.86800
C  43.33200 39.38000 32.28000
C  40.22400 41.22000 32.33000
C  40.27000 41.71600 33.81200
H  39.65000 40.84200 34.95600
N  42.73000 38.69400 26.84600
C  43.08100 37.92200 27.98300
C  43.64500 36.69000 27.48900
C  43.63000 36.69200 26.13500
C  43.01500 37.99400 25.71000
C  44.15200 35.56000 28.44200
C  43.97900 35.58100 25.09300
O  43.79800 35.64400 23.90600
C  44.51700 34.26000 25.57500
N  42.19000 40.83600 24.84100
C  42.31800 39.79500 24.02900
C  42.12000 40.06200 22.54800
C  41.73000 41.57500 22.57300
C  41.78700 41.86300 24.11500
C  43.31400 39.66400 21.53900
C  40.37200 41.90400 21.82300
C  39.00600 41.66200 22.44900
N  41.19200 42.51200 26.95900
C  41.01300 43.39800 25.94500
C  40.44100 44.61900 26.55900
C  40.44400 44.41700 27.91100
C  40.96200 43.11300 28.17500
C  40.13100 45.89800 25.83800
C  40.12400 45.04200 29.13600
O  39.73800 46.19600 29.35000
C  40.42200 43.99100 30.22700
C  41.28500 44.66000 31.16100
O  42.35000 45.25400 30.90600
O  40.87100 44.49300 32.44300
C  41.68200 45.11900 33.52300
H  43.23300 37.61200 30.06300
H  42.69900 37.81200 23.52500
H  41.06300 43.84700 23.88800
H  42.30000 41.83400 31.98300
H  41.47200 38.97200 31.60200
H  43.33700 40.00700 33.17100
H  44.31000 39.40300 31.79800
H  43.23100 38.36400 32.66100
H  39.92400 40.18000 32.45200
H  39.41700 41.63500 31.72700
H  39.68600 42.63100 33.70900
H  41.24400 42.13200 34.07100
H  45.21000 35.49500 28.19100
H  43.61300 34.63800 28.22400
H  44.14700 35.83000 29.49800
H  45.36500 34.22600 26.26000
H  44.68400 33.78300 24.60900
H  43.64900 33.75200 25.99500
H  41.21000 39.57500 22.19700
H  42.56200 42.15300 22.17000
H  43.71200 40.47900 20.93400
H  42.88000 38.87900 20.91900
H  44.04200 39.37200 22.29600
H  40.29200 41.18700 21.00600
H  40.46000 42.92300 21.44900
H  38.68700 42.63800 22.81700
H  39.15000 40.89800 23.21200
H  38.27300 41.21900 21.77500
H  39.44700 45.54000 25.06900
H  41.02500 46.27700 25.34400
H  39.72200 46.67100 26.49000
H  39.51100 43.62200 30.69700
H  41.01800 45.62400 34.22400
H  42.36900 45.91600 33.23800
H  42.13300 44.26200 34.02400
Mg -9.98200 16.97000 41.00600
C  -6.47000 16.50600 41.31200
C  -9.36900 20.37200 40.73700
C  -13.13300 17.43400 40.33500
C  -10.32200 13.45000 41.09500
N  -8.17000 18.24800 41.17900
C  -6.85500 17.85100 41.14400
C  -5.94100 19.01300 40.68900
C  -6.78400 20.24300 41.04600
C  -8.24000 19.61500 41.07700
C  -6.37300 20.90800 42.36900
C  -5.39100 18.95800 39.22400
C  -3.85800 19.02500 38.97100
H  -3.40000 18.13500 37.85900
N  -11.07400 18.66300 40.42900
C  -10.67300 19.97400 40.39400
C  -11.84300 20.90600 40.11700
C  -12.93900 20.01200 40.20600
C  -12.41600 18.66500 40.28400
C  -11.67800 22.40200 40.04800
C  -14.39800 20.47200 40.07200
O  -14.64400 21.69500 40.00800
C  -15.61500 19.55500 40.05700
N  -11.42200 15.53600 40.45700
C  -12.69800 16.04900 40.55600
C  -13.75400 14.93200 40.59000
C  -12.83400 13.63800 40.62600
C  -11.46100 14.20800 40.76700
C  -14.82100 15.07300 41.74200
C  -13.01400 12.55800 39.53800
C  -13.32000 11.16400 40.00500
N  -8.75300 15.32900 41.37500
C  -9.01900 13.95300 41.35700
C  -7.87000 13.18400 41.71000
C  -6.79200 14.10800 41.60500
C  -7.40300 15.38600 41.42000
C  -7.83500 11.72400 42.01700
C  -5.39300 14.24700 41.53700
O  -4.49000 13.41500 41.57800
C  -5.10400 15.78500 41.16400
C  -4.17800 16.25400 42.18900
O  -3.08000 16.75200 41.99600
O  -4.68700 16.15200 43.47800
C  -4.00600 16.60300 44.71600
H  -9.22300 21.45400 40.75800
H  -14.21200 17.45000 40.16800
H  -10.47800 12.37100 41.14600
H  -5.13500 18.87600 41.41000
H  -6.71900 21.00900 40.27400
H  -5.57100 20.44700 42.94500
H  -7.24900 21.03400 43.00600
H  -5.98200 21.88400 42.08100
H  -5.81700 19.76600 38.62900
H  -5.77500 18.04200 38.77500
H  -3.36600 18.70100 39.88900
H  -3.67400 20.04300 38.62700
H  -12.55000 22.85000 39.57100
H  -10.79500 22.59000 39.43800
H  -11.59500 22.77800 41.06800
H  -15.60000 18.92000 39.17100
H  -16.52700 20.14700 39.98500
H  -15.68800 19.14600 41.06400
H  -14.26500 14.95000 39.62800
H  -13.07400 13.08900 41.53700
H  -14.98000 16.03000 42.23900
H  -14.61800 14.35800 42.53900
H  -15.76600 14.76600 41.29400
H  -12.18400 12.48300 38.83600
H  -13.81600 12.81100 38.84400
H  -12.85900 10.41700 39.35900
H  -14.38600 10.93800 39.96500
H  -12.96300 10.95000 41.01300
H  -8.83500 11.37600 42.27600
H  -7.16400 11.30300 42.76600
H  -7.55800 11.23700 41.08200
H  -4.62400 15.89800 40.19200
H  -4.51900 17.51400 45.02400
H  -2.92700 16.71900 44.61900
H  -4.12600 15.95200 45.58200

