158

Mg 5.57800 54.15600 40.87900
C  5.74900 50.65600 40.97900
C  8.71100 54.18600 39.52300
C  5.19100 57.40600 40.55900
C  2.30400 53.86500 42.17500
N  7.05800 52.57000 40.28000
C  6.96000 51.20400 40.47700
C  8.17100 50.49500 39.90400
C  9.25100 51.67600 39.80000
C  8.26700 52.87600 39.80400
C  10.20100 51.71600 41.09600
C  7.95000 49.71300 38.57100
C  7.04800 50.25600 37.39400
H  6.35100 49.22800 36.46900
N  6.68000 55.56200 40.10200
C  7.96300 55.39200 39.61000
C  8.62200 56.61500 39.36500
C  7.66300 57.68900 39.59300
C  6.44300 56.96900 40.14300
C  10.06400 56.86200 38.88600
C  7.82200 59.20700 39.27500
O  8.82500 59.64000 38.77700
C  6.76100 60.27800 39.44800
N  3.84700 55.48700 41.20500
C  3.98200 56.76500 41.00200
C  2.75300 57.53000 41.58600
C  1.71700 56.35200 41.87500
C  2.68400 55.16700 41.84600
C  2.89700 58.47500 42.80800
C  0.45700 56.36400 40.99600
C  -0.84700 56.48200 41.80200
N  4.31200 52.63300 41.40800
C  3.00200 52.61800 41.95200
C  2.57200 51.30000 42.27800
C  3.67600 50.57200 41.90100
C  4.66600 51.35400 41.38600
C  1.34600 50.84600 43.04800
C  4.17400 49.20300 41.97600
O  3.58500 48.20300 42.40200
C  5.49100 49.15800 41.35700
C  5.42200 48.24900 40.30100
O  4.82200 48.44000 39.24000
O  6.14500 47.19400 40.59300
C  6.15900 46.12400 39.61600
H  9.72400 54.24300 39.12100
H  5.12000 58.49300 40.48500
H  1.28900 53.69000 42.53800
H  8.57300 49.75400 40.59400
H  9.90800 51.64600 38.93100
H  10.25700 50.77600 41.64500
H  9.83800 52.51600 41.74200
H  11.23000 51.92300 40.80400
H  7.74900 48.65400 38.73300
H  8.89600 49.66500 38.03100
H  7.66700 50.95400 36.83000
H  6.26600 50.83400 37.88600
H  10.15700 56.98000 37.80600
H  10.82800 56.20200 39.29600
H  10.22000 57.85900 39.29800
H  5.86500 59.83300 39.01500
H  7.21800 61.14400 38.97000
H  6.61400 60.46200 40.51200
H  2.39800 58.19200 40.79600
H  1.29500 56.48300 42.87100
H  2.07400 59.18100 42.69900
H  3.87400 58.93200 42.96600
H  2.50400 58.01700 43.71600
H  0.44900 55.42400 40.44500
H  0.61500 57.16900 40.27900
H  -0.76900 56.86400 42.82000
H  -1.25500 55.47200 41.76800
H  -1.48400 57.04400 41.11900
H  0.54100 51.57400 43.14500
H  1.64400 50.74100 44.09100
H  0.90200 49.95200 42.61000
H  6.26700 48.87700 42.07000
H  5.17200 45.65900 39.62200
H  6.93800 45.39600 39.84300
H  6.42800 46.40300 38.59800
Mg -11.12000 17.14700 41.04600
C  -7.65800 16.69000 40.71800
C  -10.57300 20.46800 39.94900
C  -14.37600 17.63200 40.49700
C  -11.46800 13.68500 41.09400
N  -9.26800 18.38500 40.40000
C  -7.99900 17.99200 40.45800
C  -6.97400 19.14600 40.28700
C  -7.99700 20.40000 40.45500
C  -9.35900 19.76500 40.20100
C  -7.89800 21.23800 41.73200
C  -6.37000 19.22400 38.90400
C  -4.88600 18.89000 38.83200
H  -4.37300 18.06800 37.71300
N  -12.32200 18.86900 40.53600
C  -11.90200 20.03800 39.95200
C  -13.00800 20.84700 39.56400
C  -14.16700 20.14200 40.03600
C  -13.66600 18.80300 40.42300
C  -13.00700 22.28600 39.05000
C  -15.63300 20.60700 39.81200
O  -15.93600 21.66900 39.23400
C  -16.77200 19.81200 40.26400
N  -12.64600 15.78500 40.77000
C  -13.93100 16.29700 40.73300
C  -14.97700 15.18400 40.65700
C  -14.01200 13.85600 40.82600
C  -12.64200 14.43300 40.93400
C  -16.05400 15.31400 41.73800
C  -14.05500 12.74300 39.64200
C  -14.72200 11.41700 39.98800
N  -9.89500 15.39800 41.03200
C  -10.17800 14.08300 41.24300
C  -8.90200 13.38900 41.39800
C  -7.83900 14.31200 41.19500
C  -8.54800 15.60200 40.94300
C  -8.67400 11.97700 41.72100
C  -6.41500 14.54600 41.15400
O  -5.50300 13.74300 41.29100
C  -6.26900 16.09000 40.94800
C  -5.52600 16.54400 42.03500
O  -4.42900 17.13600 41.91000
O  -6.14000 16.39900 43.21000
C  -5.46200 16.88600 44.40900
H  -10.40900 21.52900 39.75200
H  -15.41400 17.67500 40.16000
H  -11.56400 12.60100 41.18500
H  -6.32200 19.09800 41.15800
H  -7.75800 21.08600 39.64300
H  -7.08700 20.87200 42.36200
H  -8.83800 21.11500 42.27100
H  -7.82000 22.29200 41.46800
H  -6.51500 20.17200 38.38700
H  -6.89800 18.48600 38.30000
H  -4.63200 18.49700 39.81600
H  -4.31700 19.81400 38.72800
H  -13.83800 22.26800 38.34600
H  -12.03700 22.37300 38.56000
H  -13.23100 22.97600 39.86300
H  -17.09500 19.11900 39.48700
H  -17.57500 20.52400 40.45300
H  -16.65000 19.29600 41.21600
H  -15.44700 15.12700 39.67500
H  -14.34400 13.28200 41.69100
H  -16.91000 15.31100 41.06200
H  -16.12100 16.23500 42.31700
H  -16.29100 14.55100 42.48000
H  -13.09300 12.47600 39.20500
H  -14.66600 13.19500 38.86000
H  -15.56600 11.37500 39.29900
H  -15.10400 11.34100 41.00600
H  -14.13400 10.54900 39.69300
H  -8.62000 11.79100 42.79400
H  -7.80600 11.53800 41.22900
H  -9.59400 11.46100 41.44500
H  -5.61500 16.34300 40.11300
H  -5.90600 17.84400 44.68000
H  -4.38200 17.03200 44.38300
H  -5.68300 16.16000 45.19100

