158

Mg 8.99200 3.00000 27.09200
C  10.36000 1.49200 30.00600
C  7.01700 4.96600 29.35100
C  7.23900 4.20000 24.49200
C  10.02100 0.26100 25.19300
N  8.70900 3.13100 29.43600
C  9.51500 2.56200 30.35900
C  9.27100 3.10400 31.73300
C  8.01600 4.04900 31.51100
C  7.81000 4.05200 30.00900
C  6.68500 3.64500 32.13900
C  10.50000 3.84100 32.45500
C  10.93200 3.36700 33.86000
H  11.22100 4.46700 34.93400
N  7.48900 4.47000 26.96500
C  6.86800 5.16400 27.93500
C  6.02300 6.12700 27.27000
C  6.20200 6.05700 25.84800
C  6.96700 4.86400 25.73200
C  5.07400 7.07500 28.06200
C  5.80300 6.92400 24.69900
O  5.98700 6.63900 23.53200
C  5.07900 8.17300 25.01000
N  8.79600 2.43000 25.14300
C  8.06400 3.12200 24.22800
C  8.21200 2.53400 22.86200
C  9.07800 1.30300 23.05900
C  9.34800 1.32600 24.57300
C  6.89900 2.24600 22.16500
C  10.35100 1.31200 22.25600
C  10.46900 0.13800 21.26000
N  10.03000 1.26200 27.47700
C  10.46400 0.31300 26.58200
C  11.32500 -0.57300 27.26500
C  11.29500 -0.16500 28.65200
C  10.53000 0.96200 28.71200
C  11.83700 -1.97400 26.64200
C  11.64800 -0.61900 29.93400
O  12.33100 -1.58100 30.22300
C  11.06900 0.49900 30.89800
C  10.17300 -0.11400 31.88800
O  8.95100 -0.29300 31.78500
O  10.98200 -0.28500 33.06000
C  10.24200 -0.56300 34.28000
H  6.42800 5.60700 30.01100
H  6.84100 4.50800 23.52300
H  10.36600 -0.56500 24.56600
H  9.08200 2.22000 32.34300
H  8.30600 5.00600 31.94400
H  6.60700 4.42100 32.90100
H  6.65500 2.70100 32.68400
H  5.88000 3.69200 31.40700
H  10.28400 4.90900 32.44700
H  11.39200 3.73100 31.83700
H  11.82900 2.75900 33.74500
H  10.06600 2.82200 34.23800
H  5.48900 8.08000 27.99100
H  4.95200 6.81800 29.11500
H  4.12400 7.13200 27.53200
H  5.69000 8.66100 25.76900
H  4.08900 7.96600 25.41600
H  4.99800 8.82200 24.13800
H  8.80600 3.30200 22.36600
H  8.57100 0.34000 23.00700
H  6.04300 2.59600 22.74400
H  6.71700 1.17300 22.10500
H  6.84200 2.79900 21.22700
H  11.19800 1.13100 22.91800
H  10.61600 2.26100 21.79100
H  9.50900 -0.18700 20.85800
H  11.00100 -0.73000 21.65000
H  11.00800 0.55700 20.41100
H  12.92400 -2.02900 26.70800
H  11.63800 -1.91600 25.57200
H  11.37200 -2.84600 27.10100
H  11.89700 1.02800 31.36900
H  9.17200 -0.66800 34.09900
H  10.53300 0.11300 35.08300
H  10.60300 -1.51900 34.66000
Mg 26.75300 51.13400 27.00600
C  24.40000 52.11300 29.36700
C  28.86600 50.19900 29.46300
C  28.80700 50.14600 24.58100
C  24.58300 52.50100 24.38200
N  26.54100 51.23900 29.16600
C  25.44200 51.44500 29.94100
C  25.74600 51.15600 31.41500
C  27.35000 50.88400 31.41500
C  27.61700 50.68600 29.89800
C  28.13200 52.11300 32.01300
C  24.82900 50.02400 31.95000
C  24.08100 50.37900 33.22600
H  24.80000 51.10500 34.36100
N  28.56700 50.28300 26.98500
C  29.28700 49.96400 28.15200
C  30.53900 49.29000 27.70300
C  30.54800 49.31100 26.32400
C  29.30200 49.94900 25.87100
C  31.68200 48.77000 28.61100
C  31.67500 48.86600 25.43300
O  31.66400 49.15900 24.23300
C  32.83700 48.02500 25.86200
N  26.62200 51.22500 24.69500
C  27.59900 50.73400 24.00800
C  27.25300 50.75000 22.54100
C  25.87700 51.48800 22.41800
C  25.64100 51.74400 23.89400
C  28.43300 51.33500 21.62800
C  24.73700 50.61600 21.77800
C  24.42100 51.10500 20.37200
N  24.93300 52.17900 26.83100
C  24.12400 52.60900 25.77800
C  22.89700 53.24600 26.27300
C  23.02600 53.07100 27.68600
C  24.27400 52.48900 27.98200
C  21.89100 53.93700 25.47600
C  22.27300 53.25500 28.92200
O  21.15700 53.69500 29.14200
C  23.22000 52.65300 30.08200
C  23.61500 53.89000 30.89900
O  24.44400 54.75500 30.60200
O  22.90500 53.86300 32.04200
C  23.22400 54.86300 33.04500
H  29.50200 49.80300 30.25700
H  29.50400 49.73600 23.84700
H  23.99600 52.91300 23.55800
H  25.65000 52.09500 31.96000
H  27.49700 49.98300 32.01000
H  27.70400 52.69000 32.83200
H  28.39000 52.68400 31.12100
H  29.02300 51.72900 32.51100
H  25.27600 49.04900 32.14800
H  24.02000 49.78600 31.25900
H  23.73700 49.41300 33.59500
H  23.25400 51.01800 32.91600
H  31.80400 47.70200 28.42700
H  31.56900 48.98200 29.67400
H  32.57000 49.36000 28.38900
H  33.31000 47.71500 24.93000
H  32.52200 47.18100 26.47600
H  33.53500 48.64300 26.42800
H  27.21000 49.71600 22.20000
H  26.05100 52.49800 22.04700
H  27.93500 51.92900 20.86100
H  28.97800 50.55900 21.09000
H  29.08400 51.87200 22.31800
H  23.86700 50.83800 22.39600
H  24.94800 49.54800 21.72000
H  24.92200 52.03000 20.09000
H  23.37300 51.38100 20.25100
H  24.73400 50.30200 19.70400
H  21.63700 53.33100 24.60700
H  22.13400 54.94000 25.12400
H  21.02700 54.02900 26.13400
H  22.80500 51.83800 30.67400
H  22.81900 55.79000 32.63900
H  24.30000 55.03500 33.06600
H  22.82600 54.57100 34.01700

