158

Mg 24.35100 -6.20100 45.42300
C  26.61600 -3.64200 44.31700
C  21.85700 -4.46500 43.85800
C  22.72500 -8.97900 45.69100
C  27.10600 -7.61500 47.01800
N  24.33200 -4.42000 43.99200
C  25.28300 -3.50100 43.80000
C  24.70200 -2.36800 42.88600
C  23.15000 -2.47500 43.02400
C  23.09400 -3.88700 43.72500
C  22.39700 -1.43800 43.87700
C  25.22400 -2.51200 41.40600
C  25.77100 -1.16100 40.73300
H  25.35100 -0.82100 39.27300
N  22.42800 -6.55500 45.05900
C  21.53800 -5.72700 44.44400
C  20.26700 -6.36700 44.41300
C  20.46200 -7.72500 44.79700
C  21.90800 -7.84700 45.28400
C  19.05700 -5.80600 43.79700
C  19.42900 -8.78000 44.72100
O  18.33600 -8.57100 44.24600
C  19.65300 -10.17900 45.25300
N  24.87300 -8.05400 46.21500
C  24.02500 -9.06000 46.20600
C  24.62500 -10.38200 46.78300
C  26.00400 -9.89700 47.36600
C  26.00400 -8.44600 46.86800
C  23.65100 -11.24100 47.63600
C  27.31800 -10.62500 46.80600
C  28.37600 -10.99300 47.83000
N  26.41900 -5.74300 45.67200
C  27.36600 -6.35600 46.40900
C  28.63500 -5.64700 46.28500
C  28.33900 -4.56800 45.48300
C  27.01900 -4.62300 45.11000
C  29.95500 -6.22800 46.79900
C  28.97700 -3.39000 44.91100
O  30.06300 -2.96900 45.05500
C  27.81600 -2.72900 44.08700
C  27.53400 -1.31100 44.45400
O  27.05300 -0.88300 45.45600
O  27.82900 -0.49600 43.42000
C  27.63400 0.94500 43.62900
H  20.93400 -3.95000 43.58200
H  22.16600 -9.90500 45.54100
H  27.96200 -8.13700 47.45000
H  24.97900 -1.34000 43.12400
H  22.67900 -2.58200 42.04700
H  23.09800 -0.67900 44.22400
H  22.01300 -1.91000 44.78100
H  21.55500 -0.92100 43.41600
H  24.38600 -2.76000 40.75300
H  25.94400 -3.32200 41.29000
H  26.82300 -1.43600 40.65300
H  25.59000 -0.34100 41.42900
H  18.17400 -6.37200 44.09300
H  19.25400 -5.84200 42.72600
H  18.92000 -4.76200 44.08000
H  18.76000 -10.77800 45.07700
H  19.92100 -10.12300 46.30800
H  20.42300 -10.63900 44.63400
H  24.76100 -11.02900 45.91700
H  25.93700 -9.96900 48.45100
H  24.12100 -11.57800 48.56000
H  23.22800 -12.08600 47.09300
H  22.83500 -10.56200 47.88200
H  27.67900 -10.22600 45.85800
H  26.84300 -11.56600 46.52900
H  28.54500 -12.06900 47.79800
H  28.10100 -10.69000 48.84000
H  29.33100 -10.57600 47.50900
H  30.71500 -5.45800 46.93100
H  30.23400 -7.10400 46.21400
H  29.83500 -6.51700 47.84300
H  28.03100 -2.69600 43.01900
H  27.78400 1.46600 42.68400
H  28.33200 1.42200 44.31700
H  26.68200 1.36200 43.95700
Mg 36.44200 49.06600 24.18800
C  36.57200 47.41800 27.26900
C  34.92500 51.83100 25.85400
C  35.81600 50.40300 21.27400
C  37.20900 45.94100 22.62500
N  35.87600 49.51700 26.29700
C  36.08200 48.74000 27.39900
C  35.77800 49.48200 28.64800
C  35.00400 50.77900 28.05400
C  35.28200 50.73400 26.60300
C  33.50200 50.62800 28.38400
C  37.14200 49.81100 29.37000
C  37.20300 49.74200 30.88400
H  35.87100 49.55200 31.65600
N  35.69600 50.95700 23.61100
C  35.07200 51.93400 24.43100
C  34.60500 53.03700 23.52600
C  34.96500 52.68400 22.20400
C  35.50100 51.31500 22.28900
C  33.97800 54.34100 24.02700
C  34.70400 53.49000 20.87300
O  34.90900 53.07400 19.70600
C  34.32000 54.90800 20.87200
N  36.28400 48.15100 22.24600
C  36.08600 49.00900 21.19300
C  36.38900 48.22400 19.91800
C  37.15200 46.95000 20.35900
C  36.85300 47.00800 21.83900
C  35.24600 47.98600 18.94400
C  38.64000 46.57700 20.00500
C  39.69300 47.43400 20.76700
N  36.92600 47.06100 24.73800
C  37.25800 45.89000 24.00400
C  37.67900 44.87700 24.91200
C  37.43900 45.35800 26.19500
C  36.97400 46.74200 26.01600
C  38.04100 43.47700 24.54800
C  37.41600 45.11600 27.62800
O  37.66400 44.03000 28.17600
C  36.80400 46.44800 28.36400
C  35.61100 45.97300 29.12000
O  34.51700 45.71300 28.60600
O  35.83300 45.94100 30.49400
C  34.76400 45.42200 31.33200
H  34.45300 52.65900 26.38700
H  35.73000 50.84600 20.28000
H  37.63800 45.10300 22.07200
H  35.16900 48.79600 29.23700
H  35.37600 51.66800 28.56500
H  33.32900 50.10500 29.32400
H  32.88000 50.22100 27.58700
H  33.24700 51.65800 28.63500
H  37.55100 50.71100 28.91100
H  37.88000 49.07200 29.05900
H  37.74300 50.60800 31.26900
H  37.84400 48.88400 31.08700
H  34.58300 55.21800 23.80100
H  33.77100 54.25800 25.09400
H  33.00300 54.34000 23.54100
H  34.51100 55.52600 21.74900
H  33.23900 54.86500 20.73900
H  34.78000 55.44900 20.04500
H  37.05200 48.89500 19.37200
H  36.69000 46.00400 20.07900
H  34.25900 48.27900 19.30200
H  35.00400 46.97000 18.63100
H  35.40800 48.56000 18.03100
H  38.73500 46.60900 18.92000
H  38.76100 45.55700 20.37100
H  40.15900 48.09500 20.03600
H  40.49300 46.79700 21.14700
H  39.21800 47.97400 21.58500
H  38.26600 43.33900 23.49000
H  37.25600 42.79200 24.86800
H  38.97500 43.24500 25.05900
H  37.47500 46.81500 29.14100
H  34.43100 44.46600 30.92800
H  33.87800 46.05700 31.35300
H  35.15500 45.27200 32.33900

