158

Mg 1.97900 -2.07300 44.59300
C  5.35600 -1.02500 44.10000
C  1.02900 0.55000 42.62400
C  -1.19800 -3.27300 44.68100
C  3.25300 -5.10000 45.90400
N  3.18300 -0.37300 43.45700
C  4.50800 -0.14700 43.48000
C  4.78500 1.15800 42.80000
C  3.34900 1.63900 42.28500
C  2.44800 0.56300 42.81100
C  2.97900 2.99800 42.84200
C  5.93000 1.07700 41.68300
C  6.05700 -0.13900 40.80800
H  6.95500 0.02300 39.61600
N  0.20900 -1.46500 43.79100
C  0.04100 -0.36500 42.95200
C  -1.38500 -0.14900 42.70600
C  -2.11900 -1.20100 43.37000
C  -1.03000 -2.00600 44.02900
C  -1.84400 1.11700 41.90900
C  -3.63900 -1.34200 43.41000
O  -4.43600 -0.54400 42.86300
C  -4.29300 -2.59100 43.89700
N  1.21000 -4.02000 44.96300
C  -0.14600 -4.15300 45.12800
C  -0.38700 -5.43300 45.95200
C  0.95300 -6.20100 45.97800
C  1.86700 -5.06200 45.60400
C  -1.01200 -5.16800 47.37200
C  1.17400 -7.45300 45.13000
C  1.64800 -8.67500 45.81200
N  3.90100 -2.95800 44.91700
C  4.26100 -4.20400 45.42800
C  5.73400 -4.24900 45.53600
C  6.15800 -3.04500 44.99700
C  5.04100 -2.26000 44.60700
C  6.64600 -5.27800 46.18300
C  7.35200 -2.21300 44.81000
O  8.50500 -2.50100 45.06700
C  6.87100 -0.85500 44.27300
C  7.16700 0.20500 45.26400
O  6.81900 0.26200 46.45300
O  7.95800 1.19300 44.67700
C  8.34600 2.33400 45.44900
H  0.74600 1.47700 42.12200
H  -2.21200 -3.59100 44.93000
H  3.52400 -6.02900 46.41100
H  5.13500 1.88900 43.52900
H  3.30400 1.68900 41.19700
H  2.28000 2.82700 43.66200
H  2.45200 3.57800 42.08400
H  3.81300 3.59300 43.21500
H  6.87900 1.22100 42.19900
H  5.79100 1.92400 41.01200
H  5.01400 -0.27200 40.52100
H  6.37600 -1.03800 41.33400
H  -1.55300 1.10900 40.85800
H  -1.28200 1.97700 42.27400
H  -2.90700 1.35300 41.95500
H  -3.94900 -3.56000 43.53400
H  -5.37300 -2.66700 43.76600
H  -4.19900 -2.39200 44.96400
H  -1.07400 -5.99400 45.31800
H  1.09500 -6.41800 47.03700
H  -0.77700 -5.99300 48.04500
H  -2.09300 -5.08800 47.25800
H  -0.59400 -4.24300 47.76700
H  2.06000 -7.23400 44.53400
H  0.26800 -7.61300 44.54500
H  1.56600 -8.70800 46.89800
H  2.70400 -8.86300 45.61300
H  1.06200 -9.49700 45.40300
H  6.67500 -6.24700 45.68400
H  6.62300 -5.31300 47.27200
H  7.61400 -4.94100 45.81200
H  7.48900 -0.67100 43.39400
H  9.41700 2.33900 45.65500
H  7.82500 2.50300 46.39100
H  8.04400 3.21300 44.88000
Mg 53.50800 25.78200 45.87300
C  50.75500 27.65600 44.76100
C  52.16800 23.08800 44.16200
C  56.51200 24.15800 46.13100
C  54.96200 28.68600 46.92500
N  51.87100 25.52600 44.27700
C  50.83100 26.39000 44.16300
C  49.70400 25.75000 43.23000
C  49.96200 24.27700 43.58300
C  51.43900 24.27400 44.03500
C  49.01700 23.67900 44.66700
C  49.87100 26.05000 41.72400
C  48.66500 25.92500 40.75600
H  48.83800 25.27900 39.33000
N  54.20700 23.82600 45.35700
C  53.47400 22.87600 44.72100
C  54.21200 21.65800 44.70100
C  55.42600 21.95400 45.29900
C  55.41800 23.36600 45.67200
C  53.60300 20.36900 44.09600
C  56.58400 21.00400 45.37400
O  56.44900 19.91200 44.84200
C  57.90200 21.25800 46.03500
N  55.48000 26.31300 46.22800
C  56.49900 25.52500 46.33700
C  57.78800 26.20200 46.89100
C  57.31400 27.67700 46.96200
C  55.78300 27.60100 46.64300
C  58.52800 25.64000 48.18700
C  58.14300 28.65100 46.08400
C  58.38400 30.03400 46.64800
N  52.93700 27.80700 45.92100
C  53.55500 28.83800 46.55100
C  52.73900 29.95300 46.58300
C  51.57600 29.56400 45.91700
C  51.78200 28.22500 45.47500
C  53.02000 31.32500 47.20800
C  50.25200 29.99800 45.45800
O  49.62700 31.04500 45.62100
C  49.73900 28.78500 44.63400
C  49.66500 29.32900 43.27400
O  50.43300 30.04500 42.71600
O  48.40500 29.03400 42.77300
C  48.06200 29.62200 41.50700
H  51.57800 22.23800 43.81400
H  57.50000 23.69100 46.12500
H  55.42300 29.55000 47.40800
H  48.75200 26.05600 43.66500
H  49.80300 23.73700 42.65000
H  49.57400 22.95400 45.26100
H  48.18800 23.12000 44.23200
H  48.56000 24.42200 45.32100
H  50.66800 25.38900 41.38300
H  50.33800 27.01400 41.52300
H  48.27100 26.91300 40.51800
H  47.86000 25.35300 41.21800
H  53.94000 20.08100 43.10000
H  52.52900 20.41500 43.91500
H  53.68100 19.60000 44.86500
H  58.44300 20.34300 46.27600
H  57.73900 21.86700 46.92400
H  58.52100 21.80600 45.32500
H  58.41000 26.02200 46.01400
H  57.41900 28.02700 47.98900
H  58.30500 24.58500 48.34700
H  58.30000 26.20300 49.09200
H  59.60100 25.80700 48.08700
H  57.55600 28.71800 45.16800
H  59.05800 28.18200 45.72300
H  59.43300 30.32600 46.68600
H  58.01800 30.08800 47.67400
H  57.72400 30.68400 46.07400
H  52.11000 31.56400 47.75800
H  53.35400 32.08500 46.50200
H  53.78900 31.19600 47.97000
H  48.75700 28.49400 45.00800
H  47.08200 29.30400 41.15300
H  48.78400 29.61000 40.69000
H  47.74600 30.62900 41.77900

