158

Mg 35.50100 48.65100 25.54400
C  35.64800 47.00800 28.53700
C  33.99700 51.37100 27.15400
C  35.16200 50.30200 22.58100
C  36.50100 45.81700 24.00700
N  34.81300 49.07400 27.53600
C  35.21400 48.34400 28.66400
C  35.04500 49.05400 30.00400
C  34.17800 50.29600 29.54500
C  34.31700 50.26800 27.98100
C  32.71000 50.20700 29.95700
C  36.45000 49.26100 30.72900
C  36.44500 49.26800 32.29200
H  35.05900 48.98600 33.00300
N  34.75100 50.55700 24.94600
C  34.23400 51.53300 25.78200
C  33.98300 52.72400 25.04500
C  34.31200 52.47400 23.72400
C  34.70500 51.02500 23.65600
C  33.39100 54.01400 25.54300
C  34.27700 53.38600 22.49200
O  34.39100 52.96300 21.35600
C  33.91900 54.89000 22.56400
N  35.71700 48.04600 23.57100
C  35.65200 48.94900 22.55700
C  36.20500 48.35300 21.32100
C  36.77700 46.96300 21.83200
C  36.33500 46.95700 23.20500
C  35.27100 48.34900 20.04100
C  38.33600 46.80600 21.73900
C  39.03900 46.71200 20.42100
N  35.96000 46.74300 26.08200
C  36.31400 45.64400 25.32200
C  36.59500 44.52100 26.17900
C  36.30600 44.99300 27.46100
C  35.93400 46.34000 27.34300
C  36.98800 43.11600 25.69900
C  36.27900 44.64800 28.81900
O  36.47600 43.56700 29.36400
C  35.91300 45.99500 29.63000
C  34.78500 45.64800 30.57500
O  33.60100 45.99300 30.49000
O  35.31500 44.90200 31.53200
C  34.38900 44.42300 32.54200
H  33.54100 52.25800 27.60000
H  35.36200 50.89400 21.68500
H  36.78800 44.91200 23.46800
H  34.51500 48.35900 30.65500
H  34.68800 51.23200 29.77300
H  31.96600 50.37400 29.17800
H  32.51100 51.00200 30.67600
H  32.44900 49.27100 30.45200
H  36.95600 50.17200 30.40900
H  37.12800 48.52600 30.29600
H  36.69900 50.30600 32.50600
H  37.19100 48.56700 32.66500
H  32.48400 54.10300 24.94500
H  34.07600 54.78100 25.18300
H  33.17000 54.14600 26.60200
H  32.85700 55.13200 22.60500
H  34.35500 55.17100 21.60500
H  34.55100 55.47700 23.23100
H  37.09400 48.96000 21.14900
H  36.32300 46.20700 21.19200
H  35.85000 48.64700 19.16700
H  34.34700 48.92300 20.11500
H  34.87400 47.35100 19.85900
H  38.66700 45.95100 22.32900
H  38.78300 47.68200 22.21000
H  40.03300 47.14700 20.52500
H  38.33000 47.04300 19.66200
H  39.19300 45.64200 20.28300
H  36.22700 42.90200 24.94800
H  36.98300 42.42900 26.54500
H  37.94300 43.14600 25.17400
H  36.67100 46.26500 30.36500
H  33.70500 43.69400 32.10700
H  33.88200 45.24700 33.04300
H  35.01800 43.89900 33.26100
Mg -1.32800 34.91500 27.53900
C  -3.35500 33.18600 29.83600
C  -0.50300 37.13400 30.14600
C  0.31600 36.75400 25.21600
C  -2.67400 32.94000 24.95800
N  -1.83900 35.03700 29.77100
C  -2.58100 34.20000 30.43700
C  -2.47800 34.46500 31.91500
C  -1.95200 35.94200 31.90700
C  -1.23600 36.01900 30.60000
C  -3.02200 37.08200 32.04400
C  -1.64400 33.32400 32.60900
C  -2.47700 32.67500 33.70600
H  -1.82700 32.25100 35.02700
N  -0.34700 36.76500 27.64500
C  -0.11800 37.50800 28.78500
C  0.72000 38.63700 28.46100
C  1.05900 38.56100 27.04700
C  0.34800 37.31000 26.57000
C  1.12100 39.72900 29.41100
C  1.85100 39.42000 26.12200
O  2.12400 39.16800 24.91100
C  2.47600 40.56000 26.66700
N  -1.05300 34.74100 25.49200
C  -0.31000 35.60600 24.67000
C  -0.19800 35.18100 23.22800
C  -1.03000 33.82600 23.18900
C  -1.66700 33.84700 24.64900
C  -0.61100 36.23300 22.12000
C  -0.30200 32.50900 22.98700
C  -1.01400 31.35900 22.18800
N  -2.64800 33.34700 27.36400
C  -3.11900 32.69100 26.27200
C  -4.05100 31.59100 26.66000
C  -4.15800 31.77000 28.06100
C  -3.32100 32.84100 28.45000
C  -4.76100 30.55100 25.77300
C  -4.78200 31.25100 29.24700
O  -5.60400 30.30700 29.32500
C  -4.28300 32.12500 30.48200
C  -5.56900 32.74100 31.04400
O  -6.11800 33.77900 30.76000
O  -5.83700 32.03800 32.21800
C  -6.57400 32.59100 33.33200
H  -0.36300 37.87800 30.93400
H  0.83300 37.25200 24.39300
H  -3.07800 32.30400 24.16900
H  -3.53000 34.55400 32.18600
H  -1.15100 36.02700 32.64100
H  -3.91300 36.49300 32.26100
H  -3.00300 37.82300 31.24500
H  -2.74200 37.65400 32.92900
H  -0.78000 33.78600 33.08700
H  -1.27500 32.54700 31.94000
H  -2.67900 31.68500 33.29800
H  -3.42800 33.11300 34.00700
H  0.44300 39.81200 30.26000
H  1.24300 40.72200 28.97800
H  2.15400 39.48600 29.66000
H  3.22700 41.01300 26.02000
H  3.12900 40.18600 27.45600
H  1.71200 41.30400 26.89300
H  0.85700 34.99900 23.02300
H  -1.82300 33.91500 22.44600
H  -1.38400 35.85300 21.45100
H  0.26800 36.35600 21.48800
H  -1.05400 37.13700 22.53800
H  -0.06400 32.02400 23.93400
H  0.58800 32.63500 22.37000
H  -2.00500 31.72600 21.92000
H  -1.03100 30.40200 22.70900
H  -0.56200 31.23800 21.20300
H  -4.67000 29.71700 26.46900
H  -4.23600 30.40400 24.83000
H  -5.82700 30.75500 25.66400
H  -3.83400 31.39000 31.14900
H  -5.89600 32.81500 34.15500
H  -7.28700 31.88800 33.76200
H  -7.07800 33.50300 33.01200

