158

Mg 23.73800 -4.92900 45.55700
C  26.33900 -2.80500 44.02100
C  21.64600 -3.92300 42.97600
C  21.90300 -7.58400 46.09600
C  26.40200 -6.25700 47.33400
N  23.97300 -3.51900 43.78200
C  25.08700 -2.79600 43.37400
C  24.78200 -2.04800 42.04100
C  23.25300 -2.40600 41.79000
C  22.91900 -3.29500 42.97800
C  22.33400 -1.24900 41.66800
C  25.66600 -2.49100 40.83600
C  26.55400 -1.47100 40.05000
H  26.10500 -1.48400 38.54800
N  21.89800 -5.66200 44.74500
C  21.20200 -4.99100 43.77300
C  19.84700 -5.61300 43.74700
C  19.91100 -6.78300 44.53800
C  21.24500 -6.75000 45.17200
C  18.75400 -5.09400 42.82500
C  18.80800 -7.75800 44.73200
O  17.68300 -7.50000 44.26100
C  18.85700 -9.01600 45.58200
N  24.16000 -6.73300 46.38800
C  23.16000 -7.65700 46.61700
C  23.69900 -8.88600 47.33200
C  25.01900 -8.32600 47.96200
C  25.22800 -7.05200 47.21500
C  22.68200 -9.61500 48.33100
C  26.30200 -9.31500 48.03100
C  26.11500 -10.92700 47.76200
N  25.82300 -4.43200 45.94100
C  26.75300 -5.05800 46.68800
C  28.02300 -4.52500 46.58500
C  27.87000 -3.56800 45.61600
C  26.55100 -3.62600 45.20500
C  29.27200 -4.98800 47.18700
C  28.64500 -2.62800 44.81100
O  29.83800 -2.35800 44.81300
C  27.66200 -2.09700 43.73900
C  27.61700 -0.58500 43.77300
O  27.17100 0.05400 44.66200
O  28.08400 0.04000 42.64300
C  28.23200 1.46900 42.65600
H  20.91400 -3.57600 42.24400
H  21.27300 -8.43200 46.37000
H  27.16500 -6.68400 47.98800
H  24.93700 -0.99300 42.26900
H  23.08000 -3.01700 40.90500
H  21.51100 -1.35700 42.37500
H  21.82700 -1.36400 40.71000
H  22.81800 -0.27200 41.66200
H  25.16200 -3.06000 40.05400
H  26.30300 -3.25200 41.28700
H  27.63900 -1.56900 40.06300
H  26.43000 -0.52000 40.56900
H  18.57400 -5.87000 42.08200
H  19.02800 -4.25600 42.18300
H  17.80600 -4.98700 43.35100
H  17.97400 -9.65200 45.51700
H  19.09500 -8.72900 46.60600
H  19.63700 -9.67100 45.19200
H  23.97700 -9.54100 46.50600
H  24.94800 -8.04700 49.01300
H  21.84200 -8.99600 48.64400
H  23.23700 -9.91600 49.22000
H  22.29200 -10.54900 47.92700
H  26.72000 -9.23000 49.03400
H  27.03600 -9.02100 47.28100
H  26.51700 -11.31500 46.82600
H  25.10400 -11.33200 47.81300
H  26.71200 -11.36100 48.56500
H  29.03600 -5.49100 48.12500
H  29.92000 -4.13000 47.36400
H  29.86500 -5.64100 46.54700
H  27.96000 -2.43000 42.74500
H  29.06400 1.73500 43.30800
H  27.40800 1.94500 43.18700
H  28.35800 1.97400 41.69800
Mg 44.95600 4.45400 48.53800
C  42.88500 7.11700 47.63700
C  42.52000 2.25800 47.69700
C  47.38400 2.00900 48.53000
C  47.68000 6.85600 48.48000
N  42.96600 4.69700 47.73900
C  42.27700 5.84900 47.54400
C  40.81200 5.60100 47.02500
C  40.66100 4.03600 47.32400
C  42.13000 3.64800 47.67400
C  39.67300 3.73400 48.41600
C  40.67000 5.89600 45.50700
C  39.63500 6.94200 45.05400
H  40.01500 8.08600 44.04100
N  44.90000 2.31300 48.22500
C  43.79300 1.61700 47.78600
C  44.14800 0.27300 47.60100
C  45.56900 0.16400 47.95300
C  46.02200 1.55700 48.22300
C  43.20000 -0.85600 47.27800
C  46.30900 -1.15000 48.02700
O  45.69200 -2.14900 47.79100
C  47.80200 -1.44600 48.39000
N  47.18500 4.43400 48.47700
C  47.82500 3.30000 48.64200
C  49.35600 3.58600 48.85100
C  49.45800 5.14800 48.89300
C  48.03800 5.50400 48.51900
C  49.96500 2.94300 50.10300
C  50.60800 5.82600 48.03700
C  51.38500 6.87800 48.82000
N  45.30900 6.53900 48.22000
C  46.42800 7.38600 48.20300
C  46.04200 8.74400 48.01200
C  44.65400 8.68300 47.71000
C  44.24900 7.29400 47.91500
C  47.00900 9.86700 48.28600
C  43.53100 9.44600 47.39600
O  43.36000 10.65100 47.18400
C  42.31200 8.43100 47.22700
C  41.25800 8.87600 48.14800
O  41.11900 8.54500 49.29600
O  40.31800 9.60900 47.42800
C  39.06800 9.76100 48.16500
H  41.72500 1.51800 47.58500
H  48.17400 1.25700 48.58900
H  48.47700 7.59700 48.56500
H  40.10400 6.16800 47.63100
H  40.28700 3.47900 46.46500
H  40.12200 2.90800 48.96700
H  38.65200 3.47400 48.13600
H  39.67400 4.62000 49.05100
H  40.46700 4.99800 44.92400
H  41.62800 6.24500 45.12200
H  39.30100 7.50000 45.92900
H  38.81800 6.31900 44.69000
H  42.88500 -1.49900 48.10100
H  43.55300 -1.44600 46.43200
H  42.24400 -0.54000 46.86100
H  47.92900 -2.52300 48.50000
H  48.12500 -0.98600 49.32400
H  48.51800 -1.12500 47.63400
H  49.88100 3.21400 47.97100
H  49.50000 5.58000 49.89300
H  50.82600 2.30000 49.92300
H  49.16900 2.44100 50.65300
H  50.26400 3.76700 50.75100
H  50.16900 6.41500 47.23100
H  51.19800 5.13600 47.43400
H  52.36700 6.44700 49.01100
H  50.87900 7.35400 49.66000
H  51.61500 7.71400 48.15900
H  46.59500 10.87500 48.25300
H  47.71900 9.68600 47.47900
H  47.47800 9.78500 49.26600
H  42.00600 8.50900 46.18400
H  39.17400 10.59300 48.86100
H  38.68500 8.94600 48.77900
H  38.26800 9.92800 47.44300

