158

Mg 23.85700 -6.48600 44.96000
C  26.05900 -4.03900 43.66400
C  21.39000 -5.25800 42.83100
C  21.82500 -9.04000 45.85500
C  26.59100 -8.11900 46.36800
N  23.73900 -4.74400 43.56400
C  24.76300 -3.91300 43.10700
C  24.27900 -3.03900 41.93000
C  22.69300 -3.28600 41.93600
C  22.62100 -4.54300 42.77900
C  21.74600 -2.21300 42.61500
C  25.09000 -3.41000 40.60700
C  25.86800 -2.34400 39.90600
H  25.31400 -2.06500 38.47300
N  21.83900 -6.97100 44.53300
C  20.99100 -6.33900 43.60100
C  19.66300 -6.91500 43.67100
C  19.76700 -7.98400 44.61600
C  21.17800 -8.03600 45.02000
C  18.47900 -6.41300 42.95100
C  18.67800 -9.02000 44.88400
O  17.63900 -8.88400 44.27200
C  18.84900 -10.17500 45.80600
N  24.21300 -8.40000 45.92500
C  23.17500 -9.24500 46.17100
C  23.69400 -10.63300 46.71100
C  25.20400 -10.29100 47.04600
C  25.40100 -8.84900 46.35900
C  23.14400 -11.32900 48.03100
C  26.22300 -11.32400 46.54800
C  27.18400 -11.94200 47.53400
N  25.93300 -6.15700 45.03900
C  26.93400 -6.86700 45.72200
C  28.21900 -6.10900 45.65700
C  27.89400 -5.00700 44.81800
C  26.50400 -5.07600 44.52700
C  29.51400 -6.62300 46.26100
C  28.49500 -3.93100 44.13200
O  29.68600 -3.60800 44.05900
C  27.30100 -3.25600 43.35300
C  27.26200 -1.82800 43.69900
O  27.38200 -1.26700 44.82000
O  27.08700 -1.20500 42.58600
C  27.13200 0.26700 42.63100
H  20.53100 -4.87200 42.27800
H  21.29000 -9.97100 46.05200
H  27.47900 -8.54000 46.84300
H  24.43000 -1.96900 42.07400
H  22.42900 -3.59800 40.92500
H  21.71100 -2.44400 43.67900
H  20.74900 -2.11100 42.18600
H  22.19000 -1.22300 42.50800
H  24.36000 -3.79100 39.89300
H  25.77700 -4.25500 40.64800
H  26.90500 -2.67900 39.93900
H  25.75900 -1.41600 40.46700
H  18.43400 -7.02700 42.05100
H  18.69600 -5.35100 42.84000
H  17.60300 -6.58100 43.57800
H  17.89500 -10.67400 45.97300
H  19.15600 -9.71800 46.74700
H  19.54200 -10.91900 45.41300
H  23.71500 -11.34600 45.88800
H  25.46900 -10.02000 48.06800
H  22.69300 -12.29700 47.81300
H  22.44000 -10.66200 48.52800
H  23.97500 -11.40200 48.73300
H  26.88000 -10.97300 45.75200
H  25.64800 -12.16700 46.16400
H  27.10200 -11.50100 48.52700
H  28.19400 -11.80100 47.15000
H  26.96100 -12.99700 47.69700
H  30.12900 -7.09500 45.49500
H  29.30500 -7.39600 47.00200
H  30.03400 -5.75200 46.65800
H  27.54700 -3.31500 42.29200
H  27.60300 0.79600 43.46000
H  26.12100 0.63000 42.44700
H  27.65600 0.42400 41.68900
Mg 47.95600 15.82000 28.56500
C  45.96400 15.40400 31.57500
C  50.05000 17.67500 30.43000
C  49.23900 16.78400 25.74800
C  45.40300 13.96700 26.90400
N  48.08700 16.28900 30.81400
C  47.22800 15.91900 31.82200
C  47.79300 16.51800 33.15900
C  49.12200 17.24100 32.75000
C  49.13500 16.98200 31.26200
C  49.43200 18.66700 33.37700
C  48.13400 15.45200 34.29300
C  47.68900 15.64700 35.77900
H  47.82800 17.09500 36.48700
N  49.44200 16.98300 28.12600
C  50.21600 17.66500 29.05000
C  51.20200 18.43700 28.31700
C  50.96300 18.24500 26.93900
C  49.84700 17.29900 26.89100
C  52.33900 19.16500 28.96000
C  51.75700 18.68900 25.67800
O  51.67800 18.25400 24.51200
C  52.82000 19.71100 25.89100
N  47.45000 15.38100 26.64600
C  48.17800 15.91900 25.60300
C  47.86000 15.31200 24.22800
C  46.63000 14.33400 24.66100
C  46.47100 14.53400 26.17000
C  47.52900 16.38600 23.11500
C  46.98200 12.89100 24.33800
C  45.92100 12.19800 23.48100
N  46.10000 14.87200 29.04700
C  45.23100 14.12400 28.28800
C  44.01700 13.69500 29.10800
C  44.33000 14.16900 30.34000
C  45.56700 14.86900 30.30600
C  42.81500 12.94900 28.79900
C  43.84200 14.18700 31.71900
O  42.82100 13.64200 32.20400
C  44.91700 14.97000 32.57200
C  44.17300 16.06800 33.26300
O  43.82100 17.06200 32.63600
O  44.06800 15.76200 34.61300
C  43.55700 16.81000 35.37700
H  50.80400 18.23700 30.98600
H  49.77900 17.05000 24.83700
H  44.63000 13.44400 26.33600
H  47.07600 17.23500 33.55900
H  49.94800 16.63300 33.11900
H  49.14200 19.39200 32.61700
H  50.51000 18.75400 33.50800
H  48.95400 18.89100 34.33100
H  49.20300 15.24600 34.34900
H  47.60700 14.54000 34.01200
H  48.24000 15.07600 36.52600
H  46.67400 15.32200 36.00800
H  53.07300 18.36200 28.90000
H  52.20000 19.36800 30.02200
H  52.64200 20.13000 28.55500
H  52.29600 20.52500 26.39200
H  53.25200 20.00700 24.93500
H  53.54100 19.26600 26.57700
H  48.68400 14.71400 23.83900
H  45.74100 14.72300 24.16400
H  47.57400 15.87200 22.15500
H  48.17900 17.25900 23.05300
H  46.48700 16.69300 23.20400
H  47.10200 12.25300 25.21400
H  47.91100 12.78600 23.77900
H  45.29300 11.61100 24.15200
H  46.50900 11.53700 22.84400
H  45.24800 12.86800 22.94600
H  42.91200 12.49500 27.81300
H  42.02900 13.70300 28.75300
H  42.69500 12.24700 29.62400
H  45.39400 14.29600 33.28400
H  42.53900 17.06300 35.08300
H  44.30100 17.60400 35.30100
H  43.44900 16.43300 36.39400

