158

Mg 47.62700 25.38300 27.97100
C  48.19500 27.75100 30.32400
C  46.47000 23.24900 30.29500
C  46.66700 23.50700 25.43800
C  49.03500 27.62200 25.48200
N  47.40700 25.51700 30.06600
C  47.62900 26.59900 30.89000
C  47.26300 26.32500 32.32700
C  46.73300 24.88000 32.31600
C  46.85100 24.52200 30.78700
C  47.26100 23.87300 33.31300
C  46.19600 27.29300 32.79700
C  45.46800 27.11100 34.13700
H  45.34000 28.34200 35.07100
N  46.82100 23.60700 27.85900
C  46.46700 22.82500 28.91700
C  45.97000 21.58100 28.38900
C  45.72800 21.78400 27.00900
C  46.40200 23.00100 26.74900
C  45.56200 20.42200 29.25300
C  44.85800 21.02900 26.06700
O  44.80400 21.30600 24.86100
C  44.07700 19.77500 26.38100
N  47.95600 25.55500 25.73400
C  47.36600 24.60200 24.94600
C  47.84700 24.81800 23.48000
C  48.43600 26.17200 23.48000
C  48.42500 26.51800 24.94700
C  48.89400 23.75200 23.03200
C  47.79800 27.33900 22.66000
C  48.75200 28.11900 21.67400
N  48.42900 27.25300 27.83500
C  49.01000 28.02700 26.81200
C  49.45800 29.27800 27.42500
C  49.17300 29.15400 28.78400
C  48.53200 27.96100 28.96000
C  50.11900 30.37100 26.75500
C  49.30800 29.89800 29.99900
O  49.84500 30.96900 30.28300
C  48.55400 29.00200 31.01500
C  49.60900 28.69600 32.08500
O  50.46500 27.82000 32.07200
O  49.50700 29.61700 33.04200
C  50.26500 29.24100 34.28600
H  46.10400 22.52000 31.02100
H  46.44100 22.88900 24.56700
H  49.46700 28.42000 24.87500
H  48.16700 26.32300 32.93700
H  45.65900 24.89900 32.50300
H  47.78500 23.11100 32.73500
H  46.41200 23.38700 33.79300
H  47.76600 24.42000 34.10900
H  45.39500 27.43600 32.07300
H  46.62800 28.29200 32.85500
H  45.96200 26.37500 34.77100
H  44.55200 26.63400 33.78700
H  44.47400 20.39700 29.30100
H  45.96200 20.56200 30.25800
H  46.00700 19.63200 28.64800
H  43.42500 19.95500 27.23700
H  44.70600 18.89300 26.50200
H  43.30200 19.57300 25.64200
H  46.98000 24.72200 22.82800
H  49.48800 26.13400 23.20000
H  49.87700 23.92900 23.46900
H  48.82500 23.50700 21.97200
H  48.51800 22.86100 23.53500
H  47.32600 28.00300 23.38400
H  47.02900 26.92500 22.00800
H  48.45700 29.16300 21.77800
H  48.64800 27.80500 20.63600
H  49.80000 27.90100 21.88000
H  51.17600 30.11300 26.68000
H  49.97700 31.32000 27.27100
H  49.74100 30.48500 25.73900
H  47.76700 29.59900 31.47500
H  51.28000 28.86100 34.17000
H  49.58200 28.52300 34.74000
H  50.32300 30.09100 34.96600
Mg -0.76500 34.06600 26.86900
C  -2.58100 32.35700 29.30500
C  0.78500 35.80600 29.25400
C  0.60100 35.86800 24.35600
C  -2.55100 32.22400 24.35000
N  -1.04800 34.23600 29.09200
C  -1.72100 33.31600 29.88800
C  -1.41600 33.63200 31.41500
C  -0.48800 34.83800 31.34300
C  -0.18200 34.99000 29.83600
C  -1.16900 36.10200 31.96300
C  -0.68400 32.38300 32.03400
C  -1.52200 31.65500 33.09600
H  -0.94200 31.42300 34.51900
N  0.49100 35.55100 26.79700
C  1.12500 36.07800 27.87800
C  2.00100 37.12100 27.48200
C  1.88900 37.24000 26.05000
C  0.93400 36.19600 25.66600
C  2.91500 37.85600 28.45900
C  2.68400 38.16100 25.09900
O  2.72900 38.15500 23.82700
C  3.62600 39.14500 25.73400
N  -1.06100 34.18700 24.55900
C  -0.32400 35.03300 23.80800
C  -0.74200 34.84400 22.29800
C  -1.65900 33.58600 22.39900
C  -1.78900 33.28500 23.86700
C  -1.43800 36.03400 21.69200
C  -0.97300 32.38200 21.67300
C  -0.11200 31.29500 22.36500
N  -2.15900 32.56300 26.76000
C  -2.78000 31.92300 25.65700
C  -3.69500 30.96800 26.18000
C  -3.64300 31.09400 27.58900
C  -2.69100 32.06800 27.89500
C  -4.46000 29.95000 25.44600
C  -4.13600 30.52000 28.78400
O  -4.88500 29.56900 28.93700
C  -3.43700 31.30000 30.00800
C  -4.55100 31.81100 30.86000
O  -5.43300 32.58200 30.51100
O  -4.61500 31.12000 32.04200
C  -5.61700 31.42800 33.02200
H  1.40400 36.21900 30.05300
H  1.04400 36.50300 23.58600
H  -2.98600 31.50300 23.65500
H  -2.44400 33.71100 31.76700
H  0.40100 34.74000 31.96600
H  -2.02300 35.70700 32.51400
H  -1.51300 36.79300 31.19400
H  -0.54500 36.62900 32.68400
H  0.31700 32.59700 32.40900
H  -0.54100 31.63300 31.25600
H  -1.63800 30.67900 32.62300
H  -2.50800 32.11400 33.17200
H  3.93200 37.64400 28.12900
H  2.92900 37.56800 29.51000
H  2.65600 38.91200 28.37700
H  2.98100 39.59900 26.48600
H  3.92600 39.83900 24.94900
H  4.58000 38.74400 26.07600
H  0.15100 34.79900 21.67600
H  -2.67000 33.81100 22.05900
H  -1.24600 35.95600 20.62100
H  -1.10600 37.01500 22.03200
H  -2.51200 35.95700 21.85900
H  -0.33700 32.78700 20.88600
H  -1.77800 31.76100 21.28000
H  0.15500 31.45600 23.40900
H  0.89600 31.43100 21.97300
H  -0.51200 30.29000 22.23000
H  -3.81900 29.59700 24.63800
H  -5.39300 30.39800 25.10500
H  -4.76300 29.10300 26.06100
H  -2.87700 30.52900 30.53900
H  -5.08800 31.59000 33.96100
H  -6.25400 30.54700 33.10600
H  -6.26500 32.28300 32.82900

