158

Mg 45.37000 3.96000 47.44300
C  43.43900 6.69500 46.81000
C  42.63100 1.85000 47.16800
C  47.51700 1.34200 47.46300
C  48.17900 6.10200 47.40800
N  43.30100 4.18800 46.94800
C  42.77100 5.46000 46.73800
C  41.19900 5.26900 46.42000
C  40.89800 3.87700 47.07800
C  42.34300 3.24400 47.14600
C  40.34800 3.92100 48.55500
C  40.91500 5.28400 44.92000
C  39.81500 6.31500 44.46700
H  40.23700 7.18100 43.31000
N  45.09000 1.87200 47.33500
C  43.91100 1.20400 47.21600
C  44.22500 -0.25000 47.14400
C  45.62900 -0.45400 47.49200
C  46.15500 0.94700 47.48900
C  43.16100 -1.27000 46.96400
C  46.31500 -1.73100 47.69600
O  45.72800 -2.79600 47.62100
C  47.79900 -1.78000 48.01000
N  47.53900 3.75100 47.26300
C  48.12800 2.56700 47.42300
C  49.71500 2.65700 47.68800
C  49.89000 4.21700 47.67500
C  48.47500 4.70400 47.38200
C  50.30800 1.88800 48.92500
C  50.87900 4.72000 46.62200
C  51.76800 5.95700 46.94400
N  45.75200 5.98100 47.26500
C  46.98100 6.70500 47.38100
C  46.65500 8.11300 47.22200
C  45.28700 8.15900 46.98900
C  44.77600 6.88000 47.03200
C  47.69800 9.13500 47.11700
C  44.08900 8.96600 46.67300
O  43.95300 10.17500 46.53100
C  42.87500 8.04500 46.63200
C  41.91000 8.50700 47.76400
O  41.88200 8.21200 48.92200
O  41.04700 9.37600 47.16500
C  39.90500 10.00200 47.87200
H  41.85300 1.08600 47.11700
H  48.29000 0.64200 47.78500
H  48.98700 6.83700 47.41800
H  40.63100 5.99400 47.00200
H  40.27300 3.15300 46.55500
H  39.90200 4.87900 48.81900
H  41.13300 3.64000 49.25800
H  39.55500 3.18300 48.68000
H  40.65100 4.29900 44.53500
H  41.78500 5.59900 44.34500
H  39.55800 6.96700 45.30200
H  38.92600 5.74300 44.19900
H  42.84200 -1.32500 45.92300
H  42.35200 -1.11600 47.67700
H  43.57300 -2.27400 47.06400
H  48.15300 -2.79400 48.19200
H  48.04300 -1.20200 48.90100
H  48.31400 -1.41500 47.12100
H  50.13500 2.22100 46.78100
H  50.21400 4.55700 48.65800
H  49.48200 1.59500 49.57300
H  51.02500 2.56400 49.39000
H  50.92900 1.05100 48.60600
H  50.31000 4.94100 45.71900
H  51.64000 3.95300 46.47800
H  52.83400 5.79900 46.78100
H  51.65200 6.34900 47.95400
H  51.39100 6.74300 46.29000
H  48.45600 9.20000 47.89800
H  47.28300 10.11700 46.89000
H  48.36700 8.88300 46.29400
H  42.31000 8.05500 45.70000
H  39.87500 11.08600 47.98200
H  39.58700 9.48300 48.77700
H  39.05700 9.86600 47.20000
Mg -6.37000 25.35100 26.15500
C  -5.04700 26.88200 29.09100
C  -8.11200 23.26100 28.28600
C  -7.08400 23.43800 23.49100
C  -4.22600 27.21700 24.29500
N  -6.43800 25.09300 28.44000
C  -5.91400 25.87000 29.44200
C  -6.46100 25.49000 30.83100
C  -7.30100 24.20900 30.57100
C  -7.28200 24.17200 29.01000
C  -6.86100 22.90200 31.25600
C  -7.08300 26.60600 31.65500
C  -6.72300 26.73700 33.15000
H  -6.06400 25.60500 33.86500
N  -7.54300 23.71400 25.88100
C  -8.17800 22.99700 26.88500
C  -9.10400 22.11800 26.26400
C  -8.91000 22.20500 24.87000
C  -7.81000 23.14600 24.68700
C  -10.14000 21.28500 27.05500
C  -9.64700 21.55400 23.72500
O  -9.34900 21.83400 22.59600
C  -10.62400 20.46200 24.07200
N  -5.79700 25.29600 24.25200
C  -6.21700 24.50300 23.23200
C  -5.45700 24.61700 21.95400
C  -4.86700 26.10100 22.16500
C  -4.87300 26.13600 23.73400
C  -4.47000 23.49000 21.61500
C  -5.64000 27.23300 21.47200
C  -5.15100 27.85900 20.15800
N  -4.99400 26.84300 26.56100
C  -4.19100 27.55200 25.66600
C  -3.52000 28.65100 26.38500
C  -3.78600 28.37300 27.70800
C  -4.71800 27.30700 27.76200
C  -2.69600 29.75200 25.73400
C  -3.46400 28.76600 29.02800
O  -2.67300 29.60500 29.47300
C  -4.30000 27.83500 29.91500
C  -3.26400 27.13500 30.79100
O  -2.58300 26.20500 30.49600
O  -3.34100 27.77900 31.97000
C  -2.25700 27.52200 32.88400
H  -8.73100 22.59300 28.88900
H  -7.18200 22.68200 22.71000
H  -3.74300 27.85200 23.55000
H  -5.59100 25.24700 31.44100
H  -8.26800 24.58000 30.91200
H  -7.38800 22.05300 30.81900
H  -7.14900 22.90400 32.30700
H  -5.78100 22.79600 31.35300
H  -8.17200 26.58000 31.69700
H  -6.85000 27.48700 31.05700
H  -7.60900 27.04800 33.70400
H  -6.03200 27.57800 33.10700
H  -9.88100 21.40900 28.10600
H  -10.26400 20.24200 26.76200
H  -11.08700 21.80400 26.90300
H  -10.14300 19.71400 24.70300
H  -11.06200 20.15800 23.12200
H  -11.43400 20.82600 24.70500
H  -6.11500 24.76400 21.09800
H  -3.80200 26.21100 21.96100
H  -4.48100 22.81000 22.46700
H  -3.45600 23.74200 21.30300
H  -4.89400 22.97700 20.75300
H  -5.83800 28.05300 22.16300
H  -6.66200 26.88900 21.31400
H  -4.71300 28.83400 20.37200
H  -5.87300 27.85700 19.34100
H  -4.23000 27.36400 19.85100
H  -2.07100 29.30200 24.96300
H  -2.11200 30.35000 26.43400
H  -3.42900 30.32900 25.17100
H  -4.89200 28.47300 30.57100
H  -1.28400 27.89400 32.56300
H  -2.24600 26.49000 33.23200
H  -2.53100 28.11600 33.75600

