158

Mg 30.99300 57.31300 40.01000
C  28.51500 55.32200 38.90800
C  33.35700 54.94100 39.12000
C  33.61100 59.56800 40.43400
C  28.78100 59.95800 40.39200
N  30.87900 55.47000 38.95600
C  29.78500 54.76500 38.74200
C  30.11200 53.37300 38.24300
C  31.63600 53.18400 38.58900
C  32.00700 54.61800 38.97900
C  31.92300 52.05400 39.65300
C  29.76800 53.07500 36.74700
C  29.99400 54.11600 35.64000
H  29.06900 54.25600 34.38400
N  33.21400 57.20100 39.90700
C  33.95000 56.19100 39.41400
C  35.35900 56.60000 39.40000
C  35.44600 57.85400 39.98200
C  34.05100 58.27700 40.18700
C  36.43500 55.67800 38.92400
C  36.71500 58.59000 40.30100
O  37.81100 58.13900 39.89100
C  36.78300 59.78000 41.15300
N  31.13900 59.58700 40.08400
C  32.31600 60.15000 40.49600
C  32.20200 61.63000 40.93400
C  30.58400 61.72300 40.97700
C  30.08000 60.36500 40.41200
C  33.05900 62.12500 42.15000
C  29.90900 62.93400 40.23500
C  28.81400 63.81400 40.90700
N  28.98900 57.62600 39.87100
C  28.17800 58.74900 40.02800
C  26.83600 58.32100 39.77900
C  26.92300 56.95800 39.29800
C  28.25200 56.56000 39.40900
C  25.63500 59.14700 39.85900
C  26.11000 55.88500 38.83500
O  24.91500 55.78500 38.68100
C  27.17200 54.74500 38.50100
C  26.79600 53.50800 39.21100
O  26.83200 53.22500 40.40000
O  26.07100 52.78300 38.29200
C  25.17100 51.67500 38.76100
H  33.98800 54.10800 38.80300
H  34.31700 60.39600 40.51600
H  28.07300 60.72300 40.71900
H  29.46700 52.76600 38.87900
H  32.11200 52.92300 37.64300
H  32.42600 51.26900 39.08900
H  31.03800 51.76100 40.21700
H  32.66200 52.39000 40.38100
H  28.72800 52.75200 36.77900
H  30.38100 52.25500 36.37400
H  30.99900 53.89700 35.27800
H  30.02000 55.12000 36.06300
H  36.83400 56.08600 37.99500
H  36.12700 54.65200 38.72100
H  37.20500 55.51200 39.67700
H  37.50600 59.57700 41.94300
H  35.88400 59.78500 41.77000
H  36.87300 60.69500 40.56700
H  32.54300 62.16900 40.04900
H  30.28800 61.66900 42.02500
H  33.77000 62.92000 41.92400
H  33.57900 61.37500 42.74500
H  32.30100 62.53500 42.81700
H  29.41500 62.64000 39.30900
H  30.77500 63.55700 40.01300
H  29.20700 64.81300 40.71700
H  28.69400 63.60100 41.96900
H  27.86000 63.46400 40.51200
H  24.86800 58.50300 40.29000
H  25.25600 59.37700 38.86300
H  25.88100 60.08200 40.36200
H  27.09800 54.66000 37.41600
H  25.45200 51.32400 39.75500
H  25.31200 50.90700 38.00000
H  24.14000 52.01800 38.67600
Mg 17.58200 53.05400 26.58300
C  19.47400 51.30000 29.00600
C  14.97300 53.26800 28.90500
C  15.63000 54.33400 24.24100
C  19.88000 52.00200 24.15800
N  17.36000 52.40400 28.69200
C  18.36400 51.95600 29.53400
C  17.93300 52.00500 31.01100
C  16.38500 52.27500 30.86700
C  16.26200 52.73100 29.40500
C  15.39400 51.12600 31.25700
C  18.71600 53.06600 31.77500
C  18.60900 53.35400 33.33700
H  17.82200 52.33600 34.12300
N  15.62200 53.96200 26.61700
C  14.75200 53.96300 27.66900
C  13.55000 54.57800 27.23300
C  13.68700 54.89600 25.87500
C  15.01000 54.44000 25.52400
C  12.34500 54.76200 28.18200
C  12.71400 55.60300 24.96600
O  12.99600 55.95500 23.77200
C  11.38000 56.02000 25.42300
N  17.68100 53.16300 24.45900
C  16.78800 53.76800 23.74900
C  17.19400 53.75900 22.22100
C  18.58100 53.15600 22.26000
C  18.76600 52.71800 23.69900
C  16.18000 52.92100 21.33500
C  19.74100 54.12200 21.82700
C  20.32600 55.19500 22.83600
N  19.24900 51.67800 26.55500
C  20.15100 51.47400 25.48100
C  21.23500 50.65000 25.94800
C  21.03300 50.49300 27.33800
C  19.82800 51.25700 27.68100
C  22.36100 50.13000 25.08600
C  21.61400 49.94400 28.55400
O  22.61300 49.27800 28.72500
C  20.53100 50.47900 29.71200
C  20.09600 49.24800 30.44600
O  19.51900 48.24800 29.93600
O  20.38100 49.37900 31.74300
C  20.06100 48.34700 32.74300
H  14.12900 53.16800 29.58900
H  15.25300 54.96700 23.43600
H  20.58600 51.85900 23.33800
H  18.13200 51.01100 31.41100
H  16.05000 53.18400 31.36600
H  15.04300 50.61400 30.36100
H  14.53200 51.59500 31.73200
H  15.83500 50.43400 31.97400
H  18.39400 53.98900 31.29200
H  19.77200 52.86200 31.59700
H  18.23500 54.36000 33.52800
H  19.67100 53.27600 33.57000
H  12.01100 55.79000 28.04200
H  12.65400 54.50200 29.19400
H  11.58100 54.06600 27.83500
H  10.89200 55.13000 25.82000
H  10.90500 56.36100 24.50300
H  11.44600 56.85900 26.11600
H  17.31500 54.80300 21.93300
H  18.79500 52.30000 21.62000
H  16.62100 52.14100 20.71500
H  15.67400 53.60300 20.65200
H  15.35200 52.49600 21.90200
H  19.38300 54.77100 21.02700
H  20.47700 53.46700 21.36100
H  20.08600 54.96400 23.87400
H  19.95000 56.21200 22.72400
H  21.40900 55.18600 22.70700
H  22.00100 49.17900 24.69400
H  23.27800 49.99800 25.66200
H  22.61400 50.84000 24.30000
H  21.11300 51.06400 30.42500
H  20.85900 47.61000 32.82800
H  19.11700 47.88200 32.45900
H  19.93300 48.99500 33.61000

