158

Mg 48.06400 15.91300 28.72000
C  45.82000 15.33600 31.33700
C  50.13800 17.44100 30.87500
C  49.90100 16.81700 26.09200
C  45.73000 14.54000 26.51000
N  47.93100 16.41300 30.83800
C  47.02100 16.01900 31.78000
C  47.31000 16.36600 33.18200
C  48.53800 17.32300 32.93300
C  48.97100 17.04400 31.52600
C  48.26900 18.81100 33.33600
C  47.49900 15.11500 34.13300
C  46.67400 15.02500 35.40300
H  46.57800 16.18600 36.39100
N  49.80800 16.90900 28.55700
C  50.62600 17.42000 29.56500
C  51.85700 17.89300 29.02100
C  51.77600 17.71000 27.59600
C  50.41700 17.18400 27.36600
C  52.99100 18.38800 29.89000
C  52.87600 17.94500 26.55900
O  52.89500 17.59000 25.38300
C  54.09900 18.74900 26.91900
N  47.77200 15.93800 26.50700
C  48.67300 16.30600 25.62400
C  48.31600 15.92900 24.14300
C  47.03500 15.06000 24.43000
C  46.86500 15.08500 25.91600
C  48.17800 17.10400 23.07900
C  47.17100 13.67400 23.71500
C  46.45000 13.56700 22.27900
N  46.18500 15.08500 28.86100
C  45.38500 14.56000 27.91000
C  44.22000 13.94900 28.41700
C  44.25200 14.32800 29.80100
C  45.53100 14.94500 30.00900
C  43.09000 13.35400 27.66200
C  43.57400 14.24400 31.03400
O  42.49300 13.67200 31.36200
C  44.50000 14.99300 32.13300
C  43.75600 15.97900 32.82200
O  43.50000 17.11200 32.49500
O  43.38600 15.47700 34.03300
C  42.76400 16.49800 34.87400
H  50.75500 17.95100 31.61700
H  50.53000 17.13300 25.25800
H  45.06500 13.93200 25.89300
H  46.42300 16.88600 33.54400
H  49.33600 16.94800 33.57500
H  48.97100 19.24900 34.04600
H  47.20800 18.92500 33.56000
H  48.39100 19.34800 32.39500
H  48.55100 14.90800 34.33000
H  47.18600 14.24300 33.55700
H  47.11500 14.17700 35.92700
H  45.65700 14.71500 35.16300
H  52.91900 19.40700 30.27000
H  54.02500 18.35200 29.54500
H  52.99100 17.74000 30.76700
H  54.93700 18.17800 27.31900
H  53.81000 19.58000 27.56200
H  54.44400 19.24300 26.01100
H  49.20300 15.39100 23.80900
H  46.15900 15.62700 24.11600
H  47.10700 17.27200 22.96600
H  48.77600 16.87400 22.19800
H  48.58400 18.04600 23.44900
H  46.79600 12.82100 24.28000
H  48.22200 13.46800 23.51500
H  46.87300 14.08400 21.41800
H  45.41700 13.91500 22.28900
H  46.53400 12.48600 22.16500
H  42.62600 14.12200 27.04300
H  42.34000 12.86200 28.28200
H  43.56400 12.52700 27.13400
H  44.74700 14.20700 32.84700
H  43.49200 17.23900 35.20200
H  42.20900 16.08100 35.71400
H  41.98700 17.02900 34.32400
Mg -10.60600 16.59200 42.62300
C  -7.36500 17.61200 42.51600
C  -11.49400 19.91400 41.79700
C  -13.81300 15.64900 42.49900
C  -9.58400 13.23100 43.11800
N  -9.53400 18.51500 42.04500
C  -8.15600 18.68400 42.14700
C  -7.75900 20.04700 41.67500
C  -9.06100 20.85600 41.89200
C  -10.08800 19.74900 41.89500
C  -8.98600 21.75500 43.13100
C  -7.14200 19.94200 40.22200
C  -5.61400 20.31500 39.97400
H  -4.76700 19.36500 39.33000
N  -12.41600 17.65500 42.27000
C  -12.54700 18.95600 41.95900
C  -13.92200 19.20600 41.65400
C  -14.58000 17.96100 41.78100
C  -13.59500 17.00700 42.23000
C  -14.51100 20.54000 41.22200
C  -16.03600 17.72300 41.53400
O  -16.67500 18.74400 41.28800
C  -16.80000 16.43700 41.72200
N  -11.51300 14.70100 42.67000
C  -12.87400 14.62600 42.73200
C  -13.35500 13.21700 43.02500
C  -12.07300 12.38900 43.29400
C  -10.94800 13.46100 42.89000
C  -14.44300 13.07400 44.03700
C  -11.81800 11.08500 42.46700
C  -11.28600 9.98600 43.32300
N  -8.84900 15.60200 42.78500
C  -8.54600 14.26800 43.12200
C  -7.09100 14.17700 43.17800
C  -6.63000 15.48000 43.06200
C  -7.72700 16.28300 42.74300
C  -6.35300 12.90600 43.27000
C  -5.38500 16.28700 43.04500
O  -4.20000 15.95500 43.21500
C  -5.87100 17.78800 42.75700
C  -5.58000 18.47000 44.08100
O  -6.22500 18.20400 45.07300
O  -4.46000 19.25700 44.08600
C  -4.08900 19.98400 45.24400
H  -11.76700 20.92600 41.48900
H  -14.84100 15.28300 42.45400
H  -9.27500 12.23600 43.44500
H  -6.91200 20.27600 42.32200
H  -9.14500 21.57900 41.08100
H  -7.94200 21.85900 43.42600
H  -9.63300 21.25000 43.84900
H  -9.42800 22.67800 42.75600
H  -7.65900 20.62800 39.55100
H  -7.24100 18.92600 39.83800
H  -5.19100 20.50500 40.96100
H  -5.58500 21.22900 39.38100
H  -15.04100 20.51100 40.27000
H  -13.74600 21.31400 41.15700
H  -15.22800 20.83800 41.98700
H  -17.77200 16.60300 41.25900
H  -16.94300 16.04000 42.72700
H  -16.41500 15.64200 41.08300
H  -13.79300 12.86600 42.09000
H  -12.01300 12.24600 44.37300
H  -15.35400 12.72600 43.55000
H  -14.74300 13.94500 44.62000
H  -14.20100 12.20400 44.64700
H  -11.05100 11.21600 41.70400
H  -12.73500 10.79300 41.95300
H  -12.10000 9.28800 43.51800
H  -10.97700 10.46500 44.25200
H  -10.44900 9.43400 42.89500
H  -5.30300 13.00400 42.99500
H  -6.86400 12.21800 42.59600
H  -6.32800 12.51500 44.28700
H  -5.24500 18.33300 42.05000
H  -4.80400 20.20300 46.03700
H  -3.64400 20.91800 44.89900
H  -3.27600 19.39600 45.67000

