158

Mg 17.41600 -2.36300 27.57900
C  16.38100 -0.58800 30.28400
C  19.55700 -4.03900 29.79000
C  18.64700 -3.96800 24.93400
C  15.59100 -0.23500 25.48300
N  17.94800 -2.17200 29.79800
C  17.34700 -1.46700 30.67600
C  17.65500 -1.80600 32.16500
C  18.93100 -2.72600 31.92700
C  18.84600 -2.98500 30.39100
C  20.27300 -2.19800 32.56000
C  16.49700 -2.47900 32.98200
C  16.32000 -1.92800 34.46900
H  17.62700 -1.49900 35.19800
N  18.93500 -3.78400 27.36600
C  19.62700 -4.36600 28.43400
C  20.36000 -5.49000 27.88500
C  20.10600 -5.50900 26.45200
C  19.15300 -4.44300 26.19500
C  21.30200 -6.43100 28.73800
C  20.71700 -6.43200 25.42300
O  20.37400 -6.35000 24.24400
C  21.78400 -7.37000 25.73100
N  17.20200 -2.10300 25.49300
C  17.75100 -2.94000 24.61800
C  17.40900 -2.55000 23.18500
C  16.21700 -1.49100 23.38100
C  16.32500 -1.22800 24.88800
C  18.64700 -2.05700 22.47100
C  14.74100 -1.95500 23.07500
C  13.78300 -0.89800 22.45100
N  16.25100 -0.77500 27.76200
C  15.54100 -0.02700 26.86400
C  14.76500 0.92800 27.55600
C  15.10000 0.74700 28.87800
C  16.01700 -0.28300 28.98600
C  13.89900 2.00700 26.95700
C  14.73000 1.29400 30.23100
O  14.00800 2.19100 30.58700
C  15.58900 0.44200 31.17300
C  16.34800 1.40900 32.03100
O  17.39200 1.96200 31.76100
O  15.65700 1.65100 33.12700
C  16.01900 2.89400 33.88300
H  20.08700 -4.66400 30.51200
H  18.97000 -4.44500 24.00700
H  14.92000 0.41500 24.91800
H  17.90800 -0.88700 32.69400
H  18.68200 -3.72500 32.28700
H  20.18900 -1.19500 32.97800
H  21.03100 -2.07600 31.78600
H  20.62200 -2.92000 33.29800
H  16.50600 -3.56800 32.96500
H  15.61500 -2.09300 32.47100
H  15.69400 -2.72100 34.87900
H  15.70500 -1.03100 34.40200
H  21.63300 -6.09300 29.72000
H  22.25800 -6.61200 28.24700
H  20.84100 -7.41900 28.76500
H  21.91200 -8.01900 24.86400
H  21.46800 -7.99700 26.56400
H  22.73200 -6.92400 26.03100
H  17.06400 -3.34900 22.53000
H  16.51700 -0.55800 22.90400
H  18.59900 -2.37200 21.42900
H  19.62700 -2.25600 22.90400
H  18.61800 -0.97000 22.38400
H  14.22400 -2.21000 24.00000
H  14.57300 -2.79700 22.40300
H  14.27200 0.06800 22.32700
H  12.83500 -0.73000 22.96100
H  13.49500 -1.27600 21.47000
H  13.14300 1.50200 26.35600
H  14.58600 2.52500 26.28800
H  13.50800 2.63600 27.75700
H  14.91600 -0.13100 31.81100
H  16.85100 2.78600 34.57900
H  15.15300 3.30000 34.40600
H  16.24000 3.54200 33.03400
Mg 26.20500 0.39600 29.62200
C  28.00000 0.20800 32.64100
C  23.31200 0.80100 31.53300
C  24.39500 0.21600 26.76000
C  28.99200 -0.50100 27.82100
N  25.70200 0.32500 31.92800
C  26.64600 0.44800 32.92200
C  26.00100 0.81200 34.25500
C  24.42700 0.87600 33.92000
C  24.44200 0.64900 32.31900
C  23.53300 0.09800 34.87300
C  26.62900 2.14900 34.77600
C  27.35600 1.99200 36.09300
H  26.81500 2.84900 37.28400
N  24.09300 0.45500 29.18400
C  23.05600 0.50800 30.12000
C  21.77500 0.43000 29.39700
C  22.06100 0.22800 28.00500
C  23.55900 0.32400 27.95300
C  20.44300 0.48100 30.15600
C  21.08900 -0.06100 26.81800
O  21.50800 -0.19500 25.66700
C  19.64100 -0.10500 26.99100
N  26.59000 -0.05800 27.56300
C  25.71800 0.00200 26.54900
C  26.38300 -0.08300 25.16300
C  27.82200 -0.45800 25.58700
C  27.86100 -0.31900 27.06600
C  25.67300 -1.06700 24.15600
C  28.94400 0.34500 24.79000
C  29.18900 1.74900 25.14800
N  28.12800 -0.03500 30.03300
C  29.17000 -0.39300 29.20600
C  30.30000 -0.72200 30.01500
C  29.94400 -0.42600 31.34500
C  28.57600 -0.04900 31.30700
C  31.64900 -1.19300 29.44700
C  30.44200 -0.41200 32.74600
O  31.46600 -0.85600 33.22600
C  29.17600 0.11100 33.66800
C  29.14600 -0.79400 34.80000
O  28.41400 -1.81800 34.88200
O  29.91600 -0.37100 35.80400
C  29.80000 -1.08400 37.08600
H  22.45200 1.19600 32.07800
H  23.89500 -0.00600 25.81500
H  29.86300 -0.82100 27.24600
H  26.14400 -0.06900 34.88200
H  24.02900 1.87200 34.11300
H  22.96100 -0.62000 34.28500
H  22.87500 0.81900 35.35800
H  24.05400 -0.45600 35.65400
H  25.86100 2.90900 34.91800
H  27.43200 2.64000 34.22600
H  28.38800 2.28300 35.89800
H  27.26800 0.95000 36.40000
H  20.58200 1.07800 31.05800
H  19.97800 -0.45600 30.46300
H  19.78400 1.00000 29.46000
H  19.20200 -0.16300 25.99500
H  19.32300 0.83300 27.44700
H  19.37100 -0.94300 27.63400
H  26.44500 0.84100 24.58700
H  27.93600 -1.54200 25.55900
H  24.73000 -1.37300 24.60900
H  26.22800 -1.99500 24.01700
H  25.60100 -0.59800 23.17500
H  28.57400 0.40600 23.76700
H  29.85500 -0.24000 24.65900
H  30.25200 1.92500 25.31500
H  28.67000 2.07100 26.05000
H  28.73000 2.46400 24.46500
H  31.69200 -0.89100 28.40100
H  31.74200 -2.27200 29.57200
H  32.50700 -0.68100 29.88100
H  29.38200 1.13400 33.98200
H  29.97500 -2.15600 36.99500
H  28.80700 -0.94300 37.51200
H  30.45700 -0.63600 37.83100

