158

Mg 16.55800 -1.90800 27.64000
C  15.38300 0.18700 30.24900
C  18.39900 -3.58700 29.97900
C  17.91200 -3.55100 25.13000
C  14.81200 0.11900 25.37000
N  17.11300 -1.48000 29.87700
C  16.34200 -0.71300 30.72800
C  16.69900 -1.11300 32.15800
C  17.77700 -2.20700 32.09400
C  17.80500 -2.46100 30.57600
C  19.17300 -1.94500 32.65100
C  15.37100 -1.31300 33.02200
C  15.25000 -0.45600 34.29100
H  16.52000 0.10400 34.98000
N  17.92800 -3.35400 27.54100
C  18.56900 -3.92900 28.61600
C  19.31500 -5.03300 28.05500
C  19.28200 -4.96000 26.61400
C  18.37700 -3.92100 26.36700
C  20.11300 -6.01400 28.96000
C  19.89400 -5.94600 25.54900
O  19.72500 -5.86500 24.32900
C  20.66000 -7.14900 26.07000
N  16.39100 -1.73600 25.49700
C  17.07300 -2.50200 24.68300
C  16.84500 -2.10300 23.18600
C  15.55000 -1.18900 23.37500
C  15.49800 -0.92300 24.82100
C  18.09800 -1.39900 22.62900
C  14.23000 -1.81800 22.83400
C  13.40800 -0.87000 21.98200
N  15.23500 -0.17900 27.75600
C  14.59800 0.53400 26.76300
C  13.82600 1.53800 27.37900
C  14.03300 1.42700 28.79000
C  14.91400 0.37800 28.95400
C  12.81900 2.39200 26.64000
C  13.62300 1.99700 30.05000
O  12.82200 2.91100 30.27000
C  14.47200 1.21800 31.08800
C  15.29100 2.29700 31.70700
O  16.38800 2.57900 31.14600
O  14.65800 2.98600 32.73100
C  15.50900 4.06800 33.18900
H  18.85500 -4.26700 30.70200
H  18.28700 -4.04300 24.23000
H  14.24000 0.77900 24.71400
H  17.20800 -0.21900 32.51900
H  17.43600 -3.16500 32.48700
H  19.50500 -2.69700 33.36700
H  19.10100 -0.96100 33.11400
H  19.88000 -1.84300 31.82800
H  15.28700 -2.38500 33.20000
H  14.39300 -1.18700 32.55600
H  14.82200 -1.17200 34.99200
H  14.54500 0.33500 34.03700
H  19.71100 -6.99100 28.69400
H  19.87200 -5.88900 30.01500
H  21.20000 -5.96700 28.88200
H  21.13200 -7.55400 25.17500
H  20.07000 -7.95700 26.50400
H  21.42800 -6.80500 26.76400
H  16.72100 -3.06300 22.68500
H  15.65100 -0.29700 22.75700
H  17.89900 -0.73000 21.79300
H  18.81000 -2.16700 22.32600
H  18.68700 -0.82500 23.34500
H  13.63600 -2.19600 23.66600
H  14.41000 -2.72900 22.26200
H  12.98000 -0.16500 22.69400
H  12.54000 -1.35300 21.53200
H  13.91200 -0.31100 21.19300
H  12.81200 2.27000 25.55600
H  12.85400 3.46100 26.85100
H  11.78200 2.16900 26.89200
H  13.91200 0.67400 31.84900
H  15.64500 4.70200 32.31300
H  16.46700 3.69000 33.54500
H  15.09400 4.58500 34.05400
Mg 53.73800 24.76900 44.18400
C  50.80400 26.76100 43.71400
C  51.61900 21.92300 43.89600
C  56.40900 22.99200 43.66500
C  55.55600 27.70900 44.40100
N  51.52300 24.41400 43.80100
C  50.52800 25.39400 43.56900
C  49.17700 24.69300 43.40100
C  49.50400 23.24000 43.87500
C  51.01000 23.17500 43.80200
C  49.10500 22.83300 45.32100
C  48.42800 24.77100 42.04300
C  49.24000 25.22300 40.87800
H  49.28700 24.55400 39.55500
N  54.06400 22.71800 43.77700
C  53.07600 21.70800 43.73000
C  53.64700 20.45100 43.62300
C  55.01300 20.65700 43.67300
C  55.24000 22.16600 43.66200
C  52.83500 19.17500 43.55700
C  56.12400 19.65500 43.75500
O  55.82800 18.43700 43.72700
C  57.57500 20.13000 44.09800
N  55.60700 25.24600 43.98500
C  56.59400 24.32100 43.81100
C  57.98700 25.00800 43.50100
C  57.72500 26.50100 43.85500
C  56.22200 26.49800 44.20000
C  59.20000 24.31200 44.16800
C  58.12400 27.45500 42.69300
C  59.06000 28.63500 43.01900
N  53.31900 26.75600 44.19800
C  54.19000 27.88600 44.44600
C  53.40400 29.04200 44.67700
C  52.08000 28.64700 44.33000
C  52.05500 27.28800 44.01000
C  53.76100 30.42100 44.89700
C  50.72300 29.13700 44.17100
O  50.24800 30.24700 44.38900
C  49.89200 27.93900 43.76100
C  49.33900 28.37000 42.45300
O  49.97400 28.47100 41.43000
O  48.01900 28.81800 42.63400
C  47.31800 29.19400 41.34500
H  50.90800 21.10400 44.01800
H  57.31100 22.47300 43.33500
H  56.25900 28.54400 44.44500
H  48.47400 25.11500 44.12000
H  49.11100 22.52800 43.15000
H  49.88500 22.18400 45.71900
H  48.21800 22.23400 45.11600
H  48.78400 23.70700 45.88800
H  47.67200 25.55200 42.12300
H  48.00000 23.78300 41.87100
H  50.28700 25.27900 41.17400
H  48.87300 26.20700 40.58900
H  51.91700 19.29900 42.98400
H  52.71500 18.62400 44.49000
H  53.45800 18.46600 43.01000
H  58.07100 19.18500 44.32200
H  57.65200 20.74400 44.99500
H  58.07400 20.54700 43.22300
H  58.04500 24.81800 42.43000
H  58.24100 26.67000 44.80000
H  58.99800 23.49400 44.85900
H  59.67000 25.10000 44.75700
H  59.85000 23.99300 43.35300
H  57.17100 27.92600 42.45200
H  58.50900 26.96300 41.80000
H  59.43600 28.40800 44.01600
H  58.59100 29.61700 43.08900
H  59.87100 28.66200 42.29100
H  54.76400 30.65600 44.54300
H  53.72100 30.64700 45.96300
H  53.12200 31.17200 44.43200
H  49.15900 27.75900 44.54800
H  47.26400 28.42200 40.57700
H  47.77600 30.06600 40.87800
H  46.28900 29.45600 41.59400

