158

Mg 49.32100 35.21000 26.20300
C  47.65500 34.13200 29.08900
C  49.91300 38.13800 27.62200
C  50.78200 36.05100 23.38300
C  48.31000 32.01800 24.63500
N  48.97200 35.98600 28.19900
C  48.22400 35.39800 29.20300
C  47.98800 36.41400 30.34300
C  48.54500 37.77600 29.74800
C  49.24200 37.24300 28.43700
C  47.46000 38.81600 29.47800
C  48.82200 36.03600 31.69200
C  48.03000 35.84800 33.01500
H  47.85700 36.96500 34.05300
N  50.22600 36.84900 25.54600
C  50.33900 38.00100 26.28100
C  51.21200 38.90800 25.52800
C  51.55800 38.35400 24.29000
C  50.88600 36.99800 24.36100
C  51.62500 40.32300 26.02200
C  52.32800 38.86700 23.11800
O  52.66300 38.20700 22.08200
C  52.92200 40.26000 23.16200
N  49.42800 34.17800 24.35300
C  50.13200 34.84200 23.33700
C  50.22200 33.89100 22.16600
C  49.60400 32.53800 22.54200
C  49.11800 32.93800 23.95900
C  49.61700 34.56100 20.82300
C  50.60200 31.32500 22.51000
C  50.20400 30.15700 21.56300
N  48.20500 33.46200 26.72200
C  47.93000 32.24900 25.98200
C  47.09800 31.40000 26.81000
C  46.98800 32.06900 28.05500
C  47.69600 33.29400 27.97400
C  46.53300 30.09000 26.42400
C  46.46600 31.97700 29.31100
O  45.86800 31.07500 29.78400
C  46.60900 33.38400 29.94600
C  46.99600 33.09500 31.34900
O  48.11400 32.83900 31.74300
O  45.86200 33.18400 32.09900
C  45.96900 32.83300 33.51200
H  50.11100 39.12900 28.03500
H  51.42500 36.15500 22.50600
H  48.12100 30.97900 24.36000
H  46.92200 36.52200 30.54500
H  49.20700 38.25500 30.46900
H  47.31300 38.94800 28.40700
H  47.69400 39.73000 30.02500
H  46.47700 38.59300 29.89100
H  49.41000 36.93000 31.90500
H  49.40300 35.13500 31.49900
H  48.45500 35.02000 33.58300
H  47.02300 35.64000 32.65200
H  51.06100 40.98300 25.36200
H  52.67200 40.60600 26.12900
H  51.27300 40.54400 27.02900
H  53.57200 40.42300 22.30200
H  53.43800 40.58200 24.06600
H  52.05700 40.88700 22.94400
H  51.30200 33.84500 22.03000
H  48.76600 32.32200 21.88000
H  48.71900 34.15300 20.36000
H  50.35200 34.54300 20.01800
H  49.53200 35.61600 21.08100
H  50.64800 30.83100 23.48100
H  51.57300 31.66500 22.15000
H  49.67300 30.66000 20.75500
H  49.63200 29.34100 22.00400
H  51.17800 29.83400 21.19600
H  45.92600 30.27600 25.53800
H  45.98900 29.64000 27.25400
H  47.32900 29.37200 26.22600
H  45.67300 33.94200 29.94900
H  46.75000 32.09300 33.68900
H  45.00900 32.45600 33.86500
H  46.15600 33.71000 34.13100
Mg 27.95200 56.41300 40.73300
C  25.35600 54.07100 39.90400
C  30.28700 54.30700 39.56800
C  29.91900 59.02300 40.52400
C  25.20900 58.67100 41.39300
N  27.78300 54.50400 39.73100
C  26.70400 53.67400 39.57700
C  27.10100 52.46300 38.70600
C  28.65000 52.41700 38.91300
C  28.93200 53.84200 39.39500
C  29.28800 51.34200 39.85100
C  26.59100 52.26600 37.24600
C  26.36700 53.64800 36.55400
H  26.65600 53.72100 35.03400
N  29.91400 56.59200 40.27400
C  30.82300 55.56300 39.98500
C  32.17800 56.14500 39.77000
C  32.02100 57.62500 39.88800
C  30.59300 57.81900 40.23300
C  33.28600 55.26400 39.21500
C  33.13100 58.60400 39.75800
O  34.30800 58.25200 39.52200
C  32.94300 60.11300 39.94900
N  27.61100 58.51000 40.97100
C  28.64700 59.37700 40.90400
C  28.19100 60.82500 41.02100
C  26.76300 60.67800 41.41900
C  26.48100 59.14000 41.22400
C  29.04900 61.61800 42.00300
C  25.75700 61.69100 40.78700
C  24.67500 62.39100 41.74400
N  25.70500 56.35900 40.84600
C  24.79400 57.29400 41.17000
C  23.51200 56.67200 41.27300
C  23.70500 55.39500 40.75300
C  25.02600 55.23200 40.51400
C  22.25900 57.29600 41.80700
C  23.00100 54.17600 40.49900
O  21.82700 53.81700 40.58800
C  24.01100 53.30300 39.71000
C  23.97800 51.95200 40.26900
O  23.44900 50.97400 39.74600
O  24.68600 51.99200 41.46200
C  25.03400 50.69000 42.01800
H  31.11600 53.61700 39.39500
H  30.56300 59.87800 40.30900
H  24.42000 59.38600 41.63400
H  26.64400 51.64300 39.26100
H  29.23300 52.41300 37.99200
H  28.49400 50.73300 40.28200
H  29.71900 51.79400 40.74400
H  30.02800 50.65700 39.43500
H  25.70800 51.62900 37.29900
H  27.33100 51.74700 36.63600
H  26.88700 54.46200 37.05900
H  25.28100 53.69200 36.64600
H  33.97600 55.87600 38.63400
H  33.01400 54.44400 38.55000
H  33.73600 54.72200 40.04600
H  32.45200 60.22700 40.91600
H  32.23500 60.49500 39.21300
H  33.87800 60.65400 39.80800
H  28.25800 61.25300 40.02100
H  26.68400 60.84900 42.49300
H  28.43600 62.12300 42.74900
H  29.49700 62.44700 41.45400
H  29.77000 60.99500 42.53200
H  25.34100 61.14600 39.94000
H  26.28000 62.54000 40.34600
H  24.73500 63.47400 41.63800
H  24.94200 62.05500 42.74600
H  23.67400 62.04900 41.48300
H  21.66700 57.65700 40.96600
H  22.63500 58.21800 42.25000
H  21.59900 56.79500 42.51500
H  23.74600 53.19200 38.65800
H  26.11200 50.65800 42.17400
H  24.76800 49.88100 41.33800
H  24.51900 50.58300 42.97300

