158

Mg 1.56900 -1.62400 44.33300
C  4.93400 -0.86000 43.48100
C  0.57700 1.20000 42.53500
C  -1.63000 -2.75900 44.35600
C  2.73700 -4.83500 45.50100
N  2.51300 -0.10700 43.28400
C  3.94200 0.04000 43.00900
C  4.22200 1.22300 42.11400
C  2.85400 2.06500 42.27000
C  1.88700 0.98700 42.73500
C  2.88900 3.18900 43.38100
C  4.46800 0.84700 40.60400
C  5.75600 1.24000 40.03100
H  5.69200 2.00300 38.65700
N  -0.32800 -0.86700 43.59000
C  -0.47900 0.32900 42.79600
C  -1.82600 0.43000 42.37300
C  -2.47400 -0.76900 42.81500
C  -1.55200 -1.53700 43.63000
C  -2.43100 1.59800 41.66500
C  -3.82000 -1.21700 42.36400
O  -4.48200 -0.47400 41.72900
C  -4.37500 -2.48900 42.78100
N  0.70700 -3.52300 44.77300
C  -0.68800 -3.71700 44.83300
C  -0.95900 -5.13300 45.23400
C  0.40800 -5.72000 45.77700
C  1.35300 -4.62100 45.28600
C  -2.19500 -5.37000 46.10000
C  0.72500 -7.16200 45.16600
C  1.38000 -8.13200 46.13800
N  3.45600 -2.66500 44.69600
C  3.78000 -3.92700 45.19600
C  5.22300 -4.07100 45.16500
C  5.69200 -2.87100 44.53400
C  4.61200 -2.09300 44.21400
C  6.04400 -5.27100 45.70600
C  6.88800 -2.14600 44.12600
O  8.09100 -2.33700 44.29200
C  6.37800 -0.84500 43.38900
C  6.88100 0.33200 44.09800
O  6.76900 0.52200 45.28200
O  7.69300 1.03500 43.23300
C  8.48900 2.17100 43.84900
H  0.29200 2.09900 41.98400
H  -2.65400 -3.06600 44.57700
H  3.12000 -5.80700 45.81900
H  5.12800 1.62900 42.56400
H  2.43400 2.56200 41.39600
H  3.87700 3.51900 43.70200
H  2.47300 2.74500 44.28500
H  2.26100 3.99800 43.00800
H  3.72700 1.29100 39.94000
H  4.39900 -0.23600 40.49600
H  6.32400 0.32300 39.87800
H  6.33700 1.86400 40.71000
H  -2.64000 1.41400 40.61100
H  -1.82100 2.49900 41.72900
H  -3.34900 1.87100 42.18500
H  -5.07700 -2.75000 41.98900
H  -4.77300 -2.33500 43.78400
H  -3.58500 -3.23900 42.74500
H  -1.11500 -5.61300 44.26800
H  0.44400 -5.86300 46.85700
H  -2.73600 -4.43000 46.21200
H  -1.85700 -5.64600 47.09800
H  -2.91000 -6.03700 45.61800
H  1.50000 -6.88800 44.44900
H  -0.17800 -7.53000 44.67900
H  1.71700 -7.58300 47.01800
H  2.26900 -8.53200 45.64900
H  0.63200 -8.90500 46.31300
H  6.84000 -5.00600 46.40100
H  6.45000 -5.65000 44.76800
H  5.35100 -5.98800 46.14700
H  6.75000 -0.83300 42.36400
H  9.01200 1.77300 44.71900
H  7.89600 2.99400 44.24800
H  9.26900 2.56800 43.19900
Mg 16.41700 51.97800 26.14800
C  18.36000 51.06600 28.99000
C  13.90200 52.74000 28.34600
C  14.67700 52.90000 23.52600
C  19.01800 50.79700 24.15700
N  16.18300 51.75200 28.44500
C  17.14800 51.65400 29.37800
C  16.76100 51.99200 30.76100
C  15.22300 52.26600 30.47600
C  15.07500 52.28300 28.99400
C  14.28400 51.32200 31.23400
C  17.57700 53.10900 31.41800
C  18.14500 52.84400 32.83600
H  17.39500 52.09900 33.81900
N  14.61300 52.66900 25.94900
C  13.71700 52.98500 26.96800
C  12.52000 53.63200 26.37100
C  12.77400 53.81800 25.01800
C  14.06800 53.05700 24.76600
C  11.36100 54.15600 27.20900
C  11.99500 54.53300 23.95700
O  12.37100 54.61200 22.80400
C  10.72900 55.19000 24.31700
N  16.75900 51.91500 24.08600
C  15.90000 52.34200 23.18500
C  16.40900 52.20500 21.73800
C  17.89500 51.86800 22.06000
C  17.94800 51.47000 23.53500
C  15.68900 51.14600 20.80500
C  18.91700 53.02500 21.77600
C  19.93900 52.76700 20.62700
N  18.24700 51.01400 26.39600
C  19.17200 50.58300 25.45400
C  20.24500 49.88900 26.18100
C  19.96000 50.11600 27.54000
C  18.73900 50.77200 27.64300
C  21.48300 49.24100 25.55100
C  20.44100 49.91600 28.85100
O  21.43900 49.29300 29.23800
C  19.45200 50.50900 29.85300
C  19.01800 49.39300 30.70300
O  18.36000 48.46000 30.36100
O  19.53400 49.54900 31.95200
C  19.11000 48.46200 32.86100
H  13.16600 52.99700 29.11000
H  14.25000 53.37000 22.63800
H  19.85200 50.48600 23.52400
H  16.85000 51.15500 31.45300
H  14.92800 53.23900 30.86800
H  13.89200 50.53000 30.59700
H  13.45500 51.91600 31.61900
H  14.76000 50.77800 32.05000
H  16.98600 54.02200 31.49600
H  18.47300 53.33000 30.83900
H  18.44600 53.81700 33.22500
H  19.10400 52.33500 32.73500
H  11.52900 54.00300 28.27500
H  10.54700 53.47100 26.97300
H  11.02200 55.18600 27.09900
H  10.31700 55.45700 23.34400
H  10.89300 56.06800 24.94200
H  9.99400 54.49300 24.71900
H  16.26600 53.18300 21.27900
H  18.23100 50.99300 21.50300
H  16.41000 50.41300 20.44400
H  15.00700 51.54700 20.05600
H  15.13900 50.51300 21.50200
H  19.54800 53.27800 22.62700
H  18.43200 53.99500 21.67100
H  19.49800 52.47900 19.67300
H  20.54100 51.92000 20.95500
H  20.52800 53.66000 20.41600
H  21.73900 48.36900 26.15300
H  22.25400 50.01000 25.50800
H  21.29800 48.93700 24.52100
H  19.96500 51.26900 30.44300
H  19.45500 47.46400 32.58900
H  18.02500 48.38100 32.79600
H  19.44900 48.75900 33.85300

