158

Mg 25.13000 1.31600 30.08200
C  27.26900 0.98500 32.73200
C  22.42200 1.39000 32.34500
C  22.98600 1.22200 27.53600
C  27.80400 0.61900 27.96400
N  24.92400 1.28500 32.35700
C  25.97400 1.21400 33.22500
C  25.50700 1.51600 34.66300
C  23.91800 1.45100 34.51300
C  23.66400 1.39300 32.98500
C  23.15000 0.26300 35.24200
C  26.10200 2.87300 35.18400
C  26.75600 2.80100 36.61200
H  26.11600 3.70300 37.65700
N  23.00000 1.28500 30.00300
C  22.07500 1.27100 31.01600
C  20.76700 1.04200 30.46000
C  20.88800 0.92600 29.03800
C  22.30100 1.18100 28.78000
C  19.52600 0.88000 31.31600
C  19.84000 0.62000 27.94900
O  20.11400 0.34600 26.79700
C  18.42600 0.53900 28.33400
N  25.41300 0.98500 28.06300
C  24.37100 1.13200 27.20000
C  24.91600 1.22600 25.73700
C  26.42600 1.23900 25.95600
C  26.51300 0.92800 27.45100
C  24.42600 0.07800 24.81600
C  27.22500 2.53800 25.46400
C  26.82600 3.85900 26.12500
N  27.15700 0.82300 30.26800
C  28.13800 0.55400 29.31400
C  29.46200 0.39000 29.93500
C  29.17900 0.59300 31.31200
C  27.74800 0.74100 31.44000
C  30.81800 0.19900 29.30000
C  29.74500 0.87300 32.65100
O  30.90100 1.00400 33.05000
C  28.58200 1.02500 33.56000
C  28.61300 -0.05100 34.57300
O  28.62100 -1.23800 34.33800
O  28.77800 0.47000 35.81800
C  29.25900 -0.33400 36.90300
H  21.55200 1.53700 32.98900
H  22.37000 1.08600 26.64500
H  28.58900 0.70200 27.21000
H  25.74900 0.71700 35.36300
H  23.55000 2.43300 34.81000
H  22.73100 -0.36500 34.45600
H  22.24800 0.67200 35.69800
H  23.83000 -0.29600 35.88400
H  25.31200 3.62300 35.22200
H  26.86800 3.34500 34.56800
H  27.75100 3.22400 36.47400
H  26.86600 1.78900 37.00000
H  18.97200 1.81700 31.26900
H  19.72600 0.58100 32.34400
H  18.94800 0.03100 30.95000
H  18.12000 1.51800 28.70000
H  18.14400 -0.28000 28.99600
H  17.93000 0.30600 27.39200
H  24.68200 2.16400 25.23500
H  26.95600 0.44300 25.43200
H  23.66200 -0.54800 25.27700
H  25.26500 -0.56000 24.53700
H  24.14000 0.49600 23.85100
H  26.95600 2.62200 24.41100
H  28.31000 2.43300 25.45900
H  27.65100 4.24600 26.72400
H  25.98900 3.59400 26.77200
H  26.50400 4.53700 25.33500
H  30.76400 -0.02900 28.23600
H  31.42900 -0.41900 29.95800
H  31.32200 1.16500 29.30700
H  28.61000 1.99600 34.05400
H  28.71300 -0.15500 37.82900
H  30.28400 0.00100 37.06100
H  29.17800 -1.40400 36.70800
Mg 30.64100 58.44100 40.63700
C  27.84600 56.56100 39.65500
C  32.64300 55.79700 39.96800
C  33.14400 60.57400 40.60600
C  28.31600 61.24200 41.30200
N  30.29800 56.51200 39.71600
C  29.12800 55.90700 39.46300
C  29.33400 54.46000 39.04500
C  30.74000 54.14300 39.71500
C  31.32000 55.56700 39.78900
C  30.74500 53.34200 41.01000
C  29.20600 54.39700 37.49800
C  28.23600 53.39600 36.83800
H  27.23900 54.08300 35.88400
N  32.63600 58.20900 40.36200
C  33.29100 57.00100 40.15700
C  34.65700 57.25300 40.04100
C  34.83100 58.59200 40.35300
C  33.53500 59.23400 40.38500
C  35.60900 56.17000 39.81200
C  36.19600 59.28700 40.63200
O  37.30200 58.68600 40.53300
C  36.35000 60.77100 41.16200
N  30.62200 60.60800 40.86400
C  31.90300 61.18900 40.79400
C  31.74700 62.68800 41.12100
C  30.22600 62.89800 41.47100
C  29.67900 61.53600 41.18200
C  32.65700 63.22400 42.20500
C  29.46300 63.96700 40.61400
C  29.87300 65.37600 40.81400
N  28.54200 58.86700 40.59500
C  27.74600 60.04600 40.85400
C  26.33700 59.58100 40.62900
C  26.32300 58.34200 40.11700
C  27.70400 57.91300 40.10400
C  25.16800 60.49300 40.86600
C  25.48500 57.20500 39.63200
O  24.31900 57.20900 39.31900
C  26.51600 55.99700 39.41900
C  26.14300 54.90700 40.32500
O  26.63500 54.79700 41.42200
O  25.12000 54.10400 39.84200
C  24.41900 53.18400 40.79300
H  33.26700 54.91900 39.78600
H  33.94500 61.31100 40.51700
H  27.72200 62.02400 41.77800
H  28.49100 53.88900 39.43400
H  31.28900 53.52600 39.00300
H  29.67300 53.21000 41.15700
H  31.19100 53.75600 41.91300
H  31.23300 52.37800 40.86500
H  30.18400 54.12100 37.10300
H  29.16400 55.40400 37.08100
H  27.71900 52.88200 37.64800
H  28.80000 52.64900 36.27900
H  35.61400 55.55600 40.71200
H  36.67100 56.38900 39.69500
H  35.38900 55.49500 38.98500
H  36.36000 61.46800 40.32500
H  37.29000 60.81800 41.71200
H  35.49400 60.94300 41.81400
H  31.99500 63.10000 40.14300
H  30.13500 63.13000 42.53200
H  33.11400 62.39900 42.75100
H  32.22600 63.95400 42.89000
H  33.45800 63.80200 41.74400
H  28.42200 64.06000 40.92400
H  29.30800 63.75300 39.55600
H  30.11800 65.77300 39.82900
H  30.72300 65.56700 41.46900
H  29.03700 65.99900 41.13400
H  24.40500 60.10500 41.54200
H  24.69800 60.47400 39.88300
H  25.40200 61.52900 41.11100
H  26.33800 55.65500 38.40000
H  23.39500 53.53800 40.91700
H  24.67600 53.33900 41.84100
H  24.36600 52.10500 40.64900

