158

Mg 27.00500 50.56000 25.52600
C  24.84800 51.35600 28.18500
C  29.35700 49.47000 27.82800
C  28.95700 49.79600 22.93600
C  24.47200 51.55600 23.37100
N  27.11100 50.55300 27.79600
C  26.07300 50.74300 28.67000
C  26.53500 50.55500 30.18100
C  27.99900 49.99700 29.95700
C  28.18200 50.00600 28.41000
C  29.11600 50.80400 30.72000
C  25.54000 49.58100 30.84600
C  25.09400 49.82000 32.33100
H  26.02600 50.55100 33.31900
N  28.81500 49.68900 25.35200
C  29.65800 49.39600 26.40900
C  30.77200 48.77800 25.90700
C  30.81100 48.92600 24.53200
C  29.48600 49.54200 24.23200
C  31.79200 48.12000 26.77000
C  31.91100 48.67200 23.59300
O  31.86000 48.97500 22.39600
C  33.15600 47.92400 24.05600
N  26.70100 50.70500 23.48900
C  27.68900 50.25800 22.61600
C  27.18200 50.45500 21.14200
C  25.78200 50.98200 21.29900
C  25.62300 51.05800 22.79600
C  28.14700 51.28300 20.18800
C  24.66000 50.16100 20.48500
C  23.99100 48.95900 21.13600
N  25.14900 51.44700 25.70200
C  24.23900 51.72700 24.73300
C  23.03600 52.28600 25.26900
C  23.24400 52.24400 26.66600
C  24.52100 51.62200 26.89600
C  21.90500 52.91300 24.49300
C  22.65400 52.54400 27.93200
O  21.58800 53.03200 28.22500
C  23.69700 51.95300 29.01600
C  24.16900 52.95600 29.99800
O  25.02500 53.80700 29.82900
O  23.44300 52.76200 31.18200
C  23.68800 53.75600 32.22900
H  30.12300 49.17400 28.54700
H  29.53900 49.54900 22.04600
H  23.66700 51.87200 22.70300
H  26.60200 51.53400 30.65600
H  28.08000 48.92900 30.15900
H  28.83500 51.80300 31.05400
H  30.04900 50.87200 30.16100
H  29.35600 50.27100 31.64000
H  25.96300 48.57700 30.80000
H  24.60700 49.61600 30.28400
H  24.94600 48.81600 32.73000
H  24.05900 50.16100 32.32400
H  31.44900 47.81300 27.75800
H  32.68900 48.73300 26.86300
H  32.12200 47.16600 26.36100
H  33.70400 48.30200 24.91900
H  33.81100 47.88400 23.18600
H  32.77400 46.90900 24.16900
H  27.12100 49.44600 20.73600
H  25.78700 51.96900 20.83800
H  29.15200 50.98000 20.48300
H  27.94600 52.35300 20.24100
H  28.03900 51.00400 19.14000
H  25.14400 49.99300 19.52300
H  23.84800 50.86000 20.28300
H  24.03900 48.11900 20.44300
H  22.95900 49.20900 21.38200
H  24.51100 48.64900 22.04300
H  22.05700 53.97800 24.31500
H  21.00700 52.75400 25.08900
H  21.69900 52.39500 23.55600
H  23.17800 51.18000 29.58300
H  24.64800 53.63800 32.73000
H  22.77300 53.74700 32.82100
H  23.81900 54.75700 31.81700
Mg 9.56400 47.64000 25.92400
C  7.80700 47.65800 28.89000
C  12.27100 49.01100 27.63500
C  11.28900 47.61000 22.99600
C  6.63500 46.68900 24.20400
N  9.92700 48.38400 27.96100
C  9.07200 48.22000 29.00400
C  9.87200 48.52100 30.30900
C  11.07600 49.37800 29.81400
C  11.13200 48.90700 28.38100
C  10.78400 50.93800 29.77000
C  10.33800 47.30600 31.12900
C  10.62400 47.56000 32.65700
H  10.39900 46.40300 33.52400
N  11.54300 48.19900 25.37900
C  12.50200 48.71900 26.26500
C  13.73300 48.67200 25.54300
C  13.50800 48.30800 24.19200
C  12.01600 48.07100 24.16000
C  15.04500 49.00800 26.22700
C  14.37100 48.17300 23.01000
O  13.99900 47.75100 21.89100
C  15.89200 48.44600 23.12500
N  8.94100 47.36300 23.89800
C  9.88900 47.33200 22.90400
C  9.20500 46.90000 21.55800
C  7.89300 46.27100 21.93700
C  7.77800 46.82500 23.36200
C  9.10100 48.10800 20.59200
C  7.94500 44.69000 21.71500
C  8.57100 43.83800 22.83200
N  7.57600 47.32900 26.40400
C  6.48300 46.96100 25.60600
C  5.33100 46.78400 26.40100
C  5.81500 46.99600 27.72200
C  7.18800 47.34300 27.63000
C  3.94100 46.60200 25.87700
C  5.42000 46.93000 29.13700
O  4.36300 46.66600 29.71600
C  6.76100 47.33500 29.96700
C  6.95400 46.13900 30.82000
O  7.30500 45.04600 30.35400
O  6.54000 46.42200 32.06700
C  6.86200 45.42000 33.05300
H  13.14300 49.41200 28.15400
H  11.69500 47.59200 21.98300
H  5.79800 46.14600 23.76000
H  9.23800 49.19100 30.89000
H  11.97900 49.07500 30.34500
H  11.17300 51.34500 30.70300
H  9.71300 51.10500 29.65500
H  11.34100 51.29700 28.90400
H  11.27300 47.09400 30.61000
H  9.70500 46.42200 31.05600
H  10.05000 48.43000 32.97700
H  11.62800 47.98400 32.64300
H  15.04300 48.78600 27.29400
H  15.21300 50.08500 26.23200
H  15.90600 48.52000 25.77000
H  16.24400 47.66400 23.79800
H  16.21800 49.33900 23.65800
H  16.42000 48.30300 22.18200
H  9.95100 46.19900 21.18100
H  7.09500 46.61600 21.28000
H  8.07100 48.23900 20.26000
H  9.67800 48.09400 19.66800
H  9.41900 48.97100 21.17900
H  8.45000 44.47600 20.77300
H  6.90100 44.41600 21.55900
H  9.03900 44.47700 23.58100
H  9.31200 43.19200 22.36000
H  7.80500 43.20200 23.27500
H  3.44300 47.53500 26.14200
H  3.43500 45.73600 26.30400
H  3.83500 46.51900 24.79600
H  6.53400 48.21900 30.56300
H  6.84400 45.87300 34.04500
H  7.81100 44.89900 32.92400
H  6.04700 44.69900 33.11100

