158

Mg 46.43800 44.75800 43.49900
C  42.89700 44.64500 43.24800
C  46.43600 41.31800 42.97200
C  49.72700 45.03400 43.09300
C  46.17200 48.20300 43.56000
N  44.89500 43.27500 43.17100
C  43.49600 43.42000 43.00800
C  42.78300 42.05300 42.65800
C  43.90400 41.07200 43.01500
C  45.16500 41.94400 43.03000
C  43.69500 40.32100 44.38100
C  42.27700 41.93500 41.18700
C  43.21400 42.40700 40.13100
H  42.95700 42.01400 38.58700
N  47.92000 43.40400 43.05900
C  47.74300 42.01600 42.85400
C  48.96400 41.42000 42.54500
C  49.99900 42.42700 42.63700
C  49.23700 43.72100 42.95600
C  49.14800 39.89500 42.30500
C  51.51300 42.20000 42.55200
O  51.92500 41.04900 42.29800
C  52.44200 43.33500 42.77000
N  47.75700 46.39500 43.29200
C  49.09400 46.25000 43.25200
C  49.78600 47.60700 43.17500
C  48.66900 48.67800 43.23700
C  47.46700 47.74000 43.40000
C  51.02900 47.77100 44.20200
C  48.57800 49.50400 41.93900
C  48.13100 50.93300 42.08800
N  44.91000 46.17100 43.51900
C  44.96300 47.50000 43.63500
C  43.59700 48.05100 43.86300
C  42.79500 46.97300 43.67200
C  43.60700 45.82500 43.44200
C  43.18700 49.46800 43.95700
C  41.39900 46.55800 43.60500
O  40.38500 47.22600 43.63400
C  41.43600 44.99300 43.27400
C  40.67100 44.27500 44.32200
O  39.82300 43.43700 44.12400
O  41.09600 44.62300 45.58700
C  40.62500 43.85700 46.73500
H  46.40600 40.23100 43.07300
H  50.79900 45.13100 42.90300
H  46.05200 49.27100 43.75200
H  41.90200 41.90400 43.28100
H  44.01800 40.39600 42.16700
H  43.52100 39.26800 44.15900
H  42.81500 40.73600 44.87400
H  44.54100 40.40700 45.06200
H  41.45600 42.65200 41.17100
H  42.02500 40.87700 41.11200
H  44.24300 42.18500 40.41400
H  42.90000 43.45000 40.10900
H  48.93800 39.74100 41.24600
H  48.43000 39.26000 42.82400
H  50.16700 39.55200 42.48400
H  52.26600 43.84900 43.71600
H  52.30100 44.00900 41.92500
H  53.45500 42.93700 42.73000
H  50.27000 47.53400 42.20100
H  48.69500 49.24000 44.17000
H  50.76400 47.36500 45.17800
H  51.31500 48.80500 44.39700
H  51.95100 47.38300 43.77100
H  47.89800 48.87900 41.36000
H  49.52200 49.53700 41.39600
H  48.89100 51.62700 42.44600
H  47.18200 50.98600 42.62300
H  47.58400 51.14400 41.16800
H  42.92400 49.64000 45.00000
H  42.22600 49.54900 43.44900
H  43.98100 50.13800 43.62800
H  40.89200 44.88400 42.33600
H  40.74500 44.43800 47.65000
H  41.22600 42.95100 46.80800
H  39.59100 43.52700 46.63500
Mg 7.34300 57.67900 41.58600
C  6.44400 54.29200 41.51100
C  10.42900 56.70100 40.20300
C  8.04300 60.86200 41.04200
C  4.18400 58.46800 42.57500
N  8.37600 55.65000 40.86600
C  7.77100 54.42600 41.03500
C  8.69600 53.35900 40.54000
C  10.08000 54.08300 40.42500
C  9.67500 55.55800 40.51300
C  11.10000 53.69500 41.44500
C  8.28700 52.64700 39.19700
C  8.53200 51.14100 39.03800
H  8.74200 50.49600 37.68400
N  8.97900 58.67100 40.70900
C  10.11300 58.08900 40.24400
C  11.00300 59.08700 39.75400
C  10.44300 60.36900 39.92800
C  9.09900 59.97700 40.61200
C  12.38000 58.74500 39.26500
C  11.04000 61.70200 39.49500
O  12.20200 61.85000 39.18500
C  10.10500 62.82500 39.60400
N  6.18500 59.44300 41.71000
C  6.78300 60.63800 41.52300
C  5.82600 61.79800 42.09300
C  4.63700 60.97200 42.66000
C  5.01000 59.53900 42.30900
C  6.46200 62.79400 43.16500
C  3.28200 61.49500 42.17000
C  2.17400 61.84000 43.22900
N  5.59500 56.64900 42.00600
C  4.39900 57.06700 42.44300
C  3.57700 55.91900 42.85000
C  4.33600 54.80900 42.37900
C  5.53900 55.30100 41.99800
C  2.22800 55.93800 43.40800
C  4.32700 53.35300 42.31600
O  3.58800 52.43400 42.61900
C  5.69300 53.01500 41.63400
C  5.22000 52.24500 40.39200
O  4.79500 52.70800 39.35700
O  5.44000 50.89900 40.67200
C  4.97100 49.90300 39.64600
H  11.39000 56.37700 39.79900
H  8.25200 61.93100 40.95600
H  3.18400 58.77700 42.88500
H  8.90300 52.58000 41.27400
H  10.56700 53.96500 39.45700
H  11.12500 52.71000 41.91000
H  11.09500 54.44700 42.23400
H  12.11600 53.77700 41.05900
H  8.84900 53.14100 38.40400
H  7.24400 52.82100 38.93400
H  7.62500 50.67000 39.41600
H  9.36900 50.83000 39.66200
H  12.51200 57.81900 38.70500
H  13.06000 58.90300 40.10200
H  12.77300 59.51500 38.60100
H  9.80400 62.98200 40.64000
H  9.19900 62.43300 39.14200
H  10.48500 63.75700 39.18700
H  5.45000 62.35900 41.23700
H  4.60900 60.94700 43.74900
H  6.33000 63.80600 42.78100
H  7.52600 62.61000 43.31100
H  5.94900 62.85300 44.12500
H  2.74100 60.73300 41.61000
H  3.37900 62.42600 41.61000
H  1.37800 62.39100 42.72700
H  2.42300 62.46300 44.08900
H  1.74800 60.93700 43.66600
H  1.45900 56.43300 42.81500
H  2.25600 56.49000 44.34800
H  1.94400 54.89500 43.55200
H  6.22300 52.30600 42.27000
H  5.83200 49.26800 39.43800
H  4.74300 50.35700 38.68100
H  4.08500 49.41400 40.05000

