158

Mg 1.73300 7.52600 25.58900
C  2.21100 9.59800 28.33700
C  2.22300 4.84700 27.77200
C  1.16700 5.56900 23.00400
C  1.71400 10.43000 23.55300
N  2.07500 7.25600 27.82400
C  2.19900 8.26200 28.77300
C  2.22400 7.74600 30.19600
C  2.75500 6.22400 29.96000
C  2.47200 6.09000 28.42000
C  4.22700 5.86200 30.33500
C  0.85300 7.86800 30.98500
C  0.84300 7.70000 32.52700
H  2.08800 7.02200 33.15400
N  1.68300 5.48400 25.42900
C  1.76300 4.54700 26.45100
C  1.58600 3.18100 25.89500
C  1.21900 3.41400 24.49800
C  1.37800 4.88400 24.24500
C  1.59400 1.87100 26.78900
C  0.85300 2.35400 23.34900
O  0.59800 2.66300 22.16700
C  0.71800 0.96900 23.74600
N  1.78900 7.90600 23.46300
C  1.35500 6.92900 22.65000
C  0.92500 7.44400 21.26900
C  0.80200 8.98100 21.56500
C  1.46200 9.14200 22.95200
C  1.95800 7.06300 20.08200
C  -0.65600 9.59600 21.52400
C  -0.92300 10.41100 20.22500
N  1.99100 9.55600 25.82500
C  2.02500 10.56400 24.89900
C  2.31300 11.82400 25.58100
C  2.47800 11.51200 26.93100
C  2.19000 10.07600 27.03200
C  2.30300 13.20700 25.04000
C  2.60600 12.02700 28.28700
O  2.84300 13.15600 28.73700
C  2.41400 10.83800 29.21300
C  3.67800 10.74200 30.03800
O  4.72100 10.13700 29.74500
O  3.35000 11.20800 31.28900
C  4.53500 11.15800 32.17200
H  2.50200 3.99400 28.39400
H  0.93100 4.97100 22.12200
H  1.63500 11.36900 23.00100
H  2.99100 8.26500 30.77100
H  1.95300 5.64900 30.42500
H  4.79500 6.72100 30.69300
H  4.73600 5.47500 29.45200
H  4.32300 5.16400 31.16700
H  0.18600 7.23700 30.39800
H  0.54400 8.87800 30.71700
H  -0.05800 7.18600 32.86300
H  0.89900 8.70100 32.95500
H  0.65800 1.37100 26.53800
H  1.58200 1.92500 27.87700
H  2.40700 1.20500 26.50200
H  0.24700 0.39100 22.95000
H  -0.01600 1.04300 24.54800
H  1.64000 0.58500 24.18300
H  -0.07300 7.11000 20.98600
H  1.39700 9.49100 20.80700
H  2.46000 7.97300 19.75300
H  1.49000 6.49900 19.27500
H  2.73400 6.42100 20.49900
H  -0.75200 10.25700 22.38500
H  -1.37800 8.78700 21.63400
H  -1.91600 10.23700 19.81000
H  -0.30100 10.04000 19.41100
H  -0.74500 11.45800 20.47100
H  2.33700 13.22400 23.95000
H  3.21000 13.66800 25.43100
H  1.46100 13.76600 25.44800
H  1.44500 10.98600 29.69100
H  4.89500 10.13400 32.27500
H  4.29300 11.61300 33.13200
H  5.34400 11.76400 31.76500
Mg 16.06100 51.99100 25.90100
C  18.20400 50.75300 28.42000
C  13.62800 52.46500 28.39000
C  14.03900 52.62500 23.49000
C  18.52600 50.94900 23.60500
N  15.93500 51.60500 28.07700
C  16.96700 51.18100 28.90000
C  16.56400 51.49700 30.37000
C  15.04700 51.85000 30.36900
C  14.88600 52.03200 28.84300
C  14.09500 50.67600 30.77900
C  17.39300 52.64100 31.10700
C  17.54800 52.68800 32.66700
H  16.81000 51.53900 33.42100
N  14.12500 52.66400 25.94000
C  13.27200 52.79900 27.01900
C  11.96100 53.28200 26.57500
C  12.02800 53.29100 25.16000
C  13.41400 52.89300 24.76400
C  10.82000 53.60500 27.46400
C  10.90600 53.60000 24.12400
O  11.12400 53.67000 22.93900
C  9.42000 53.88100 24.55300
N  16.30800 51.89300 23.83300
C  15.30200 52.23900 23.06700
C  15.58000 52.20000 21.54700
C  17.14400 51.79400 21.59800
C  17.37800 51.46400 23.04700
C  14.66600 51.21800 20.80200
C  18.08800 52.90300 21.04400
C  19.24700 52.41100 20.18000
N  17.99300 51.09600 25.92800
C  18.91100 50.72200 24.95200
C  20.13000 50.13600 25.52600
C  19.82500 50.15500 26.86200
C  18.54300 50.73700 27.03800
C  21.41000 49.63300 24.87700
C  20.38000 49.83300 28.17400
O  21.45400 49.32200 28.32500
C  19.40000 50.36000 29.21500
C  19.05000 49.18600 30.17600
O  18.51300 48.13400 29.86400
O  19.42800 49.44100 31.46300
C  19.34500 48.32400 32.48600
H  12.83200 52.70000 29.10000
H  13.40900 52.91600 22.64700
H  19.29000 50.63400 22.89000
H  16.70500 50.58600 30.95100
H  14.79900 52.77500 30.88900
H  14.74900 49.80400 30.79800
H  13.24800 50.61800 30.09500
H  13.65400 50.75100 31.77300
H  16.93800 53.56400 30.74800
H  18.39800 52.78800 30.71100
H  17.25100 53.67800 33.01200
H  18.58700 52.42700 32.86900
H  10.48000 54.63700 27.38500
H  11.03000 53.54200 28.53200
H  9.96700 52.94200 27.32100
H  8.87000 52.94800 24.67800
H  8.96000 54.50800 23.79000
H  9.41000 54.55100 25.41300
H  15.56000 53.22800 21.18500
H  17.30700 50.92400 20.96100
H  14.56300 51.60800 19.78900
H  13.66100 51.20300 21.22300
H  14.96700 50.17200 20.84600
H  18.34400 53.67500 21.77000
H  17.54700 53.45800 20.27800
H  19.25100 52.59600 19.10500
H  19.42000 51.34100 20.29200
H  20.18800 52.81100 20.55600
H  21.71800 50.29200 24.06500
H  21.28100 48.65200 24.41900
H  22.22200 49.76400 25.59200
H  19.80200 51.14000 29.86200
H  18.32900 47.93100 32.47000
H  19.48100 48.84600 33.43300
H  20.22200 47.67700 32.50400

