158

Mg 24.11600 -6.84600 45.76900
C  26.44100 -4.54400 44.40900
C  21.83700 -5.86800 43.59900
C  22.58500 -9.84900 46.36600
C  27.10000 -8.29900 47.38500
N  24.20300 -5.40500 44.15300
C  25.20000 -4.51500 43.78200
C  24.76000 -3.53000 42.71100
C  23.21200 -3.78900 42.72500
C  23.05400 -5.10800 43.61600
C  22.15600 -2.70800 43.23400
C  25.48800 -3.91100 41.35500
C  25.86700 -2.77500 40.42100
H  25.60500 -2.97100 38.93800
N  22.39300 -7.62700 45.07400
C  21.52400 -7.05000 44.24400
C  20.41600 -7.88800 43.98700
C  20.54800 -9.07200 44.81000
C  21.90200 -8.91800 45.44200
C  19.27900 -7.57900 43.10900
C  19.58900 -10.31900 44.84500
O  18.56200 -10.25700 44.21400
C  19.73800 -11.60100 45.63800
N  24.72300 -8.71800 46.75200
C  23.86700 -9.79700 46.96300
C  24.43900 -10.83100 47.93800
C  25.88100 -10.39100 48.14300
C  25.94300 -9.02500 47.37300
C  23.63000 -11.22000 49.20300
C  26.94200 -11.48500 47.75800
C  28.05400 -11.73000 48.80100
N  26.32600 -6.52700 45.95700
C  27.36600 -7.11600 46.68900
C  28.68100 -6.43100 46.49500
C  28.32600 -5.35100 45.61000
C  26.89300 -5.47300 45.35100
C  29.99600 -6.84500 47.03500
C  28.89000 -4.28100 44.88400
O  29.99400 -3.82400 44.83900
C  27.74200 -3.68000 43.99600
C  27.50600 -2.21800 44.18000
O  27.55400 -1.32900 43.36000
O  27.37400 -1.89700 45.49600
C  27.17100 -0.43000 45.84700
H  21.13800 -5.52000 42.83700
H  21.90300 -10.62300 46.72400
H  27.94700 -8.76000 47.89800
H  24.88000 -2.46400 42.90100
H  22.79700 -4.16600 41.79000
H  21.56600 -3.05600 44.08200
H  21.55800 -2.53600 42.33900
H  22.62100 -1.76800 43.53200
H  24.78200 -4.52000 40.79000
H  26.35700 -4.54500 41.52700
H  26.93900 -2.59400 40.48800
H  25.32300 -1.89400 40.76100
H  19.09800 -8.38200 42.39500
H  19.41600 -6.63400 42.58400
H  18.50800 -7.48100 43.87300
H  19.59300 -11.42100 46.70300
H  20.77600 -11.85700 45.42600
H  19.07300 -12.41400 45.34600
H  24.34700 -11.72300 47.31900
H  26.05400 -10.14700 49.19100
H  22.98500 -12.07200 48.98600
H  23.05300 -10.36600 49.55800
H  24.24700 -11.58100 50.02500
H  27.51400 -11.08900 46.91800
H  26.43900 -12.36500 47.35700
H  28.25200 -10.77000 49.27800
H  28.97000 -12.05500 48.30900
H  27.73500 -12.49300 49.51100
H  30.05500 -7.92000 46.86500
H  29.89000 -6.71100 48.11200
H  30.83600 -6.26000 46.65900
H  28.01600 -3.84300 42.95400
H  26.09300 -0.27500 45.79700
H  27.64000 0.25000 45.13700
H  27.69100 -0.17200 46.77000
Mg -5.59000 25.73500 26.08000
C  -3.86300 27.13700 28.89300
C  -7.02200 23.54700 28.23000
C  -6.69400 24.22500 23.45500
C  -3.86500 28.05700 24.00100
N  -5.46600 25.38900 28.28900
C  -4.72200 26.04400 29.19900
C  -4.97100 25.51600 30.64500
C  -5.99600 24.35800 30.40900
C  -6.15300 24.45200 28.88900
C  -5.56200 23.02500 30.95800
C  -5.53400 26.60300 31.60500
C  -6.73300 26.28800 32.55300
H  -6.51400 25.05000 33.51700
N  -6.78000 24.15700 25.87800
C  -7.33200 23.36100 26.86900
C  -8.22200 22.36300 26.27900
C  -8.17300 22.59600 24.84600
C  -7.19900 23.70600 24.68900
C  -9.09300 21.43500 27.14600
C  -8.91200 21.89600 23.81700
O  -8.72900 22.04500 22.60700
C  -10.06600 21.02100 24.17400
N  -5.44900 26.14900 24.08400
C  -5.96800 25.32800 23.18300
C  -5.42400 25.67100 21.78100
C  -4.85000 27.07000 21.92200
C  -4.71800 27.09500 23.43000
C  -4.49600 24.52800 21.21900
C  -5.92300 28.16400 21.44400
C  -5.54700 28.95500 20.17400
N  -4.06600 27.20200 26.36200
C  -3.51800 28.09200 25.43000
C  -2.76800 29.09800 26.14800
C  -2.87800 28.79600 27.49000
C  -3.59000 27.59000 27.59200
C  -2.21800 30.32200 25.41900
C  -2.51400 29.17100 28.83200
O  -1.95500 30.12800 29.17700
C  -3.09300 28.07000 29.83500
C  -1.90800 27.55600 30.57000
O  -0.93100 26.96200 30.05900
O  -2.11800 27.74400 31.95900
C  -0.96000 27.37600 32.77400
H  -7.50700 22.87300 28.94000
H  -7.03200 23.67500 22.57500
H  -3.44000 28.78600 23.30800
H  -4.00300 25.12200 30.95500
H  -6.97400 24.55600 30.84900
H  -4.76200 22.62900 30.33200
H  -6.37500 22.35100 31.22500
H  -5.01500 23.08100 31.89900
H  -5.77300 27.51800 31.06300
H  -4.62100 26.75000 32.18100
H  -7.58300 26.15400 31.88400
H  -6.84500 27.19200 33.15100
H  -8.90000 20.37800 26.96600
H  -10.10400 21.76100 26.89900
H  -9.07300 21.59100 28.22500
H  -10.37000 20.40200 23.33000
H  -10.95100 21.58100 24.47600
H  -9.76800 20.23400 24.86700
H  -6.24500 25.62300 21.06700
H  -3.88800 27.06500 21.40900
H  -3.53800 24.93500 20.89700
H  -4.87500 23.94000 20.38300
H  -4.30800 23.80100 22.00900
H  -6.15500 28.92400 22.19100
H  -6.89900 27.77400 21.15500
H  -4.53700 28.67600 19.87400
H  -5.42600 30.00700 20.43300
H  -6.33600 28.88000 19.42500
H  -1.35600 30.06100 24.80500
H  -2.02100 31.13700 26.11500
H  -2.95200 30.64100 24.67900
H  -3.83500 28.64200 30.39100
H  -1.18800 27.52300 33.82900
H  -0.15600 28.05400 32.48700
H  -0.67200 26.35400 32.52500

