158

Mg 1.19900 42.42300 25.70800
C  1.91200 42.74100 29.15600
C  -1.99300 41.26100 26.59100
C  0.66900 41.84500 22.49300
C  4.39500 43.77400 24.97900
N  -0.01000 42.15100 27.69600
C  0.57100 42.26200 28.99400
C  -0.49500 41.92900 30.05200
C  -1.65200 41.26100 29.15700
C  -1.22300 41.55900 27.74300
C  -1.92600 39.80300 29.50000
C  -1.02900 43.24600 30.76100
C  -1.09800 43.11900 32.32500
H  -1.42600 41.80800 33.06700
N  -0.43000 41.73100 24.69300
C  -1.68300 41.27400 25.17000
C  -2.49100 40.86800 24.07900
C  -1.74200 41.10300 22.88700
C  -0.51900 41.61000 23.28600
C  -3.94900 40.58800 24.19000
C  -2.21500 40.78700 21.47700
O  -1.56700 41.10100 20.53000
C  -3.39100 39.92500 21.20800
N  2.42100 42.83400 24.00600
C  1.93900 42.37500 22.83100
C  2.98100 42.61600 21.75500
C  3.98300 43.67500 22.38300
C  3.62700 43.43700 23.90000
C  3.75700 41.40700 21.34300
C  3.69700 45.15700 21.96700
C  4.16700 45.59800 20.59700
N  2.85700 42.94400 26.78700
C  4.13300 43.44200 26.36100
C  4.96500 43.66200 27.51700
C  4.11600 43.46200 28.61400
C  2.85600 42.96100 28.13200
C  6.42200 44.25200 27.44600
C  3.96900 43.58100 30.03400
O  4.64800 44.07900 30.89100
C  2.64100 42.87800 30.42200
C  2.82600 41.58100 30.97900
O  3.38800 40.63900 30.44000
O  2.13600 41.46800 32.12600
C  2.39100 40.24000 32.86800
H  -2.92900 40.76900 26.86300
H  0.60400 41.79400 21.40400
H  5.26900 44.40700 24.81500
H  -0.01000 41.32200 30.81600
H  -2.57400 41.77400 29.43000
H  -1.76500 39.14700 28.64400
H  -2.92300 39.58500 29.88100
H  -1.21200 39.45100 30.24500
H  -2.08500 43.41200 30.54500
H  -0.50300 44.14300 30.43400
H  -1.78600 43.83700 32.77200
H  -0.08000 43.38300 32.61000
H  -4.34600 40.75700 25.19100
H  -4.13800 39.55900 23.88500
H  -4.44300 41.27300 23.50100
H  -3.31600 39.55500 20.18600
H  -4.28300 40.50100 21.45300
H  -3.37400 39.05600 21.86600
H  2.44100 42.97800 20.88000
H  5.04100 43.43700 22.27600
H  3.73500 40.73500 22.20200
H  4.73400 41.63100 20.91600
H  3.21900 40.98500 20.49400
H  4.28500 45.82700 22.59300
H  2.63100 45.37500 22.04100
H  3.26600 45.66500 19.98700
H  4.93200 45.01000 20.09000
H  4.56400 46.60400 20.73600
H  7.11000 43.61400 27.99900
H  6.43800 45.29400 27.76600
H  6.77200 44.11800 26.42300
H  2.12200 43.55400 31.10100
H  1.69000 39.43400 32.65100
H  2.28500 40.45300 33.93200
H  3.42500 39.89900 32.82300
Mg -11.62000 16.49900 42.61600
C  -8.45100 15.08300 41.79800
C  -10.38600 19.51400 41.20400
C  -14.71600 17.54700 42.35500
C  -12.79800 13.23000 43.10100
N  -9.60200 17.20300 41.62300
C  -8.48000 16.45500 41.48400
C  -7.26300 17.36300 41.07000
C  -7.93700 18.75000 40.88700
C  -9.43600 18.47700 41.24200
C  -7.33900 19.96900 41.69000
C  -6.61800 16.78800 39.78600
C  -5.16800 16.51100 39.82800
H  -4.59100 15.39100 38.86300
N  -12.40000 18.34200 42.08600
C  -11.75800 19.48400 41.56300
C  -12.72800 20.53700 41.47400
C  -13.97400 20.00400 41.84900
C  -13.71500 18.59200 42.15600
C  -12.28800 21.90800 41.02900
C  -15.25500 20.71600 41.80600
O  -15.27200 21.96600 41.66000
C  -16.62200 20.09100 42.07300
N  -13.42900 15.44400 42.50100
C  -14.61300 16.14200 42.52400
C  -15.88500 15.23800 42.51500
C  -15.22600 13.88100 42.99400
C  -13.71100 14.20100 42.83200
C  -17.09500 15.78000 43.39300
C  -15.61300 12.60000 42.14900
C  -16.08300 11.42700 43.08500
N  -10.82100 14.58700 42.57800
C  -11.43100 13.36900 42.84800
C  -10.44100 12.39600 42.92400
C  -9.21600 13.04700 42.54900
C  -9.55400 14.37900 42.21700
C  -10.67600 11.04700 43.36600
C  -7.81600 12.81400 42.35800
O  -7.22300 11.78200 42.46600
C  -7.23800 14.15600 41.88600
C  -6.36100 14.59100 42.96700
O  -6.71800 14.92900 44.04600
O  -5.05000 14.53200 42.57100
C  -4.08800 15.01300 43.63100
H  -10.05400 20.51500 40.92200
H  -15.75400 17.88400 42.32000
H  -13.11400 12.24000 43.43600
H  -6.57900 17.47900 41.91000
H  -7.87900 19.06700 39.84600
H  -7.28700 20.86600 41.07300
H  -6.34900 19.71200 42.06500
H  -7.96100 20.30100 42.52200
H  -6.81300 17.57200 39.05500
H  -7.18700 15.99800 39.29700
H  -4.88100 16.13500 40.81100
H  -4.63200 17.43900 39.63100
H  -12.33800 22.02500 39.94600
H  -11.26300 22.21700 41.23200
H  -12.93700 22.67200 41.45800
H  -16.64500 19.76900 43.11400
H  -16.70600 19.36300 41.26600
H  -17.36800 20.88500 42.06400
H  -16.13000 15.06000 41.46800
H  -15.46000 13.66400 44.03600
H  -16.87500 16.78000 43.76800
H  -17.28000 15.24700 44.32600
H  -18.03000 15.85600 42.83700
H  -14.81500 12.32500 41.45900
H  -16.48000 12.83700 41.53300
H  -16.49200 11.71700 44.05300
H  -15.31200 10.69700 43.33400
H  -16.93100 10.93300 42.61200
H  -9.83800 10.42000 43.67100
H  -11.24800 10.54200 42.58700
H  -11.32100 11.02900 44.24400
H  -6.69800 13.94700 40.96200
H  -4.46000 14.86000 44.64400
H  -4.01600 16.09200 43.49600
H  -3.12500 14.51900 43.50700

