158

Mg 44.28700 5.37600 46.58800
C  42.29700 8.18700 46.49600
C  41.20700 3.49700 46.06100
C  45.98200 2.48700 46.47300
C  47.18100 7.24100 46.50100
N  42.00000 5.75400 46.42700
C  41.47300 7.03100 46.32300
C  39.95900 7.01700 46.08700
C  39.63000 5.47500 45.97000
C  40.98900 4.85500 46.24000
C  38.37500 5.09300 46.80900
C  39.32100 7.73300 44.77900
C  40.30100 7.81300 43.56900
H  39.92000 7.06500 42.26400
N  43.67100 3.31800 46.16000
C  42.39000 2.78400 46.03900
C  42.58000 1.35000 45.78900
C  43.98600 1.02400 45.85900
C  44.61200 2.28400 46.21800
C  41.53000 0.39800 45.47000
C  44.66200 -0.29700 45.65200
O  43.91600 -1.17200 45.24300
C  46.19100 -0.62300 45.78100
N  46.18500 5.00200 46.22400
C  46.66000 3.73700 46.51100
C  48.15000 3.61500 46.92800
C  48.64800 5.09800 46.63300
C  47.29700 5.84400 46.44600
C  48.28200 3.24800 48.43700
C  49.48300 5.19100 45.34800
C  50.98900 5.21300 45.56100
N  44.67400 7.30900 46.58800
C  45.91600 7.97100 46.44400
C  45.59500 9.37800 46.52900
C  44.24100 9.50800 46.58700
C  43.69600 8.24400 46.56400
C  46.64900 10.51900 46.50800
C  43.11300 10.49000 46.66700
O  43.11400 11.72200 46.80800
C  41.88500 9.62200 46.60700
C  41.04900 9.82900 47.77800
O  41.02800 9.13400 48.76800
O  40.21800 10.84900 47.49500
C  39.14000 10.84000 48.45700
H  40.41600 2.86000 45.66000
H  46.63200 1.61400 46.55900
H  48.11600 7.78500 46.64800
H  39.47400 7.35500 47.00300
H  39.55400 5.11200 44.94500
H  37.62200 5.87500 46.89800
H  38.72700 4.95700 47.83200
H  37.94200 4.17500 46.41100
H  39.10100 8.76800 45.04200
H  38.38700 7.24100 44.50700
H  41.35300 7.64500 43.79800
H  40.38900 8.85100 43.24800
H  41.61200 -0.20100 44.56400
H  40.54100 0.81900 45.29200
H  41.38700 -0.33500 46.26400
H  46.54700 -0.30400 46.76100
H  46.66500 0.03900 45.05700
H  46.49500 -1.66700 45.70500
H  48.59100 2.95900 46.17700
H  49.14100 5.48100 47.52600
H  47.35000 2.75500 48.71500
H  48.45000 4.09900 49.09600
H  49.05100 2.48100 48.53000
H  49.21600 6.13800 44.87900
H  49.22100 4.38500 44.66300
H  51.25400 5.01700 46.60000
H  51.33200 6.18300 45.20000
H  51.41800 4.49100 44.86700
H  46.87500 10.81500 45.48300
H  47.59300 10.13800 46.90000
H  46.16000 11.39000 46.94300
H  41.22900 9.85700 45.76900
H  38.54700 11.67100 48.07600
H  39.27600 11.31300 49.43000
H  38.48800 9.98000 48.60600
Mg -11.88200 37.42300 41.49700
C  -9.29300 35.23800 41.09600
C  -9.73100 39.97000 40.29900
C  -14.47300 39.48300 41.35700
C  -13.86000 34.75400 42.53000
N  -9.72500 37.59200 40.76500
C  -8.92500 36.51700 40.63200
C  -7.64300 36.80900 39.76100
C  -7.72300 38.46300 39.77600
C  -9.11900 38.72400 40.30000
C  -6.67600 39.18000 40.69800
C  -7.68600 36.18500 38.37100
C  -6.41700 35.44500 37.93400
H  -5.45500 36.14000 37.05100
N  -12.08800 39.46400 40.91900
C  -11.08000 40.32400 40.55000
C  -11.68100 41.63600 40.34300
C  -13.08400 41.52900 40.70300
C  -13.27700 40.17600 41.09500
C  -10.94800 42.87200 39.83100
C  -14.09400 42.69000 40.60100
O  -13.77300 43.83200 40.26500
C  -15.59500 42.50700 40.89700
N  -13.90400 37.15100 41.69900
C  -14.82500 38.19900 41.67000
C  -16.26800 37.65700 42.02500
C  -15.97100 36.21500 42.48900
C  -14.49200 35.97100 42.16700
C  -17.11400 38.52300 43.04400
C  -16.93200 35.07000 41.93300
C  -17.58800 34.16500 43.02800
N  -11.59800 35.43700 41.88700
C  -12.47700 34.46900 42.35500
C  -11.72000 33.24100 42.61200
C  -10.46000 33.45800 42.07500
C  -10.46800 34.83700 41.55900
C  -12.09900 32.06500 43.30800
C  -9.20900 32.90700 41.89100
O  -8.76400 31.90300 42.35600
C  -8.38900 33.91600 41.08400
C  -7.05100 34.00900 41.76900
O  -6.07100 33.31700 41.49100
O  -7.13600 34.93300 42.77600
C  -5.94400 35.11500 43.57100
H  -9.06500 40.78600 40.00800
H  -15.37100 40.09500 41.46100
H  -14.53800 33.94600 42.81200
H  -6.71400 36.48200 40.22700
H  -7.70600 38.72000 38.71700
H  -5.89900 39.52500 40.01500
H  -6.18000 38.63200 41.49900
H  -7.11700 39.99700 41.26900
H  -7.94000 36.97400 37.66400
H  -8.55500 35.53900 38.25000
H  -6.88200 34.61100 37.40800
H  -5.89700 35.01100 38.78800
H  -11.28300 43.79800 40.30000
H  -11.35300 43.06700 38.83800
H  -9.86800 42.78200 39.71800
H  -15.76900 41.94200 41.81200
H  -15.95900 41.96700 40.02300
H  -16.11000 43.46700 40.93800
H  -16.86500 37.59500 41.11500
H  -16.13300 36.27900 43.56500
H  -17.57800 39.29000 42.42400
H  -16.45800 39.05100 43.73600
H  -17.94700 37.95200 43.45400
H  -16.43100 34.35400 41.28100
H  -17.70200 35.45500 41.26400
H  -17.38500 33.12300 42.78000
H  -18.65700 34.37000 42.96800
H  -17.24500 34.40700 44.03400
H  -12.87500 31.52500 42.76400
H  -12.57600 32.42900 44.21800
H  -11.27900 31.36200 43.45600
H  -8.25200 33.75200 40.01500
H  -5.08900 34.47500 43.35500
H  -6.28400 34.97800 44.59800
H  -5.57400 36.12600 43.39900

