158

Mg 24.92400 -5.83500 46.30400
C  26.33800 -2.85700 44.85800
C  22.16700 -5.30000 44.30100
C  24.00600 -8.85300 47.09600
C  27.98800 -6.26700 47.89600
N  24.37500 -4.22500 44.67600
C  25.06300 -3.15300 44.32600
C  24.37700 -2.45000 43.23600
C  22.90600 -3.03500 43.31200
C  23.11700 -4.24400 44.14300
C  21.86500 -2.03800 43.97500
C  25.07700 -2.73900 41.86400
C  25.21000 -1.54600 40.97000
H  24.99000 -1.65100 39.44200
N  23.25600 -6.86700 45.90600
C  22.25000 -6.50200 45.02300
C  21.25400 -7.55200 44.96500
C  21.76300 -8.63800 45.69200
C  23.11400 -8.21400 46.18700
C  19.86100 -7.50500 44.19100
C  21.09100 -9.99500 45.94500
O  19.96200 -10.04300 45.62100
C  21.93500 -11.23400 46.44600
N  25.89000 -7.26800 47.33200
C  25.22200 -8.40600 47.55100
C  26.07500 -9.23500 48.61700
C  27.34800 -8.39100 48.83200
C  27.07900 -7.24800 47.96800
C  25.32700 -9.78900 49.89400
C  28.64900 -9.20700 48.49400
C  29.61200 -9.38200 49.65900
N  26.78800 -4.70400 46.43100
C  27.93400 -5.03800 47.15100
C  28.95500 -4.05400 47.00500
C  28.32900 -3.17100 46.02800
C  27.05700 -3.64300 45.72300
C  30.30600 -3.99800 47.66600
C  28.65400 -1.94700 45.31800
O  29.61300 -1.18300 45.33100
C  27.28900 -1.69100 44.50700
C  26.76000 -0.27600 44.89000
O  25.54700 -0.04700 45.17800
O  27.77500 0.72000 44.85500
C  27.32800 2.07200 45.32700
H  21.29300 -5.24100 43.64900
H  23.67500 -9.81400 47.49500
H  28.87300 -6.28600 48.53500
H  24.38900 -1.37100 43.39500
H  22.66400 -3.32200 42.28900
H  21.61200 -1.30900 43.20500
H  22.34500 -1.49400 44.78800
H  21.05100 -2.69100 44.28700
H  24.54900 -3.57300 41.40100
H  26.07600 -3.13900 42.03400
H  26.29000 -1.40200 40.99600
H  24.63400 -0.67600 41.28500
H  18.98700 -7.80100 44.77100
H  19.92300 -8.19300 43.34700
H  19.67300 -6.58000 43.64500
H  21.36600 -12.10500 46.12000
H  21.94700 -11.21200 47.53500
H  22.86500 -11.28800 45.88000
H  26.29200 -10.07300 47.95500
H  27.50800 -8.09100 49.86800
H  25.53000 -10.79800 50.25300
H  24.25800 -9.67900 49.71300
H  25.43300 -9.14800 50.77000
H  29.12000 -8.77800 47.60900
H  28.45800 -10.22500 48.15400
H  29.96700 -10.41300 49.64900
H  29.19100 -9.20400 50.64900
H  30.43200 -8.68000 49.50900
H  30.27100 -3.28000 48.48500
H  31.07100 -3.51800 47.05600
H  30.58900 -4.99700 48.00000
H  27.48800 -1.58100 43.44100
H  27.23300 2.21600 46.40300
H  26.35900 2.41100 44.96000
H  27.98900 2.81800 44.88400
Mg 53.47200 24.64000 44.54500
C  50.69400 26.78700 44.16900
C  51.38800 22.01800 44.23300
C  56.22900 22.78000 43.98200
C  55.54200 27.41400 44.86000
N  51.27700 24.48600 44.10500
C  50.30700 25.44900 44.07400
C  48.90600 24.95400 44.09700
C  49.20100 23.47300 44.63600
C  50.70200 23.26300 44.31400
C  48.96800 23.09000 46.08800
C  48.12300 25.01500 42.79800
C  48.59700 24.14700 41.56900
H  49.64200 24.66500 40.59900
N  53.76500 22.70700 44.14600
C  52.79500 21.77500 44.13100
C  53.42900 20.49800 44.05900
C  54.80800 20.61400 44.01500
C  54.99500 22.08400 44.04700
C  52.69400 19.18400 44.08400
C  55.89700 19.52200 44.15600
O  55.59300 18.33600 43.95900
C  57.40800 19.75000 44.35300
N  55.66700 25.11400 44.15800
C  56.53800 24.10100 44.06100
C  58.01200 24.57700 43.97000
C  57.74800 26.06900 44.40700
C  56.23600 26.24800 44.52100
C  59.17600 23.93500 44.74300
C  58.34500 27.13000 43.48600
C  59.37800 28.09200 44.07100
N  53.20800 26.69900 44.52700
C  54.14700 27.71400 44.76000
C  53.52600 28.97300 44.79100
C  52.14300 28.65100 44.55800
C  51.94300 27.28400 44.43800
C  54.17500 30.27300 44.92900
C  50.85300 29.29100 44.42700
O  50.53500 30.48500 44.50200
C  49.85200 28.09000 44.11700
C  49.16800 28.45100 42.82300
O  49.67700 28.52900 41.72700
O  47.81600 28.68400 43.03100
C  47.01100 28.77500 41.79300
H  50.90500 21.05100 44.38300
H  57.02600 22.13600 43.60300
H  56.25900 28.18200 45.16000
H  48.44700 25.57000 44.87000
H  48.53000 22.85600 44.03900
H  48.37300 23.86300 46.57200
H  49.79300 22.87000 46.76600
H  48.36500 22.18200 46.06200
H  48.23700 26.05200 42.48300
H  47.06100 24.78000 42.87000
H  47.74800 23.69600 41.05500
H  49.03400 23.28700 42.07500
H  52.15000 18.93000 43.17500
H  51.90700 19.24700 44.83600
H  53.32800 18.32000 44.28300
H  57.86200 19.84200 43.36600
H  57.97600 18.95900 44.84200
H  57.50400 20.63800 44.97800
H  58.38000 24.51500 42.94600
H  58.06200 26.33400 45.41600
H  59.94300 23.54100 44.07700
H  58.75900 23.04000 45.20400
H  59.70200 24.59600 45.43100
H  57.50800 27.62600 42.99400
H  58.94100 26.57800 42.76000
H  60.37400 28.04700 43.63000
H  59.54100 27.88600 45.12900
H  59.00400 29.10700 43.93500
H  54.69000 30.59700 44.02400
H  54.93500 30.17400 45.70400
H  53.55200 31.10700 45.25200
H  49.06500 28.11100 44.87100
H  46.66700 29.79300 41.60900
H  46.12400 28.20400 42.06800
H  47.37000 28.31900 40.87100

