158

Mg 8.98700 3.97900 27.99400
C  10.34200 2.22200 30.67800
C  7.13700 5.80700 30.18200
C  7.67700 5.37700 25.33600
C  10.51400 1.46700 25.87900
N  8.75000 3.98500 30.20800
C  9.44600 3.22600 31.10600
C  9.18800 3.73100 32.57700
C  7.98700 4.78900 32.35800
C  8.02100 4.98700 30.82500
C  6.62900 4.23100 32.85500
C  10.50000 4.25800 33.39100
C  10.76600 3.71900 34.74400
H  11.10200 4.77500 35.82400
N  7.74800 5.43300 27.79900
C  7.04900 6.00200 28.81100
C  6.28100 7.11400 28.22100
C  6.58500 7.17000 26.79800
C  7.35300 5.89600 26.54200
C  5.51900 8.18100 28.98500
C  6.28700 8.21700 25.77700
O  6.71900 8.15900 24.63300
C  5.39500 9.46000 26.14900
N  8.97200 3.39300 25.90900
C  8.40800 4.21900 25.00200
C  8.68400 3.77500 23.55200
C  9.63000 2.54200 23.69400
C  9.72100 2.39900 25.24100
C  7.38700 3.54700 22.71000
C  10.99200 2.57100 22.99700
C  11.44200 1.29400 22.27100
N  10.15700 2.21000 28.15000
C  10.72900 1.31000 27.28100
C  11.37900 0.21500 27.96000
C  11.35900 0.55600 29.31800
C  10.64400 1.73500 29.36800
C  12.13000 -0.98000 27.32500
C  11.87300 0.18500 30.63500
O  12.62700 -0.74700 30.95300
C  11.17400 1.21700 31.58600
C  10.39000 0.38800 32.48700
O  9.27700 -0.07300 32.20500
O  11.04900 0.30400 33.68000
C  10.36900 -0.35300 34.76900
H  6.41800 6.32000 30.82400
H  7.33300 5.85400 24.41600
H  10.91800 0.68900 25.22900
H  8.76900 2.92800 33.18400
H  8.09000 5.72800 32.90300
H  6.48600 4.70600 33.82600
H  6.64600 3.15000 32.98800
H  5.76300 4.52900 32.26400
H  10.38000 5.33700 33.48900
H  11.41500 3.94800 32.88800
H  11.67700 3.13700 34.61200
H  9.96000 3.11900 35.16700
H  4.63800 8.38900 28.37800
H  6.04300 9.12900 29.11100
H  5.08200 7.93600 29.95400
H  4.37500 9.20500 26.43600
H  5.28500 9.98800 25.20200
H  5.83600 10.12500 26.89200
H  9.17900 4.65000 23.13100
H  9.00800 1.71600 23.34900
H  6.59100 4.13800 23.16400
H  7.11100 2.53100 22.42500
H  7.68300 4.04700 21.78800
H  11.77300 2.90200 23.68100
H  10.91800 3.30200 22.19200
H  12.12300 1.50600 21.44700
H  10.55700 0.76900 21.91100
H  11.85500 0.65900 23.05400
H  12.13200 -1.83100 28.00600
H  13.04800 -0.65500 26.83500
H  11.48600 -1.34600 26.52600
H  12.01800 1.70600 32.07300
H  11.01800 -0.85900 35.48400
H  9.62600 -1.08900 34.46200
H  9.90600 0.42800 35.37200
Mg -11.66300 38.29800 42.26000
C  -9.43600 35.76800 41.18700
C  -9.74300 40.47800 40.76300
C  -14.30500 40.28300 42.41100
C  -13.69100 35.64500 43.73100
N  -9.90500 38.05000 40.91300
C  -9.14100 36.99800 40.64000
C  -7.93200 37.34100 39.72200
C  -7.90000 38.91000 39.88400
C  -9.24100 39.21700 40.59300
C  -6.69900 39.36100 40.78200
C  -8.11400 36.73100 38.24200
C  -6.96700 35.76300 37.76300
H  -5.88600 36.37000 36.76100
N  -11.96500 40.19300 41.72600
C  -10.96500 40.94500 41.24000
C  -11.47900 42.28400 40.97600
C  -12.88900 42.27800 41.27700
C  -13.15300 40.86100 41.81500
C  -10.66100 43.42300 40.53700
C  -13.82800 43.37200 41.13100
O  -13.44900 44.46600 40.77300
C  -15.26500 43.28600 41.50600
N  -13.86100 37.93700 42.84300
C  -14.66200 38.99300 42.85700
C  -16.02000 38.63200 43.62600
C  -15.83500 37.15700 44.02200
C  -14.39500 36.88500 43.57100
C  -16.37200 39.59200 44.84200
C  -16.91500 36.12900 43.54800
C  -17.22600 34.94200 44.48300
N  -11.62900 36.13300 42.42200
C  -12.39300 35.26400 43.19700
C  -11.77300 33.95200 43.19100
C  -10.60500 34.13900 42.37400
C  -10.55700 35.41300 41.97300
C  -12.16500 32.61600 43.95400
C  -9.45100 33.45600 41.83700
O  -9.09300 32.26300 42.06100
C  -8.65700 34.47400 40.98400
C  -7.25500 34.58800 41.50300
O  -6.80000 35.47800 42.19000
O  -6.56400 33.46700 40.98800
C  -5.12000 33.73900 40.98600
H  -9.07300 41.19400 40.28300
H  -15.12600 40.98800 42.55500
H  -14.27000 34.93100 44.31900
H  -7.03600 36.94200 40.19700
H  -7.83100 39.44500 38.93700
H  -6.29300 40.35400 40.59400
H  -5.85800 38.68200 40.64000
H  -7.03100 39.25500 41.81500
H  -8.03300 37.62000 37.61800
H  -9.09000 36.24700 38.20000
H  -7.36500 34.84700 37.32600
H  -6.42300 35.45900 38.65700
H  -9.61000 43.15600 40.42500
H  -10.81900 44.28000 41.19200
H  -11.00100 43.75500 39.55600
H  -15.73800 42.37500 41.14000
H  -15.80100 44.11600 41.04500
H  -15.34300 43.42100 42.58500
H  -16.79700 38.77600 42.87500
H  -15.76800 37.05100 45.10500
H  -15.39700 39.96400 45.15400
H  -16.91700 38.96000 45.54400
H  -17.03200 40.38900 44.50000
H  -16.53600 35.61700 42.66400
H  -17.85700 36.65800 43.40400
H  -17.02800 34.07200 43.85900
H  -18.26500 34.96800 44.81100
H  -16.66100 34.90700 45.41500
H  -12.93600 32.94000 44.65300
H  -11.30100 32.26800 44.52000
H  -12.53400 31.87900 43.24000
H  -8.67900 34.19800 39.93000
H  -4.80400 34.10200 40.00700
H  -4.59400 32.82000 41.24600
H  -4.86000 34.52900 41.69000

