158

Mg 16.60800 -1.36300 28.57300
C  15.37500 0.71700 30.97000
C  18.63500 -2.96200 30.99100
C  17.92000 -3.25700 26.09600
C  14.49300 0.16700 26.17900
N  16.84700 -1.27800 30.78700
C  16.22300 -0.28600 31.53700
C  16.59800 -0.40100 33.02000
C  17.79300 -1.32500 32.95900
C  17.78100 -1.91900 31.48600
C  19.18900 -0.81700 33.46100
C  15.38500 -0.93200 33.81000
C  15.21700 -0.32600 35.21500
H  16.41300 0.41900 35.89000
N  18.07100 -2.77200 28.52000
C  18.72000 -3.37700 29.66400
C  19.48400 -4.51700 29.23100
C  19.22100 -4.71200 27.79800
C  18.40100 -3.53600 27.40600
C  20.24300 -5.50700 30.12100
C  19.69500 -5.80800 26.77900
O  19.31100 -5.92600 25.62800
C  20.43400 -7.04300 27.36200
N  16.35000 -1.39200 26.42000
C  16.99800 -2.27300 25.63400
C  16.59400 -2.31000 24.14100
C  15.42400 -1.20600 24.18500
C  15.39000 -0.77800 25.66900
C  17.77800 -1.93200 23.10500
C  14.05300 -1.45700 23.49900
C  13.93200 -1.08400 22.04100
N  15.16700 0.17300 28.51000
C  14.41500 0.66800 27.49200
C  13.64400 1.79600 28.00200
C  13.97400 1.83300 29.34700
C  14.92300 0.84500 29.66900
C  12.86100 2.73600 27.10000
C  13.71300 2.56400 30.60700
O  12.97500 3.46900 30.91400
C  14.63900 1.83500 31.71600
C  15.58800 2.86200 32.28200
O  16.82800 2.84400 32.19900
O  14.86900 3.66900 33.12600
C  15.72100 4.57100 33.95500
H  19.28100 -3.56500 31.63300
H  18.39800 -3.89900 25.35400
H  13.86000 0.70700 25.47100
H  16.87200 0.60800 33.32900
H  17.69700 -2.14600 33.67000
H  19.12000 0.21200 33.81600
H  19.80900 -0.82700 32.56500
H  19.71400 -1.38800 34.22700
H  15.34300 -2.01600 33.91500
H  14.51000 -0.67800 33.21200
H  14.93100 -1.12900 35.89500
H  14.38900 0.37800 35.14100
H  20.60700 -4.90900 30.95700
H  21.18600 -5.71400 29.61600
H  19.58400 -6.33700 30.37600
H  19.84100 -7.36700 28.21700
H  21.47200 -6.76100 27.53800
H  20.39300 -7.88600 26.67200
H  16.21900 -3.29700 23.87000
H  15.73400 -0.27000 23.72000
H  17.54800 -1.07600 22.47000
H  17.98000 -2.84600 22.54600
H  18.65300 -1.78500 23.73800
H  13.30100 -0.94300 24.09800
H  13.82900 -2.51100 23.66100
H  14.84900 -0.78400 21.53300
H  13.19300 -0.29100 21.92700
H  13.57500 -2.01300 21.59600
H  12.25400 2.14600 26.41300
H  13.57600 3.24600 26.45400
H  12.10100 3.36300 27.56800
H  13.94200 1.59200 32.51800
H  16.43100 5.11700 33.33400
H  16.32400 4.03500 34.68900
H  14.97000 5.25100 34.35800
Mg 48.07500 25.15700 29.18700
C  49.00400 27.47000 31.66100
C  46.90200 23.02800 31.68100
C  47.03200 23.14600 26.81300
C  49.32700 27.38500 26.87400
N  47.99200 25.33700 31.43400
C  48.40900 26.29300 32.25100
C  47.97800 26.10700 33.73800
C  47.51600 24.56000 33.72900
C  47.48600 24.29600 32.19500
C  48.57000 23.60300 34.38600
C  46.83900 27.13200 34.08800
C  47.03800 27.99200 35.30500
H  46.22300 27.83100 36.50100
N  47.21400 23.26500 29.20500
C  46.73600 22.58200 30.33000
C  46.17300 21.34400 29.94000
C  46.08200 21.35500 28.53500
C  46.81800 22.58300 28.08400
C  45.81200 20.14500 30.84300
C  45.47100 20.40200 27.55100
O  45.57000 20.57500 26.35200
C  44.77800 19.17900 27.95100
N  48.35300 25.15400 27.12300
C  47.65300 24.27800 26.33200
C  47.73800 24.72800 24.81300
C  48.29500 26.14900 24.93400
C  48.73100 26.23800 26.40300
C  48.68000 23.83900 23.95800
C  47.16300 27.24100 24.58100
C  47.55300 28.31800 23.48600
N  49.03500 27.00900 29.26400
C  49.51900 27.73800 28.20900
C  50.06900 28.99300 28.64200
C  50.00000 28.92600 30.10300
C  49.34000 27.70100 30.38400
C  50.73200 30.04400 27.78000
C  50.27400 29.58500 31.32700
O  50.95000 30.60600 31.53700
C  49.54200 28.59200 32.39700
C  50.64500 28.21600 33.30200
O  51.44600 27.27300 33.16800
O  50.70100 29.11600 34.39800
C  51.59500 28.76400 35.51600
H  46.34100 22.41900 32.39200
H  46.32600 22.69700 26.11000
H  49.52200 28.02000 26.00700
H  48.92600 26.14500 34.27300
H  46.49600 24.44200 34.09500
H  48.75500 22.81200 33.65900
H  48.01400 23.23000 35.24600
H  49.52200 24.08600 34.60600
H  45.97900 26.48300 34.25500
H  46.64900 27.61700 33.13100
H  47.07200 29.02100 34.94800
H  48.07400 27.79300 35.58200
H  46.19800 20.29600 31.85200
H  46.19900 19.22800 30.39900
H  44.73600 20.06600 31.00000
H  44.10300 19.56800 28.71300
H  45.41900 18.36700 28.29700
H  44.14400 18.78100 27.15900
H  46.79000 24.69500 24.27500
H  49.18800 26.31500 24.33200
H  48.47900 24.01800 22.90100
H  48.53200 22.79900 24.24900
H  49.70900 24.16000 24.12300
H  46.77800 27.66700 25.50700
H  46.24100 26.78500 24.22100
H  48.52100 28.12900 23.02200
H  47.63800 29.27700 23.99500
H  46.81600 28.42300 22.68900
H  50.08200 30.19300 26.91800
H  51.74200 29.85500 27.41600
H  50.65300 31.00200 28.29300
H  48.69300 28.95800 32.97500
H  51.00700 28.19700 36.23700
H  51.90000 29.77000 35.80400
H  52.41800 28.13800 35.17200

