158

Mg 1.12600 7.78400 26.10500
C  1.78500 9.76700 28.79500
C  1.41800 4.99400 28.18500
C  0.49500 5.91300 23.36700
C  1.56800 10.68100 23.92500
N  1.52400 7.46500 28.25200
C  1.76800 8.45100 29.18200
C  1.90600 7.87400 30.60200
C  1.97000 6.31900 30.32900
C  1.59200 6.23400 28.82500
C  3.24200 5.52500 30.69500
C  0.76300 8.27300 31.50400
C  1.06000 8.25400 32.99900
H  2.20200 7.41200 33.59100
N  0.90600 5.71600 25.80200
C  1.23200 4.76500 26.77500
C  0.87500 3.47700 26.16800
C  0.53400 3.71700 24.78900
C  0.68100 5.16000 24.58800
C  1.08400 2.13900 26.87700
C  -0.03900 2.85800 23.76800
O  -0.42800 3.19200 22.63900
C  -0.08900 1.37800 24.12500
N  0.99700 8.26600 23.96500
C  0.61800 7.25600 23.07400
C  0.27300 7.87200 21.65400
C  0.89700 9.35700 21.82000
C  1.19200 9.43700 23.29100
C  0.94900 7.14300 20.49600
C  0.00100 10.46200 21.18300
C  -1.19200 10.80900 22.02900
N  1.62600 9.79500 26.24700
C  1.73200 10.77600 25.26100
C  2.17500 11.98400 25.92900
C  2.15700 11.74600 27.34000
C  1.75100 10.35100 27.46000
C  2.64100 13.22900 25.21600
C  2.34500 12.22100 28.72000
O  2.70700 13.30800 29.06800
C  2.05800 10.98900 29.70800
C  3.18600 10.86900 30.64300
O  4.37400 10.68600 30.26900
O  2.75300 10.91200 31.96600
C  3.78600 10.82200 32.98600
H  1.54300 4.11400 28.82000
H  0.14700 5.39700 22.47000
H  1.67400 11.62000 23.37800
H  2.83700 8.25400 31.02400
H  1.16900 5.78700 30.84300
H  3.05600 4.62900 31.28700
H  3.92900 6.00900 31.38900
H  3.72900 5.18400 29.78100
H  -0.08300 7.64000 31.23500
H  0.31100 9.24900 31.32400
H  0.12500 7.95000 33.46900
H  1.26100 9.25100 33.39000
H  1.71100 2.23200 27.76500
H  1.54800 1.36200 26.27000
H  0.19300 1.75000 27.37100
H  -0.55800 1.17300 25.08700
H  0.95200 1.06600 24.05300
H  -0.77900 0.81100 23.49900
H  -0.80900 7.93500 21.53900
H  1.87600 9.23300 21.35700
H  0.81300 7.76300 19.60900
H  0.53600 6.14000 20.39000
H  1.99900 6.91800 20.68300
H  -0.26800 10.13500 20.17800
H  0.67200 11.31200 21.06100
H  -2.15000 10.85300 21.51100
H  -1.00600 11.82800 22.36700
H  -1.28600 10.31600 22.99700
H  3.61100 12.97400 24.78900
H  2.58900 14.06100 25.91800
H  2.10300 13.43400 24.29100
H  1.13100 11.01500 30.28000
H  4.00300 11.85100 33.27300
H  4.66500 10.23700 32.71500
H  3.29500 10.42000 33.87200
Mg 47.86000 35.39400 27.92200
C  45.99800 33.54800 30.24300
C  47.96700 38.03700 30.18500
C  49.10600 37.23900 25.43300
C  47.18900 32.79400 25.68300
N  47.00100 35.75400 29.91100
C  46.50000 34.74100 30.74200
C  46.59200 35.24600 32.22700
C  46.81600 36.75300 32.09900
C  47.26500 36.90400 30.66100
C  45.55800 37.66100 32.39500
C  47.71000 34.54300 33.01000
C  47.57600 34.46800 34.53100
H  46.47400 35.27800 35.21100
N  48.57400 37.27900 27.88100
C  48.46500 38.24700 28.92800
C  49.13600 39.43500 28.46800
C  49.54000 39.16600 27.12200
C  49.11700 37.83100 26.76200
C  49.43200 40.70000 29.32500
C  50.33700 40.08300 26.24200
O  50.76000 39.71500 25.13300
C  50.65500 41.49900 26.63300
N  48.01100 35.11300 25.84300
C  48.60500 35.96000 25.01700
C  48.89700 35.45700 23.63300
C  48.42400 33.99200 23.74100
C  47.82300 33.94600 25.18400
C  48.34000 36.27100 22.46900
C  49.48000 32.93100 23.38600
C  50.26500 32.37000 24.58400
N  46.83200 33.49400 27.91300
C  46.65500 32.59400 26.92200
C  45.79300 31.51500 27.38700
C  45.55400 31.83100 28.71100
C  46.16200 33.09000 28.96200
C  45.35300 30.29900 26.67000
C  44.85500 31.37900 29.88300
O  44.18000 30.36400 30.08200
C  45.00700 32.56200 30.88600
C  45.43500 32.01700 32.16600
O  46.44300 31.38200 32.43800
O  44.43500 32.25900 33.08900
C  44.36500 31.26700 34.13400
H  47.90100 38.90300 30.84700
H  49.58800 37.81700 24.64100
H  47.00900 32.01900 24.93500
H  45.64000 34.99200 32.69400
H  47.61800 37.12400 32.73700
H  45.48300 38.33200 31.53900
H  45.67100 38.18500 33.34400
H  44.67700 37.02300 32.32600
H  48.62400 35.09800 32.79800
H  47.85500 33.52700 32.64200
H  48.53700 34.79500 34.92700
H  47.49600 33.40700 34.76900
H  50.51800 40.75900 29.40700
H  49.02700 40.66500 30.33700
H  49.01200 41.57600 28.83000
H  49.80400 42.18100 26.65700
H  51.37900 41.82000 25.88400
H  51.23200 41.69400 27.53600
H  49.97800 35.51900 23.51600
H  47.63100 33.77700 23.02600
H  47.66400 37.05200 22.81500
H  47.80300 35.56800 21.83300
H  49.22900 36.60400 21.93300
H  50.15900 33.39900 22.67400
H  49.06700 32.12700 22.77800
H  51.22500 32.04500 24.18200
H  49.69800 31.61600 25.13000
H  50.38600 33.15500 25.33100
H  44.70500 29.74100 27.34600
H  46.24300 29.73900 26.38200
H  44.87700 30.57600 25.72900
H  44.05400 33.08900 30.86900
H  44.57100 31.81800 35.05200
H  44.92300 30.33100 34.15700
H  43.33700 30.91300 34.21000

