158

Mg 8.48100 2.36800 27.50800
C  10.16300 1.20100 30.19500
C  6.64700 4.44200 29.68400
C  6.84400 3.64700 24.90200
C  10.12600 0.00100 25.48600
N  8.35700 2.69000 29.74000
C  9.24300 2.22200 30.59800
C  8.96500 2.70700 31.97400
C  7.79500 3.78200 31.69000
C  7.50600 3.58100 30.23400
C  6.61700 3.67600 32.67200
C  10.18300 3.36400 32.76300
C  10.46900 2.77100 34.11900
H  10.58800 3.85600 35.24200
N  6.82300 3.83200 27.34300
C  6.40400 4.69500 28.32600
C  5.56500 5.75400 27.73300
C  5.49500 5.44800 26.34000
C  6.39600 4.22900 26.10600
C  4.74100 6.75300 28.54200
C  4.65500 6.16500 25.29400
O  4.56700 5.78500 24.11500
C  3.91700 7.41600 25.60600
N  8.24400 1.74100 25.57100
C  7.60000 2.49200 24.58400
C  7.84400 1.94500 23.18100
C  8.99900 0.94700 23.43200
C  9.15800 0.88700 24.94100
C  6.48300 1.35300 22.48400
C  10.35200 1.38200 22.69800
C  11.11700 0.13000 22.12300
N  9.94100 0.89500 27.75400
C  10.51700 0.03800 26.81000
C  11.47900 -0.78200 27.50500
C  11.35700 -0.41700 28.86100
C  10.36700 0.58000 28.95900
C  12.35200 -1.84300 26.93100
C  11.81600 -0.65900 30.26700
O  12.48200 -1.52500 30.75800
C  11.12100 0.46600 31.15400
C  10.32800 -0.28100 32.15900
O  9.30300 -0.88900 31.85000
O  10.86900 -0.25000 33.39600
C  10.05900 -0.77500 34.49000
H  6.15200 5.07600 30.42200
H  6.60500 4.28400 24.04700
H  10.68500 -0.64600 24.80700
H  8.64400 1.79200 32.47100
H  8.21600 4.78400 31.77900
H  5.78600 3.09500 32.27200
H  6.34200 4.62600 33.13100
H  7.03300 3.18100 33.54900
H  10.10200 4.44500 32.87600
H  11.07200 3.24100 32.14500
H  11.51400 2.46600 34.06900
H  9.70400 2.03000 34.34900
H  5.02400 6.89500 29.58500
H  3.67400 6.52600 28.53300
H  4.93000 7.72900 28.09600
H  3.18700 7.34500 26.41200
H  3.22100 7.62900 24.79600
H  4.57600 8.26300 25.79500
H  8.19600 2.74300 22.52800
H  8.87000 -0.07500 23.07500
H  5.71300 1.23700 23.24700
H  6.65700 0.42500 21.94000
H  6.17700 2.12400 21.77700
H  10.95700 1.82800 23.48600
H  10.16800 2.06300 21.86700
H  11.12500 0.24000 21.03800
H  10.55400 -0.72500 22.49800
H  12.14800 0.16000 22.47400
H  11.58000 -2.59100 26.74900
H  13.13400 -2.06400 27.65800
H  12.75100 -1.51800 25.97000
H  11.80900 1.10600 31.70600
H  10.19800 -1.83800 34.68700
H  9.00900 -0.52600 34.33600
H  10.28200 -0.31700 35.45300
Mg -11.44600 38.21900 42.73100
C  -9.39400 35.53800 41.49200
C  -9.27700 40.41400 41.33400
C  -13.92400 40.42700 43.18600
C  -13.71600 35.62800 43.57600
N  -9.63100 37.97700 41.54200
C  -8.92800 36.83800 41.14300
C  -7.70100 37.08900 40.25600
C  -7.59400 38.62800 40.53300
C  -8.92200 39.06000 41.17300
C  -6.36600 38.99700 41.33400
C  -8.01700 36.69900 38.76400
C  -7.18500 35.62600 38.06400
H  -6.14500 35.90900 36.97800
N  -11.56800 40.17600 42.30200
C  -10.54400 40.95900 41.78200
C  -10.96600 42.36800 41.93300
C  -12.25300 42.35000 42.56500
C  -12.64400 40.96100 42.68400
C  -10.07400 43.55400 41.59700
C  -12.97400 43.64600 42.89200
O  -12.62900 44.78800 42.58300
C  -14.18700 43.49900 43.62100
N  -13.52600 38.04500 43.30700
C  -14.30600 39.14200 43.47500
C  -15.78900 38.81000 43.73400
C  -15.69900 37.24400 43.98600
C  -14.24900 36.94500 43.52100
C  -16.35800 39.43800 45.04700
C  -16.74800 36.35900 43.39800
C  -18.03000 36.42600 44.25000
N  -11.48900 36.01500 42.83000
C  -12.50100 35.16800 43.16600
C  -11.96500 33.77800 43.14900
C  -10.75700 33.84600 42.40000
C  -10.50000 35.29100 42.27300
C  -12.52500 32.53800 43.72500
C  -9.57800 33.13500 41.84300
O  -9.30500 31.98500 41.86500
C  -8.61000 34.21600 41.26200
C  -7.14800 34.09700 41.58700
O  -6.60700 34.39700 42.64700
O  -6.40900 33.42000 40.65600
C  -5.03600 33.02800 40.98200
H  -8.45300 41.12600 41.24700
H  -14.86100 40.97900 43.28000
H  -14.33800 34.82100 43.96800
H  -6.83300 36.58400 40.67900
H  -7.51500 39.16700 39.58800
H  -6.62700 39.56600 42.22700
H  -5.64400 39.48400 40.67800
H  -5.84300 38.10800 41.68600
H  -8.18500 37.55800 38.11400
H  -8.99600 36.24200 38.90800
H  -7.88500 34.86500 37.71900
H  -6.57500 35.13400 38.82200
H  -10.56700 44.15900 40.83500
H  -9.07400 43.25800 41.27900
H  -9.89600 44.07300 42.53800
H  -14.90400 42.91400 43.04400
H  -14.59200 44.50200 43.75800
H  -14.13000 43.04200 44.60900
H  -16.40700 39.05500 42.87000
H  -15.57900 37.03200 45.04900
H  -16.72000 38.70200 45.76500
H  -17.25800 40.00100 44.80200
H  -15.65700 40.09200 45.56600
H  -16.55200 35.28800 43.35000
H  -16.85000 36.78100 42.39800
H  -17.88300 36.89700 45.22200
H  -18.56100 35.47600 44.31800
H  -18.80500 37.02900 43.77600
H  -11.72700 31.99200 44.22800
H  -13.17400 31.99100 43.04100
H  -13.27300 32.74600 44.49100
H  -8.66500 33.84100 40.24000
H  -4.85400 32.97100 42.05500
H  -4.47000 33.87900 40.60500
H  -4.61800 32.18900 40.42500

