158

Mg 46.89900 16.08600 28.07900
C  44.98700 15.82300 30.74700
C  49.20500 17.84900 29.94200
C  48.58000 17.04100 25.20100
C  44.47700 14.50000 26.17600
N  46.98900 16.78200 30.05700
C  46.09100 16.56900 31.02400
C  46.65900 16.99700 32.38000
C  47.74600 18.08700 31.97600
C  48.00500 17.58500 30.50300
C  47.33100 19.56600 32.07900
C  47.04400 15.72800 33.28100
C  46.46700 15.82300 34.70400
H  46.31300 17.17900 35.41700
N  48.78200 17.04800 27.63500
C  49.54700 17.62200 28.60900
C  50.82300 18.02600 27.97600
C  50.65600 17.89500 26.54500
C  49.25800 17.33000 26.41100
C  51.99900 18.63100 28.78500
C  51.60900 18.32300 25.49500
O  51.32400 18.32200 24.32500
C  52.91400 18.95500 25.83100
N  46.57100 15.87700 26.01800
C  47.34000 16.45000 25.03800
C  46.81000 16.04100 23.69700
C  45.63900 15.12000 24.02900
C  45.48700 15.18300 25.51000
C  46.43100 17.33500 22.82600
C  45.80900 13.70300 23.57200
C  44.69200 13.15500 22.64900
N  45.05000 15.26500 28.36200
C  44.25800 14.60600 27.54700
C  43.10500 14.10400 28.31000
C  43.35100 14.46800 29.62000
C  44.57600 15.24400 29.55000
C  41.91800 13.34700 27.75400
C  42.85400 14.52300 30.94200
O  41.90600 13.96900 31.49900
C  43.93800 15.35100 31.71200
C  43.32800 16.43800 32.52300
O  43.00200 17.55600 32.08700
O  43.17000 15.97300 33.77300
C  42.36000 16.86200 34.51800
H  50.02000 18.33600 30.48000
H  49.16000 17.32500 24.32100
H  43.65600 13.92600 25.74100
H  45.85300 17.49400 32.92100
H  48.59200 17.87100 32.62800
H  46.28400 19.69800 32.35400
H  47.53000 20.02000 31.10800
H  47.78000 20.20900 32.83600
H  48.13200 15.66200 33.29300
H  46.74200 14.81400 32.76900
H  47.18300 15.24700 35.29100
H  45.50800 15.33600 34.87900
H  51.93600 18.53200 29.86900
H  51.84300 19.69300 28.59400
H  52.90500 18.16800 28.39400
H  52.59700 19.81800 26.41700
H  53.42100 19.40000 24.97500
H  53.53700 18.29000 26.42900
H  47.60200 15.54600 23.13300
H  44.76800 15.66200 23.66200
H  46.57400 18.30600 23.29900
H  45.42900 17.31300 22.39800
H  47.13200 17.38600 21.99200
H  45.84900 13.12100 24.49300
H  46.74300 13.62700 23.01500
H  43.71700 13.62700 22.77000
H  44.51600 12.09900 22.85600
H  45.01000 13.24600 21.61000
H  42.40900 12.38600 27.60000
H  41.60800 13.76100 26.79500
H  41.11100 13.38200 28.48700
H  44.40500 14.67900 32.43100
H  41.34000 17.04500 34.18000
H  42.91300 17.76900 34.76300
H  42.26500 16.39000 35.49600
Mg 9.24200 49.05200 25.96400
C  7.18500 49.37100 28.83000
C  11.75000 50.40600 27.92900
C  11.21500 48.81900 23.31100
C  6.56000 48.00400 24.06500
N  9.43800 49.77700 28.08200
C  8.47900 49.74500 29.09800
C  9.07800 50.31500 30.43500
C  10.48100 50.84000 29.96700
C  10.55900 50.31900 28.56400
C  10.54500 52.35300 29.84300
C  9.07200 49.32200 31.63800
C  8.21800 49.81300 32.80200
H  8.68100 50.83900 33.92800
N  11.25000 49.51500 25.63400
C  12.11500 50.04500 26.56200
C  13.45400 49.99400 25.98600
C  13.35500 49.54600 24.65600
C  11.89300 49.32800 24.41100
C  14.70400 50.39600 26.69100
C  14.35500 49.34000 23.58000
O  14.11100 48.98400 22.38600
C  15.81500 49.46000 23.99900
N  8.87100 48.62400 23.97500
C  9.88500 48.59900 23.05800
C  9.46300 47.99200 21.69100
C  8.00700 47.45100 22.10400
C  7.75500 48.10800 23.45800
C  9.21900 49.05400 20.55500
C  7.95600 45.92600 21.93800
C  8.78600 45.19600 23.04800
N  7.25000 48.78800 26.33100
C  6.28700 48.36800 25.42100
C  5.06000 48.25000 26.17700
C  5.38400 48.59900 27.50600
C  6.72200 48.93900 27.56500
C  3.73300 47.77700 25.71900
C  4.78400 48.75200 28.86800
O  3.70500 48.54600 29.31500
C  5.93800 49.24600 29.71900
C  6.04300 48.30100 30.83900
O  6.67500 47.26100 30.88100
O  5.26500 48.71000 31.89700
C  4.97800 47.61700 32.85200
H  12.56100 50.75000 28.57500
H  11.88900 48.76600 22.45300
H  5.70900 47.57000 23.53600
H  8.37200 51.09700 30.71400
H  11.34800 50.39100 30.45100
H  10.12000 52.56200 28.86100
H  11.56900 52.72500 29.79400
H  10.02400 52.95200 30.58900
H  10.11700 49.35000 31.94300
H  8.83800 48.26100 31.54700
H  7.84300 48.95800 33.36400
H  7.37300 50.34400 32.36400
H  14.28900 50.93800 27.54000
H  15.34000 51.09200 26.14400
H  15.24700 49.49700 26.98300
H  16.05700 50.49200 24.25200
H  16.47900 49.08100 23.22100
H  15.89900 48.88700 24.92300
H  10.09200 47.14000 21.43500
H  7.35400 47.91800 21.36700
H  10.14600 49.60300 20.38600
H  8.49500 49.82800 20.81000
H  8.87800 48.57000 19.64000
H  8.35900 45.54500 20.99900
H  6.93600 45.60000 22.13900
H  9.09700 45.87600 23.84100
H  9.63100 44.71900 22.55200
H  8.25500 44.32900 23.44000
H  2.99700 48.54600 25.95500
H  3.49400 46.81400 26.17000
H  3.76700 47.72200 24.63100
H  5.59300 50.18900 30.14300
H  4.29300 47.95500 33.63000
H  5.86200 47.12400 33.25500
H  4.42500 46.87100 32.28100

