158

Mg 41.01300 9.22600 29.13000
C  42.95800 10.60100 31.69100
C  38.90200 7.91900 31.38300
C  39.42100 7.88000 26.61100
C  43.72300 10.02900 26.92800
N  40.95800 9.30700 31.32900
C  41.77600 10.01300 32.12400
C  41.33400 9.92900 33.58300
C  40.05500 9.01200 33.53300
C  39.96500 8.62300 31.99500
C  40.04800 7.73500 34.42100
C  41.32900 11.24100 34.39000
C  40.33700 11.34500 35.51400
H  41.03300 11.67100 36.85000
N  39.40300 8.05300 29.04500
C  38.57900 7.63600 30.03700
C  37.41800 7.02700 29.50800
C  37.49600 7.19300 28.11500
C  38.82100 7.68300 27.86500
C  36.35200 6.45000 30.39000
C  36.49300 6.99400 27.10700
O  36.77200 7.33800 25.99300
C  35.10500 6.51100 27.32100
N  41.65600 8.66200 27.09100
C  40.69400 8.26000 26.23200
C  41.21700 8.11500 24.80400
C  42.32900 9.22900 24.85300
C  42.60000 9.34200 26.34100
C  41.79400 6.70900 24.42100
C  41.93200 10.65600 24.28900
C  40.44200 11.07100 24.36000
N  42.95600 10.11200 29.22100
C  43.92200 10.35400 28.28400
C  45.05800 11.06500 28.87700
C  44.74500 11.14800 30.24300
C  43.45000 10.54700 30.37300
C  46.27200 11.45100 28.16400
C  45.10300 11.72400 31.47400
O  46.06000 12.42400 31.81000
C  43.96300 11.33000 32.55600
C  44.56500 10.36500 33.42300
O  45.07100 9.32700 33.02800
O  44.58800 10.85400 34.70000
C  45.34400 10.02100 35.65500
H  38.10700 7.85600 32.12900
H  38.88900 7.49400 25.73900
H  44.48300 10.37300 26.22300
H  42.17400 9.45700 34.09300
H  39.21600 9.66900 33.75900
H  39.00900 7.40900 34.46000
H  40.63700 7.90200 35.32300
H  40.59200 6.94200 33.90700
H  41.05100 11.89500 33.56300
H  42.29200 11.62200 34.72900
H  39.85800 10.43000 35.86100
H  39.64000 12.13800 35.24200
H  35.45400 6.31500 29.78700
H  36.13800 7.01300 31.29900
H  36.68600 5.45200 30.67400
H  34.59400 6.65400 26.36900
H  34.49300 7.11600 27.99000
H  34.96600 5.43800 27.45400
H  40.42100 8.21100 24.06500
H  43.13300 8.80400 24.25300
H  41.11000 6.14000 23.79100
H  41.64100 6.15600 25.34700
H  42.81100 6.59500 24.04500
H  42.31500 10.70900 23.27000
H  42.37800 11.53700 24.75000
H  40.28700 11.64000 25.27700
H  39.78900 10.19800 24.34600
H  40.13300 11.77800 23.59100
H  47.15700 11.23500 28.76300
H  46.14500 12.52900 28.05700
H  46.34900 10.98000 27.18400
H  43.66400 12.23300 33.08900
H  45.20400 10.53000 36.60900
H  46.37200 10.06100 35.29500
H  44.91600 9.01900 35.68700
Mg 6.66000 53.67200 41.30100
C  6.32100 50.06200 41.16500
C  9.61000 53.33600 39.63500
C  6.73600 57.02000 40.89100
C  3.39000 53.86800 42.41700
N  7.71200 51.85100 40.55800
C  7.53200 50.49900 40.61800
C  8.79500 49.67500 40.06600
C  9.85400 50.81600 39.84000
C  8.95100 52.11600 39.96900
C  11.07300 50.85700 40.77900
C  8.50200 48.77300 38.85000
C  8.54800 49.39400 37.35700
H  7.39000 48.99700 36.40800
N  8.03500 55.03200 40.37000
C  9.23500 54.66700 39.82400
C  9.89100 55.83800 39.44600
C  9.05500 56.96500 39.71900
C  7.88000 56.38300 40.39800
C  11.27000 55.85400 38.68200
C  9.45000 58.39400 39.37400
O  10.42600 58.66100 38.76500
C  8.52300 59.52000 39.85900
N  5.27400 55.22900 41.43800
C  5.54600 56.51900 41.37900
C  4.35100 57.45300 41.79400
C  3.19800 56.39900 41.99700
C  3.98300 55.12100 41.93000
C  4.66200 58.45400 42.92500
C  2.03200 56.37800 40.93500
C  0.59600 56.61800 41.40500
N  5.27000 52.30200 41.87900
C  3.94700 52.56800 42.35400
C  3.27800 51.33600 42.67900
C  4.24400 50.32300 42.25600
C  5.35000 50.93700 41.67400
C  1.97200 51.04200 43.34500
C  4.38200 48.83700 42.09100
O  3.63100 47.94900 42.46400
C  5.75300 48.63100 41.39600
C  5.38200 47.97200 40.18400
O  4.69700 48.45100 39.27500
O  5.87200 46.67700 40.08100
C  5.47600 45.92200 38.86400
H  10.63200 53.30900 39.25300
H  6.71300 58.10900 40.96800
H  2.31200 53.87600 42.59200
H  9.15200 49.06500 40.89500
H  10.37300 50.73100 38.88600
H  11.38500 49.82900 40.96900
H  10.83500 51.44700 41.66300
H  11.90900 51.32500 40.25900
H  7.48500 48.41000 38.99400
H  9.11300 47.87100 38.87000
H  9.42600 49.08800 36.78800
H  8.63200 50.46700 37.53200
H  11.07700 55.78800 37.61200
H  11.93500 55.06200 39.02600
H  11.85900 56.74800 38.88900
H  7.51400 59.49600 39.44800
H  9.01800 60.48100 39.72300
H  8.54500 59.37600 40.93900
H  4.04900 58.13100 40.99600
H  2.85700 56.39200 43.03200
H  5.69200 58.54200 43.26900
H  4.01500 58.30800 43.79000
H  4.44600 59.43200 42.49500
H  2.08700 55.38500 40.48800
H  2.33700 57.09800 40.17500
H  0.68600 56.50800 42.48600
H  -0.20700 55.95800 41.07600
H  0.39000 57.66000 41.16000
H  1.67400 50.05500 42.99200
H  1.21100 51.68400 42.90200
H  2.17200 51.08300 44.41600
H  6.45700 47.94900 41.87400
H  6.22400 45.16200 38.63700
H  5.55500 46.59700 38.01200
H  4.45500 45.54600 38.93400

