158

Mg -1.84900 17.13600 27.80100
C  -2.29300 14.96300 30.53700
C  -2.25500 19.73100 30.04400
C  -1.78000 19.38100 25.22100
C  -2.06100 14.46000 25.71300
N  -2.00400 17.35400 30.05700
C  -2.25200 16.31900 30.97000
C  -2.45400 16.85000 32.43200
C  -2.37700 18.40400 32.16800
C  -2.21900 18.49000 30.65900
C  -3.57500 19.25300 32.74900
C  -1.38300 16.23500 33.44400
C  -0.69300 17.09400 34.47100
H  -0.29100 16.56200 35.82300
N  -1.97100 19.23600 27.67900
C  -2.02000 20.13100 28.71100
C  -1.90500 21.45900 28.22000
C  -1.68700 21.42300 26.84000
C  -1.88500 19.95700 26.49800
C  -1.98400 22.69200 29.12000
C  -1.46600 22.55600 25.83800
O  -1.36900 22.28000 24.67500
C  -1.30700 24.01000 26.21600
N  -1.89100 16.94300 25.79600
C  -1.88500 18.01800 24.90200
C  -2.08700 17.59500 23.42900
C  -2.16100 15.98700 23.63100
C  -2.04500 15.78200 25.15500
C  -3.33200 18.14700 22.62400
C  -1.18600 15.10700 22.79400
C  0.23500 14.86700 23.31900
N  -1.91600 15.15700 27.97800
C  -2.00500 14.18200 27.07600
C  -2.12000 12.85500 27.64600
C  -2.15000 13.08200 29.02400
C  -2.12400 14.52100 29.18600
C  -2.26200 11.55600 26.87200
C  -2.37100 12.41100 30.25000
O  -2.52300 11.26500 30.50300
C  -2.50700 13.68000 31.33100
C  -1.35800 13.22400 32.22600
O  -0.15400 13.40800 31.99100
O  -1.75600 12.58800 33.37100
C  -0.73200 12.52700 34.41200
H  -2.47400 20.51100 30.77700
H  -1.88300 20.09500 24.40200
H  -2.04700 13.60900 25.02900
H  -3.44200 16.47600 32.70300
H  -1.51200 18.89000 32.62000
H  -3.22500 19.93100 33.52800
H  -4.13200 18.45300 33.23600
H  -4.06300 19.77000 31.92300
H  -0.64400 15.79200 32.77600
H  -1.98300 15.44700 33.90000
H  -1.26300 17.99100 34.71100
H  0.16900 17.51300 33.95200
H  -2.88800 23.22700 28.83200
H  -1.02800 23.20700 29.02300
H  -2.14200 22.46800 30.17500
H  -0.95500 24.57200 25.35000
H  -0.64400 23.97400 27.08100
H  -2.30300 24.30100 26.54800
H  -1.19300 17.84500 22.85800
H  -3.16900 15.59500 23.49800
H  -4.15500 17.43400 22.56700
H  -2.94100 18.41900 21.64400
H  -3.61000 19.00200 23.24000
H  -0.96600 15.72700 21.92500
H  -1.68000 14.24200 22.35100
H  0.83400 15.67200 22.89300
H  0.47300 13.85000 23.00900
H  0.41100 14.97700 24.38900
H  -1.62700 11.48200 25.98900
H  -3.32300 11.48900 26.63100
H  -2.11400 10.73200 27.56900
H  -3.38500 13.64900 31.97600
H  -0.24100 11.56400 34.27400
H  -1.33600 12.60400 35.31600
H  0.07700 13.24900 34.52000
Mg 24.06100 -5.70100 44.83700
C  26.41900 -3.47000 43.59600
C  21.66600 -4.32400 42.85200
C  22.08800 -8.47400 45.31100
C  26.63300 -7.39100 46.44300
N  24.14800 -4.22400 43.30300
C  25.16900 -3.36600 42.95400
C  24.71900 -2.30000 41.92500
C  23.19100 -2.38200 42.12000
C  22.94700 -3.72800 42.82800
C  22.57600 -1.22200 42.91100
C  25.22900 -2.70700 40.50200
C  26.03400 -1.65600 39.68300
H  25.97600 -1.64900 38.13000
N  22.11500 -6.29300 44.21300
C  21.28100 -5.53600 43.48700
C  19.95900 -6.16900 43.44400
C  20.04200 -7.43200 44.11600
C  21.43500 -7.46000 44.58000
C  18.86600 -5.48200 42.68900
C  18.88900 -8.47800 44.37200
O  17.77600 -8.27700 43.93700
C  19.10300 -9.85200 45.10000
N  24.32800 -7.66700 45.63400
C  23.37200 -8.64900 45.70700
C  23.77000 -9.88800 46.50500
C  25.21500 -9.47000 46.99600
C  25.47800 -8.11300 46.25200
C  22.73000 -10.40600 47.59600
C  26.23000 -10.60300 46.58200
C  27.35100 -10.74600 47.65800
N  26.12900 -5.40700 45.17700
C  26.97400 -6.05800 45.97100
C  28.28500 -5.42100 45.94600
C  28.09400 -4.44700 44.99500
C  26.75600 -4.43900 44.59400
C  29.43200 -5.93400 46.77600
C  28.76900 -3.33600 44.18900
O  29.93600 -2.91300 44.18600
C  27.69100 -2.67500 43.30500
C  27.48000 -1.26600 43.54800
O  26.48600 -0.78600 44.09500
O  28.56100 -0.58100 43.03500
C  28.27600 0.82200 43.09100
H  20.95400 -3.72700 42.27800
H  21.43400 -9.34500 45.38300
H  27.38200 -7.90000 47.05400
H  25.14300 -1.33100 42.19100
H  22.70800 -2.31500 41.14500
H  23.35100 -0.51200 43.20000
H  22.00200 -1.48100 43.80100
H  21.99600 -0.65700 42.18100
H  24.36200 -2.89200 39.86800
H  25.76900 -3.65000 40.58400
H  27.08100 -1.78000 39.96200
H  25.71200 -0.67900 40.04200
H  17.96800 -5.79700 43.22000
H  18.71200 -5.71700 41.63600
H  18.90900 -4.39800 42.79800
H  18.20700 -10.47200 45.11800
H  19.38500 -9.65900 46.13600
H  19.88900 -10.45600 44.64600
H  23.85600 -10.59300 45.67800
H  25.32500 -9.23000 48.05400
H  22.46100 -11.43000 47.33700
H  21.79700 -9.85000 47.49900
H  23.24000 -10.26900 48.55000
H  26.74700 -10.36400 45.65300
H  25.67100 -11.53700 46.52400
H  26.98900 -11.32100 48.51000
H  27.62200 -9.78000 48.08400
H  28.25100 -11.12100 47.16900
H  29.86100 -6.82900 46.32600
H  29.07300 -6.30600 47.73600
H  30.15400 -5.12500 46.88400
H  28.00800 -2.80400 42.27000
H  28.25900 1.06500 44.15300
H  27.28000 1.03100 42.70100
H  29.08600 1.36100 42.60000

