158

Mg 46.86400 24.59900 28.45100
C  47.87100 26.76700 31.10100
C  46.00300 22.25600 30.78700
C  46.13000 22.57800 25.87600
C  48.22200 26.85600 26.18000
N  46.92400 24.53500 30.77600
C  47.21500 25.57200 31.57900
C  46.75800 25.27800 32.99900
C  46.25400 23.76300 32.93200
C  46.44900 23.41700 31.41900
C  46.91800 22.77200 33.89000
C  45.81600 26.34600 33.65500
C  45.97300 26.89100 35.13100
H  46.27600 25.89900 36.27000
N  46.09000 22.72700 28.32200
C  45.86900 21.90100 29.42000
C  45.48100 20.59800 28.90600
C  45.32600 20.73200 27.45500
C  45.87900 22.08200 27.13200
C  45.27200 19.41500 29.79300
C  44.89800 19.61600 26.49900
O  44.98100 19.71800 25.28500
C  44.24300 18.46500 27.04700
N  47.14900 24.77100 26.29000
C  46.78300 23.73200 25.43200
C  47.18900 24.02500 23.97800
C  47.56000 25.56800 24.10100
C  47.72800 25.76400 25.60000
C  48.39700 23.22700 23.51300
C  46.43400 26.43400 23.54600
C  45.04200 26.17500 24.05600
N  47.86400 26.42300 28.49400
C  48.37400 27.21500 27.49900
C  48.97100 28.39500 28.06300
C  48.78300 28.31600 29.46400
C  48.14600 27.04500 29.68700
C  49.52800 29.50900 27.21400
C  48.86800 29.01600 30.69200
O  49.36000 30.07000 30.96100
C  48.23700 28.03600 31.78700
C  49.37800 27.84400 32.76400
O  50.37300 27.20500 32.68700
O  49.11400 28.58400 33.85300
C  49.77600 28.41900 35.14600
H  45.64400 21.48300 31.46800
H  45.87600 21.93300 25.03300
H  48.73100 27.43800 25.40900
H  47.70900 25.34200 33.52800
H  45.19300 23.87600 33.15500
H  46.06000 22.51000 34.50900
H  47.81000 23.01300 34.46700
H  47.09700 21.82700 33.37600
H  44.79900 25.99200 33.48100
H  45.92600 27.19000 32.97400
H  44.98700 27.32700 35.28500
H  46.71900 27.67100 34.97700
H  45.81700 18.62900 29.27000
H  44.24200 19.16800 30.05200
H  45.88800 19.47200 30.69000
H  43.65400 18.75900 27.91600
H  45.01100 17.73700 27.30700
H  43.59700 17.92700 26.35300
H  46.27300 23.91700 23.39800
H  48.49200 25.80500 23.58700
H  48.12200 22.17500 23.58600
H  49.20600 23.56900 24.15800
H  48.56100 23.41800 22.45200
H  46.43000 26.43700 22.45600
H  46.64200 27.44300 23.90200
H  45.02500 25.33400 24.74900
H  44.29600 25.95300 23.29400
H  44.50900 27.00000 24.53100
H  49.81100 29.25800 26.19200
H  50.47700 29.77400 27.68000
H  48.97100 30.44600 27.19100
H  47.52100 28.67200 32.30900
H  50.80900 28.10100 35.00800
H  49.29800 27.60600 35.69400
H  49.71500 29.36400 35.68600
Mg -11.18200 16.42300 41.27800
C  -7.86300 15.26800 41.03200
C  -10.35100 19.35600 39.92400
C  -14.42100 17.04400 40.98200
C  -12.13900 13.04800 42.13100
N  -9.26200 17.16500 40.58900
C  -8.00900 16.56400 40.53200
C  -6.96800 17.58200 40.09600
C  -7.82600 18.91400 39.95100
C  -9.23800 18.44900 40.07800
C  -7.47600 19.90700 41.15600
C  -6.28500 17.15900 38.71500
C  -4.74100 16.92600 38.64300
H  -4.23200 16.70200 37.17200
N  -12.27300 18.01100 40.69000
C  -11.73900 19.16500 40.16200
C  -12.77400 20.13100 39.94600
C  -13.95000 19.57500 40.34300
C  -13.61200 18.15200 40.77700
C  -12.51100 21.53400 39.52900
C  -15.34000 20.26900 40.51600
O  -15.57200 21.28400 39.87500
C  -16.40400 19.70400 41.25300
N  -13.02000 15.20400 41.28700
C  -14.22300 15.74900 41.13900
C  -15.38100 14.71300 41.09900
C  -14.71800 13.43300 41.70300
C  -13.15800 13.87200 41.57800
C  -16.71600 15.22600 41.80800
C  -15.09600 12.06600 41.28000
C  -15.41100 11.00500 42.44000
N  -10.27500 14.54300 41.61100
C  -10.77100 13.31800 42.00200
C  -9.61900 12.41400 42.20500
C  -8.47400 13.12500 41.88000
C  -8.90900 14.39900 41.45000
C  -9.65400 11.02300 42.68000
C  -7.02900 13.10100 41.75900
O  -6.20900 12.18500 41.93800
C  -6.54500 14.48700 41.18000
C  -5.54700 15.17300 42.07200
O  -5.77400 16.00000 42.97000
O  -4.26200 14.80700 41.78700
C  -3.25700 15.48700 42.66900
H  -9.93800 20.35400 39.76300
H  -15.49500 17.20100 40.86400
H  -12.44500 12.03400 42.39700
H  -6.15600 17.58700 40.82200
H  -7.66400 19.44600 39.01400
H  -6.79700 20.68800 40.81400
H  -6.82300 19.40000 41.86600
H  -8.38700 20.19300 41.68200
H  -6.58300 17.87700 37.95000
H  -6.69200 16.18100 38.46000
H  -4.52700 16.06600 39.27700
H  -4.32500 17.78900 39.16500
H  -12.99100 21.70000 38.56500
H  -11.47300 21.86600 39.51500
H  -13.09100 22.20800 40.16000
H  -17.34200 20.25500 41.31800
H  -16.12100 19.34700 42.24300
H  -16.57400 18.78300 40.69500
H  -15.58800 14.59400 40.03500
H  -14.88600 13.43400 42.78000
H  -16.58000 16.14700 42.37500
H  -16.69400 14.48400 42.60600
H  -17.65600 15.11100 41.26800
H  -14.46200 11.64600 40.49900
H  -16.04100 12.13300 40.74300
H  -14.78700 11.10300 43.32800
H  -15.36200 9.96300 42.12400
H  -16.47000 11.11900 42.66700
H  -8.77300 10.88300 43.30600
H  -9.63400 10.24300 41.91900
H  -10.60100 10.89000 43.20300
H  -6.06900 14.39500 40.20300
H  -2.38100 15.71300 42.06000
H  -3.07000 14.83200 43.52000
H  -3.58400 16.47000 43.00700

