158

Mg 7.07700 53.82400 41.50400
C  6.89900 50.40900 40.64700
C  10.11100 53.77800 39.80000
C  7.12300 57.03900 41.83000
C  3.92600 53.56000 42.89800
N  8.19800 52.33700 40.15700
C  7.96300 51.01500 39.96000
C  8.83100 50.46400 38.81100
C  10.09000 51.36000 38.91400
C  9.42100 52.55000 39.69100
C  11.27700 50.88300 39.64100
C  8.20100 50.34500 37.40800
C  8.33800 49.02400 36.49500
H  7.89400 48.92700 35.04200
N  8.41000 55.23000 40.88700
C  9.57600 55.04600 40.21700
C  10.20200 56.36300 40.02500
C  9.35700 57.38400 40.54300
C  8.24500 56.58400 41.14700
C  11.44600 56.56900 39.27800
C  9.52900 58.96900 40.57900
O  10.46800 59.40700 39.95100
C  8.65100 59.90100 41.29100
N  5.68500 55.14500 42.11700
C  5.94800 56.44900 42.28100
C  4.79500 57.22400 42.89800
C  3.80000 56.08200 43.26700
C  4.51600 54.82000 42.75600
C  5.26600 58.26500 43.97400
C  2.27600 56.22500 42.82100
C  1.77900 57.60600 42.59900
N  5.66700 52.32300 41.74900
C  4.53700 52.35400 42.52400
C  3.97500 51.00500 42.61600
C  4.96400 50.18300 41.98800
C  5.91100 51.07000 41.43600
C  2.63300 50.59100 43.26700
C  5.24300 48.87500 41.66700
O  4.68100 47.75300 41.84700
C  6.61800 48.95000 40.93900
C  6.43800 48.07200 39.73700
O  5.80900 48.41400 38.71800
O  7.07700 46.85800 39.91300
C  6.79000 45.86500 38.85700
H  11.12400 53.76700 39.39300
H  7.00000 58.08900 42.10500
H  2.96900 53.52000 43.42300
H  9.10300 49.44600 39.09100
H  10.43600 51.69600 37.93600
H  12.04900 51.64800 39.55300
H  11.65600 49.88600 39.41600
H  11.07800 50.87600 40.71200
H  8.60900 51.14100 36.78500
H  7.11400 50.32900 37.48200
H  7.69400 48.28600 36.97300
H  9.39300 48.75000 36.52200
H  11.43600 55.93500 38.39200
H  12.16700 56.24900 40.03000
H  11.67500 57.55700 38.88000
H  8.60500 59.63200 42.34600
H  7.68800 59.76300 40.79800
H  8.94200 60.95100 41.31300
H  4.41500 57.86300 42.10000
H  3.82300 55.93400 44.34600
H  4.96100 57.99100 44.98400
H  4.70100 59.16200 43.72100
H  6.29700 58.61800 43.96300
H  1.84100 55.83300 43.74000
H  2.05500 55.52700 42.01300
H  0.90100 57.58800 43.24400
H  1.50600 57.68500 41.54600
H  2.43300 58.40300 42.95300
H  1.89900 51.22200 42.76600
H  2.64300 50.92200 44.30600
H  2.33900 49.57400 43.00800
H  7.32900 48.60900 41.69100
H  6.82900 46.24600 37.83600
H  5.78500 45.46500 38.98900
H  7.45300 45.00500 38.95400
Mg 17.11900 51.51900 25.72200
C  19.11500 50.24100 28.39100
C  14.72700 52.34100 28.09000
C  15.06400 52.05100 23.20800
C  19.67800 50.28000 23.55400
N  17.02700 51.33600 28.03000
C  17.99500 50.87100 28.98000
C  17.53500 51.04600 30.40200
C  16.02000 51.52300 30.15400
C  15.95000 51.83700 28.64700
C  14.89100 50.44100 30.56600
C  18.44800 51.85700 31.35600
C  18.41500 51.48500 32.84700
H  17.59600 52.36700 33.89000
N  15.14000 52.08600 25.66300
C  14.33800 52.45800 26.74200
C  13.07200 52.97500 26.24700
C  13.16600 52.84000 24.83600
C  14.50900 52.36100 24.48700
C  11.95500 53.56500 27.11400
C  12.13100 53.23900 23.78000
O  12.21200 52.98700 22.59600
C  10.83700 53.94400 24.23400
N  17.33100 51.10700 23.67800
C  16.34800 51.59200 22.83100
C  16.92900 51.64000 21.41000
C  18.40600 51.17200 21.54000
C  18.49900 50.79500 23.00500
C  16.01800 50.70300 20.46600
C  19.45100 52.31600 21.25000
C  20.72800 51.94400 20.46400
N  19.02600 50.50200 25.86400
C  19.91500 50.06800 24.92700
C  21.01700 49.34200 25.56000
C  20.80900 49.45400 26.92000
C  19.56600 50.12200 27.04200
C  22.20900 48.63600 24.89300
C  21.30100 48.96900 28.15300
O  22.27300 48.25100 28.36300
C  20.37500 49.62600 29.23900
C  19.88800 48.69700 30.31100
O  19.06500 47.82000 30.11700
O  20.38400 49.02300 31.53300
C  19.96700 48.18300 32.67600
H  13.91100 52.50200 28.79700
H  14.50200 52.34000 22.31800
H  20.51400 49.97300 22.92200
H  17.50300 50.02400 30.77900
H  15.75800 52.43500 30.69000
H  13.95700 50.97200 30.75100
H  15.15800 50.04700 31.54600
H  14.72400 49.76200 29.73000
H  17.89900 52.79200 31.23800
H  19.46500 51.92100 30.96900
H  19.47600 51.47900 33.09800
H  18.12000 50.44300 32.97200
H  11.64000 54.52300 26.69900
H  12.26000 53.77000 28.14100
H  11.22300 52.76100 27.18300
H  10.17000 54.16600 23.40100
H  11.15200 54.92200 24.59700
H  10.28600 53.29300 24.91200
H  16.87700 52.67800 21.08300
H  18.66600 50.33000 20.90000
H  15.05200 50.62500 20.96500
H  16.43400 49.70500 20.33200
H  15.77400 51.18200 19.51800
H  19.77900 52.63100 22.24000
H  18.89800 53.14900 20.81700
H  20.89600 52.63000 19.63400
H  20.73300 50.98200 19.95000
H  21.55800 51.97600 21.16900
H  23.07400 48.39700 25.51100
H  22.50700 49.29000 24.07300
H  21.69700 47.75900 24.49700
H  20.97200 50.43700 29.65700
H  19.92600 48.81600 33.56200
H  20.72200 47.42900 32.89600
H  18.98500 47.72200 32.57300

