158

Mg -2.08900 17.13700 26.71500
C  -2.63100 15.10600 29.50700
C  -2.91700 19.92800 28.76000
C  -1.75500 19.13700 24.12800
C  -2.09500 14.33300 24.63600
N  -2.69200 17.55300 28.89700
C  -2.70800 16.55300 29.84200
C  -2.97700 17.11400 31.24400
C  -3.30800 18.63600 30.93200
C  -2.97500 18.73800 29.42600
C  -4.71500 19.23500 31.15500
C  -1.78200 16.80300 32.17400
C  -2.16200 16.55000 33.64000
H  -1.12800 16.74400 34.76600
N  -2.25800 19.26600 26.48400
C  -2.53700 20.23500 27.42400
C  -2.47000 21.52900 26.75600
C  -2.08200 21.36300 25.46100
C  -2.04900 19.85300 25.27500
C  -2.86800 22.75500 27.48200
C  -1.73200 22.43600 24.48800
O  -1.48300 22.20600 23.32900
C  -1.80800 23.95000 24.88400
N  -2.04200 16.73300 24.68000
C  -1.94500 17.74500 23.77800
C  -1.81300 17.26400 22.36700
C  -1.70100 15.70900 22.54500
C  -1.90200 15.56100 24.04700
C  -2.87100 17.65700 21.29400
C  -0.40500 15.04800 22.12700
C  0.78900 15.37100 23.01800
N  -2.38600 15.11800 26.95900
C  -2.33600 14.10100 26.01500
C  -2.58900 12.85900 26.77700
C  -2.59300 13.18200 28.12700
C  -2.48900 14.58400 28.24200
C  -2.76200 11.48300 26.22300
C  -2.68800 12.63200 29.43100
O  -2.75200 11.44300 29.71600
C  -2.65000 13.86500 30.44700
C  -1.42100 13.57600 31.26100
O  -0.27100 13.61700 30.81400
O  -1.76100 13.24100 32.56500
C  -0.61100 12.95700 33.50900
H  -3.10900 20.78600 29.40800
H  -1.70000 19.75500 23.23000
H  -1.99100 13.43400 24.02400
H  -3.87900 16.58300 31.54900
H  -2.67700 19.33600 31.47900
H  -5.26800 18.36400 31.50600
H  -5.30400 19.65900 30.34200
H  -4.69200 19.97600 31.95400
H  -1.13800 17.67800 32.09500
H  -1.20000 16.06300 31.62400
H  -2.40400 15.48700 33.63000
H  -3.07400 17.11000 33.84500
H  -3.47700 22.44400 28.33000
H  -3.56200 23.37800 26.91800
H  -1.89500 23.20500 27.67600
H  -1.29400 24.43500 24.05400
H  -1.18200 24.09700 25.76300
H  -2.88500 24.09000 24.98400
H  -0.86900 17.70500 22.04900
H  -2.48200 15.13100 22.05000
H  -2.38700 17.60300 20.31900
H  -3.20200 18.68900 21.41000
H  -3.65900 16.90500 21.34700
H  -0.24200 15.41700 21.11400
H  -0.60300 13.97700 22.10200
H  0.58100 16.25500 23.62000
H  1.60700 15.58400 22.33000
H  1.01300 14.51100 23.64900
H  -3.83300 11.34700 26.07700
H  -2.27000 10.76600 26.88100
H  -2.42900 11.23700 25.21500
H  -3.45600 13.90700 31.17900
H  -0.31600 13.75300 34.19300
H  0.28500 12.53000 33.05900
H  -0.89100 12.10700 34.13000
Mg -11.65500 37.46300 41.77400
C  -9.24000 35.07900 40.71500
C  -9.69200 39.82000 40.20300
C  -14.15500 39.50300 42.10900
C  -13.58000 34.74100 42.83500
N  -9.64700 37.41400 40.49100
C  -8.92000 36.36900 40.25800
C  -7.64700 36.74400 39.50900
C  -7.59800 38.27300 39.56700
C  -8.99800 38.55200 40.19700
C  -6.37300 38.88600 40.35000
C  -7.39800 36.11700 38.10600
C  -5.96200 35.75800 37.62800
H  -5.25100 36.73700 36.67000
N  -11.90600 39.44300 41.28300
C  -10.99800 40.24200 40.66800
C  -11.58800 41.54200 40.51600
C  -12.86200 41.52500 41.13100
C  -13.01000 40.11500 41.56300
C  -10.95800 42.69100 39.87400
C  -13.73500 42.67800 41.41900
O  -13.42900 43.77300 40.88400
C  -14.95500 42.74100 42.29800
N  -13.63900 37.14500 42.30700
C  -14.43100 38.20200 42.53800
C  -15.82400 37.77200 42.92000
C  -15.71600 36.18500 43.08800
C  -14.19400 35.99700 42.66900
C  -16.39200 38.44000 44.16000
C  -16.65800 35.35200 42.11000
C  -18.06300 35.18800 42.72700
N  -11.43700 35.37400 41.88700
C  -12.31400 34.38000 42.42900
C  -11.67500 33.07600 42.38700
C  -10.46300 33.28700 41.68900
C  -10.38000 34.65000 41.37100
C  -12.13500 31.88200 42.98600
C  -9.21200 32.67000 41.22000
O  -8.82900 31.51700 41.33200
C  -8.33900 33.81300 40.71000
C  -7.01000 33.90600 41.49800
O  -5.97600 33.28800 41.21800
O  -7.04400 34.86600 42.51300
C  -5.75700 35.23400 43.16300
H  -9.13000 40.66700 39.80300
H  -15.02900 40.15300 42.19700
H  -14.22000 33.94100 43.21100
H  -6.86200 36.47900 40.21700
H  -7.48600 38.73300 38.58500
H  -5.56000 39.08400 39.65100
H  -6.02400 38.32500 41.21700
H  -6.76600 39.83600 40.71300
H  -7.74200 36.67900 37.23700
H  -7.90700 35.15600 38.03900
H  -5.92400 34.76300 37.18500
H  -5.30600 35.68300 38.49500
H  -9.98300 42.44500 39.45400
H  -10.80200 43.46300 40.62700
H  -11.60800 43.06000 39.08000
H  -14.89500 42.11400 43.18700
H  -15.78600 42.39400 41.68400
H  -15.20400 43.77400 42.54100
H  -16.51900 38.09800 42.14600
H  -15.85500 35.90500 44.13200
H  -16.86900 39.40000 43.96300
H  -15.50300 38.55100 44.78100
H  -17.15700 37.89400 44.71200
H  -16.35900 34.34200 41.82800
H  -16.69300 35.89400 41.16500
H  -18.12500 35.74800 43.66000
H  -18.27300 34.15000 42.98400
H  -18.79400 35.48500 41.97500
H  -12.25300 32.06100 44.05500
H  -11.58000 30.95400 42.84700
H  -13.10200 31.68300 42.52300
H  -8.00600 33.65900 39.68400
H  -5.00000 35.56300 42.45000
H  -5.44800 34.34500 43.71300
H  -5.89100 36.02600 43.89900

