158

Mg 53.24900 25.10400 44.04300
C  50.48900 27.44200 43.67200
C  51.13800 22.69900 43.14600
C  55.91600 23.28100 43.61900
C  55.27700 27.92900 44.72400
N  51.04100 25.14000 43.30200
C  50.10100 26.13600 43.31900
C  48.66400 25.56500 43.05600
C  48.89100 24.06000 43.24200
C  50.43800 23.90600 43.29800
C  48.29400 23.46000 44.55400
C  48.05000 26.09600 41.71800
C  49.01200 26.57400 40.63900
H  49.42300 25.49600 39.57100
N  53.51200 23.24100 43.53600
C  52.48900 22.29500 43.26200
C  53.07000 20.97700 42.95500
C  54.47700 21.24500 43.14600
C  54.72300 22.60400 43.48200
C  52.18800 19.76800 42.48300
C  55.46700 20.13400 42.90200
O  55.02400 18.99000 42.58400
C  56.93600 20.30300 42.90000
N  55.21000 25.64100 44.01000
C  56.17700 24.58300 43.86000
C  57.58300 25.15400 43.75600
C  57.40700 26.65400 44.23500
C  55.86000 26.77900 44.29800
C  58.79800 24.42800 44.38100
C  58.12200 27.71500 43.34900
C  59.30800 28.49800 43.93000
N  52.93800 27.29400 44.20800
C  53.88600 28.21400 44.69300
C  53.20100 29.42800 44.97100
C  51.84000 29.15300 44.51900
C  51.77000 27.81700 44.07600
C  53.87800 30.70100 45.50600
C  50.52400 29.69700 44.40600
O  50.06700 30.73500 44.79000
C  49.63500 28.66400 43.72500
C  49.33300 29.23300 42.41200
O  50.07000 29.54200 41.46100
O  47.94900 29.36600 42.41300
C  47.34600 29.96000 41.17700
H  50.45600 21.88400 42.89500
H  56.86500 22.76200 43.46700
H  55.87600 28.80700 44.97300
H  48.06100 26.00700 43.84900
H  48.50900 23.44300 42.42900
H  47.53900 24.17500 44.87900
H  49.06800 23.21900 45.28400
H  47.74900 22.52900 44.39600
H  47.39200 26.94000 41.92300
H  47.50000 25.25900 41.28900
H  49.86600 27.06600 41.10600
H  48.53800 27.35400 40.04300
H  52.30000 19.43000 41.45300
H  51.12600 19.90800 42.68500
H  52.50400 18.92300 43.09500
H  57.40300 19.36200 42.60900
H  57.37700 20.67400 43.82500
H  57.19500 21.08900 42.19000
H  57.79400 25.19600 42.68700
H  57.76200 26.75200 45.26000
H  59.57700 25.04400 44.83000
H  59.16300 23.82000 43.55300
H  58.33300 23.80600 45.14600
H  57.35600 28.45400 43.11400
H  58.22700 27.24500 42.37100
H  59.36000 29.55900 43.68600
H  60.19700 28.08200 43.45600
H  59.15000 28.47400 45.00800
H  53.29600 31.10300 46.33500
H  54.14900 31.34600 44.67000
H  54.73700 30.28000 46.02800
H  48.73800 28.55600 44.33500
H  47.69600 30.98900 41.08600
H  46.26500 29.82400 41.17500
H  47.82900 29.46100 40.33600
Mg 5.44500 54.39100 39.99500
C  5.99500 50.85200 40.01800
C  8.83100 54.70600 39.29000
C  4.92400 57.58700 39.27800
C  2.17800 53.87100 40.61900
N  7.17000 52.91100 39.68400
C  7.13600 51.55500 39.68600
C  8.49200 50.96600 39.48300
C  9.42000 52.23600 39.73200
C  8.44800 53.36500 39.51700
C  10.25700 52.22800 41.06900
C  8.74100 50.27400 38.06200
C  8.70800 51.17000 36.80300
H  7.63900 50.98100 35.73200
N  6.67000 55.89500 39.28200
C  8.03800 55.86800 39.15300
C  8.55000 57.16100 38.79600
C  7.41600 58.02100 38.73400
C  6.28200 57.18100 39.05100
C  9.97700 57.59100 38.60100
C  7.43500 59.50300 38.33000
O  8.51300 59.97600 37.97400
C  6.24100 60.38200 38.17000
N  3.70700 55.49800 39.57900
C  3.78100 56.83400 39.52100
C  2.42000 57.52100 39.86500
C  1.52700 56.22300 40.15600
C  2.55200 55.12200 40.14600
C  2.43000 58.54500 41.04300
C  0.47900 55.96600 39.05200
C  -0.95700 56.36900 39.29100
N  4.26800 52.75900 40.25000
C  2.93000 52.67100 40.57900
C  2.54800 51.29400 40.95000
C  3.69800 50.55500 40.71500
C  4.71900 51.45300 40.24800
C  1.24300 50.80400 41.60400
C  4.27500 49.19000 40.83800
O  3.80800 48.12600 41.21300
C  5.74000 49.33500 40.23500
C  5.72100 48.51100 38.98900
O  5.15100 48.79500 37.92700
O  6.37100 47.27900 39.22300
C  6.66400 46.46900 38.01100
H  9.90500 54.78000 39.10500
H  4.63600 58.64000 39.26600
H  1.16800 53.72000 41.00700
H  8.74200 50.14200 40.15000
H  10.20000 52.41400 38.99100
H  11.32400 52.43100 40.97600
H  10.21800 51.23900 41.52700
H  9.71000 52.94300 41.68300
H  7.98000 49.52600 37.83800
H  9.70600 49.77100 38.12100
H  9.72200 51.07000 36.41500
H  8.61600 52.21100 37.11000
H  10.72300 56.81100 38.75400
H  10.20700 58.30300 39.39300
H  10.04100 58.09000 37.63400
H  6.49400 61.26000 37.57400
H  5.97600 60.64300 39.19400
H  5.45100 59.86900 37.62200
H  1.98200 58.05200 39.02000
H  0.95900 56.21400 41.08600
H  2.93500 59.48500 40.82000
H  2.84300 58.02700 41.90800
H  1.39900 58.79300 41.29400
H  0.54200 54.93100 38.71700
H  0.79000 56.43700 38.11900
H  -1.51800 55.64700 38.69700
H  -1.11800 57.34800 38.84000
H  -1.20400 56.30600 40.35100
H  0.83900 51.67900 42.11300
H  1.37000 50.04000 42.37100
H  0.49100 50.49300 40.87900
H  6.42300 48.85400 40.93600
H  5.87700 46.33100 37.27000
H  7.10900 45.50300 38.25200
H  7.44800 47.02400 37.49500

