158

Mg 39.75600 9.98400 29.32500
C  41.86000 10.75600 32.09000
C  37.76000 8.20000 31.53700
C  37.84500 9.15000 26.85500
C  42.04300 11.41000 27.26100
N  39.83600 9.68500 31.55100
C  40.66000 10.22000 32.46200
C  40.10900 10.00500 33.86800
C  38.99600 8.99300 33.74000
C  38.82000 8.91500 32.19100
C  39.21500 7.58800 34.44200
C  39.65300 11.39000 34.55700
C  39.44300 11.40500 36.11400
H  40.55900 12.04300 36.92500
N  37.92700 8.91700 29.23300
C  37.26100 8.26100 30.20500
C  36.06200 7.65500 29.69700
C  36.03700 7.91600 28.29400
C  37.34300 8.65500 28.07300
C  35.06000 6.83100 30.51400
C  35.01800 7.51500 27.18600
O  35.29500 7.82600 26.01700
C  33.59200 7.06700 27.63700
N  39.91900 10.23300 27.34500
C  38.96600 9.85700 26.52000
C  39.23700 10.33300 25.06400
C  40.50200 11.22100 25.24500
C  40.88600 10.88800 26.71200
C  39.35800 9.17600 24.03800
C  40.28200 12.70800 24.99300
C  39.35600 13.40300 26.00700
N  41.62000 10.92000 29.52200
C  42.43800 11.37200 28.58100
C  43.73500 11.80200 29.21100
C  43.45400 11.65700 30.63800
C  42.24500 11.04700 30.73100
C  44.95200 12.30700 28.53400
C  43.95100 11.87000 31.99400
O  44.91200 12.48800 32.48300
C  43.01300 11.22300 32.95900
C  43.53200 10.16400 33.85000
O  43.61300 8.99900 33.53100
O  43.96600 10.61700 35.05200
C  44.61000 9.73400 36.03000
H  37.12700 7.62000 32.21200
H  37.29600 8.79600 25.98000
H  42.80600 11.86800 26.62700
H  40.85900 9.57600 34.53300
H  38.15500 9.57000 34.12400
H  40.16800 7.47600 34.95900
H  39.12200 6.75700 33.74300
H  38.49200 7.57600 35.25700
H  38.70200 11.78500 34.20100
H  40.40200 12.14300 34.30900
H  39.38900 10.35700 36.40700
H  38.52000 11.89600 36.42100
H  34.83200 5.91400 29.97000
H  34.12500 7.39000 30.49400
H  35.47500 6.59000 31.49300
H  33.24900 7.92100 28.22100
H  33.59800 6.27200 28.38200
H  32.95200 6.87900 26.77500
H  38.38800 10.96200 24.79700
H  41.37300 11.04900 24.61200
H  38.61300 9.29700 23.25100
H  39.28700 8.21100 24.54000
H  40.36300 9.11200 23.62100
H  39.73900 12.86000 24.06100
H  41.28500 13.13400 24.98400
H  38.87300 12.64600 26.62500
H  38.63400 14.03500 25.49000
H  39.99700 14.01100 26.64500
H  44.63300 12.77100 27.60100
H  45.67400 11.49900 28.41400
H  45.41800 13.07100 29.15600
H  42.61000 11.89600 33.71600
H  43.80400 9.88900 36.74700
H  45.58400 10.04100 36.41000
H  44.61200 8.71700 35.63700
Mg 55.12500 25.23100 44.15200
C  52.35000 27.54400 43.55600
C  53.21600 22.86700 42.46700
C  57.83200 23.60300 43.62000
C  56.91000 28.11500 45.02900
N  53.16000 25.32400 42.97300
C  52.16800 26.32000 42.94000
C  50.85300 25.83000 42.28600
C  51.11100 24.27000 42.47100
C  52.60000 24.10800 42.62300
C  50.30400 23.47000 43.51700
C  50.57900 26.48300 40.83700
C  50.77900 25.64600 39.60900
H  52.20400 25.29700 39.21800
N  55.45800 23.37700 43.34800
C  54.58700 22.53300 42.64700
C  55.29100 21.31100 42.45500
C  56.66900 21.54600 42.80000
C  56.75800 22.91500 43.23600
C  54.57700 20.12200 41.84400
C  57.68500 20.49000 42.71700
O  57.46000 19.35600 42.17000
C  59.12600 20.59400 43.21900
N  57.10000 25.82200 44.17300
C  58.04600 24.89500 44.04300
C  59.46100 25.53300 44.13400
C  59.16900 26.99900 44.56700
C  57.64100 26.99300 44.63400
C  60.37200 24.71100 45.11800
C  59.62900 28.11400 43.53000
C  58.65900 28.64400 42.43100
N  54.67800 27.42600 44.56400
C  55.51200 28.41800 44.97400
C  54.72700 29.58000 45.10000
C  53.44500 29.27200 44.60800
C  53.53800 27.95800 44.18700
C  55.12900 30.92700 45.60800
C  52.11900 29.83300 44.40600
O  51.58700 30.89400 44.71400
C  51.40100 28.77300 43.64400
C  51.13500 29.35900 42.37700
O  51.98800 29.70600 41.58800
O  49.76200 29.51700 42.16300
C  49.26500 30.26700 40.98500
H  52.59600 22.05200 42.08800
H  58.77100 23.05300 43.52000
H  57.64300 28.86700 45.32700
H  50.15800 26.18500 43.04700
H  50.82700 23.70400 41.58400
H  49.73900 24.24000 44.04300
H  50.89400 22.88200 44.22000
H  49.52700 22.81100 43.13200
H  51.36200 27.24100 40.83700
H  49.56200 26.87200 40.78300
H  50.43200 26.18900 38.72900
H  50.15200 24.75400 39.59500
H  55.21700 19.41700 41.31200
H  53.70100 20.36100 41.24100
H  54.04000 19.62500 42.65200
H  59.41000 19.58100 43.50300
H  59.01000 21.10800 44.17300
H  59.77700 21.03000 42.46000
H  60.00800 25.60700 43.19400
H  59.52500 27.27000 45.56100
H  61.17800 25.35400 45.47100
H  60.98500 23.91000 44.70300
H  59.80200 24.20600 45.89800
H  60.46300 27.76000 42.92400
H  59.90500 28.94500 44.18000
H  58.06900 27.79200 42.09300
H  59.25400 28.91500 41.56000
H  58.04400 29.42400 42.88000
H  54.26400 31.20600 46.21000
H  55.13800 31.65000 44.79300
H  56.03600 30.92900 46.21400
H  50.45300 28.56200 44.13900
H  49.43100 29.57200 40.16200
H  49.78600 31.20500 40.79500
H  48.29900 30.77300 40.97200

