158

Mg 42.23400 40.61500 26.18300
C  41.41100 42.90700 28.74400
C  43.39900 38.51100 28.63200
C  43.01000 38.63200 23.71600
C  41.39400 43.18100 23.81300
N  42.52600 40.79300 28.35600
C  41.99300 41.75400 29.23900
C  42.00300 41.37800 30.72900
C  42.76100 39.94100 30.62800
C  42.90300 39.74600 29.11600
C  44.21900 40.01600 31.34400
C  40.51300 41.14300 31.16000
C  40.10000 41.95600 32.38900
H  39.40800 41.18400 33.52400
N  43.14100 38.78800 26.25700
C  43.44200 37.97700 27.32100
C  43.87700 36.69300 26.76700
C  43.81600 36.78900 25.32000
C  43.32800 38.15700 25.01900
C  44.17700 35.55300 27.65700
C  44.11000 35.67900 24.32700
O  44.10700 35.88800 23.12500
C  44.64000 34.38700 24.67300
N  42.31200 40.92700 23.96200
C  42.69400 39.88200 23.22500
C  42.46700 40.20500 21.74800
C  41.87600 41.68100 21.83200
C  41.90500 42.01200 23.32400
C  43.70700 40.10800 20.82300
C  40.41100 41.82900 21.26600
C  40.29500 42.25600 19.76400
N  41.47400 42.60200 26.21700
C  41.14500 43.48900 25.18800
C  40.71500 44.75200 25.78800
C  40.81200 44.56800 27.21000
C  41.27300 43.27000 27.37300
C  40.30200 45.94900 25.05000
C  40.57200 45.13700 28.44600
O  40.07300 46.20500 28.63100
C  40.97400 44.16500 29.50900
C  42.01600 44.67700 30.39500
O  43.23200 44.63900 30.26600
O  41.39400 45.16200 31.50900
C  42.27000 45.36100 32.64200
H  43.68100 37.86300 29.46500
H  43.33800 37.92500 22.95100
H  40.97300 43.92100 23.12900
H  42.55200 42.09500 31.33900
H  42.30200 39.10800 31.15900
H  44.33100 39.17600 32.03100
H  44.28300 40.92200 31.94600
H  44.97800 39.84300 30.58100
H  40.36300 40.13300 31.54200
H  39.85900 41.33500 30.30900
H  39.46400 42.81200 32.16400
H  41.01900 42.29700 32.86500
H  45.10400 35.02500 27.43200
H  43.41100 34.78700 27.53900
H  44.15400 35.81000 28.71600
H  44.79100 33.72400 23.82000
H  44.04100 33.86200 25.41600
H  45.63100 34.51500 25.10700
H  41.70300 39.53400 21.35400
H  42.58100 42.40500 21.42400
H  44.24800 41.05200 20.76700
H  43.43000 39.74100 19.83500
H  44.37700 39.40800 21.32100
H  39.69600 42.48400 21.76400
H  39.87200 40.88200 21.29500
H  39.68400 41.67800 19.07000
H  41.31700 42.38600 19.40800
H  39.95300 43.28800 19.67800
H  39.28800 46.30900 25.22700
H  40.50400 45.77800 23.99300
H  40.96000 46.79800 25.23400
H  40.05800 43.92300 30.04800
H  42.48900 44.36300 33.02400
H  41.73700 46.04300 33.30300
H  43.24700 45.78200 32.40400
Mg 35.52500 48.05300 25.11500
C  36.07500 46.01100 27.93800
C  33.93100 50.32400 27.01700
C  34.87900 49.66700 22.21200
C  36.90500 45.34800 23.17000
N  35.20600 48.21500 27.32800
C  35.59300 47.29700 28.33000
C  35.15200 47.90400 29.68100
C  34.30300 49.17900 29.35000
C  34.43300 49.22600 27.82600
C  32.84500 49.04900 29.88100
C  36.35500 48.13000 30.65600
C  36.00400 48.12600 32.17400
H  34.57600 47.91900 32.66400
N  34.65900 49.83400 24.71900
C  34.06800 50.62800 25.61400
C  33.72900 51.87300 24.95800
C  33.93900 51.70500 23.54500
C  34.52700 50.33700 23.44300
C  33.26700 53.06400 25.69600
C  33.67800 52.56200 22.38800
O  33.75100 52.13700 21.23200
C  33.24300 53.90800 22.62500
N  35.74300 47.50700 22.97700
C  35.48200 48.45400 22.03000
C  35.98500 47.96900 20.62500
C  36.55700 46.47600 20.92100
C  36.42400 46.39800 22.45500
C  34.87700 48.03200 19.54000
C  38.05700 46.38700 20.46300
C  38.98900 47.48800 21.16700
N  36.29000 46.09500 25.45200
C  36.82400 45.17300 24.54700
C  37.28700 44.03700 25.36200
C  36.93200 44.29800 26.68800
C  36.43700 45.56000 26.66000
C  37.95100 42.75100 24.87500
C  36.84900 43.65600 27.98500
O  37.24000 42.59100 28.36900
C  36.38500 44.82800 28.89400
C  35.23200 44.34500 29.67600
O  34.14400 44.04100 29.23700
O  35.59500 44.41800 31.03600
C  34.43100 43.95100 31.91300
H  33.32900 51.06100 27.55100
H  34.76600 50.24000 21.28900
H  37.49000 44.62900 22.59200
H  34.46300 47.19700 30.14300
H  34.68400 50.14800 29.67000
H  32.65800 49.79200 30.65600
H  32.65000 48.04800 30.26700
H  32.17100 49.27600 29.05500
H  36.89500 48.97600 30.23200
H  37.12600 47.36300 30.58000
H  36.45800 48.99400 32.65200
H  36.43800 47.24100 32.63900
H  32.18500 53.02500 25.57600
H  33.69700 53.98200 25.29300
H  33.43200 53.09300 26.77300
H  34.15000 54.42700 22.93200
H  32.34300 53.90000 23.24000
H  32.86600 54.37000 21.71200
H  36.80000 48.61500 20.29800
H  36.00800 45.69600 20.39400
H  34.08100 48.66100 19.94000
H  34.43600 47.05100 19.35800
H  35.15100 48.50000 18.59500
H  38.00600 46.65500 19.40800
H  38.40200 45.35300 20.45700
H  38.44700 47.96100 21.98600
H  39.35900 48.22300 20.45200
H  39.81900 46.98700 21.66700
H  38.42500 43.03600 23.93500
H  37.11400 42.07400 24.70400
H  38.68500 42.20900 25.47300
H  37.25700 45.17700 29.44700
H  34.55500 42.88600 32.11000
H  33.45000 44.37300 31.69500
H  34.76300 44.49500 32.79800

