158

Mg -3.35600 16.77800 27.36000
C  -3.12400 14.72100 30.32300
C  -3.32100 19.63100 29.34100
C  -3.49600 18.53700 24.66100
C  -3.44800 13.84500 25.52400
N  -3.23700 17.09600 29.55900
C  -3.11000 16.12700 30.57600
C  -3.12000 16.76400 31.94900
C  -3.28600 18.24300 31.56600
C  -3.20800 18.39600 30.05000
C  -4.59500 18.83500 32.18200
C  -1.87400 16.41300 32.81100
C  -1.51900 17.31800 34.07300
H  -0.84000 16.72000 35.29300
N  -3.36500 18.77300 27.00700
C  -3.35200 19.77800 27.95900
C  -3.23400 21.01200 27.34600
C  -3.31200 20.78900 25.92700
C  -3.45300 19.30400 25.79700
C  -3.18500 22.31800 28.06500
C  -3.09500 21.78400 24.64600
O  -3.15300 21.43400 23.48000
C  -2.57500 23.20000 24.93200
N  -3.41800 16.23000 25.33500
C  -3.48700 17.16500 24.37400
C  -3.43800 16.51400 22.96300
C  -3.28700 15.02500 23.29000
C  -3.40400 15.03900 24.78500
C  -4.68800 16.79800 22.05000
C  -1.96500 14.36700 22.84300
C  -1.88700 13.94300 21.39500
N  -3.43200 14.74600 27.76100
C  -3.40500 13.68300 26.89700
C  -3.36200 12.39200 27.59200
C  -3.23700 12.79600 28.93200
C  -3.32500 14.22300 28.98800
C  -3.43900 11.02700 27.06400
C  -3.23500 12.28500 30.28500
O  -3.12700 11.13400 30.74800
C  -3.02900 13.56600 31.25600
C  -1.66200 13.36400 31.80000
O  -0.72100 13.94600 31.34200
O  -1.68700 12.69900 32.97600
C  -0.43200 12.63800 33.73000
H  -3.38400 20.41600 30.09800
H  -3.50000 19.12400 23.74000
H  -3.49700 12.97900 24.86000
H  -4.02200 16.43600 32.46500
H  -2.49700 18.82200 32.04500
H  -4.58400 19.92400 32.13200
H  -4.53500 18.69100 33.26100
H  -5.44900 18.35900 31.70100
H  -1.01800 16.35600 32.13800
H  -1.93300 15.39600 33.19800
H  -2.45000 17.79300 34.38400
H  -0.86200 18.11900 33.73400
H  -2.23300 22.82700 27.91000
H  -3.33500 22.22500 29.14100
H  -3.93900 23.01400 27.69700
H  -1.67600 23.06900 25.53400
H  -3.26400 23.82900 25.49500
H  -2.36700 23.74400 24.01000
H  -2.56400 16.95300 22.48100
H  -4.16500 14.51600 22.89100
H  -5.34300 17.54300 22.50100
H  -5.37700 16.02500 21.70900
H  -4.31600 17.30600 21.16000
H  -1.73300 13.46200 23.40400
H  -1.16500 15.09600 22.97800
H  -2.76700 14.35800 20.90100
H  -1.86800 12.85700 21.30300
H  -0.98300 14.33500 20.93000
H  -4.45400 10.66000 27.21900
H  -2.67900 10.49900 27.63900
H  -3.05900 10.90200 26.05000
H  -3.77100 13.42600 32.04300
H  -0.31400 13.46100 34.43400
H  0.47900 12.48900 33.14900
H  -0.57900 11.68600 34.23900
Mg 24.42400 -5.67200 45.61800
C  26.35600 -3.18500 44.17300
C  21.91200 -4.74800 43.47600
C  22.82000 -8.63000 46.25400
C  27.28100 -6.87400 47.30300
N  24.19000 -4.12900 43.94300
C  25.05100 -3.12200 43.72100
C  24.46600 -2.00100 42.78200
C  22.97500 -2.49200 42.63800
C  22.99400 -3.92000 43.42400
C  21.83700 -1.54900 43.21300
C  25.33800 -1.72100 41.47100
C  25.44900 -0.30800 40.81000
H  24.79800 -0.16300 39.42500
N  22.54500 -6.53000 45.01300
C  21.68300 -5.94800 44.18900
C  20.48000 -6.74200 44.11700
C  20.63300 -7.82600 45.08200
C  22.05200 -7.70400 45.53700
C  19.34700 -6.31200 43.33400
C  19.53200 -8.75200 45.52000
O  18.34400 -8.52000 45.20800
C  19.89900 -9.79000 46.54700
N  24.90600 -7.47100 46.63500
C  24.07000 -8.56400 46.78600
C  24.81400 -9.77500 47.43100
C  26.09600 -9.08500 47.95800
C  26.11900 -7.68200 47.29100
C  23.92200 -10.46400 48.46100
C  27.32800 -9.97700 47.66300
C  28.19300 -10.08300 48.93000
N  26.39200 -5.12600 45.84600
C  27.40500 -5.61400 46.65000
C  28.64700 -4.90800 46.41700
C  28.24600 -3.90300 45.49900
C  26.87100 -4.08200 45.16000
C  29.98600 -5.18000 47.10100
C  28.72200 -2.72700 44.75600
O  29.86200 -2.29800 44.66500
C  27.57700 -2.22800 43.87500
C  27.33700 -0.84500 44.40700
O  26.54000 -0.54800 45.28100
O  27.92600 0.08000 43.61900
C  27.39800 1.48500 43.64600
H  21.09600 -4.43100 42.82400
H  22.41000 -9.58500 46.59100
H  28.21600 -7.21800 47.75000
H  24.41100 -1.14300 43.45300
H  22.74600 -2.83900 41.63000
H  22.38600 -0.62700 43.40500
H  21.36400 -1.91100 44.12600
H  21.00500 -1.37500 42.53000
H  24.75800 -2.23800 40.70600
H  26.30100 -2.20600 41.62700
H  26.46400 0.06200 40.66500
H  24.81100 0.29300 41.45800
H  18.64600 -7.09400 43.04200
H  19.66000 -5.80800 42.41900
H  18.88800 -5.51100 43.91400
H  19.06400 -10.26600 47.06000
H  20.49900 -9.52800 47.41900
H  20.51500 -10.56000 46.08300
H  25.11000 -10.50200 46.67400
H  26.04400 -8.95400 49.03900
H  22.94700 -9.98200 48.52300
H  24.20700 -10.56700 49.50800
H  23.62500 -11.47000 48.16300
H  27.94000 -9.45700 46.92600
H  27.03800 -10.97000 47.32100
H  28.47500 -9.06500 49.19700
H  29.15800 -10.51300 48.66200
H  27.68100 -10.64000 49.71400
H  30.63900 -4.30800 47.09000
H  30.54000 -6.08800 46.86400
H  29.75000 -5.45100 48.13000
H  27.95600 -2.24400 42.85300
H  28.24500 2.10300 43.94500
H  26.68900 1.70600 44.44400
H  27.07200 1.78000 42.64900

