158

Mg 54.06500 23.97000 44.17100
C  51.28700 26.13300 43.26900
C  52.31000 21.47100 42.42400
C  56.68700 22.10100 44.34700
C  55.90600 26.86200 45.07600
N  52.07600 23.89700 42.92600
C  51.14700 24.85600 42.69100
C  50.08800 24.27300 41.77300
C  50.18600 22.74000 41.97300
C  51.65200 22.69100 42.34400
C  49.24700 22.20200 43.12400
C  50.03800 24.78400 40.29000
C  51.37700 25.18900 39.77300
H  51.39900 25.93500 38.45500
N  54.41700 22.06800 43.61500
C  53.54200 21.18900 43.02300
C  54.17300 19.91300 43.02200
C  55.41500 19.97200 43.70500
C  55.52600 21.35100 44.00200
C  53.56200 18.58700 42.52500
C  56.35600 18.78500 44.15100
O  56.10200 17.64000 43.81200
C  57.69300 19.10600 44.85900
N  56.07200 24.41700 44.59700
C  56.97300 23.44700 44.61100
C  58.35600 24.03300 45.00600
C  58.09500 25.62700 44.99800
C  56.62500 25.65400 44.88600
C  58.84500 23.53400 46.35600
C  58.83300 26.35100 43.87800
C  60.04200 27.20100 44.26900
N  53.73400 26.05300 44.24200
C  54.52700 27.05700 44.74000
C  53.71900 28.32300 44.78700
C  52.51000 27.95500 44.19800
C  52.53600 26.61900 43.91900
C  54.14400 29.61000 45.30500
C  51.23200 28.50400 43.80600
O  50.77400 29.57400 43.79900
C  50.39800 27.29900 43.28800
C  49.77300 27.70500 41.97700
O  50.37100 28.06800 40.96800
O  48.40400 27.56400 41.97800
C  47.64500 28.38000 41.04400
H  51.89000 20.61600 41.88900
H  57.54900 21.43600 44.42400
H  56.37400 27.81200 45.34200
H  49.07800 24.53900 42.08600
H  49.91100 22.26200 41.03300
H  48.85800 21.25100 42.75800
H  48.35100 22.73700 43.43700
H  49.88600 21.84800 43.93300
H  49.43400 25.68400 40.17200
H  49.62100 24.06500 39.58300
H  51.97600 24.28100 39.69100
H  51.88900 25.85500 40.46800
H  53.77400 17.75500 43.19700
H  53.87000 18.45400 41.48900
H  52.47600 18.56100 42.43800
H  58.11700 18.13600 45.11700
H  57.42900 19.71300 45.72600
H  58.31000 19.59300 44.10400
H  59.05900 23.80400 44.20500
H  58.28600 25.99000 46.00800
H  58.89800 22.45400 46.21600
H  58.12800 23.74800 47.14800
H  59.70500 24.13600 46.64800
H  58.05800 27.03200 43.52500
H  59.11200 25.66000 43.08300
H  60.31800 27.10900 45.31900
H  59.86500 28.24700 44.01600
H  60.90500 26.79700 43.73900
H  54.10200 29.64700 46.39300
H  53.50300 30.34900 44.82400
H  55.16900 29.70600 44.94600
H  49.63000 27.27200 44.06000
H  48.00500 29.40800 40.98700
H  46.62900 28.53500 41.40700
H  47.61700 28.01800 40.01700
Mg 1.04400 42.17700 25.44000
C  3.06800 42.16500 28.34200
C  -1.59800 41.21100 27.39000
C  -0.70200 41.53100 22.54500
C  3.84600 42.95300 23.63800
N  0.80000 41.60400 27.64700
C  1.66900 41.97600 28.63100
C  1.06000 42.00200 30.05600
C  -0.35800 41.45500 29.67200
C  -0.42600 41.43200 28.17400
C  -0.66500 40.01100 30.21100
C  0.91800 43.38900 30.74000
C  1.29700 43.44000 32.27400
H  0.72600 42.24100 33.04200
N  -0.87500 41.53300 25.01600
C  -1.81400 41.24300 25.95900
C  -3.03800 40.96100 25.31500
C  -2.82300 40.99800 23.86800
C  -1.39800 41.37300 23.74200
C  -4.34600 40.60600 26.03900
C  -3.67600 40.62600 22.70300
O  -3.37900 40.69700 21.54400
C  -5.08700 40.31300 22.92700
N  1.49000 42.21900 23.37300
C  0.63300 41.88700 22.35600
C  1.33200 41.99100 21.00600
C  2.74300 42.69200 21.43400
C  2.71900 42.64600 22.92000
C  1.50700 40.65500 20.21600
C  2.91100 44.16500 20.98700
C  4.07000 44.55200 20.11200
N  3.07700 42.49800 25.83400
C  4.10200 42.86700 24.98000
C  5.31900 42.96400 25.68600
C  5.04900 42.61600 27.08000
C  3.65500 42.35000 27.09100
C  6.71500 43.20600 25.11600
C  5.52000 42.41700 28.42500
O  6.64400 42.49800 28.89600
C  4.23500 42.29800 29.34400
C  4.37700 41.19500 30.30000
O  4.03200 40.05900 30.01700
O  4.67000 41.64600 31.53000
C  4.50800 40.68200 32.63400
H  -2.44800 41.25000 28.07400
H  -1.15400 41.23900 21.59500
H  4.64300 43.30700 22.98100
H  1.43300 41.25800 30.76100
H  -1.15500 42.11400 30.01700
H  -1.64500 39.96000 30.68600
H  0.07500 39.70300 30.95100
H  -0.74400 39.37300 29.33200
H  -0.09800 43.78400 30.75100
H  1.62500 44.13900 30.38500
H  0.83200 44.32700 32.70400
H  2.38000 43.56500 32.29900
H  -5.07500 41.41100 25.94600
H  -4.29000 40.53600 27.12600
H  -4.77000 39.67800 25.65600
H  -5.31400 39.38600 23.45300
H  -5.64900 40.38000 21.99600
H  -5.56600 41.14700 23.44000
H  0.66600 42.61400 20.40900
H  3.59000 42.03900 21.22200
H  0.81700 39.95900 20.69200
H  2.45900 40.12400 20.21300
H  1.25900 40.81600 19.16700
H  2.99700 44.85800 21.82300
H  2.04500 44.47600 20.40200
H  4.47400 45.45800 20.56300
H  3.84700 44.70800 19.05600
H  4.81600 43.75900 20.15300
H  6.62500 43.94300 24.31900
H  7.19800 42.31900 24.70400
H  7.40800 43.40300 25.93500
H  4.21700 43.28500 29.80500
H  5.49600 40.31800 32.91400
H  3.79700 39.86900 32.48500
H  4.14200 41.12900 33.55800

