158

Mg 26.80800 50.11900 26.42700
C  24.69500 51.23000 29.12200
C  29.11700 49.28200 28.86000
C  28.88100 49.25000 24.03600
C  24.44100 51.49200 24.22700
N  26.94400 50.49600 28.72900
C  25.94800 50.76200 29.64700
C  26.39500 50.48700 31.08500
C  27.88500 50.09700 30.98800
C  28.03000 49.95100 29.42800
C  28.97700 51.01700 31.64500
C  25.55900 49.34700 31.91600
C  24.55300 49.97500 32.95800
H  24.25100 49.37600 34.35000
N  28.79300 49.48700 26.46500
C  29.53100 49.06300 27.58200
C  30.88100 48.64900 27.11500
C  30.80100 48.56100 25.65400
C  29.49400 49.16100 25.32300
C  31.90700 48.24700 28.06700
C  31.69500 47.95300 24.61900
O  31.51900 48.00800 23.37800
C  32.97800 47.23700 24.98900
N  26.80300 50.58500 24.40100
C  27.63500 49.88500 23.61400
C  27.07200 49.73000 22.16300
C  25.65500 50.41400 22.23000
C  25.63700 50.89200 23.71900
C  27.94300 50.40600 21.10500
C  24.47600 49.42100 21.89200
C  23.15400 49.85100 21.25100
N  24.92900 51.09200 26.63300
C  24.12800 51.63200 25.61300
C  22.96300 52.21100 26.18600
C  23.06900 52.06000 27.62600
C  24.36000 51.41300 27.81000
C  21.74700 52.82700 25.52400
C  22.49700 52.46700 28.84700
O  21.55300 53.16800 29.12100
C  23.41900 51.75300 29.82800
C  23.74300 52.71200 30.98100
O  24.74300 53.46000 30.99600
O  22.65600 52.72500 31.87800
C  22.95500 53.63300 32.96200
H  29.73700 48.82400 29.63400
H  29.20100 48.57600 23.23900
H  23.60200 51.85000 23.62800
H  26.29600 51.43000 31.62300
H  28.08400 49.11800 31.42300
H  29.62100 50.51100 32.36400
H  28.35400 51.67400 32.25200
H  29.54100 51.57300 30.89600
H  26.14300 48.63200 32.49500
H  24.99600 48.70800 31.23600
H  23.65800 50.03200 32.33800
H  24.79700 51.03500 33.02600
H  32.81600 48.78900 27.80500
H  32.22000 47.21500 27.90900
H  31.73800 48.55800 29.09800
H  33.55600 46.97900 24.10200
H  32.56900 46.30800 25.38700
H  33.55300 47.81500 25.71200
H  26.96100 48.68800 21.86000
H  25.57300 51.24400 21.52800
H  28.94700 50.74600 21.35800
H  27.39200 51.14400 20.52200
H  28.14700 49.61600 20.38200
H  24.05800 48.86100 22.72900
H  24.83000 48.59500 21.27500
H  22.95900 49.34500 20.30500
H  23.09700 50.92200 21.05800
H  22.27300 49.65600 21.86300
H  20.99500 52.04900 25.39100
H  21.96400 53.03500 24.47600
H  21.39200 53.74900 25.98400
H  22.97900 50.82600 30.19700
H  23.14200 54.65100 32.61900
H  23.74400 53.37400 33.66900
H  22.03600 53.60100 33.54700
Mg -12.18100 37.39300 43.30600
C  -9.98200 34.92000 42.03500
C  -10.30900 39.80100 41.64500
C  -14.61700 39.74900 43.93800
C  -14.26900 34.95200 44.28400
N  -10.27900 37.32500 41.93300
C  -9.59900 36.23600 41.59700
C  -8.43200 36.62200 40.68900
C  -8.44900 38.28300 40.75800
C  -9.68200 38.54300 41.65500
C  -7.19300 39.04600 41.29200
C  -8.55700 36.07100 39.24500
C  -7.34200 36.36400 38.47900
H  -7.12100 35.53600 37.19100
N  -12.41100 39.56500 42.85500
C  -11.59600 40.30700 42.12500
C  -12.11900 41.63400 41.86100
C  -13.47800 41.62400 42.37700
C  -13.51900 40.33000 43.09600
C  -11.33700 42.69800 41.06800
C  -14.49700 42.78800 42.32900
O  -14.11700 43.82000 41.84500
C  -15.81200 42.69000 42.89000
N  -14.07900 37.37300 44.02900
C  -14.89300 38.43000 44.42100
C  -16.28900 37.96800 44.90800
C  -16.16200 36.43200 44.85100
C  -14.69800 36.23300 44.38300
C  -16.73200 38.60600 46.27300
C  -17.19100 35.70400 43.94600
C  -17.95300 34.54500 44.51900
N  -12.08100 35.30600 43.37200
C  -13.02800 34.45400 43.93400
C  -12.51800 33.07400 43.75500
C  -11.27800 33.27100 43.10000
C  -11.08100 34.63200 42.78000
C  -13.15200 31.80900 44.19100
C  -10.05200 32.55300 42.56800
O  -9.75500 31.37800 42.53400
C  -9.20300 33.58000 41.91400
C  -7.88100 33.62100 42.66800
O  -6.91000 33.00000 42.29600
O  -7.90600 34.41500 43.77700
C  -6.54500 34.66800 44.35600
H  -9.68400 40.54200 41.14300
H  -15.29800 40.57200 44.16200
H  -15.02400 34.25200 44.64900
H  -7.56100 36.20700 41.19700
H  -8.75700 38.67600 39.78900
H  -7.30500 39.19200 42.36600
H  -6.86600 39.92700 40.74000
H  -6.32100 38.39300 41.29100
H  -9.48500 36.55800 38.94900
H  -8.80000 35.00900 39.28300
H  -6.39500 36.12900 38.96300
H  -7.34100 37.42600 38.23200
H  -11.59300 43.64200 41.55000
H  -11.58500 42.73800 40.00800
H  -10.25300 42.58700 41.07400
H  -16.47900 43.48500 42.55800
H  -15.68900 42.82400 43.96400
H  -16.28000 41.77200 42.53200
H  -16.99500 38.28700 44.14200
H  -16.20400 36.01600 45.85800
H  -16.88200 37.79200 46.98200
H  -17.69800 39.09400 46.13600
H  -15.97500 39.26500 46.69800
H  -16.79200 35.34900 42.99600
H  -17.96400 36.39900 43.61800
H  -17.83400 34.44900 45.59900
H  -17.60900 33.67500 43.95900
H  -18.98400 34.77800 44.25300
H  -13.83400 32.04200 45.00900
H  -12.42200 31.03700 44.43200
H  -13.71500 31.46200 43.32400
H  -9.03300 33.30100 40.87400
H  -6.11400 33.70100 44.61500
H  -6.47800 35.28900 45.24900
H  -5.90800 35.15000 43.61400

