158

Mg 8.60300 3.47300 27.73700
C  10.19900 1.96900 30.50100
C  6.44800 5.17400 29.87500
C  6.93400 4.79700 25.05800
C  10.27900 1.33000 25.57400
N  8.20500 3.31900 30.00800
C  9.12400 2.86700 30.94900
C  8.72700 3.44300 32.39300
C  7.51600 4.40800 32.08100
C  7.33200 4.29900 30.56200
C  6.20100 4.22000 32.82300
C  9.81000 4.03700 33.30400
C  9.44700 5.24000 34.29100
H  10.23900 5.13100 35.60700
N  6.86500 4.82900 27.52400
C  6.15900 5.38100 28.49600
C  5.15800 6.32400 27.93700
C  5.32100 6.27200 26.56000
C  6.45600 5.30400 26.29600
C  4.26000 7.14700 28.78700
C  4.65500 6.95000 25.41900
O  4.92600 6.76400 24.26400
C  3.69800 8.08300 25.73900
N  8.64800 3.16400 25.75900
C  7.88300 3.79900 24.78700
C  8.37000 3.62400 23.40500
C  9.46200 2.60100 23.58500
C  9.46700 2.31300 25.09800
C  7.21800 3.29000 22.32500
C  10.86800 3.06000 22.91600
C  11.24600 2.51200 21.53600
N  9.96300 1.92000 27.91100
C  10.59400 1.15600 26.96500
C  11.43700 0.23500 27.65800
C  11.38200 0.62900 28.97300
C  10.43000 1.65000 29.08200
C  12.24600 -0.80900 27.00000
C  11.94300 0.31800 30.27300
O  12.82000 -0.46000 30.53100
C  11.24600 1.26000 31.39400
C  10.60900 0.41300 32.39300
O  9.69200 -0.34500 32.20800
O  11.22200 0.64800 33.57200
C  10.57900 0.18900 34.76900
H  5.86500 5.74500 30.60100
H  6.41200 5.06400 24.13700
H  10.84300 0.80000 24.80300
H  8.19200 2.69500 32.97900
H  7.80500 5.45600 32.15800
H  5.83200 5.21500 33.07600
H  6.44200 3.71200 33.75700
H  5.51500 3.60500 32.24100
H  10.69400 4.23500 32.69700
H  10.13000 3.14000 33.83400
H  8.39600 5.15400 34.56600
H  9.69400 6.16800 33.77600
H  4.44100 8.19200 28.53600
H  4.29400 7.03700 29.87100
H  3.22900 6.98700 28.46900
H  3.27800 8.42900 24.79400
H  4.25300 8.87100 26.24700
H  2.93800 7.58200 26.33800
H  8.82000 4.55300 23.05200
H  9.22900 1.63200 23.14300
H  7.70100 2.87000 21.44200
H  6.68100 4.14500 21.91400
H  6.58100 2.50300 22.72800
H  11.69000 2.65900 23.50800
H  10.90900 4.13500 23.09300
H  11.40000 3.27200 20.77000
H  10.38600 1.90400 21.25600
H  12.18700 1.97500 21.42100
H  13.11000 -1.06500 27.61200
H  12.61100 -0.39800 26.05900
H  11.73000 -1.76400 26.89700
H  12.02600 1.84900 31.87700
H  11.36400 0.34600 35.50900
H  10.31600 -0.85700 34.61300
H  9.72700 0.72700 35.18400
Mg 35.67900 48.44200 24.75600
C  36.00800 46.76500 27.91400
C  34.40500 51.13400 26.47100
C  35.14300 49.87900 21.78100
C  36.67500 45.45400 23.14600
N  35.14100 48.81000 27.01700
C  35.38600 48.04400 28.05200
C  34.99600 48.76200 29.38700
C  34.24200 50.06400 28.85600
C  34.53400 50.00200 27.30900
C  32.64500 50.08300 29.06300
C  36.16500 49.06200 30.44300
C  35.90100 48.74200 31.87000
H  34.55500 49.04000 32.48200
N  35.07200 50.37000 24.16400
C  34.62900 51.34700 25.06000
C  34.55800 52.56800 24.25400
C  34.78600 52.20900 22.88600
C  34.89000 50.75600 22.89600
C  34.37600 53.85600 24.91600
C  34.84300 52.99800 21.68100
O  35.15900 52.56300 20.58500
C  34.33900 54.37200 21.67500
N  35.99900 47.76200 22.77700
C  35.65800 48.55900 21.70900
C  35.98200 47.81400 20.40300
C  36.59500 46.44100 20.86300
C  36.34400 46.53300 22.36800
C  34.84700 47.67800 19.47000
C  38.11800 46.30700 20.59700
C  39.01900 47.38200 21.23500
N  36.24400 46.49300 25.31000
C  36.64900 45.38500 24.57900
C  37.06800 44.30500 25.42300
C  36.81900 44.84100 26.74800
C  36.32800 46.16300 26.65500
C  37.60800 43.08300 24.89700
C  37.00100 44.51300 28.19500
O  37.40500 43.50800 28.79100
C  36.53500 45.86600 29.00400
C  35.43200 45.37200 29.89200
O  34.20700 45.43500 29.58900
O  35.88300 45.06000 31.12700
C  34.84600 44.58300 32.02200
H  34.05000 52.04500 26.95700
H  35.03700 50.35500 20.80400
H  36.98900 44.53700 22.64400
H  34.32800 48.07000 29.90000
H  34.66200 50.94800 29.33600
H  32.08500 50.12400 28.12800
H  32.58200 50.90800 29.77300
H  32.34400 49.17400 29.58300
H  36.32000 50.14000 30.48600
H  37.07200 48.69400 29.96400
H  36.60600 49.36800 32.41700
H  36.11900 47.67900 31.97200
H  35.02300 54.52900 24.35300
H  34.75900 53.73300 25.92900
H  33.36500 54.24500 24.79500
H  34.08500 54.67600 20.65900
H  35.17200 55.00100 21.99000
H  33.35300 54.55300 22.10200
H  36.72100 48.52400 20.03100
H  35.99800 45.64700 20.41400
H  33.85900 47.80000 19.91400
H  34.76700 46.69300 19.01100
H  34.90000 48.42600 18.67800
H  38.17900 46.51200 19.52800
H  38.41100 45.28800 20.85100
H  39.88900 46.88100 21.66000
H  38.67600 48.06000 22.01600
H  39.21600 48.09000 20.43000
H  36.87400 42.75000 24.16300
H  37.69700 42.38300 25.72800
H  38.60200 43.22600 24.47100
H  37.37100 46.29000 29.56100
H  35.14100 44.20800 33.00200
H  34.27200 43.76600 31.58500
H  34.15000 45.38100 32.28000

