158

Mg 25.34800 0.51400 29.39600
C  27.42200 0.86000 32.26800
C  22.63100 1.15300 31.61300
C  23.38300 0.73700 26.84000
C  28.20600 0.00600 27.42300
N  25.03700 1.13700 31.68300
C  26.06000 1.06700 32.63300
C  25.48600 1.33000 34.00500
C  23.94900 1.20600 33.78700
C  23.85900 1.11600 32.25400
C  23.16500 0.11900 34.49100
C  26.02700 2.64000 34.63500
C  26.74900 2.41600 36.04100
H  26.36600 3.41000 37.20700
N  23.21200 0.97200 29.20200
C  22.32500 1.19500 30.23100
C  21.08200 1.42400 29.62200
C  21.19200 1.18400 28.18300
C  22.64100 0.96700 28.00300
C  19.73400 1.62600 30.34700
C  20.14200 1.17400 27.11300
O  20.48500 1.03500 25.96700
C  18.71000 1.35600 27.39100
N  25.77200 0.29700 27.30700
C  24.74200 0.39300 26.48400
C  25.20800 0.15800 25.07300
C  26.84700 0.07900 25.22200
C  26.95600 0.14000 26.68100
C  24.47300 -0.93000 24.28400
C  27.58800 1.28800 24.55700
C  28.98400 1.02100 24.02200
N  27.39300 0.28100 29.74600
C  28.43500 0.08700 28.84200
C  29.67000 -0.07000 29.58700
C  29.28600 0.26500 30.93300
C  27.93900 0.46700 30.96800
C  30.98300 -0.23800 28.96300
C  29.79000 0.46100 32.25800
O  30.94600 0.38400 32.64100
C  28.55400 0.80300 33.17400
C  28.48700 -0.24700 34.14900
O  27.67600 -1.18800 34.05800
O  29.43300 -0.01000 35.16500
C  29.15200 -0.83500 36.35400
H  21.75000 1.11000 32.25800
H  22.72300 0.79200 25.97100
H  29.03000 -0.25600 26.75700
H  25.86500 0.50500 34.60900
H  23.40600 2.08400 34.13600
H  22.21900 0.60400 34.73200
H  23.65500 -0.41700 35.30400
H  22.94100 -0.68400 33.79000
H  25.18200 3.32100 34.72400
H  26.73500 3.12000 33.95900
H  27.77100 2.71100 35.80100
H  26.81500 1.38900 36.39900
H  19.86200 1.73600 31.42300
H  19.03500 0.85100 30.03100
H  19.36400 2.53000 29.86400
H  18.35000 0.53500 28.01100
H  18.16000 1.19500 26.46400
H  18.53600 2.28900 27.92800
H  25.03900 1.08200 24.51900
H  27.21700 -0.88900 24.88200
H  23.71800 -1.24100 25.00600
H  25.18600 -1.65400 23.89000
H  23.81900 -0.46600 23.54600
H  27.52300 2.12100 25.25700
H  26.99200 1.46000 23.66100
H  28.88400 1.23900 22.95900
H  29.26400 -0.01700 24.19900
H  29.76900 1.63700 24.45900
H  30.93500 0.15500 27.94800
H  31.19100 -1.30700 28.91600
H  31.63900 0.33700 29.61600
H  28.76100 1.73900 33.69300
H  29.45100 -1.83500 36.04000
H  28.17300 -0.61900 36.78100
H  29.76500 -0.43400 37.16200
Mg 17.53600 51.21500 25.80600
C  19.35700 50.06000 28.62900
C  15.17300 52.41300 28.10700
C  15.47600 51.97900 23.25700
C  19.73700 49.51700 23.75000
N  17.22500 51.13300 28.10400
C  18.11700 50.67300 29.03300
C  17.62800 50.95200 30.47200
C  16.21200 51.55500 30.24400
C  16.20300 51.69900 28.72400
C  14.95900 50.66400 30.74900
C  18.57100 51.91000 31.15400
C  18.31500 52.22400 32.65000
H  17.27200 51.49500 33.39500
N  15.64500 52.13900 25.70300
C  14.87100 52.59100 26.73100
C  13.63500 53.20100 26.13100
C  13.75900 53.16400 24.69200
C  14.99300 52.40200 24.45900
C  12.51000 53.76100 26.87500
C  12.89400 53.74200 23.59800
O  13.23200 53.74400 22.45700
C  11.62500 54.41200 24.02400
N  17.58200 50.75800 23.85100
C  16.63900 51.22600 22.97500
C  16.99700 50.77600 21.54400
C  18.36700 50.07100 21.66200
C  18.54400 50.08800 23.14700
C  15.89300 49.94300 20.84100
C  19.61200 50.68900 20.85200
C  20.51100 49.61700 20.26300
N  19.27300 50.07700 26.08400
C  20.12100 49.50400 25.12800
C  21.23100 48.81800 25.81000
C  20.95600 49.08100 27.18900
C  19.73400 49.75000 27.29700
C  22.33200 48.16000 25.06100
C  21.45400 48.67700 28.53200
O  22.45600 48.10400 28.90000
C  20.41700 49.41000 29.46400
C  19.82900 48.31600 30.36200
O  19.22800 47.27900 30.00700
O  20.07600 48.67100 31.66200
C  19.66900 47.77600 32.77800
H  14.40500 52.94900 28.66900
H  14.88700 52.31200 22.40000
H  20.41900 49.07500 23.02100
H  17.52100 50.07700 31.11300
H  16.07100 52.50000 30.76800
H  14.64700 50.11700 29.86000
H  14.19100 51.30200 31.18700
H  15.22100 49.91100 31.49200
H  18.54900 52.77700 30.49400
H  19.58600 51.54000 31.00900
H  18.22300 53.30900 32.60800
H  19.20400 52.07600 33.26400
H  12.63300 53.94000 27.94400
H  11.65700 53.18000 26.52500
H  12.34100 54.76000 26.47300
H  11.91900 55.29700 24.58700
H  10.90800 53.79200 24.56200
H  11.23000 54.75000 23.06600
H  17.04700 51.72700 21.01300
H  18.12700 49.05000 21.36700
H  15.28300 49.61200 21.68200
H  16.35100 49.08900 20.34300
H  15.32200 50.57800 20.16300
H  20.09900 51.29400 21.61600
H  19.19200 51.34600 20.09100
H  19.82000 48.80500 20.04000
H  21.29600 49.22200 20.90800
H  20.95800 50.04300 19.36500
H  23.04800 47.78000 25.79000
H  22.78600 48.93600 24.44400
H  22.08300 47.31500 24.41900
H  20.83200 50.10100 30.19800
H  18.63700 47.98400 33.05800
H  20.26200 47.95600 33.67500
H  19.75900 46.73700 32.46000

