158

Mg 7.93400 2.99800 27.72900
C  9.60500 1.67000 30.53900
C  6.01100 4.90400 29.68200
C  6.05400 3.62600 24.96700
C  9.43800 0.34700 25.79000
N  7.95400 3.27400 29.85100
C  8.62300 2.60200 30.86300
C  8.28000 3.11300 32.22400
C  7.11700 4.12700 31.91200
C  6.98800 4.14200 30.37000
C  5.84900 3.73300 32.67900
C  9.53600 3.61400 32.99500
C  9.10500 4.58600 34.18500
H  9.74200 4.13900 35.45100
N  6.36800 4.22300 27.32400
C  5.69300 4.96400 28.26900
C  4.86200 5.88500 27.62300
C  4.81800 5.50400 26.25200
C  5.80700 4.43500 26.10000
C  4.21400 7.00300 28.36900
C  3.88700 6.00000 25.20500
O  3.88200 5.63000 24.03900
C  2.89400 7.14000 25.57700
N  7.90100 2.18000 25.60100
C  6.97700 2.60100 24.71000
C  7.09000 1.91500 23.40100
C  8.29900 0.86000 23.67100
C  8.58600 1.17900 25.11500
C  5.76400 1.22400 22.96000
C  9.58400 1.07300 22.78900
C  9.98600 -0.19500 21.92900
N  9.36100 1.52900 27.96700
C  9.84100 0.52500 27.11700
C  10.60300 -0.42900 27.87800
C  10.63300 0.08900 29.15300
C  9.79600 1.25000 29.18200
C  11.31400 -1.68100 27.38800
C  11.17400 -0.16900 30.39700
O  11.92500 -1.07400 30.78800
C  10.56000 0.88700 31.39800
C  9.86500 0.12500 32.52500
O  8.76100 -0.38800 32.41600
O  10.55600 0.18900 33.64200
C  10.23300 -0.69700 34.81200
H  5.50300 5.53500 30.41500
H  5.40700 3.90600 24.13300
H  9.85100 -0.53800 25.30200
H  7.96000 2.22500 32.76900
H  7.51000 5.11400 32.15300
H  5.81700 4.26000 33.63300
H  5.79400 2.66800 32.90500
H  4.99300 4.07900 32.10100
H  10.25800 4.01200 32.28200
H  9.96800 2.77200 33.53400
H  8.02300 4.63200 34.30600
H  9.59200 5.53800 33.97400
H  4.52500 7.10600 29.40900
H  3.14100 6.81300 28.33600
H  4.45800 7.94300 27.87500
H  2.26700 7.47500 24.75000
H  3.48500 7.99400 25.90700
H  2.25400 6.85900 26.41300
H  7.37800 2.61300 22.61400
H  7.98600 -0.18300 23.63500
H  4.98200 1.41700 23.69500
H  5.79900 0.15800 22.73400
H  5.43700 1.76600 22.07300
H  10.44000 1.21200 23.45000
H  9.46200 1.89400 22.08300
H  10.96900 -0.60400 22.16100
H  10.00600 -0.00400 20.85600
H  9.25700 -0.97700 22.13900
H  10.59100 -2.41900 27.04200
H  11.84900 -2.23600 28.15900
H  11.82100 -1.48300 26.44400
H  11.30500 1.54000 31.85400
H  9.71700 -1.63000 34.58700
H  9.50700 -0.09700 35.36100
H  11.13500 -0.91900 35.38300
Mg 16.58400 -1.61900 27.60900
C  15.55600 0.47500 30.25900
C  18.76900 -3.10800 29.74200
C  17.69800 -3.35300 25.03200
C  14.65300 0.40200 25.45100
N  16.98100 -1.46700 29.85000
C  16.54100 -0.42900 30.63400
C  17.15700 -0.63700 32.05600
C  18.34700 -1.64800 31.86300
C  18.07600 -2.04400 30.37900
C  19.77900 -1.14500 32.14700
C  16.08900 -1.19800 33.02800
C  16.14400 -0.75300 34.48800
H  17.48000 -0.19400 35.03200
N  17.94500 -3.07500 27.43700
C  18.81300 -3.52700 28.41300
C  19.59200 -4.61300 27.93600
C  19.28400 -4.73900 26.51900
C  18.25100 -3.72100 26.34100
C  20.40800 -5.55000 28.80100
C  19.82900 -5.79300 25.48500
O  19.36000 -5.84800 24.33600
C  20.95500 -6.72000 25.86300
N  16.26300 -1.41300 25.53700
C  16.91700 -2.21200 24.66600
C  16.65700 -1.81300 23.20100
C  15.43300 -0.83800 23.36100
C  15.37900 -0.68900 24.89900
C  17.84800 -1.16300 22.50500
C  14.10100 -1.13100 22.65000
C  13.75700 -0.30800 21.45700
N  15.46700 0.10100 27.73400
C  14.69700 0.81100 26.77100
C  13.99900 1.94900 27.45100
C  14.23400 1.77100 28.80400
C  15.18100 0.68200 28.94800
C  13.11100 2.87300 26.77400
C  13.91100 2.31900 30.13500
O  13.29000 3.28200 30.55700
C  14.73300 1.39600 31.16700
C  15.45800 2.25800 32.06800
O  16.46300 2.87600 31.81700
O  14.71500 2.56900 33.18000
C  15.25500 3.68700 34.03800
H  19.40500 -3.66000 30.43800
H  18.19200 -3.94000 24.25500
H  14.18300 1.03200 24.69300
H  17.57200 0.31300 32.39300
H  18.20700 -2.51100 32.51300
H  19.78700 -0.13000 32.54500
H  20.32300 -1.06700 31.20600
H  20.32800 -1.82500 32.79800
H  16.11700 -2.28700 33.06500
H  15.07100 -0.93400 32.74200
H  15.75300 -1.62200 35.01900
H  15.35100 -0.00500 34.48300
H  20.09300 -6.58500 28.67000
H  20.14100 -5.54100 29.85800
H  21.47700 -5.49000 28.60200
H  20.72800 -7.30700 26.75300
H  21.73600 -6.04700 26.21700
H  21.19800 -7.35100 25.00900
H  16.36400 -2.62300 22.53400
H  15.81200 0.13700 23.05300
H  18.77700 -1.19900 23.07400
H  17.70100 -0.17600 22.06600
H  18.10300 -1.86900 21.71500
H  13.38600 -0.94900 23.45300
H  14.06600 -2.15700 22.28300
H  13.72600 -0.86000 20.51800
H  14.46000 0.52000 21.36400
H  12.79500 0.17900 21.61300
H  13.58700 3.23000 25.86100
H  12.69500 3.69200 27.36100
H  12.28500 2.23100 26.47100
H  14.03000 0.77500 31.72200
H  14.66900 3.75600 34.95400
H  15.11400 4.63600 33.52100
H  16.30300 3.56600 34.31200

