158

Mg 1.45500 8.38700 27.49200
C  1.59300 10.21900 30.54800
C  1.17900 5.64700 29.15600
C  1.52100 6.79900 24.47200
C  1.77300 11.44600 25.81400
N  1.50200 7.93600 29.60200
C  1.33800 8.79800 30.71400
C  1.07500 8.09500 31.98800
C  1.29400 6.60700 31.57700
C  1.43400 6.67300 30.01100
C  2.49900 5.89300 32.32800
C  -0.21600 8.60700 32.64900
C  -0.06000 9.24200 34.03700
H  1.00700 8.78600 34.98800
N  1.56600 6.41100 26.87900
C  1.31800 5.42300 27.72300
C  1.14500 4.20500 27.02400
C  1.33100 4.45900 25.64500
C  1.55700 5.93700 25.58200
C  0.92200 2.83300 27.74000
C  1.49700 3.52200 24.32900
O  1.75300 4.00500 23.26000
C  1.18700 2.06400 24.42600
N  1.91600 9.00100 25.44700
C  1.88500 8.09700 24.38400
C  1.94600 8.94900 23.10800
C  1.90900 10.36500 23.48300
C  1.82000 10.25200 25.01200
C  3.00400 8.61100 22.00600
C  0.72100 11.10200 22.89900
C  -0.62800 10.92200 23.54200
N  1.67600 10.38600 28.00500
C  1.78200 11.58900 27.20200
C  1.92600 12.79600 28.02100
C  1.80900 12.25400 29.34800
C  1.75800 10.81500 29.27800
C  2.06000 14.22900 27.53200
C  1.67600 12.69100 30.71800
O  1.67600 13.79000 31.22200
C  1.63500 11.39400 31.51300
C  2.80500 11.46900 32.42800
O  3.94600 11.22000 32.05800
O  2.41200 11.79800 33.69800
C  3.38800 12.18900 34.67500
H  0.84200 4.73700 29.65600
H  1.17000 6.37700 23.52800
H  1.75100 12.39900 25.28100
H  1.90100 8.45200 32.60200
H  0.44700 5.96400 31.81400
H  2.79200 6.57800 33.12400
H  3.41400 5.62600 31.80000
H  2.18300 4.95700 32.78700
H  -0.90300 7.77200 32.77900
H  -0.71500 9.39800 32.08900
H  -0.96000 9.20400 34.65100
H  0.11600 10.30700 33.88700
H  -0.15000 2.78600 27.93000
H  1.48100 2.71900 28.66900
H  1.11900 1.96500 27.11100
H  1.38800 1.53900 23.49200
H  0.20500 2.04000 24.89800
H  1.89500 1.66900 25.15400
H  0.96500 8.64900 22.74100
H  2.81400 10.91400 23.22000
H  3.84000 7.98400 22.31900
H  3.38600 9.53900 21.58000
H  2.53900 8.02900 21.21000
H  0.57500 11.04500 21.82000
H  0.92200 12.15800 23.07800
H  -0.98100 11.86400 23.96100
H  -0.55100 10.08400 24.23600
H  -1.37400 10.66000 22.79200
H  1.31600 14.74800 26.92800
H  3.03700 14.51400 27.14200
H  1.92400 14.79800 28.45200
H  0.76100 11.37700 32.16500
H  2.85700 12.74000 35.45100
H  4.03700 12.94700 34.23500
H  3.85900 11.27300 35.03100
Mg 26.68300 49.32500 25.98600
C  24.65200 50.36300 28.47600
C  28.99500 48.25600 28.35900
C  28.93900 48.68400 23.47000
C  24.71800 51.13900 23.62600
N  26.75700 49.35200 28.15300
C  25.74300 49.64400 28.98500
C  26.14200 49.44300 30.43600
C  27.60600 48.99200 30.33400
C  27.86000 48.91400 28.84500
C  28.57900 49.88400 31.23000
C  25.36400 48.47200 31.20700
C  24.85000 48.91100 32.64800
H  25.68600 49.62300 33.75500
N  28.51700 48.40800 25.90400
C  29.29000 47.94900 26.97600
C  30.45300 47.28400 26.49200
C  30.40800 47.30000 25.08100
C  29.24600 48.15300 24.71000
C  31.47500 46.61900 27.41500
C  31.47900 46.64700 24.15100
O  31.33900 46.68700 22.94500
C  32.63500 46.02300 24.65800
N  26.84400 49.94200 23.80500
C  27.82500 49.46000 23.01000
C  27.60500 49.72800 21.53000
C  26.29900 50.54400 21.57400
C  25.90700 50.55200 23.08800
C  28.74800 50.53100 20.82200
C  25.04700 50.08000 20.80200
C  24.40100 48.85400 21.28700
N  25.05200 50.57500 26.00400
C  24.38300 51.10300 24.96400
C  23.19300 51.69700 25.55600
C  23.18800 51.46400 26.92400
C  24.40800 50.75200 27.15600
C  22.16600 52.36800 24.74800
C  22.49200 51.58000 28.18400
O  21.41300 52.06600 28.40800
C  23.40600 50.84600 29.22500
C  23.62600 51.81500 30.43000
O  24.47500 52.68500 30.53600
O  22.59800 51.59500 31.29200
C  22.61300 52.36300 32.57500
H  29.72900 48.08700 29.15100
H  29.62900 48.23000 22.75500
H  24.16500 51.66100 22.84200
H  26.13000 50.40300 30.95400
H  27.74900 47.96400 30.66600
H  29.56700 49.43100 31.13900
H  28.35000 50.04200 32.28300
H  28.62200 50.86000 30.74600
H  25.84800 47.54700 31.52200
H  24.54100 48.17700 30.55600
H  24.63600 47.93300 33.07900
H  23.94500 49.49500 32.48000
H  32.51000 46.84700 27.16000
H  31.30400 45.54300 27.38100
H  31.23300 47.00100 28.40600
H  33.24000 45.69100 23.81400
H  32.29400 45.16500 25.23800
H  33.30600 46.63300 25.26200
H  27.41500 48.79700 20.99500
H  26.52400 51.51300 21.12800
H  29.54200 50.48100 21.56700
H  28.48300 51.58400 20.73000
H  28.87400 50.01000 19.87200
H  25.31200 49.81400 19.77900
H  24.46800 51.00300 20.78600
H  25.06200 48.34300 21.98700
H  24.13700 48.25400 20.41700
H  23.60900 49.06100 22.00700
H  21.76900 53.20100 25.32900
H  21.24800 51.81100 24.93800
H  22.32300 52.57200 23.68900
H  22.94400 50.02300 29.77100
H  22.66300 53.44200 32.42500
H  23.48900 52.06600 33.15200
H  21.67000 52.19500 33.09500

