158

Mg 46.49200 34.64700 28.19100
C  44.87700 32.67900 30.58900
C  46.52200 37.30600 30.37500
C  47.22500 36.72600 25.57900
C  45.39000 32.20900 25.71100
N  46.01200 34.76900 30.29800
C  45.44900 33.82600 31.10000
C  45.40400 34.32800 32.50500
C  45.45500 35.90600 32.30700
C  46.01700 36.05500 30.87800
C  44.19800 36.74800 32.62300
C  46.63900 33.84200 33.25700
C  46.52700 33.81100 34.80000
H  45.60400 34.77200 35.52600
N  47.05900 36.64900 28.10400
C  47.04900 37.56200 29.14400
C  47.71100 38.76300 28.64200
C  47.84200 38.64700 27.23200
C  47.33800 37.30100 26.90700
C  47.98800 39.90800 29.61700
C  48.40900 39.66200 26.30600
O  48.60200 39.45500 25.10400
C  48.82500 41.09500 26.84500
N  46.26200 34.52700 25.90500
C  46.86400 35.42200 25.16100
C  46.85100 34.97900 23.64400
C  46.48200 33.44800 23.81600
C  46.01700 33.36500 25.23100
C  45.80200 35.82800 22.83300
C  47.70700 32.53400 23.54200
C  47.44500 31.21400 22.80400
N  45.47100 32.76400 28.10100
C  45.15800 31.89300 27.05100
C  44.60800 30.69200 27.67700
C  44.53900 30.98600 29.03900
C  44.96300 32.27200 29.21900
C  44.29200 29.45700 26.84600
C  44.11800 30.42200 30.30800
O  43.82300 29.31300 30.58800
C  43.92400 31.62600 31.26800
C  44.18600 31.22300 32.73000
O  44.98700 30.36400 33.09200
O  43.23700 31.78700 33.48000
C  43.03700 31.48100 34.86600
H  46.27200 38.12500 31.05300
H  47.50300 37.46600 24.82500
H  45.25100 31.42500 24.96400
H  44.50400 33.93300 32.97500
H  46.11400 36.20800 33.12000
H  44.26700 37.42100 33.47800
H  43.46900 35.96500 32.83400
H  43.86300 37.49700 31.90700
H  47.55500 34.29200 32.87700
H  46.77600 32.79300 32.99200
H  47.52600 33.99100 35.19500
H  46.30700 32.79200 35.12000
H  47.89600 39.53500 30.63700
H  47.39700 40.79000 29.36800
H  49.04100 40.14400 29.45900
H  49.07100 41.64700 25.93900
H  49.71100 41.01200 27.47500
H  47.99400 41.56400 27.37400
H  47.79500 35.10900 23.11500
H  45.72100 33.06800 23.13500
H  44.86400 35.35900 22.53600
H  46.32700 36.39300 22.06300
H  45.53700 36.60600 23.55000
H  48.20300 32.31200 24.48700
H  48.45200 33.10300 22.98600
H  46.47900 31.27200 22.30200
H  47.53300 30.33700 23.44500
H  48.19400 31.22600 22.01300
H  45.17700 29.19800 26.26500
H  43.48200 29.59100 26.12900
H  44.07200 28.62400 27.51300
H  42.93500 32.08400 31.28100
H  41.98400 31.32400 35.10000
H  43.50900 32.24900 35.47900
H  43.66500 30.59900 34.99100
Mg 25.70500 51.11000 26.27700
C  23.57500 52.00000 28.97300
C  27.82600 49.84700 28.54800
C  27.71800 50.31500 23.70000
C  23.41400 52.38000 24.07500
N  25.56100 50.74200 28.53800
C  24.69200 51.30100 29.43600
C  25.14700 51.02600 30.88200
C  26.56100 50.37700 30.70900
C  26.64800 50.29100 29.13800
C  27.81200 51.07400 31.51600
C  24.06500 50.17200 31.70200
C  23.36600 50.81300 32.92800
H  24.16800 51.59100 33.98400
N  27.48600 50.29500 26.15000
C  28.23800 49.86600 27.17200
C  29.50600 49.38000 26.62500
C  29.49000 49.66000 25.28200
C  28.18600 50.12900 24.97500
C  30.64800 48.84500 27.51900
C  30.65100 49.48700 24.35000
O  30.58100 49.89100 23.18900
C  31.94600 48.83700 24.77100
N  25.61300 51.36500 24.20100
C  26.53500 50.91000 23.30800
C  26.04200 51.09900 21.87200
C  24.54500 51.34800 22.10200
C  24.53300 51.73500 23.58500
C  26.79400 52.33100 21.06400
C  23.63300 50.10600 21.80500
C  22.42100 50.34600 20.92900
N  23.91600 52.10800 26.46200
C  23.07700 52.51900 25.42200
C  21.88200 53.12800 26.11400
C  22.06300 52.89900 27.48000
C  23.27300 52.25700 27.62100
C  20.71200 53.77200 25.41100
C  21.50600 53.18000 28.72500
O  20.53100 53.83400 28.99900
C  22.45300 52.54900 29.82800
C  22.86400 53.66500 30.63900
O  23.64900 54.52500 30.31600
O  22.06100 53.60100 31.71900
C  21.91500 54.76500 32.65700
H  28.54300 49.42700 29.25600
H  28.34300 49.95300 22.88000
H  22.79200 52.67000 23.22600
H  25.20200 52.02700 31.31100
H  26.54400 49.33300 31.02300
H  28.38300 51.75000 30.87900
H  28.47500 50.27200 31.84100
H  27.50600 51.56400 32.44000
H  24.49400 49.20100 31.95000
H  23.32300 50.00600 30.92100
H  22.77000 50.02600 33.39100
H  22.59500 51.52000 32.62300
H  31.54800 49.45000 27.40000
H  30.79300 47.78500 27.30900
H  30.38800 49.00600 28.56500
H  32.57300 49.46600 25.40300
H  32.44200 48.65100 23.81900
H  31.60900 47.96600 25.33300
H  26.21800 50.16900 21.33100
H  24.31300 52.23200 21.50800
H  27.77600 52.67700 21.38700
H  26.23700 53.26500 20.99200
H  26.97600 51.92800 20.06800
H  23.22700 49.68400 22.72400
H  24.13700 49.27500 21.31200
H  22.53100 49.77800 20.00500
H  22.28300 51.42500 20.85500
H  21.61700 49.74800 21.35800
H  21.01300 54.34200 24.53200
H  20.11100 54.38000 26.08700
H  20.00900 53.02800 25.03900
H  21.95400 51.75600 30.38500
H  22.63800 54.69700 33.47000
H  20.88900 54.83000 33.01600
H  22.17000 55.71900 32.19500

