158

Mg -0.07200 8.09500 25.00200
C  0.95900 9.81100 27.96200
C  0.27400 5.15100 26.78800
C  -0.56100 6.42900 22.22100
C  0.63100 11.09800 23.16700
N  0.61000 7.57500 27.21200
C  0.80700 8.39400 28.26300
C  0.94100 7.64100 29.58900
C  0.73500 6.18100 29.09100
C  0.55100 6.28600 27.58300
C  1.87200 5.20800 29.55200
C  -0.06100 8.14700 30.69100
C  0.31800 8.44200 32.06700
H  0.89400 7.28800 32.87000
N  -0.24900 6.05000 24.55300
C  -0.08700 5.01600 25.42600
C  -0.38800 3.85100 24.74600
C  -0.66000 4.21700 23.37700
C  -0.48000 5.61300 23.29500
C  -0.26400 2.53900 25.49500
C  -0.96300 3.28400 22.16600
O  -1.20700 3.70400 21.01200
C  -0.82800 1.77200 22.42700
N  0.03200 8.74600 22.98400
C  -0.36200 7.78900 22.02500
C  -0.43900 8.48500 20.69900
C  -0.18900 10.00300 21.01000
C  0.20900 9.96200 22.45600
C  0.55800 7.89400 19.67000
C  -1.57500 10.74400 20.99600
C  -2.15800 11.20700 19.62500
N  0.51100 10.07700 25.48100
C  0.77700 11.15600 24.63500
C  1.10200 12.26700 25.41100
C  1.10300 11.79100 26.73000
C  0.81000 10.45400 26.68500
C  1.33300 13.66500 24.80300
C  1.33300 12.23500 28.08700
O  1.68400 13.29000 28.64100
C  1.19700 10.95000 28.95400
C  2.37600 10.84300 29.86400
O  3.38800 10.19700 29.63700
O  2.00700 11.40000 31.04200
C  3.05900 11.46300 32.12400
H  -0.04400 4.28900 27.37800
H  -0.97000 6.02900 21.29100
H  0.83300 12.01200 22.60500
H  1.95400 7.88200 29.91000
H  -0.24400 5.83600 29.42200
H  2.49300 5.64900 30.33200
H  2.46900 5.12000 28.64500
H  1.38800 4.27000 29.82500
H  -0.89100 7.44000 30.67700
H  -0.47500 9.06700 30.27800
H  -0.56100 8.88300 32.53700
H  1.01300 9.27000 31.92800
H  0.41300 1.86600 24.97000
H  -1.27100 2.12900 25.57300
H  0.20200 2.63200 26.47600
H  0.17900 1.37700 22.56300
H  -1.22200 1.16800 21.60900
H  -1.26300 1.47500 23.38100
H  -1.45000 8.28000 20.34700
H  0.51000 10.61200 20.43600
H  0.76400 6.85400 19.92500
H  1.48400 8.46900 19.67100
H  0.03000 7.93000 18.71700
H  -1.52700 11.58700 21.68600
H  -2.26100 10.01800 21.43200
H  -1.52000 10.87400 18.80500
H  -2.26800 12.29100 19.65300
H  -3.15800 10.81900 19.43000
H  1.24100 13.68200 23.71700
H  2.33700 13.92200 25.13900
H  0.66500 14.38500 25.27600
H  0.27400 11.21300 29.47000
H  2.65300 11.14000 33.08200
H  3.47200 12.45700 32.29600
H  3.90700 10.81100 31.91200
Mg 6.87000 53.01100 41.37700
C  6.22200 49.58500 41.35300
C  10.13500 52.49200 40.60600
C  7.28100 56.45300 40.88500
C  3.41600 53.66300 41.67900
N  8.00000 51.26100 41.04000
C  7.57600 49.93700 41.00300
C  8.81300 49.06400 40.63100
C  10.06600 49.90100 40.73900
C  9.36900 51.31600 40.82100
C  11.03500 49.81200 41.98400
C  8.73500 48.25100 39.34500
C  8.73800 48.99000 38.05100
H  7.64900 48.73400 37.00100
N  8.48500 54.33200 40.92500
C  9.78200 53.89800 40.68100
C  10.68700 55.01400 40.39700
C  9.86800 56.17600 40.36700
C  8.46400 55.71400 40.72400
C  12.16800 54.90100 40.18000
C  10.35900 57.59900 40.09100
O  11.54600 57.78100 39.93200
C  9.38800 58.82400 39.89300
N  5.57600 54.81900 41.43800
C  6.01500 56.11800 41.16200
C  4.84100 57.09400 41.49500
C  3.67400 56.20600 41.38000
C  4.24400 54.75800 41.56200
C  4.90900 57.95200 42.78400
C  2.86500 56.31300 40.09300
C  1.45100 55.79900 40.28700
N  5.13800 51.89300 41.71700
C  3.82300 52.28700 41.83500
C  3.06100 51.08400 42.07000
C  3.96500 50.01500 41.84600
C  5.25900 50.54900 41.63500
C  1.54500 51.01300 42.19600
C  3.99700 48.54600 41.73600
O  3.09600 47.69200 41.80400
C  5.49900 48.24500 41.48000
C  5.63200 47.44700 40.22200
O  5.45800 47.93200 39.16200
O  5.88700 46.10000 40.45700
C  5.61700 45.29600 39.30700
H  11.18100 52.34700 40.32800
H  7.35900 57.53600 40.76400
H  2.34600 53.81200 41.83600
H  8.97500 48.37700 41.46200
H  10.78900 49.80900 39.92800
H  11.13700 50.67600 42.64200
H  11.96100 49.45700 41.53400
H  10.70700 48.99300 42.62400
H  7.92000 47.52900 39.31500
H  9.64300 47.65100 39.41000
H  9.59300 48.57000 37.52000
H  8.92000 50.06100 38.14700
H  12.72000 55.70500 40.66500
H  12.35700 54.80100 39.11100
H  12.43600 53.96800 40.67600
H  8.65900 58.51100 39.14500
H  9.93000 59.71900 39.58800
H  8.91300 58.96800 40.86400
H  4.80000 57.72700 40.60900
H  3.07600 56.40600 42.27000
H  5.55900 58.80700 42.59800
H  5.39900 57.23000 43.43700
H  3.88600 58.20100 43.06600
H  3.35700 55.67300 39.36000
H  2.79800 57.33000 39.70600
H  1.35600 54.99400 39.55800
H  0.72000 56.53400 39.95000
H  1.26300 55.49700 41.31800
H  1.23200 51.02900 43.24000
H  1.16200 50.25700 41.51000
H  1.13100 51.94600 41.81500
H  5.87700 47.70500 42.34800
H  5.70300 44.25900 39.63300
H  6.30600 45.38400 38.46700
H  4.58200 45.57700 39.11200

