158

Mg 30.34600 57.94200 40.83500
C  27.24100 56.52300 39.84600
C  31.97700 55.24100 39.21600
C  33.20000 59.60000 40.85000
C  28.58500 60.72600 41.82000
N  29.66600 56.20800 39.55600
C  28.34400 55.78700 39.35800
C  28.31700 54.49100 38.54900
C  29.81100 54.06100 38.61300
C  30.57000 55.24300 39.22200
C  30.03700 52.75300 39.42000
C  27.82200 54.62700 37.07300
C  26.51900 53.82800 36.68300
H  26.25700 53.72900 35.16300
N  32.38900 57.38200 40.25500
C  32.82600 56.24800 39.70800
C  34.29600 56.33600 39.50300
C  34.68300 57.68900 39.88700
C  33.40200 58.26500 40.35700
C  35.16200 55.24900 38.98100
C  36.09900 58.29200 39.75900
O  37.01300 57.59700 39.37600
C  36.42900 59.66800 40.21200
N  30.83500 59.92000 41.17300
C  32.07000 60.37100 41.21200
C  32.14100 61.85600 41.61400
C  30.66300 62.19800 41.95200
C  29.94700 60.84300 41.58700
C  33.17100 62.22800 42.72700
C  30.12200 63.37200 41.13800
C  29.38600 64.47100 41.81100
N  28.28400 58.55600 40.94800
C  27.75600 59.64300 41.51700
C  26.30100 59.53100 41.53700
C  26.09900 58.34400 40.85900
C  27.30800 57.73200 40.52100
C  25.38400 60.62600 42.06100
C  25.05500 57.49500 40.29100
O  23.82200 57.68000 40.31100
C  25.79000 56.30700 39.64400
C  25.26000 55.09900 40.22000
O  25.81300 54.44400 41.09300
O  24.04100 54.79700 39.65800
C  23.38100 53.54200 39.96700
H  32.45400 54.31800 38.88200
H  34.13700 60.15300 40.94300
H  28.16700 61.69200 42.11300
H  27.75800 53.72300 39.08300
H  30.23900 53.88400 37.62600
H  30.86600 52.35400 38.83500
H  29.13000 52.14800 39.43600
H  30.39700 53.03800 40.40900
H  28.55000 54.25500 36.35300
H  27.60700 55.64700 36.75600
H  25.69100 54.13600 37.32000
H  26.54600 52.78100 36.98600
H  34.57000 54.52700 38.41900
H  35.44700 54.71200 39.88600
H  35.98900 55.64800 38.39400
H  37.44600 59.99400 39.99300
H  36.37700 59.55000 41.29400
H  35.75400 60.37700 39.73300
H  32.44100 62.35100 40.69000
H  30.72800 62.33700 43.03100
H  33.70400 61.32100 43.01100
H  32.62400 62.61300 43.58800
H  33.91800 62.97400 42.45500
H  29.41600 62.86800 40.47900
H  30.91300 63.78000 40.50900
H  29.37000 64.18400 42.86300
H  28.41600 64.55000 41.31900
H  29.98300 65.33800 41.53100
H  25.96400 61.44600 42.48500
H  24.67000 60.12100 42.71100
H  24.81500 61.13900 41.28500
H  25.65000 56.30600 38.56300
H  23.60100 52.77400 39.22600
H  22.30500 53.71300 40.00000
H  23.66200 53.23200 40.97300
Mg 26.33400 50.91400 26.05900
C  24.10400 51.97900 28.63800
C  28.39100 49.89600 28.54600
C  28.39400 50.21200 23.65300
C  24.14800 52.28200 23.79200
N  26.24300 50.90800 28.38200
C  25.20500 51.39700 29.13900
C  25.45600 51.09300 30.65000
C  26.91000 50.39100 30.59000
C  27.22500 50.44800 29.10800
C  28.00100 51.06500 31.48500
C  24.39900 50.16100 31.30900
C  24.82100 49.36600 32.62200
H  23.68800 49.32000 33.70400
N  28.16900 50.21100 26.12300
C  28.90200 49.77600 27.22200
C  30.21000 49.31700 26.77900
C  30.22700 49.48500 25.38800
C  28.93800 50.00000 25.05000
C  31.14700 48.64700 27.73400
C  31.35700 49.14500 24.45100
O  31.27700 49.39300 23.27200
C  32.66100 48.56700 25.01400
N  26.26200 51.11200 24.05600
C  27.19200 50.67200 23.25700
C  26.84500 50.85200 21.81000
C  25.32300 51.36800 21.87100
C  25.19900 51.57800 23.34400
C  27.77900 51.79200 21.10200
C  24.35800 50.38300 21.18000
C  24.02800 50.76800 19.75900
N  24.58100 52.02100 26.14300
C  23.83900 52.55500 25.11100
C  22.61700 53.17500 25.63000
C  22.71800 53.05700 27.03900
C  23.90200 52.30500 27.27900
C  21.50600 53.70200 24.76200
C  22.01500 53.21500 28.31800
O  20.91100 53.67600 28.64200
C  22.96900 52.50000 29.37400
C  23.31700 53.58500 30.39400
O  24.19300 54.44800 30.29300
O  22.61700 53.38200 31.54200
C  23.01300 54.10000 32.76800
H  29.09300 49.63900 29.34200
H  29.09100 50.02700 22.83300
H  23.42700 52.62500 23.04800
H  25.51100 52.00100 31.25100
H  26.75000 49.35600 30.89300
H  28.86200 51.31300 30.86500
H  28.26800 50.38700 32.29600
H  27.63200 51.97500 31.95900
H  24.13500 49.51600 30.47100
H  23.57500 50.81400 31.59800
H  25.68100 49.82500 33.10900
H  24.98800 48.36400 32.22700
H  31.06600 47.57500 27.55500
H  30.80800 48.78300 28.76100
H  32.17300 49.01200 27.69100
H  33.23900 48.26300 24.14100
H  32.50700 47.73200 25.69900
H  33.10300 49.42100 25.52800
H  26.88400 49.86400 21.34900
H  25.22500 52.38600 21.49200
H  28.47600 52.27000 21.79000
H  27.25900 52.60600 20.59700
H  28.39800 51.24800 20.38900
H  23.39800 50.26800 21.68400
H  24.85400 49.41300 21.14800
H  24.56400 50.09000 19.09600
H  24.35600 51.75700 19.43700
H  22.94600 50.71200 19.64000
H  21.96700 54.49400 24.17100
H  20.69700 54.02300 25.41800
H  21.07000 52.94900 24.10500
H  22.52700 51.62400 29.84700
H  23.37700 55.09200 32.50300
H  23.70000 53.52400 33.38800
H  22.11800 54.19500 33.38300

