158

Mg 25.69300 0.46600 29.44000
C  27.53300 0.44600 32.43800
C  22.79800 0.96000 31.33200
C  23.96700 0.44300 26.54200
C  28.65900 -0.17000 27.71100
N  25.18700 0.70200 31.68600
C  26.11900 0.64800 32.70100
C  25.47400 0.81600 34.02400
C  23.90700 0.83200 33.64700
C  23.93900 0.79700 32.13100
C  23.09800 -0.34500 34.31600
C  25.82100 2.20000 34.77000
C  26.09200 1.88600 36.23100
H  26.03500 2.99500 37.26400
N  23.63600 0.71100 29.04300
C  22.61400 0.98900 29.93900
C  21.50800 1.33600 29.17300
C  21.79200 1.04500 27.81900
C  23.16700 0.68700 27.72500
C  20.29900 1.91500 29.80000
C  20.87500 1.19900 26.66100
O  21.23200 0.98700 25.50300
C  19.41600 1.59500 26.92000
N  26.18600 0.02200 27.44600
C  25.31000 0.12800 26.44700
C  26.02600 -0.31700 25.11100
C  27.54300 -0.16400 25.44900
C  27.48400 -0.02700 26.91200
C  25.63100 -1.63300 24.47200
C  28.37000 0.97700 24.77900
C  29.79000 0.66000 24.39800
N  27.68100 0.02400 29.93600
C  28.83000 -0.10400 29.13900
C  29.99400 -0.34900 29.95900
C  29.50600 -0.08300 31.19700
C  28.09200 0.17200 31.14600
C  31.42100 -0.62800 29.44200
C  29.94500 0.05800 32.55700
O  31.07800 0.14500 33.03100
C  28.68100 0.37400 33.40300
C  28.50300 -0.61400 34.56200
O  27.84600 -1.62100 34.66400
O  29.25700 -0.16900 35.61200
C  29.07200 -0.80200 36.89100
H  21.90400 1.07300 31.95000
H  23.40600 0.50500 25.60700
H  29.55100 -0.49700 27.17200
H  25.62700 0.00100 34.73100
H  23.38300 1.75100 33.90800
H  22.49700 -0.90100 33.59700
H  22.44900 -0.00900 35.12400
H  23.78300 -1.05800 34.77600
H  25.13500 3.04700 34.74700
H  26.75800 2.59100 34.37300
H  27.12400 1.54100 36.28400
H  25.41500 1.12100 36.61200
H  20.38900 2.21200 30.84500
H  19.42800 1.26200 29.74000
H  20.00600 2.80000 29.23600
H  19.30700 2.63300 27.23400
H  19.23600 0.77900 27.62000
H  18.76100 1.35400 26.08200
H  25.74700 0.43200 24.37000
H  28.06300 -1.10500 25.26600
H  25.13300 -1.48700 23.51400
H  25.06600 -2.18100 25.22700
H  26.53700 -2.21000 24.28900
H  28.37100 1.73000 25.56600
H  27.90300 1.41000 23.89500
H  30.11100 -0.27900 24.84900
H  30.39400 1.41600 24.89900
H  29.91500 0.77600 23.32200
H  31.45200 -0.23500 28.42600
H  31.67300 -1.68100 29.57500
H  32.09600 -0.07900 30.09800
H  28.86100 1.36300 33.82400
H  29.80500 -0.35900 37.56600
H  29.09800 -1.89100 36.89100
H  28.08900 -0.53700 37.28000
Mg 0.88100 44.02200 23.92600
C  2.73400 43.77400 26.89700
C  -2.00800 43.64000 25.90400
C  -0.89400 43.90200 21.14200
C  3.87200 43.75400 22.07200
N  0.40800 43.83000 26.24900
C  1.37900 43.75300 27.22200
C  0.66600 43.50500 28.58800
C  -0.83800 43.43600 28.23200
C  -0.83500 43.61400 26.74000
C  -1.55900 42.14000 28.80100
C  0.88100 44.52900 29.75700
C  1.38200 44.03300 31.07600
H  1.04500 42.61500 31.63900
N  -1.17200 43.86700 23.57900
C  -2.17300 43.83400 24.49200
C  -3.44800 43.94600 23.79900
C  -3.17700 44.12900 22.43400
C  -1.69100 44.02000 22.32600
C  -4.87700 43.80800 24.42100
C  -4.03100 44.33900 21.29700
O  -3.62900 44.44900 20.15100
C  -5.55200 44.60800 21.46200
N  1.41900 43.88400 21.91100
C  0.50100 43.79900 20.95700
C  1.13000 43.68300 19.62000
C  2.63700 44.01900 19.84700
C  2.65400 43.84800 21.35700
C  0.86300 42.23100 19.13900
C  3.11100 45.51100 19.45000
C  3.97500 45.52700 18.11000
N  2.89800 43.87800 24.33300
C  4.02200 43.83400 23.49300
C  5.22300 43.83800 24.29400
C  4.75300 43.86600 25.59100
C  3.36300 43.85900 25.58700
C  6.67400 43.63000 23.73200
C  5.10700 43.77700 26.98000
O  6.20800 43.76600 27.49700
C  3.82600 43.71500 27.89100
C  3.93300 42.35900 28.56200
O  3.75000 41.24500 28.00800
O  4.20300 42.57600 29.89000
C  4.65300 41.45900 30.61200
H  -2.95300 43.59500 26.45000
H  -1.44200 43.77700 20.20600
H  4.75900 43.70900 21.43700
H  1.13100 42.57200 28.90400
H  -1.39300 44.29500 28.60800
H  -0.96700 41.61700 29.55200
H  -1.64100 41.41500 27.99000
H  -2.52000 42.30700 29.28700
H  0.06700 45.23000 29.94100
H  1.64900 45.16000 29.31000
H  0.92600 44.76300 31.74500
H  2.41300 44.35100 31.22500
H  -5.70500 44.47500 24.18100
H  -4.77400 43.93200 25.49900
H  -5.19300 42.78200 24.23000
H  -6.04900 43.65600 21.64900
H  -5.91300 44.95100 20.49200
H  -5.69300 45.36600 22.23200
H  0.73200 44.36800 18.87100
H  3.34100 43.29800 19.43200
H  0.15600 41.58700 19.66100
H  1.73800 41.63900 18.87100
H  0.37600 42.28200 18.16500
H  3.74300 45.99200 20.19600
H  2.27300 46.20400 19.37800
H  3.57600 46.22200 17.37200
H  3.91900 44.57200 17.58800
H  5.00200 45.84800 18.28300
H  7.32100 43.78500 24.59500
H  6.83100 44.40900 22.98600
H  6.72700 42.64500 23.26700
H  3.76600 44.47000 28.67400
H  5.70600 41.22100 30.45800
H  4.03200 40.61900 30.29900
H  4.67000 41.57300 31.69500

