158

Mg 16.58200 -2.27200 27.77200
C  15.54500 -0.25500 30.46500
C  18.51600 -4.14000 29.90400
C  18.16700 -3.50400 25.16500
C  15.05800 0.16100 25.73100
N  17.06000 -2.11000 29.89000
C  16.37100 -1.35400 30.79200
C  16.74000 -1.67300 32.24200
C  17.78400 -2.78800 32.00600
C  17.77800 -3.10500 30.49200
C  19.29700 -2.41800 32.51700
C  15.55500 -2.02100 33.21300
C  15.48500 -1.26800 34.54300
H  16.79100 -0.60200 35.10500
N  18.02200 -3.71800 27.53000
C  18.67600 -4.44000 28.56000
C  19.50200 -5.38100 27.99400
C  19.36300 -5.29600 26.53800
C  18.46500 -4.11600 26.33300
C  20.38200 -6.31900 28.82200
C  19.98100 -6.11400 25.40500
O  19.84300 -5.80300 24.24000
C  20.72500 -7.33000 25.65400
N  16.55800 -1.77400 25.68300
C  17.27500 -2.46500 24.79700
C  17.16400 -1.94100 23.40100
C  15.96300 -0.92100 23.55000
C  15.86400 -0.81100 25.08700
C  18.49300 -1.42500 22.81300
C  14.65300 -1.28400 22.90300
C  13.55200 -1.85400 23.83200
N  15.41900 -0.48700 27.94800
C  14.80000 0.40100 27.04600
C  14.10600 1.43500 27.77200
C  14.37400 1.18600 29.10100
C  15.12100 0.05900 29.20900
C  13.20100 2.43200 27.19400
C  14.09800 1.72300 30.39000
O  13.52000 2.71400 30.75000
C  14.84100 0.73100 31.41800
C  15.77400 1.64600 32.12400
O  16.86100 2.08300 31.70100
O  15.10200 2.18200 33.22800
C  15.94900 3.29000 33.82600
H  18.88900 -4.86200 30.63300
H  18.63300 -3.91900 24.26800
H  14.68300 0.85500 24.97500
H  17.34200 -0.87400 32.67700
H  17.61300 -3.75600 32.47900
H  19.34500 -1.40900 32.92900
H  20.01300 -2.61100 31.71900
H  19.52700 -3.17200 33.27000
H  15.61400 -3.09800 33.36900
H  14.59400 -1.89000 32.71500
H  15.14300 -1.98600 35.28900
H  14.78500 -0.43300 34.51900
H  20.05000 -7.35500 28.75700
H  20.39300 -6.07100 29.88300
H  21.42200 -6.31700 28.49500
H  21.56100 -6.99000 26.26500
H  20.99800 -7.88000 24.75400
H  20.05100 -7.93900 26.25700
H  16.80800 -2.82900 22.87700
H  16.21500 0.08600 23.21900
H  19.13600 -1.08300 23.62400
H  18.33200 -0.56000 22.17000
H  19.00400 -2.20900 22.25500
H  14.83000 -1.93200 22.04400
H  14.24100 -0.33700 22.55500
H  12.69600 -1.19300 23.96300
H  13.85600 -2.28100 24.78800
H  13.12400 -2.59900 23.16000
H  12.18400 2.03900 27.19700
H  13.28800 2.68500 26.13800
H  13.18500 3.35400 27.77500
H  14.15500 0.35200 32.17500
H  16.97500 2.96400 33.99700
H  15.49900 3.47700 34.80100
H  15.92000 4.18800 33.20900
Mg 46.81200 17.42300 28.44500
C  44.89300 17.06700 31.40600
C  49.00500 19.31300 30.32300
C  48.40300 17.92100 25.59300
C  44.07900 15.78400 26.81900
N  46.84400 18.22600 30.51800
C  46.08400 17.76800 31.58900
C  46.57600 18.18300 32.94500
C  47.71600 19.19600 32.55600
C  47.94200 18.84000 31.04100
C  47.30900 20.78100 32.60200
C  47.06500 16.95500 33.85700
C  46.66900 17.09400 35.34200
H  46.39200 18.46700 35.84100
N  48.51900 18.43300 28.03200
C  49.30300 19.16300 28.92100
C  50.30100 19.91800 28.19100
C  50.05600 19.55000 26.83000
C  48.99400 18.53200 26.76300
C  51.34500 20.71000 28.90500
C  50.79200 20.07900 25.70000
O  50.72400 19.58900 24.56900
C  51.56700 21.44100 25.77300
N  46.37400 16.85100 26.51800
C  47.20200 17.16300 25.50000
C  46.57200 16.65100 24.21700
C  45.31300 15.83600 24.62400
C  45.28800 16.12300 26.10900
C  46.35800 17.74600 23.10600
C  45.39600 14.34700 24.28600
C  44.78100 13.80900 22.97400
N  44.86600 16.59800 28.97000
C  43.88000 15.93000 28.21000
C  42.69200 15.53400 29.03200
C  43.08700 15.89400 30.28200
C  44.34800 16.63600 30.17900
C  41.35300 14.89300 28.63100
C  42.57500 15.92200 31.66700
O  41.56500 15.48800 32.11700
C  43.78200 16.70200 32.45800
C  43.04700 17.95200 32.95000
O  42.75800 18.94600 32.27900
O  42.76500 17.89000 34.28200
C  42.13900 19.06000 34.91600
H  49.75100 19.89900 30.86500
H  48.78400 18.13100 24.59100
H  43.17200 15.52200 26.26900
H  45.72900 18.63800 33.45800
H  48.68500 18.90300 32.96100
H  47.18100 21.09300 31.56600
H  48.16500 21.27600 33.06200
H  46.39200 20.80600 33.19000
H  48.15200 16.87700 33.86100
H  46.61600 16.00700 33.56100
H  47.27500 16.45600 35.98500
H  45.69300 16.63300 35.49500
H  52.29700 20.50200 28.41800
H  51.41500 20.27200 29.90100
H  51.06600 21.76400 28.90800
H  51.15900 22.09300 26.54600
H  51.64100 21.89000 24.78300
H  52.57700 21.27300 26.14800
H  47.33600 15.98700 23.81200
H  44.38600 16.24000 24.21800
H  46.80300 18.67700 23.45500
H  45.29000 17.89700 22.94800
H  46.87600 17.43600 22.19900
H  44.96400 13.76000 25.09600
H  46.36500 13.85300 24.21900
H  45.56000 13.67400 22.22300
H  44.08900 14.48100 22.46600
H  44.25900 12.89500 23.25700
H  41.14900 15.19700 27.60500
H  40.52900 15.13900 29.30100
H  41.34400 13.81400 28.47300
H  44.11900 16.23900 33.38500
H  41.29200 19.50600 34.39400
H  42.89900 19.80900 35.13900
H  41.67800 18.59600 35.78800

