158

Mg 1.56200 -0.59400 43.81700
C  4.96700 -0.11200 43.26600
C  0.82200 2.42800 42.15600
C  -1.73500 -1.42100 43.71900
C  2.28900 -3.93500 44.92200
N  2.71400 1.00100 42.89100
C  4.07900 0.95500 42.82200
C  4.63000 2.25500 42.23200
C  3.34200 3.18500 42.16300
C  2.21900 2.19900 42.40400
C  3.42500 4.48300 43.04000
C  5.43300 2.01500 40.86700
C  6.50400 3.07100 40.47100
H  6.63500 3.34200 39.05700
N  -0.22400 0.42800 43.13600
C  -0.35100 1.62200 42.43300
C  -1.70700 1.90800 42.15700
C  -2.45500 0.83300 42.76800
C  -1.47100 -0.14100 43.28600
C  -2.09500 3.21600 41.62400
C  -3.97100 0.78100 42.86400
O  -4.56500 1.75300 42.32500
C  -4.82400 -0.23800 43.55400
N  0.41800 -2.49300 44.24300
C  -0.98100 -2.48200 44.20500
C  -1.54500 -3.88100 44.57800
C  -0.25200 -4.41200 45.33000
C  0.90900 -3.63500 44.83700
C  -2.89200 -3.88100 45.43000
C  -0.15900 -5.96500 45.19300
C  0.01300 -6.75900 46.49500
N  3.29900 -1.75100 44.19900
C  3.41400 -3.07100 44.60100
C  4.87300 -3.30100 44.82900
C  5.56300 -2.13200 44.36000
C  4.52500 -1.26300 43.88800
C  5.45000 -4.54400 45.36600
C  6.75500 -1.51500 44.06900
O  7.87500 -1.85200 44.40000
C  6.53400 -0.20500 43.37900
C  7.12200 0.86200 44.30000
O  6.61100 1.36900 45.32600
O  8.26000 1.40100 43.73400
C  8.95600 2.49500 44.48400
H  0.75800 3.46100 41.80700
H  -2.79100 -1.68100 43.61400
H  2.53600 -4.85600 45.45400
H  5.28200 2.62100 43.02500
H  3.26200 3.57900 41.15000
H  4.43700 4.88700 43.04400
H  3.11700 4.46600 44.08600
H  2.86100 5.27800 42.55100
H  4.68800 1.87900 40.08200
H  5.81700 0.99500 40.85300
H  7.38600 2.89900 41.08800
H  6.03200 3.94900 40.91200
H  -2.59600 3.00900 40.67800
H  -1.32300 3.89100 41.25400
H  -2.82100 3.67800 42.29300
H  -5.83800 0.07400 43.80600
H  -4.51500 -0.33000 44.59600
H  -4.91200 -1.24600 43.15100
H  -1.66700 -4.42900 43.64400
H  -0.24400 -4.16500 46.39200
H  -3.59000 -4.54300 44.91900
H  -3.37000 -2.91100 45.57400
H  -2.70400 -4.34800 46.39700
H  0.70800 -6.20800 44.57900
H  -0.98700 -6.38000 44.61900
H  0.99800 -7.22200 46.54400
H  -0.85300 -7.41600 46.56800
H  0.11500 -6.08900 47.34900
H  5.23900 -5.42700 44.76200
H  5.03800 -4.82000 46.33700
H  6.53600 -4.52100 45.45800
H  7.04000 -0.19400 42.41300
H  8.45700 3.45900 44.38400
H  9.85700 2.79700 43.94900
H  9.17900 2.20900 45.51200
Mg 9.13300 48.61100 25.02000
C  7.37600 48.82700 27.99900
C  12.01000 49.47000 26.64000
C  10.71300 47.82600 22.29500
C  5.97600 48.25500 23.41100
N  9.57400 49.15400 27.04000
C  8.75800 49.13600 28.15300
C  9.59300 49.55600 29.41900
C  10.83500 50.25300 28.77300
C  10.87000 49.59300 27.38400
C  10.64900 51.82700 28.62200
C  9.89500 48.36900 30.40600
C  9.79200 48.61600 31.86100
H  9.24200 47.40000 32.69700
N  11.13100 48.52300 24.55000
C  12.22300 48.94700 25.31300
C  13.42900 48.66400 24.54100
C  13.00800 48.28700 23.24800
C  11.56100 48.16800 23.31700
C  14.80900 48.86600 25.17000
C  13.88100 47.86300 22.08900
O  13.39800 47.82400 20.97000
C  15.41600 47.62900 22.27900
N  8.43200 48.34100 23.09100
C  9.30600 47.92200 22.14300
C  8.55000 47.44000 20.87100
C  7.06600 47.41100 21.33400
C  7.14500 48.08800 22.68900
C  8.86900 48.39800 19.72200
C  6.38400 46.01700 21.38600
C  7.24400 44.92800 22.05800
N  7.10200 48.65400 25.52700
C  5.90300 48.52300 24.82100
C  4.71700 48.53900 25.67900
C  5.29400 48.57100 26.97500
C  6.71300 48.68500 26.81800
C  3.29200 48.35200 25.28900
C  4.98100 48.55800 28.37900
O  3.91300 48.36200 28.96100
C  6.26000 48.78000 29.08900
C  6.43400 47.62900 29.93300
O  6.70400 46.45200 29.54400
O  6.07100 48.07100 31.22100
C  5.84200 47.00400 32.20500
H  12.88800 49.83400 27.17800
H  11.10800 47.46500 21.34400
H  4.98400 48.11700 22.97600
H  9.03300 50.32400 29.95200
H  11.73500 50.02400 29.34400
H  10.96100 52.01900 27.59600
H  11.23700 52.39700 29.34100
H  9.63300 52.16400 28.82600
H  10.89900 47.96900 30.26200
H  9.26800 47.54200 30.07300
H  9.15200 49.47600 32.05500
H  10.84000 48.72800 32.13700
H  15.48700 48.03400 24.97700
H  14.76300 48.99400 26.25100
H  15.31500 49.79200 24.89500
H  15.80200 48.64300 22.37800
H  15.76400 47.14800 21.36500
H  15.63400 47.01300 23.15100
H  9.01700 46.49500 20.59300
H  6.53600 48.21500 20.82200
H  9.62700 49.14100 19.97100
H  8.00200 48.97900 19.40400
H  9.12500 47.75200 18.88200
H  6.25100 45.71200 20.34800
H  5.44700 46.09500 21.93900
H  7.92900 45.24400 22.84500
H  7.78700 44.47400 21.23000
H  6.57000 44.17900 22.47400
H  2.76500 49.11700 24.71800
H  2.77200 48.22100 26.23800
H  3.04000 47.52200 24.62900
H  6.13400 49.67800 29.69500
H  5.88300 46.00700 31.76700
H  4.89200 47.25700 32.67500
H  6.59700 47.15200 32.97800

