158

Mg -2.04900 16.98500 26.35600
C  -2.35400 14.69700 29.04500
C  -2.41400 19.55700 28.56600
C  -1.99800 18.94700 23.80200
C  -2.11400 14.14800 24.20300
N  -2.31800 17.03600 28.52600
C  -2.42700 16.03700 29.39500
C  -2.62700 16.53200 30.84500
C  -2.52800 18.10200 30.68700
C  -2.38000 18.28300 29.15200
C  -3.71100 18.91800 31.32200
C  -1.59600 16.15500 31.94300
C  -1.38600 17.05300 33.17800
H  -2.02600 16.57900 34.42100
N  -2.23500 18.99700 26.19800
C  -2.37800 19.93000 27.22500
C  -2.29300 21.26200 26.61800
C  -2.20500 21.06400 25.20400
C  -2.09200 19.59300 25.01100
C  -2.56300 22.53600 27.39300
C  -2.08100 22.04000 24.03300
O  -2.09500 21.69900 22.85100
C  -1.96500 23.50000 24.29900
N  -2.10900 16.60400 24.28800
C  -2.08300 17.63200 23.36000
C  -2.09800 17.10300 21.87800
C  -2.11500 15.56900 22.09000
C  -2.02700 15.43600 23.60700
C  -3.24700 17.66400 21.06700
C  -1.05200 14.74400 21.31600
C  -0.84700 15.15900 19.86500
N  -2.24000 14.84800 26.51900
C  -2.20500 13.85000 25.57700
C  -2.28500 12.58300 26.23300
C  -2.34900 12.82900 27.62100
C  -2.27500 14.26400 27.69700
C  -2.18700 11.26100 25.55900
C  -2.52900 12.26900 28.87900
O  -2.71900 11.10100 29.23700
C  -2.51800 13.42900 29.89600
C  -1.45900 13.05000 30.77800
O  -0.29200 13.51000 30.87200
O  -1.97500 12.12700 31.67700
C  -1.08500 11.72700 32.83600
H  -2.26300 20.33900 29.31300
H  -1.95800 19.55700 22.89600
H  -1.89100 13.26200 23.60500
H  -3.58500 16.19700 31.24100
H  -1.51600 18.45600 30.87900
H  -4.52300 19.04300 30.60400
H  -3.35600 19.88600 31.67600
H  -4.11900 18.40900 32.19500
H  -0.57900 15.98800 31.58600
H  -2.00100 15.20400 32.29100
H  -1.72000 18.07800 33.01800
H  -0.30800 17.12700 33.31700
H  -3.46800 23.06300 27.09200
H  -1.60200 23.04800 27.35800
H  -2.62900 22.34300 28.46300
H  -1.43300 23.64500 25.24000
H  -2.99600 23.81000 24.46500
H  -1.37400 23.99700 23.52900
H  -1.08600 17.37400 21.57800
H  -3.10600 15.22500 21.79500
H  -2.95300 18.31800 20.24600
H  -3.85400 18.39000 21.60800
H  -3.86200 16.91300 20.57000
H  -1.35900 13.70100 21.39500
H  -0.08600 14.78100 21.81800
H  0.21800 15.08800 19.64300
H  -1.14400 16.17000 19.58700
H  -1.40300 14.45400 19.24700
H  -3.16500 10.99400 25.15600
H  -2.02100 10.42600 26.23900
H  -1.53500 11.36600 24.69100
H  -3.53200 13.29000 30.27000
H  -0.70000 10.78800 32.43900
H  -1.58200 11.56200 33.79200
H  -0.29600 12.44500 33.05800
Mg 46.55800 23.98300 28.22800
C  47.28200 26.24600 30.93400
C  45.90200 21.63600 30.72200
C  46.20000 21.82900 25.90700
C  48.16900 26.18200 26.17700
N  46.52800 23.92100 30.59700
C  46.83200 25.00800 31.39900
C  46.56100 24.65600 32.85900
C  46.49700 23.11300 32.85800
C  46.30200 22.81700 31.34000
C  47.70600 22.33400 33.40600
C  45.34000 25.45000 33.34900
C  45.37100 26.06900 34.74500
H  46.11900 25.28500 35.88700
N  46.04000 22.06800 28.28800
C  45.77200 21.28000 29.37100
C  45.25100 20.04600 28.90500
C  45.26900 20.11000 27.44300
C  45.91600 21.28200 27.14700
C  44.96500 18.90700 29.83000
C  44.66200 19.10800 26.42600
O  44.55000 19.37500 25.23800
C  43.86500 17.93000 26.90400
N  47.19300 24.01400 26.32500
C  46.78800 23.06500 25.50600
C  47.18600 23.25900 24.00400
C  47.78400 24.73400 24.15000
C  47.80000 24.96000 25.67900
C  48.23300 22.20500 23.51000
C  47.09500 25.91000 23.35900
C  45.89800 26.54500 24.04600
N  47.47800 25.92400 28.47200
C  48.03800 26.69100 27.49600
C  48.33700 27.92200 28.07400
C  48.04600 27.88200 29.44100
C  47.52800 26.57300 29.65900
C  48.99900 29.09200 27.31500
C  48.10500 28.59100 30.70900
O  48.52800 29.66000 30.99200
C  47.49100 27.61200 31.69600
C  48.30300 27.53400 32.98000
O  49.22800 26.74500 33.23300
O  47.80200 28.49200 33.82600
C  48.15500 28.29200 35.27400
H  45.63500 20.87700 31.46000
H  45.96400 21.31100 24.97400
H  48.70300 26.79300 25.44500
H  47.37500 24.99900 33.49700
H  45.62100 22.82500 33.43900
H  48.42200 23.05400 33.80300
H  48.18300 21.73000 32.63300
H  47.39600 21.69200 34.23000
H  44.41000 24.88400 33.30000
H  45.16000 26.23200 32.61200
H  44.31500 26.10700 35.01200
H  45.68000 27.10700 34.61500
H  45.12100 17.94300 29.34400
H  43.90400 18.96300 30.07600
H  45.58400 18.90000 30.72800
H  44.53800 17.20300 27.36000
H  43.31700 17.53000 26.05200
H  43.11600 18.32100 27.59200
H  46.29100 23.33900 23.38700
H  48.84100 24.76100 23.88700
H  48.96300 21.91600 24.26600
H  48.78300 22.57600 22.64500
H  47.55000 21.39500 23.25500
H  46.80100 25.58500 22.36100
H  47.88600 26.65500 23.27400
H  45.40200 25.92700 24.79500
H  45.11000 26.86300 23.36300
H  46.22900 27.49800 24.45900
H  48.36200 29.40600 26.48800
H  50.00300 28.86400 26.95700
H  48.97500 29.94300 27.99500
H  46.47400 27.97400 31.85300
H  48.42900 27.25900 35.49000
H  47.29300 28.62000 35.85400
H  48.92700 29.03400 35.47800

