158

Mg 9.12400 3.16300 27.23700
C  10.50500 1.55800 30.07900
C  7.36000 5.31900 29.37400
C  7.59700 4.39700 24.57300
C  10.53600 0.53800 25.19400
N  8.95000 3.34800 29.48600
C  9.62100 2.62400 30.41700
C  9.35800 3.19900 31.79400
C  8.30200 4.32500 31.55600
C  8.21500 4.36500 30.02300
C  6.89500 4.21100 32.29500
C  10.62400 3.66700 32.61200
C  10.34200 4.55600 33.83200
H  10.97500 4.18300 35.15900
N  7.86000 4.82000 26.97800
C  7.21700 5.57100 27.98300
C  6.35300 6.55200 27.33700
C  6.39400 6.27300 25.92000
C  7.32500 5.14900 25.80000
C  5.48000 7.56300 28.10500
C  5.67700 6.86000 24.72500
O  5.69600 6.40700 23.56500
C  4.66800 7.95100 24.98100
N  9.17300 2.55600 25.17400
C  8.30500 3.19200 24.33900
C  8.30000 2.48900 22.94400
C  9.34900 1.39800 23.07300
C  9.73100 1.50400 24.57900
C  6.91900 2.05500 22.34300
C  10.67000 1.72000 22.24100
C  10.95200 0.82400 20.97800
N  10.30100 1.36600 27.50800
C  10.88000 0.49300 26.59700
C  11.70800 -0.46600 27.32300
C  11.67100 0.00700 28.66400
C  10.73800 1.09400 28.73700
C  12.42400 -1.67900 26.81400
C  12.19500 -0.24000 30.00400
O  13.00400 -1.08600 30.46100
C  11.43300 0.74600 30.94900
C  10.73400 0.05800 32.09700
O  9.62100 -0.41800 32.06500
O  11.46500 0.05500 33.38200
C  10.74900 -0.39100 34.49400
H  7.08900 6.19200 29.97200
H  7.18300 4.77300 23.63500
H  10.87200 -0.29300 24.57100
H  8.87900 2.33600 32.25700
H  8.74500 5.29100 31.79600
H  6.85500 3.69400 33.25400
H  6.28400 3.63900 31.59700
H  6.57600 5.22700 32.52900
H  11.24800 4.18800 31.88600
H  11.23000 2.82300 32.94000
H  9.28100 4.48300 34.06900
H  10.57400 5.60600 33.65000
H  5.80500 8.59300 27.96000
H  5.59000 7.44200 29.18300
H  4.47800 7.32800 27.74600
H  4.03600 7.49000 25.74000
H  4.06500 8.18900 24.10500
H  5.13900 8.83700 25.40800
H  8.54300 3.22100 22.17400
H  9.01300 0.37300 22.91600
H  6.97700 0.99200 22.11200
H  6.56000 2.55400 21.44300
H  6.15500 2.19800 23.10800
H  11.51100 1.71400 22.93400
H  10.62500 2.73400 21.84400
H  11.99100 0.49800 21.02100
H  10.81000 1.41600 20.07300
H  10.37300 -0.09900 21.00200
H  12.67400 -2.28000 27.68800
H  13.32500 -1.31100 26.32300
H  11.70400 -2.21400 26.19400
H  12.22000 1.38300 31.35100
H  9.98700 0.37300 34.64500
H  11.24500 -0.38400 35.46500
H  10.23600 -1.33000 34.28500
Mg 26.21700 52.23900 27.06100
C  23.65900 52.46600 29.40000
C  28.30900 51.10600 29.35800
C  28.59700 51.83200 24.54800
C  23.91000 53.07000 24.51700
N  25.89500 51.68700 29.21900
C  24.89000 51.97800 30.03500
C  25.19400 51.77200 31.52000
C  26.66700 51.23000 31.40500
C  27.02200 51.38400 29.94200
C  27.70200 51.98800 32.24800
C  24.22800 50.79200 32.34600
C  23.73000 51.28100 33.70100
H  24.79700 51.69700 34.73800
N  28.19900 51.61700 27.00500
C  28.90500 51.27600 28.07700
C  30.25800 50.89200 27.65200
C  30.35100 51.02700 26.23200
C  29.03600 51.54100 25.86900
C  31.20800 50.26100 28.56400
C  31.51500 50.73600 25.32100
O  31.43100 51.02700 24.11200
C  32.70900 50.16400 25.88200
N  26.29200 52.67600 24.84600
C  27.31600 52.27200 24.10700
C  27.04300 52.66100 22.57500
C  25.50600 52.88900 22.48300
C  25.20300 52.86300 23.98800
C  28.01500 53.82400 22.08800
C  24.72100 51.79100 21.71700
C  24.64100 51.99600 20.22900
N  24.21600 52.71200 26.96500
C  23.46600 53.05700 25.86200
C  22.16800 53.32500 26.29700
C  22.15000 53.15500 27.71000
C  23.44800 52.65900 28.04100
C  21.02100 53.50300 25.52300
C  21.30700 53.25800 28.91500
O  20.20600 53.68800 29.06500
C  22.32100 53.00600 30.12300
C  22.57100 54.26000 30.79800
O  23.11700 55.22200 30.28900
O  22.03300 54.25100 32.07000
C  22.37800 55.34300 32.93700
H  29.12400 50.91100 30.05800
H  29.26200 51.76700 23.68400
H  23.17600 53.27900 23.73600
H  25.18100 52.70400 32.08600
H  26.90900 50.17400 31.52200
H  28.42100 51.24600 32.59500
H  27.18200 52.45800 33.08300
H  28.25900 52.65200 31.58600
H  24.71900 49.82000 32.37500
H  23.27000 50.63700 31.85000
H  22.98300 50.61000 34.12600
H  23.24700 52.23000 33.47100
H  30.97500 50.14900 29.62300
H  32.11800 50.85800 28.50800
H  31.52000 49.27500 28.22200
H  33.47600 50.12300 25.10900
H  32.54300 49.12500 26.16800
H  33.17300 50.59100 26.77100
H  27.26000 51.73600 22.04000
H  25.32100 53.90000 22.11900
H  28.83100 53.85100 22.80900
H  27.51100 54.77100 21.89500
H  28.36000 53.52300 21.09800
H  23.68800 51.64600 22.03300
H  25.21400 50.83000 21.86400
H  24.83200 51.04100 19.73900
H  25.33900 52.69300 19.76500
H  23.65300 52.31400 19.89700
H  20.93600 52.83200 24.66800
H  20.81900 54.54000 25.25700
H  20.20200 53.24300 26.19300
H  22.01500 52.22700 30.82200
H  22.50800 56.27200 32.38200
H  23.30600 55.04300 33.42400
H  21.56000 55.37800 33.65600

