158

Mg 16.59200 -2.42800 28.86700
C  15.50000 -0.41500 31.50400
C  18.37500 -4.24500 31.01900
C  17.59500 -4.20000 26.25300
C  14.95100 -0.20200 26.64700
N  17.01600 -2.20900 31.01500
C  16.40900 -1.36800 31.95600
C  16.93500 -1.59400 33.39900
C  17.89000 -2.82500 33.09800
C  17.71800 -3.16700 31.60300
C  19.35900 -2.57900 33.63800
C  15.84600 -1.84300 34.47800
C  15.94300 -0.89700 35.70400
H  17.32800 -0.37100 36.13200
N  17.82600 -4.11200 28.63500
C  18.49000 -4.67400 29.66000
C  19.11800 -5.90300 29.19300
C  19.01800 -5.87900 27.73600
C  18.15100 -4.69900 27.46100
C  19.87800 -6.86300 30.07300
C  19.61500 -6.78800 26.71600
O  19.29500 -6.65900 25.55100
C  20.51200 -7.87600 27.03600
N  16.31400 -2.23700 26.76300
C  16.76300 -3.10000 25.89300
C  16.36700 -2.70300 24.40200
C  15.29600 -1.63100 24.65900
C  15.50200 -1.33900 26.08500
C  17.49400 -2.36400 23.48800
C  13.84600 -2.10100 24.37100
C  13.60400 -2.42900 22.89900
N  15.48500 -0.65600 28.96200
C  14.93900 0.20800 27.98600
C  14.11400 1.32400 28.61100
C  14.25800 1.05200 29.97200
C  15.15500 -0.11500 30.13300
C  13.19400 2.30400 28.02400
C  13.85900 1.48000 31.31600
O  13.00300 2.28600 31.69100
C  14.84100 0.64600 32.34400
C  15.69700 1.58900 33.02300
O  16.94800 1.65500 32.88600
O  15.01200 2.33500 33.93900
C  15.85400 3.27600 34.68700
H  18.94300 -4.87800 31.70400
H  18.08000 -4.65400 25.38600
H  14.43800 0.36300 25.86700
H  17.57100 -0.73600 33.61400
H  17.73000 -3.70500 33.72200
H  20.09900 -2.88800 32.90000
H  19.47900 -3.26800 34.47300
H  19.58700 -1.57500 33.99700
H  15.78000 -2.85800 34.87000
H  14.92200 -1.74400 33.90700
H  15.49500 -1.47100 36.51500
H  15.35100 0.01100 35.59000
H  19.34200 -6.82100 31.02100
H  20.86900 -6.43100 30.21400
H  19.99500 -7.93300 29.90500
H  21.29400 -7.40800 27.63400
H  20.91000 -8.26900 26.10100
H  20.05300 -8.66600 27.63000
H  15.79000 -3.47500 23.89200
H  15.46600 -0.66700 24.18000
H  18.36600 -2.31300 24.14100
H  17.34000 -1.40700 22.99100
H  17.64900 -3.12800 22.72700
H  13.13400 -1.31700 24.62900
H  13.44700 -2.92200 24.96700
H  12.77300 -1.87000 22.47000
H  13.30600 -3.47200 22.79300
H  14.47400 -2.27900 22.26000
H  12.21900 1.81900 27.96600
H  13.39800 2.66000 27.01500
H  13.30200 3.17100 28.67600
H  14.23500 0.16700 33.11200
H  15.83400 4.21400 34.13300
H  16.88300 3.01200 34.93000
H  15.33000 3.37600 35.63700
Mg 49.18200 46.57000 43.21900
C  46.00300 47.35000 42.19600
C  48.91900 43.58800 41.53400
C  52.49800 46.24700 43.54200
C  49.57500 49.97000 44.21900
N  47.57600 45.58900 42.07700
C  46.34700 46.09100 41.73700
C  45.51200 45.04700 40.97200
C  46.53400 43.88100 40.85200
C  47.73500 44.40600 41.49900
C  45.90800 42.46900 41.36600
C  45.01600 45.54300 39.58900
C  43.93400 44.69300 38.96100
H  44.32100 43.78400 37.75000
N  50.50400 44.95800 42.76400
C  50.17500 43.81000 42.17700
C  51.35500 42.97700 42.04500
C  52.42200 43.69700 42.70600
C  51.91600 45.05900 42.96900
C  51.29900 41.59100 41.50900
C  53.89800 43.18100 42.97600
O  54.20600 42.05200 42.56700
C  54.96200 43.94500 43.61200
N  50.87800 47.96300 43.64100
C  52.10300 47.51600 43.89800
C  53.02300 48.70900 44.39100
C  52.11600 49.91100 44.23400
C  50.73600 49.26900 43.99300
C  53.46300 48.38400 45.78600
C  52.61700 50.95800 43.19200
C  52.30700 52.41900 43.57800
N  48.04700 48.29800 43.37400
C  48.31500 49.60000 43.82700
C  47.07500 50.35500 43.80800
C  46.16000 49.46900 43.23000
C  46.79500 48.29300 42.89900
C  46.91600 51.76600 44.30000
C  44.78700 49.40900 42.79600
O  43.81900 50.16000 42.92600
C  44.66300 48.02700 42.06900
C  43.70900 47.09000 42.70100
O  43.73900 46.84400 43.91400
O  42.80800 46.60500 41.71700
C  41.78600 45.71800 42.25500
H  48.86800 42.63100 41.01100
H  53.58400 46.13900 43.57500
H  49.67000 50.96300 44.66300
H  44.66500 44.69200 41.55900
H  46.87000 43.78700 39.82000
H  44.88600 42.43400 40.99000
H  45.87100 42.38800 42.45200
H  46.25300 41.53600 40.92000
H  45.91000 45.66900 38.97700
H  44.54400 46.51500 39.73100
H  43.12400 45.38200 38.72200
H  43.49900 44.09200 39.75900
H  50.78000 40.86800 42.13900
H  52.26900 41.15000 41.28200
H  50.72700 41.74100 40.59400
H  54.55900 44.39200 44.52100
H  55.35800 44.67700 42.90900
H  55.76400 43.27500 43.92000
H  53.83300 48.71700 43.66100
H  52.19800 50.33300 45.23600
H  53.71100 47.32300 45.77900
H  52.67600 48.49400 46.53200
H  54.42300 48.85500 46.00200
H  52.09500 50.80900 42.24700
H  53.69500 51.04600 43.05800
H  51.33900 52.52100 43.08800
H  53.11400 53.03200 43.17500
H  52.34300 52.67100 44.63800
H  45.83200 51.87200 44.28300
H  47.47200 52.41300 43.62100
H  47.27500 51.99100 45.30500
H  44.45800 48.25500 41.02300
H  41.28300 46.19800 43.09400
H  42.35000 44.85000 42.59600
H  41.08900 45.48000 41.45200

