158

Mg 47.14800 15.67300 28.06800
C  45.22500 15.27200 30.93100
C  49.41200 17.42100 29.90500
C  48.74800 16.52400 25.17200
C  44.41100 14.55600 26.12200
N  47.24300 16.38700 30.13000
C  46.42200 15.99000 31.14800
C  46.96100 16.51700 32.50900
C  48.17000 17.35700 32.16300
C  48.25000 17.08000 30.60500
C  48.17400 18.91700 32.57400
C  47.31500 15.33600 33.48400
C  46.92300 15.39100 35.03000
H  46.73500 16.85100 35.53900
N  48.91400 16.53400 27.65100
C  49.78300 17.12700 28.55100
C  51.00400 17.40800 27.91100
C  50.82700 17.24300 26.53700
C  49.47500 16.75200 26.39200
C  52.21100 17.76900 28.66000
C  51.82200 17.57400 25.34000
O  51.52400 17.44000 24.13800
C  53.18600 18.06400 25.61800
N  46.60300 15.66400 25.92900
C  47.44300 16.05300 24.94400
C  46.73700 16.00400 23.59200
C  45.45100 15.23100 23.89300
C  45.47400 15.13300 25.44400
C  46.53600 17.38700 23.04900
C  45.11600 13.89400 23.20900
C  45.72300 12.56500 23.79800
N  45.22600 15.10100 28.39400
C  44.27400 14.54000 27.56500
C  43.17400 13.99600 28.32100
C  43.54100 14.24400 29.65900
C  44.74500 14.92700 29.62800
C  41.84000 13.52000 27.73800
C  43.08500 14.14700 31.05600
O  42.04800 13.73500 31.57800
C  44.18800 14.88600 31.89900
C  43.59300 16.00400 32.58400
O  43.34000 17.10500 32.10500
O  43.21700 15.62100 33.83300
C  42.42600 16.51600 34.68100
H  50.15300 17.98500 30.47600
H  49.26100 16.76200 24.23800
H  43.66500 14.07200 25.48900
H  46.21500 17.16400 32.96900
H  49.14800 17.01000 32.49700
H  49.22700 19.15200 32.72600
H  47.51500 19.11100 33.42000
H  47.89800 19.55500 31.73500
H  48.38800 15.15200 33.43700
H  46.79200 14.44700 33.13100
H  47.62300 14.84800 35.66500
H  45.98700 14.84300 35.14300
H  52.61500 18.74300 28.38400
H  52.97700 17.02200 28.45300
H  52.17800 17.65500 29.74300
H  53.18200 18.99100 26.19100
H  53.67400 18.34300 24.68500
H  53.53800 17.20200 26.18500
H  47.41800 15.52400 22.88900
H  44.59800 15.87600 23.68100
H  47.12400 17.56700 22.14900
H  46.80200 18.17000 23.75900
H  45.51500 17.59700 22.72900
H  45.44600 13.96600 22.17200
H  44.02700 13.93900 23.23600
H  44.84400 12.05600 24.19400
H  46.44000 12.77400 24.59200
H  46.27700 11.99700 23.05200
H  41.86200 13.52600 26.64800
H  41.00900 14.18100 27.98300
H  41.60200 12.48800 27.99500
H  44.41700 14.06700 32.58000
H  41.90800 17.30600 34.13700
H  43.11100 17.02700 35.35700
H  41.68900 16.01400 35.30800
Mg -11.18200 16.42300 41.27800
C  -7.86300 15.26800 41.03200
C  -10.35100 19.35600 39.92400
C  -14.42100 17.04400 40.98200
C  -12.13900 13.04800 42.13100
N  -9.26200 17.16500 40.58900
C  -8.00900 16.56400 40.53200
C  -6.96800 17.58200 40.09600
C  -7.82600 18.91400 39.95100
C  -9.23800 18.44900 40.07800
C  -7.47600 19.90700 41.15600
C  -6.28500 17.15900 38.71500
C  -4.74100 16.92600 38.64300
H  -4.23200 16.70200 37.17200
N  -12.27300 18.01100 40.69000
C  -11.73900 19.16500 40.16200
C  -12.77400 20.13100 39.94600
C  -13.95000 19.57500 40.34300
C  -13.61200 18.15200 40.77700
C  -12.51100 21.53400 39.52900
C  -15.34000 20.26900 40.51600
O  -15.57200 21.28400 39.87500
C  -16.40400 19.70400 41.25300
N  -13.02000 15.20400 41.28700
C  -14.22300 15.74900 41.13900
C  -15.38100 14.71300 41.09900
C  -14.71800 13.43300 41.70300
C  -13.15800 13.87200 41.57800
C  -16.71600 15.22600 41.80800
C  -15.09600 12.06600 41.28000
C  -15.41100 11.00500 42.44000
N  -10.27500 14.54300 41.61100
C  -10.77100 13.31800 42.00200
C  -9.61900 12.41400 42.20500
C  -8.47400 13.12500 41.88000
C  -8.90900 14.39900 41.45000
C  -9.65400 11.02300 42.68000
C  -7.02900 13.10100 41.75900
O  -6.20900 12.18500 41.93800
C  -6.54500 14.48700 41.18000
C  -5.54700 15.17300 42.07200
O  -5.77400 16.00000 42.97000
O  -4.26200 14.80700 41.78700
C  -3.25700 15.48700 42.66900
H  -9.93800 20.35400 39.76300
H  -15.49500 17.20100 40.86400
H  -12.44500 12.03400 42.39700
H  -6.15600 17.58700 40.82200
H  -7.66400 19.44600 39.01400
H  -6.79700 20.68800 40.81400
H  -6.82300 19.40000 41.86600
H  -8.38700 20.19300 41.68200
H  -6.58300 17.87700 37.95000
H  -6.69200 16.18100 38.46000
H  -4.52700 16.06600 39.27700
H  -4.32500 17.78900 39.16500
H  -12.99100 21.70000 38.56500
H  -11.47300 21.86600 39.51500
H  -13.09100 22.20800 40.16000
H  -17.34200 20.25500 41.31800
H  -16.12100 19.34700 42.24300
H  -16.57400 18.78300 40.69500
H  -15.58800 14.59400 40.03500
H  -14.88600 13.43400 42.78000
H  -16.58000 16.14700 42.37500
H  -16.69400 14.48400 42.60600
H  -17.65600 15.11100 41.26800
H  -14.46200 11.64600 40.49900
H  -16.04100 12.13300 40.74300
H  -14.78700 11.10300 43.32800
H  -15.36200 9.96300 42.12400
H  -16.47000 11.11900 42.66700
H  -8.77300 10.88300 43.30600
H  -9.63400 10.24300 41.91900
H  -10.60100 10.89000 43.20300
H  -6.06900 14.39500 40.20300
H  -2.38100 15.71300 42.06000
H  -3.07000 14.83200 43.52000
H  -3.58400 16.47000 43.00700

