158

Mg 34.71400 2.97600 29.65900
C  32.63900 3.97700 32.17900
C  37.43300 2.98700 31.91700
C  36.95300 2.38900 27.13300
C  32.19900 3.33700 27.33300
N  34.98800 3.27800 31.85400
C  33.98100 3.79500 32.63500
C  34.38900 3.85500 34.13300
C  35.94400 3.77300 33.92500
C  36.20700 3.32600 32.49100
C  36.69800 5.08400 34.28900
C  33.78900 2.75600 35.08600
C  33.57700 3.12400 36.58000
H  34.66300 4.05500 37.12600
N  36.81600 2.49400 29.55900
C  37.73600 2.62200 30.55700
C  39.00200 2.30200 30.03800
C  38.94800 2.09400 28.71000
C  37.51300 2.40400 28.36100
C  40.25700 2.43100 30.88600
C  39.95700 1.56900 27.70200
O  39.75800 1.49900 26.45700
C  41.28900 1.04600 28.10600
N  34.64100 2.87600 27.53200
C  35.67300 2.50900 26.72000
C  35.31200 2.51500 25.32000
C  33.71600 2.40200 25.45900
C  33.44500 2.82900 26.91000
C  35.96000 3.76200 24.53400
C  33.14100 0.96400 25.16000
C  32.09300 0.92600 24.06600
N  32.83500 3.53900 29.68800
C  31.87800 3.62600 28.65700
C  30.62100 4.01800 29.22900
C  30.84300 4.20900 30.56400
C  32.25500 3.87200 30.79600
C  29.35300 4.21200 28.47000
C  30.26100 4.52500 31.86100
O  29.10200 4.69600 32.18600
C  31.36400 4.44400 32.90000
C  31.50000 5.54000 33.75800
O  32.01200 6.58100 33.40300
O  31.29500 5.29300 35.05500
C  31.54500 6.31600 36.05600
H  38.27300 2.92300 32.61200
H  37.71400 2.32500 26.35200
H  31.40100 3.47400 26.59900
H  34.23300 4.88700 34.44800
H  36.37800 2.89500 34.40200
H  36.05900 5.73800 34.88200
H  36.93900 5.59200 33.35600
H  37.63500 4.83700 34.78700
H  34.45600 1.89800 35.16300
H  32.80800 2.42000 34.75000
H  33.71100 2.21500 37.16600
H  32.56900 3.51100 36.72700
H  40.04200 2.80900 31.88500
H  40.86900 3.13300 30.31900
H  40.62200 1.40400 30.89200
H  41.19500 0.14200 28.70700
H  41.75900 1.80000 28.73800
H  41.77300 0.91400 27.13800
H  35.83100 1.66500 24.87700
H  33.23900 3.08600 24.75600
H  35.35700 4.42900 23.91800
H  36.75700 3.42200 23.87200
H  36.34600 4.46700 25.27000
H  32.59700 0.68200 26.06200
H  33.94300 0.25100 24.97100
H  32.40100 0.16600 23.34800
H  31.78500 1.82800 23.53700
H  31.23900 0.53800 24.62300
H  29.60700 4.87200 27.64100
H  28.58700 4.68400 29.08500
H  29.02400 3.20500 28.21600
H  31.02000 3.59100 33.48400
H  31.07600 5.91800 36.95600
H  30.98000 7.23800 35.92100
H  32.58400 6.64500 36.09300
Mg 49.42300 47.34400 43.05700
C  46.01400 47.53600 42.08800
C  49.44200 44.13000 41.64100
C  52.70700 47.33500 43.19000
C  49.29100 50.75400 43.60200
N  47.89000 46.06400 41.94400
C  46.57500 46.34600 41.63600
C  45.86000 45.16400 41.00300
C  46.81500 43.97700 41.28200
C  48.15500 44.77800 41.60400
C  46.42200 43.00400 42.46700
C  45.48300 45.27100 39.46400
C  43.99600 45.45200 39.14000
H  43.52200 45.19300 37.69200
N  50.82700 45.90700 42.55500
C  50.66300 44.68000 42.05700
C  51.90100 44.00000 41.96400
C  52.93500 44.91000 42.30500
C  52.19500 46.10700 42.68900
C  51.99300 42.54700 41.45000
C  54.44000 44.60500 42.29000
O  54.86200 43.49900 41.93200
C  55.38900 45.65500 42.77500
N  50.81700 48.82600 43.29900
C  52.09500 48.55700 43.50000
C  52.90000 49.73900 43.98600
C  51.83500 50.87700 44.05900
C  50.56700 50.15000 43.63000
C  53.84100 49.60900 45.19000
C  52.08600 52.21000 43.35300
C  51.79300 53.48300 44.18900
N  47.83900 48.82000 43.17800
C  48.05600 50.18400 43.32000
C  46.75600 50.86000 43.24300
C  45.89800 49.80400 42.74900
C  46.68100 48.56900 42.64600
C  46.48300 52.26000 43.62700
C  44.52100 49.46100 42.37900
O  43.55100 50.22400 42.36100
C  44.52300 47.89200 42.01800
C  43.64000 47.28100 42.98900
O  43.87000 47.34900 44.20500
O  42.65300 46.53600 42.43700
C  41.57300 46.03100 43.32100
H  49.28400 43.14300 41.20200
H  53.77800 47.41100 43.39300
H  49.26800 51.83900 43.72000
H  44.94700 44.98700 41.57100
H  46.84600 43.21500 40.50400
H  46.42000 41.95800 42.16000
H  45.39800 43.13100 42.81800
H  47.10000 43.05100 43.31900
H  45.85000 44.43000 38.87700
H  46.03500 46.15500 39.14400
H  43.68700 46.49300 39.22900
H  43.38300 44.79600 39.75900
H  52.98100 42.30500 41.05700
H  51.17200 42.31000 40.77400
H  51.90100 41.90400 42.32500
H  55.13400 46.50500 42.14100
H  56.34100 45.25900 42.42300
H  55.04600 45.59600 43.80800
H  53.51100 49.97900 43.11600
H  51.59000 51.08000 45.10200
H  54.88900 49.76200 44.93400
H  53.80100 48.63500 45.67800
H  53.56100 50.45800 45.81400
H  51.56200 52.34400 42.40700
H  53.15100 52.12000 43.13900
H  52.74800 53.98000 44.35700
H  51.28800 53.19800 45.11200
H  51.11900 54.11200 43.60700
H  47.22000 52.90900 43.15200
H  46.57700 52.33300 44.71100
H  45.55200 52.71000 43.28300
H  44.03500 47.79400 41.04800
H  41.82500 44.99100 43.53200
H  40.65300 46.05600 42.73700
H  41.59200 46.67600 44.19900

