158

Mg 53.46200 24.35900 44.82000
C  51.05000 26.71100 43.92200
C  51.35900 21.91300 43.46500
C  56.16900 22.20200 44.76000
C  55.71900 27.03400 45.24800
N  51.55500 24.28300 43.52800
C  50.75800 25.37400 43.40800
C  49.46100 24.96600 42.63300
C  49.41300 23.43600 42.90100
C  50.85700 23.15500 43.25900
C  48.40800 23.06300 43.99200
C  49.52100 25.20500 41.15000
C  50.82000 25.47700 40.46200
H  50.77700 25.98500 39.00700
N  53.73900 22.32800 44.27100
C  52.70400 21.45800 43.84000
C  53.24900 20.09400 43.73300
C  54.58900 20.15200 44.08700
C  54.87400 21.58700 44.40900
C  52.45500 18.95000 43.15300
C  55.49600 19.04700 44.17300
O  55.15000 17.95800 43.91100
C  56.89500 19.16400 44.48900
N  55.69500 24.61900 44.50400
C  56.53800 23.55400 44.74500
C  58.00500 24.00000 45.02600
C  57.76100 25.58600 45.09000
C  56.30600 25.77400 44.92000
C  58.75700 23.33400 46.25600
C  58.65700 26.38000 44.00200
C  58.13600 26.37100 42.56100
N  53.38200 26.43300 44.82500
C  54.32100 27.44200 45.16700
C  53.64000 28.69400 45.27100
C  52.36200 28.49300 44.78300
C  52.24300 27.11100 44.54300
C  54.36800 29.91800 45.68300
C  51.12500 29.11600 44.49300
O  50.81300 30.26100 44.65500
C  50.22800 27.96100 43.95000
C  49.64800 28.43000 42.66700
O  50.26700 28.50800 41.61800
O  48.26900 28.57400 42.67300
C  47.68800 28.60000 41.30500
H  50.58500 21.14900 43.36500
H  57.03800 21.57700 44.97400
H  56.47000 27.77000 45.54500
H  48.56600 25.47200 42.99300
H  49.16200 22.82800 42.03200
H  48.31600 23.88800 44.70000
H  48.58200 22.19600 44.62900
H  47.42700 22.82000 43.58400
H  48.74600 25.95900 41.01000
H  49.15900 24.39300 40.52000
H  51.51000 24.64600 40.60900
H  51.22500 26.40200 40.87300
H  52.96700 18.61200 42.25300
H  51.45500 19.31700 42.92300
H  52.40500 18.05400 43.77200
H  57.15900 18.10600 44.47600
H  56.89100 19.50900 45.52300
H  57.44300 19.82100 43.81400
H  58.60800 23.73800 44.15700
H  58.06600 25.91000 46.08500
H  59.54500 22.66600 45.91000
H  58.05500 22.76600 46.86700
H  59.21300 24.10900 46.87300
H  59.63100 25.89200 43.96500
H  58.82000 27.41900 44.28800
H  57.71800 27.31900 42.22100
H  57.47600 25.52400 42.37400
H  59.01200 26.17000 41.94600
H  55.39500 29.78500 45.34200
H  54.32400 30.07400 46.76100
H  53.99800 30.81800 45.19300
H  49.34400 27.83800 44.57600
H  47.76000 29.62400 40.93800
H  46.66200 28.27200 41.47400
H  48.18200 27.92000 40.61000
Mg -11.58900 16.17500 41.48100
C  -8.45300 14.66400 41.18500
C  -10.09400 19.05600 40.45200
C  -14.65100 17.42200 40.87800
C  -13.02300 13.06700 42.16900
N  -9.55600 16.70400 40.60700
C  -8.38600 15.94600 40.71000
C  -7.14800 16.72300 40.32100
C  -7.63700 18.17200 40.46000
C  -9.18900 17.98900 40.50600
C  -7.09700 18.94000 41.74100
C  -6.58100 16.42400 38.88400
C  -5.05600 16.43400 38.76200
H  -4.64500 16.93500 37.40300
N  -12.33800 17.91600 40.86700
C  -11.54700 19.02200 40.58300
C  -12.41400 20.14400 40.25500
C  -13.78500 19.76500 40.33800
C  -13.60800 18.31100 40.71800
C  -11.89700 21.46900 39.94500
C  -15.02500 20.49600 39.91600
O  -14.89900 21.62600 39.49200
C  -16.43000 19.96700 40.06300
N  -13.63100 15.32100 41.46100
C  -14.67700 16.03700 41.26400
C  -15.97200 15.22800 41.48300
C  -15.44300 13.82300 41.94200
C  -13.93700 14.10900 41.96900
C  -16.94900 15.92800 42.51800
C  -15.72700 12.70800 40.96600
C  -16.18500 11.36200 41.63100
N  -10.90500 14.24500 41.82900
C  -11.55700 13.09400 42.19500
C  -10.57800 12.05600 42.48900
C  -9.33200 12.62800 42.13400
C  -9.60800 13.90900 41.63600
C  -10.90700 10.63000 42.96400
C  -7.87400 12.43800 42.10500
O  -7.08600 11.62400 42.60700
C  -7.29300 13.71600 41.40200
C  -6.29300 14.28300 42.39300
O  -6.57700 14.84200 43.45000
O  -5.02500 14.01300 41.98800
C  -3.98600 14.55800 42.82300
H  -9.66800 20.03900 40.24100
H  -15.63900 17.87400 40.77500
H  -13.51700 12.10600 42.32800
H  -6.32500 16.50800 41.00400
H  -7.49000 18.73500 39.53800
H  -7.95300 19.09200 42.39900
H  -6.87000 19.99100 41.56200
H  -6.35200 18.31700 42.23500
H  -6.87100 17.03800 38.03200
H  -6.80500 15.38300 38.65200
H  -4.66200 15.42200 38.85800
H  -4.56700 17.03400 39.53000
H  -12.14800 21.66000 38.90200
H  -10.84700 21.70200 40.11800
H  -12.33900 22.25200 40.56100
H  -17.24700 20.68100 39.96400
H  -16.47700 19.65600 41.10700
H  -16.59500 19.08400 39.44500
H  -16.42500 15.20100 40.49100
H  -15.86300 13.52200 42.90100
H  -17.89100 16.16200 42.02100
H  -16.45700 16.85400 42.81700
H  -17.16300 15.25200 43.34600
H  -14.99700 12.42200 40.20900
H  -16.63900 12.94700 40.41900
H  -16.21400 11.47000 42.71500
H  -15.47700 10.61600 41.27200
H  -17.22700 11.06700 41.50600
H  -11.84500 10.68300 43.51600
H  -10.10400 10.12800 43.50400
H  -11.07100 10.15500 41.99700
H  -6.83200 13.40800 40.46300
H  -4.17100 15.63200 42.83400
H  -3.00800 14.19500 42.50600
H  -4.18100 14.24200 43.84800

