158

Mg -1.74100 17.33000 26.62400
C  -1.94800 14.87000 29.31800
C  -2.22200 19.84100 28.99000
C  -1.90800 19.48600 24.05900
C  -1.82200 14.63900 24.35600
N  -2.13900 17.25200 28.95000
C  -2.02200 16.19200 29.84300
C  -2.00100 16.75300 31.32500
C  -2.14200 18.32400 31.05800
C  -2.12600 18.50700 29.54500
C  -3.33900 19.01500 31.83600
C  -0.74200 16.21900 32.12900
C  -0.23400 17.06000 33.25800
H  0.05400 16.32400 34.54000
N  -2.06700 19.39300 26.56200
C  -2.19800 20.20900 27.64400
C  -2.23600 21.58000 27.12400
C  -1.95300 21.48000 25.71200
C  -1.98800 20.07900 25.40100
C  -2.50300 22.84300 28.03500
C  -1.59700 22.59600 24.67600
O  -1.42500 22.49400 23.44300
C  -1.57100 23.93300 25.17800
N  -1.84000 17.10500 24.54600
C  -1.83700 18.13600 23.67100
C  -1.68400 17.73000 22.23700
C  -1.64100 16.14900 22.36100
C  -1.80800 15.94200 23.85700
C  -2.87200 18.25900 21.40800
C  -0.33300 15.61700 21.82000
C  0.96800 15.87200 22.63100
N  -1.82800 15.21400 26.77400
C  -1.82400 14.25900 25.76700
C  -1.91100 12.96200 26.27800
C  -1.91700 13.14000 27.67000
C  -1.92100 14.53700 27.98800
C  -2.12100 11.68600 25.55700
C  -2.00600 12.41300 28.97600
O  -2.18900 11.26100 29.27300
C  -1.84700 13.55300 30.06100
C  -0.48000 13.34600 30.72100
O  0.60500 13.76300 30.31000
O  -0.56200 12.57200 31.94400
C  0.64500 12.27400 32.72000
H  -2.37600 20.63600 29.72300
H  -2.05400 20.13900 23.19600
H  -1.72100 13.84300 23.61500
H  -2.84500 16.31100 31.85500
H  -1.32800 18.84800 31.55800
H  -4.33100 18.92400 31.39400
H  -3.06100 20.03600 32.09900
H  -3.51300 18.56100 32.81200
H  0.00900 16.23700 31.33900
H  -0.90800 15.21100 32.50900
H  -0.91200 17.89800 33.42300
H  0.74900 17.45400 33.00300
H  -2.72900 22.62000 29.07800
H  -3.33600 23.37200 27.57200
H  -1.57100 23.40600 28.08400
H  -1.48400 24.77200 24.48900
H  -0.73700 23.88700 25.87800
H  -2.56100 24.06700 25.61500
H  -0.77100 18.15900 21.82400
H  -2.44600 15.73900 21.75000
H  -3.72600 18.45800 22.05500
H  -3.10500 17.46600 20.69700
H  -2.59700 19.14100 20.83000
H  -0.10300 16.09000 20.86500
H  -0.45900 14.56100 21.58200
H  0.81200 16.00500 23.70200
H  1.56400 16.73200 22.32300
H  1.58100 14.97600 22.53600
H  -2.13300 10.93000 26.34200
H  -1.39600 11.41600 24.78900
H  -3.14200 11.72000 25.17900
H  -2.63800 13.40800 30.79600
H  1.46700 12.94200 32.46400
H  1.00200 11.27500 32.46800
H  0.39400 12.29300 33.78100
Mg 40.48600 9.45000 29.88300
C  42.43300 10.54000 32.65900
C  38.15800 8.33800 32.15300
C  38.74400 8.24800 27.23900
C  43.17400 10.32200 27.75900
N  40.37800 9.37700 32.14800
C  41.18500 9.99700 33.00300
C  40.72700 9.95800 34.47600
C  39.36300 9.18100 34.31100
C  39.28100 8.94400 32.78600
C  39.34900 7.80100 35.13000
C  40.64900 11.36300 35.13000
C  39.63700 11.48000 36.31600
H  40.08300 12.44800 37.39000
N  38.70100 8.39100 29.71300
C  37.85000 8.13000 30.78800
C  36.57600 7.61300 30.18700
C  36.72800 7.69600 28.80300
C  38.11000 8.10400 28.52000
C  35.42200 7.16500 31.05300
C  35.70700 7.44100 27.71200
O  35.93400 7.51100 26.52500
C  34.41400 7.03900 28.14600
N  40.92200 9.33600 27.84300
C  39.96400 8.85300 26.89300
C  40.52100 9.06400 25.43200
C  41.84600 9.88600 25.68400
C  41.99300 9.87100 27.21200
C  40.79300 7.75600 24.62100
C  41.85800 11.32900 25.12100
C  41.18500 12.40400 25.90900
N  42.47800 10.25500 30.08800
C  43.40700 10.48600 29.14700
C  44.51100 11.12800 29.84100
C  44.15300 11.18000 31.16900
C  42.94400 10.56200 31.25600
C  45.82700 11.60700 29.21700
C  44.65300 11.66200 32.45800
O  45.70100 12.25000 32.80300
C  43.56400 11.20800 33.50000
C  44.14900 10.25800 34.47600
O  44.34300 9.09400 34.34600
O  44.50900 10.94400 35.63500
C  45.54800 10.35400 36.51300
H  37.39000 8.00500 32.85400
H  38.25400 7.81200 26.36500
H  43.93500 10.66800 27.05800
H  41.37600 9.30100 35.05500
H  38.58000 9.87700 34.61300
H  39.97600 7.91600 36.01300
H  39.66600 6.95000 34.52700
H  38.34200 7.60700 35.50100
H  40.51600 12.12500 34.36200
H  41.59000 11.61300 35.61900
H  39.31200 10.55500 36.79100
H  38.81300 12.00500 35.83200
H  35.40900 7.43900 32.10800
H  35.43700 6.08500 31.20300
H  34.42100 7.45800 30.73800
H  33.84700 7.80300 28.67600
H  34.45900 6.11100 28.71600
H  33.83000 6.84200 27.24600
H  39.78400 9.58900 24.82300
H  42.73100 9.39000 25.28500
H  40.85000 6.93200 25.33300
H  41.77900 7.73500 24.15800
H  39.95700 7.65000 23.93000
H  41.29700 11.28100 24.18900
H  42.87900 11.57900 24.83200
H  40.81400 12.11700 26.89300
H  40.33300 12.80500 25.36100
H  41.89300 13.19700 26.15100
H  45.77400 11.94300 28.18100
H  46.59900 10.83800 29.24500
H  46.30900 12.42500 29.75100
H  43.29200 12.10000 34.06400
H  46.46400 10.02600 36.02000
H  45.09000 9.48500 36.98500
H  45.90800 10.99900 37.31500

