158

Mg 0.97600 8.47500 26.94500
C  1.54400 10.96700 29.43400
C  1.35500 6.10100 29.25400
C  0.68500 6.25500 24.49200
C  1.28400 11.06100 24.57900
N  1.32600 8.55600 29.13100
C  1.34800 9.67900 29.94900
C  1.19500 9.30000 31.42200
C  1.46800 7.73500 31.34000
C  1.36500 7.44600 29.83000
C  2.76200 7.15900 31.95600
C  -0.20600 9.66400 31.89600
C  -0.59000 9.25600 33.34100
H  0.53600 8.82900 34.36100
N  0.87900 6.52500 26.92500
C  0.94600 5.69100 27.96700
C  0.69000 4.30000 27.56600
C  0.69500 4.30600 26.18100
C  0.77700 5.77600 25.77200
C  0.57700 3.24900 28.61100
C  0.63500 3.07900 25.28100
O  0.59700 3.20900 24.03000
C  0.62500 1.66200 25.95000
N  1.09400 8.63800 24.85400
C  0.80800 7.58900 24.04000
C  0.79600 7.98500 22.56900
C  0.61700 9.50300 22.61100
C  1.13400 9.74700 24.08700
C  2.03800 7.39900 21.84400
C  -0.75700 10.05900 22.32200
C  -0.86200 11.32300 21.41900
N  1.36100 10.59200 26.94400
C  1.48100 11.47700 25.89200
C  1.78300 12.79400 26.37700
C  1.75600 12.68900 27.75000
C  1.51900 11.32000 28.03300
C  1.96300 14.01300 25.60800
C  1.84400 13.43000 29.07300
O  1.99000 14.61800 29.24700
C  1.61800 12.26600 30.25200
C  2.79400 12.22200 31.15400
O  3.89100 11.70100 30.98500
O  2.43200 12.79600 32.38000
C  3.35100 12.69100 33.50300
H  1.46600 5.40400 30.08700
H  0.58600 5.52300 23.68900
H  1.26300 11.84500 23.81900
H  2.04400 9.72600 31.95700
H  0.58700 7.24900 31.76100
H  3.15000 6.35400 31.33200
H  2.50600 6.72700 32.92400
H  3.50500 7.92100 32.18900
H  -0.88000 9.08700 31.26300
H  -0.41700 10.72500 31.76200
H  -1.23600 8.37800 33.34000
H  -1.07600 10.13900 33.75500
H  1.23000 2.39100 28.45600
H  -0.42700 2.87900 28.81800
H  1.05800 3.50500 29.55500
H  1.55000 1.49000 26.50000
H  0.46400 0.98400 25.11200
H  -0.29300 1.61400 26.53500
H  -0.02600 7.50300 22.04000
H  1.32200 10.12300 22.05700
H  2.55100 6.68600 22.49000
H  2.78600 8.14400 21.57200
H  1.73400 6.93900 20.90400
H  -1.17400 10.42600 23.26000
H  -1.43700 9.30500 21.92500
H  0.12800 11.50200 20.99800
H  -1.18700 12.20800 21.96500
H  -1.58700 11.22300 20.61200
H  2.81300 13.80000 24.96000
H  2.30500 14.82100 26.25600
H  1.05800 14.28700 25.06500
H  0.77300 12.56200 30.87300
H  4.09000 11.90300 33.36000
H  2.76400 12.35200 34.35700
H  3.85200 13.64000 33.69100
Mg -6.37000 25.35100 26.15500
C  -5.04700 26.88200 29.09100
C  -8.11200 23.26100 28.28600
C  -7.08400 23.43800 23.49100
C  -4.22600 27.21700 24.29500
N  -6.43800 25.09300 28.44000
C  -5.91400 25.87000 29.44200
C  -6.46100 25.49000 30.83100
C  -7.30100 24.20900 30.57100
C  -7.28200 24.17200 29.01000
C  -6.86100 22.90200 31.25600
C  -7.08300 26.60600 31.65500
C  -6.72300 26.73700 33.15000
H  -6.06400 25.60500 33.86500
N  -7.54300 23.71400 25.88100
C  -8.17800 22.99700 26.88500
C  -9.10400 22.11800 26.26400
C  -8.91000 22.20500 24.87000
C  -7.81000 23.14600 24.68700
C  -10.14000 21.28500 27.05500
C  -9.64700 21.55400 23.72500
O  -9.34900 21.83400 22.59600
C  -10.62400 20.46200 24.07200
N  -5.79700 25.29600 24.25200
C  -6.21700 24.50300 23.23200
C  -5.45700 24.61700 21.95400
C  -4.86700 26.10100 22.16500
C  -4.87300 26.13600 23.73400
C  -4.47000 23.49000 21.61500
C  -5.64000 27.23300 21.47200
C  -5.15100 27.85900 20.15800
N  -4.99400 26.84300 26.56100
C  -4.19100 27.55200 25.66600
C  -3.52000 28.65100 26.38500
C  -3.78600 28.37300 27.70800
C  -4.71800 27.30700 27.76200
C  -2.69600 29.75200 25.73400
C  -3.46400 28.76600 29.02800
O  -2.67300 29.60500 29.47300
C  -4.30000 27.83500 29.91500
C  -3.26400 27.13500 30.79100
O  -2.58300 26.20500 30.49600
O  -3.34100 27.77900 31.97000
C  -2.25700 27.52200 32.88400
H  -8.73100 22.59300 28.88900
H  -7.18200 22.68200 22.71000
H  -3.74300 27.85200 23.55000
H  -5.59100 25.24700 31.44100
H  -8.26800 24.58000 30.91200
H  -7.38800 22.05300 30.81900
H  -7.14900 22.90400 32.30700
H  -5.78100 22.79600 31.35300
H  -8.17200 26.58000 31.69700
H  -6.85000 27.48700 31.05700
H  -7.60900 27.04800 33.70400
H  -6.03200 27.57800 33.10700
H  -9.88100 21.40900 28.10600
H  -10.26400 20.24200 26.76200
H  -11.08700 21.80400 26.90300
H  -10.14300 19.71400 24.70300
H  -11.06200 20.15800 23.12200
H  -11.43400 20.82600 24.70500
H  -6.11500 24.76400 21.09800
H  -3.80200 26.21100 21.96100
H  -4.48100 22.81000 22.46700
H  -3.45600 23.74200 21.30300
H  -4.89400 22.97700 20.75300
H  -5.83800 28.05300 22.16300
H  -6.66200 26.88900 21.31400
H  -4.71300 28.83400 20.37200
H  -5.87300 27.85700 19.34100
H  -4.23000 27.36400 19.85100
H  -2.07100 29.30200 24.96300
H  -2.11200 30.35000 26.43400
H  -3.42900 30.32900 25.17100
H  -4.89200 28.47300 30.57100
H  -1.28400 27.89400 32.56300
H  -2.24600 26.49000 33.23200
H  -2.53100 28.11600 33.75600

