158

Mg 50.24700 45.58100 41.30900
C  46.98400 46.47400 40.48600
C  49.53800 42.46600 40.11500
C  53.51100 44.80300 41.64500
C  51.11000 48.98600 41.72900
N  48.47300 44.63100 40.28500
C  47.24600 45.17400 40.09600
C  46.28800 44.24800 39.38400
C  47.11800 42.92500 39.37800
C  48.47100 43.31300 40.03000
C  46.35600 41.73900 40.10900
C  46.02700 44.64700 37.93700
C  44.57100 44.37900 37.37100
H  44.40500 43.56000 36.11400
N  51.35600 43.83100 41.03500
C  50.85100 42.65400 40.54800
C  51.93900 41.71200 40.44000
C  53.17100 42.40100 40.79800
C  52.73700 43.77000 41.21100
C  51.76300 40.27700 40.00800
C  54.58400 41.81600 40.80400
O  54.71700 40.62700 40.48800
C  55.85700 42.50500 41.23100
N  52.02500 46.79200 41.48600
C  53.20700 46.14600 41.78000
C  54.27700 47.20200 42.02000
C  53.56900 48.59300 42.18700
C  52.16400 48.14900 41.68400
C  55.24100 46.95500 43.15700
C  54.16400 49.70400 41.24300
C  54.12800 51.10900 41.80000
N  49.25200 47.43700 41.30600
C  49.69600 48.69700 41.54500
C  48.57400 49.59100 41.36000
C  47.54300 48.79700 40.91600
C  47.92800 47.45300 40.90600
C  48.70400 51.05600 41.48800
C  46.17300 48.85400 40.46200
O  45.40500 49.78300 40.38200
C  45.70800 47.38100 40.25300
C  44.46000 47.11900 40.99700
O  44.29700 47.16900 42.24100
O  43.45600 46.79200 40.09000
C  42.19000 46.50500 40.70100
H  49.31600 41.53800 39.58400
H  54.56500 44.59500 41.83800
H  51.34800 50.01200 42.01800
H  45.35400 44.05800 39.91400
H  47.44000 42.57400 38.39800
H  45.27500 41.60700 40.05500
H  46.61100 41.70900 41.16800
H  46.83600 40.86100 39.67600
H  46.70400 44.14700 37.24400
H  46.30200 45.69700 37.83100
H  44.23200 45.38300 37.11400
H  43.97400 44.04700 38.21900
H  52.57400 39.90100 39.38400
H  50.97300 40.18800 39.26100
H  51.76500 39.62100 40.87900
H  55.70100 42.82700 42.26100
H  55.66700 43.33900 40.55600
H  56.73300 42.01200 40.81100
H  54.96400 47.20500 41.17300
H  53.59700 48.95700 43.21400
H  56.24900 46.65500 42.87300
H  54.82400 46.13100 43.73600
H  55.37800 47.83700 43.78200
H  53.57400 49.61500 40.33000
H  55.17600 49.45200 40.92800
H  53.46600 51.65200 41.12500
H  55.14800 51.49300 41.80700
H  53.67100 51.09100 42.78900
H  48.30900 51.54100 40.59500
H  49.77300 51.26500 41.45200
H  48.24700 51.38100 42.42300
H  45.41100 47.39500 39.20500
H  41.55100 46.42100 39.82200
H  41.73200 47.24400 41.35900
H  42.23800 45.50900 41.14100
Mg 26.64500 50.09700 26.91600
C  24.43100 51.38100 29.17700
C  28.85200 49.30800 29.33200
C  28.58500 48.88300 24.48700
C  24.48100 51.45000 24.39500
N  26.60900 50.33000 29.04600
C  25.51500 50.72700 29.80200
C  25.82600 50.49900 31.30700
C  27.36000 50.06100 31.31000
C  27.68000 50.03600 29.81000
C  28.32600 50.83100 32.22000
C  24.76100 49.51700 31.97200
C  24.24500 49.89300 33.34800
H  24.12000 48.80200 34.38200
N  28.46600 49.10100 26.93500
C  29.27000 48.89300 28.06300
C  30.44900 48.19000 27.65200
C  30.24600 47.92100 26.22500
C  29.07500 48.65700 25.80900
C  31.63100 47.92700 28.66300
C  31.17900 47.10100 25.30800
O  31.02200 47.03100 24.12400
C  32.34500 46.30400 26.02400
N  26.58200 50.26900 24.69700
C  27.53000 49.60200 23.96100
C  27.23900 49.70800 22.40500
C  25.76100 50.36000 22.45800
C  25.54200 50.69500 23.92700
C  28.32800 50.46300 21.55900
C  24.69600 49.46600 21.77900
C  23.69400 48.65900 22.61600
N  24.84100 51.38200 26.76100
C  24.09300 51.85700 25.69400
C  22.83100 52.49500 26.15400
C  22.97200 52.37400 27.55700
C  24.10800 51.64000 27.80400
C  21.75200 53.14600 25.36300
C  22.31800 52.66000 28.83600
O  21.25100 53.29300 29.00000
C  23.31400 52.11100 29.97100
C  23.83000 53.32800 30.69500
O  24.89900 53.86200 30.59400
O  22.94800 53.63200 31.68500
C  23.42100 54.68100 32.66800
H  29.49900 48.87000 30.09600
H  29.10500 48.39600 23.65900
H  23.81000 51.81900 23.61700
H  25.72900 51.46300 31.80500
H  27.36700 49.06900 31.76300
H  29.17100 51.19200 31.63400
H  28.60400 50.22900 33.08400
H  27.97800 51.69800 32.78100
H  25.16500 48.50700 31.90200
H  23.90000 49.61600 31.31200
H  23.27300 50.36800 33.22100
H  24.87900 50.69800 33.71800
H  32.44000 47.23800 28.42100
H  31.20500 47.66400 29.63100
H  32.07700 48.89500 28.88800
H  31.92300 45.73500 26.85300
H  33.02200 47.05400 26.43400
H  32.79100 45.57300 25.35100
H  27.27700 48.69800 21.99600
H  25.81300 51.30100 21.91000
H  29.05200 50.78600 22.30800
H  27.92800 51.33600 21.04300
H  28.93300 49.84900 20.89200
H  25.10000 48.85200 20.97400
H  24.06000 50.22100 21.31700
H  22.81900 49.30000 22.51300
H  24.01200 48.60300 23.65700
H  23.57100 47.66500 22.18700
H  21.20300 52.31200 24.92600
H  22.30200 53.76600 24.65500
H  21.15500 53.72800 26.06500
H  22.66000 51.52000 30.61200
H  23.93800 55.46700 32.11700
H  24.27400 54.39300 33.28300
H  22.64500 55.00100 33.36300

