158

Mg -0.25000 6.74400 26.06000
C  0.58800 8.52100 28.80900
C  -0.22300 3.85700 27.94000
C  -0.88500 4.92900 23.20100
C  0.33100 9.58300 24.02200
N  0.03900 6.20800 28.09700
C  0.31500 7.18300 29.05000
C  0.26800 6.58800 30.51200
C  0.03400 5.05600 30.22900
C  -0.12200 4.99500 28.65100
C  1.16000 4.19200 30.66000
C  -0.82500 7.23100 31.37800
C  -0.55400 7.22000 32.95700
H  0.77300 6.86200 33.55400
N  -0.52500 4.66800 25.64300
C  -0.33800 3.65300 26.53500
C  -0.45100 2.34100 25.86900
C  -0.79500 2.66100 24.51000
C  -0.70400 4.13000 24.36900
C  -0.37500 1.07500 26.67400
C  -1.17300 1.68600 23.40300
O  -1.51600 2.10900 22.31100
C  -0.95900 0.26800 23.78900
N  -0.24000 7.14800 23.95100
C  -0.74200 6.29800 23.04700
C  -0.91900 6.96200 21.70100
C  -0.36900 8.34800 21.90200
C  -0.02600 8.37100 23.38300
C  -0.22100 6.22100 20.49700
C  -1.31800 9.52200 21.47100
C  -2.54200 9.87600 22.44400
N  0.33000 8.71600 26.27800
C  0.53700 9.75300 25.39900
C  0.89800 10.91100 26.19000
C  0.91000 10.48400 27.47600
C  0.57400 9.13800 27.51400
C  1.29200 12.26400 25.64800
C  1.15900 10.88100 28.84400
O  1.70800 11.89000 29.29500
C  0.91000 9.69800 29.74400
C  2.01700 9.54300 30.77000
O  3.02200 8.85700 30.70100
O  1.74300 10.19900 31.92400
C  2.89500 10.58800 32.77000
H  -0.31000 2.99300 28.60200
H  -1.05400 4.32800 22.30500
H  0.45400 10.52000 23.47400
H  1.23300 6.87000 30.93100
H  -0.89300 4.70100 30.67900
H  1.90100 4.76700 31.21500
H  1.55300 3.72200 29.75800
H  0.88700 3.40400 31.36100
H  -1.61600 6.49900 31.21300
H  -1.22800 8.22000 31.15800
H  -1.34400 6.56900 33.33100
H  -0.74300 8.22000 33.34600
H  0.31000 0.39700 26.16600
H  -1.37400 0.63800 26.67500
H  -0.00500 1.20700 27.69000
H  -1.70000 0.02100 24.54900
H  0.08600 0.11500 24.06100
H  -1.14100 -0.43700 22.97700
H  -1.98600 7.15000 21.58700
H  0.59000 8.58900 21.44400
H  0.59700 5.57000 20.80500
H  0.25100 6.97200 19.86400
H  -0.90300 5.75300 19.78700
H  -1.70000 9.20300 20.50100
H  -0.71000 10.41500 21.32700
H  -2.47300 9.30700 23.37100
H  -3.42000 9.66100 21.83600
H  -2.43500 10.94900 22.60200
H  0.42600 12.81900 25.28700
H  2.03100 12.24200 24.84700
H  1.78900 12.94400 26.34000
H  0.03500 9.92300 30.35300
H  3.39400 9.79100 33.32300
H  2.60000 11.31100 33.53000
H  3.67000 11.01200 32.13100
Mg 8.04300 2.40000 27.81400
C  9.94200 0.92000 30.52600
C  6.32900 4.20600 30.07500
C  6.43700 3.57800 25.20300
C  9.56200 -0.10000 25.78200
N  8.18800 2.44500 30.06600
C  9.10300 1.92800 30.97400
C  8.99400 2.58500 32.36700
C  7.64700 3.43800 32.14600
C  7.32800 3.38900 30.67200
C  6.48000 3.00400 32.97200
C  10.29200 3.32900 32.73000
C  10.97200 2.82700 34.03600
H  11.03000 3.81100 35.19300
N  6.58500 3.74600 27.65400
C  6.03100 4.43800 28.69700
C  5.03900 5.35300 28.09100
C  5.08700 5.21400 26.71200
C  6.04700 4.19900 26.45200
C  4.23900 6.28500 29.03900
C  4.38000 5.99100 25.60800
O  4.38700 5.67300 24.38400
C  3.68800 7.29300 25.99600
N  8.04700 1.84500 25.82600
C  7.20400 2.43200 24.89700
C  7.47700 1.93900 23.46000
C  8.61100 0.94600 23.72500
C  8.72600 0.85800 25.21200
C  6.17200 1.29100 22.80600
C  9.99600 1.23300 23.08100
C  10.89800 0.10500 22.57600
N  9.44700 0.66400 28.04300
C  9.91100 -0.16000 27.13600
C  10.84400 -0.98500 27.74300
C  10.93400 -0.63900 29.07300
C  9.98900 0.38800 29.24600
C  11.54200 -2.09700 27.01200
C  11.59100 -0.96200 30.42900
O  12.40000 -1.76400 30.77000
C  10.88700 0.10400 31.35400
C  10.23400 -0.55500 32.53600
O  9.13300 -1.02000 32.53400
O  11.01200 -0.39700 33.67400
C  10.35500 -0.76000 34.95600
H  5.76200 4.90900 30.68900
H  5.92800 3.91900 24.29900
H  10.18400 -0.69500 25.11100
H  8.90500 1.80300 33.12200
H  7.77100 4.51800 32.22600
H  5.92000 2.28200 32.37800
H  5.84000 3.84900 33.22500
H  6.73100 2.41700 33.85500
H  9.99500 4.37500 32.81200
H  11.05100 3.16100 31.96600
H  11.99900 2.53200 33.82400
H  10.52000 1.90700 34.40700
H  4.31700 6.03600 30.09800
H  3.24900 6.51300 28.64500
H  4.73900 7.24700 28.92500
H  2.80500 7.14300 26.61700
H  3.30100 7.68200 25.05300
H  4.39700 7.98300 26.45300
H  7.75800 2.78700 22.83500
H  8.32600 0.02100 23.22400
H  5.31900 1.71100 23.33900
H  6.01600 0.21300 22.83100
H  6.21100 1.77300 21.82900
H  10.53000 1.76700 23.86700
H  9.74500 1.91000 22.26400
H  11.76700 -0.07100 23.20900
H  11.35700 0.34600 21.61700
H  10.43400 -0.87300 22.45000
H  12.55100 -2.34700 27.34200
H  11.68400 -1.96900 25.93900
H  10.85200 -2.92700 27.16300
H  11.64400 0.73400 31.82100
H  10.41200 -1.82700 35.17100
H  9.30200 -0.47900 34.91200
H  10.97100 -0.17900 35.64200

