158

Mg 0.51500 8.00300 25.75400
C  1.23300 10.02600 28.33400
C  0.48800 5.30600 27.75200
C  0.17100 6.03200 22.94700
C  0.68500 10.78300 23.65700
N  0.99100 7.69600 27.87800
C  1.08100 8.70600 28.77200
C  1.14700 8.20400 30.19600
C  1.09000 6.62200 30.01300
C  0.74700 6.53400 28.42700
C  2.47900 5.84600 30.22700
C  0.04300 8.80500 31.03800
C  0.45400 8.97700 32.49800
H  1.60300 8.12000 33.11800
N  0.41100 5.99000 25.43700
C  0.36900 5.00600 26.38200
C  0.21800 3.71600 25.72900
C  0.08600 3.87300 24.36500
C  0.17500 5.33100 24.18000
C  0.14800 2.41500 26.56700
C  -0.13400 2.92400 23.21800
O  -0.16900 3.17800 21.97900
C  -0.16400 1.42900 23.56900
N  0.43800 8.31400 23.62000
C  0.26700 7.39900 22.65100
C  -0.05800 7.96400 21.30100
C  0.05400 9.44800 21.51700
C  0.52200 9.50400 23.04100
C  0.98000 7.52800 20.22800
C  -1.33500 10.20500 21.28700
C  -1.27400 11.13800 20.16300
N  0.88000 10.05200 25.93500
C  0.91700 11.03100 24.99600
C  1.23300 12.32500 25.59900
C  1.42800 11.96200 26.92400
C  1.13900 10.60000 27.04100
C  1.31100 13.65800 24.89800
C  1.88600 12.39900 28.19400
O  2.36600 13.45300 28.56700
C  1.60000 11.20900 29.17300
C  2.85300 11.08600 29.91700
O  3.94100 10.56400 29.51300
O  2.65200 11.54600 31.16400
C  3.90900 11.82800 31.92100
H  0.48100 4.45500 28.43600
H  -0.06900 5.36100 22.11900
H  0.89600 11.61600 22.98200
H  2.13400 8.51300 30.54000
H  0.29800 6.21400 30.64100
H  2.81200 5.40300 29.28800
H  2.57600 5.01800 30.92900
H  3.25400 6.56900 30.48200
H  -0.76300 8.07300 31.01200
H  -0.16100 9.78700 30.61000
H  -0.40200 8.72800 33.12600
H  0.62300 10.05300 32.54500
H  -0.90300 2.15100 26.44500
H  0.42300 2.53400 27.61500
H  0.80500 1.67200 26.11600
H  -0.87000 1.13900 24.34700
H  0.85500 1.10800 23.78700
H  -0.45900 0.79900 22.72900
H  -1.09900 7.67400 21.15800
H  0.89500 9.85700 20.95700
H  1.57700 6.69800 20.60500
H  1.72300 8.29000 19.99200
H  0.52800 7.21500 19.28700
H  -1.50400 10.70300 22.24200
H  -2.15300 9.49600 21.16400
H  -0.39000 11.02400 19.53600
H  -1.35500 12.11900 20.63100
H  -2.14600 11.03500 19.51700
H  1.63400 14.42500 25.60200
H  0.31400 13.88600 24.51800
H  2.10200 13.54300 24.15700
H  0.78800 11.51000 29.83400
H  4.53500 12.50600 31.34100
H  4.37200 10.85400 32.07800
H  3.60700 12.30700 32.85300
Mg 17.53600 -1.16300 27.73300
C  16.65500 0.66400 30.68200
C  19.35000 -3.17900 29.74700
C  18.62600 -2.67000 24.96100
C  15.82800 1.10600 25.84200
N  17.91400 -1.27200 30.01200
C  17.55500 -0.31000 30.93500
C  17.97200 -0.76900 32.35800
C  19.08200 -1.79800 31.94000
C  18.74700 -2.12900 30.49200
C  20.56700 -1.21600 31.99400
C  16.90600 -1.39500 33.32300
C  17.19500 -1.76300 34.79900
H  18.55700 -1.61200 35.37400
N  18.68600 -2.80100 27.38600
C  19.39300 -3.45600 28.37600
C  20.14400 -4.55200 27.75600
C  19.88700 -4.45200 26.39400
C  18.98700 -3.26000 26.16300
C  21.03700 -5.55500 28.65200
C  20.44700 -5.27400 25.25700
O  20.04300 -5.17700 24.07200
C  21.28700 -6.45500 25.65500
N  17.37800 -0.74600 25.64600
C  17.91500 -1.54900 24.64000
C  17.52300 -1.12100 23.19000
C  16.53600 0.06000 23.59000
C  16.50600 0.10200 25.13600
C  18.76400 -0.66000 22.26900
C  15.15900 0.05200 22.82800
C  15.11000 0.60900 21.43500
N  16.38200 0.46800 28.08000
C  15.73900 1.29200 27.25000
C  14.87700 2.20700 28.01800
C  15.16500 1.91600 29.32100
C  16.14900 0.95600 29.35700
C  13.88800 3.13200 27.43600
C  14.90700 2.45100 30.66000
O  14.17100 3.35600 31.05700
C  15.81500 1.54800 31.59700
C  16.60900 2.46000 32.44900
O  17.73500 2.77200 32.05200
O  15.82700 3.05800 33.37000
C  16.45500 4.14200 33.99900
H  20.02500 -3.80300 30.33800
H  18.94700 -3.18700 24.05500
H  15.31300 1.92700 25.33800
H  18.34900 0.08500 32.92000
H  19.06000 -2.72500 32.51300
H  20.66500 -0.23300 32.45400
H  20.91700 -1.14000 30.96500
H  21.26000 -1.80000 32.60100
H  16.58000 -2.28700 32.78800
H  16.01000 -0.77800 33.25000
H  16.95100 -2.81900 34.91600
H  16.49000 -1.16600 35.37800
H  20.85800 -6.57300 28.30500
H  20.73300 -5.56200 29.69800
H  22.10800 -5.36000 28.60200
H  22.05700 -6.14100 26.36000
H  21.79800 -6.67500 24.71800
H  20.63400 -7.27100 25.96600
H  16.92000 -1.96500 22.85600
H  16.92500 1.03700 23.30300
H  18.54100 0.31700 21.84000
H  18.68100 -1.46300 21.53700
H  19.69300 -0.83700 22.81000
H  14.57900 0.70800 23.47800
H  14.81800 -0.96300 23.03000
H  14.67100 1.60700 21.42300
H  14.52100 -0.14000 20.90500
H  16.11900 0.70300 21.03500
H  14.39400 3.63300 26.61100
H  13.59500 3.88300 28.16900
H  12.98800 2.68000 27.02000
H  15.17500 1.03200 32.31300
H  15.62300 4.69100 34.44200
H  16.99400 4.82100 33.33800
H  17.17200 3.84100 34.76200

