158

Mg 1.38000 7.67300 26.09900
C  2.08800 9.75100 28.85500
C  1.65300 4.97300 28.15900
C  0.88200 5.68800 23.43300
C  1.38400 10.48900 24.12300
N  1.65500 7.50600 28.32200
C  2.00900 8.42900 29.21300
C  2.15200 7.86600 30.61900
C  2.37500 6.35000 30.26900
C  1.86200 6.25600 28.79600
C  3.78200 5.72300 30.57000
C  0.80000 8.17700 31.31200
C  0.94700 8.68400 32.79100
H  2.02800 8.08900 33.64200
N  1.20500 5.54100 25.79100
C  1.39600 4.59000 26.80700
C  1.10300 3.26400 26.26800
C  0.85900 3.49200 24.90200
C  0.99200 4.95000 24.61700
C  0.93700 2.00300 27.01400
C  0.50000 2.41600 23.79300
O  0.29900 2.81800 22.65000
C  0.64700 0.93200 24.01300
N  1.08900 8.03000 24.18400
C  0.90300 7.05600 23.18000
C  0.79400 7.63300 21.78300
C  0.59800 9.14700 22.15600
C  1.20300 9.22400 23.52700
C  2.03900 7.38000 20.89800
C  -0.89200 9.65600 22.10200
C  -1.27700 10.90300 21.36800
N  1.61500 9.75400 26.38100
C  1.64200 10.71800 25.47700
C  1.91800 11.93800 26.14900
C  2.07800 11.63700 27.51300
C  1.91400 10.30200 27.57900
C  2.12400 13.34400 25.59600
C  2.46900 12.14800 28.83700
O  2.76300 13.28300 29.16500
C  2.35800 10.91900 29.81100
C  3.56500 10.74700 30.74500
O  4.51600 10.04000 30.53700
O  3.38600 11.42600 31.89500
C  4.40200 11.24700 32.91300
H  1.79800 4.20300 28.92000
H  0.59800 5.12900 22.53900
H  1.30600 11.34900 23.45500
H  2.99300 8.18900 31.23200
H  1.73900 5.85500 31.00200
H  4.64100 6.36400 30.77000
H  4.10900 5.29200 29.62400
H  3.69100 5.00800 31.38700
H  0.13800 7.33200 31.12000
H  0.42500 9.05600 30.78600
H  -0.01900 8.52800 33.27100
H  1.05100 9.76500 32.70600
H  -0.11500 1.83600 27.24400
H  1.39300 2.08800 28.00000
H  1.44600 1.18500 26.50300
H  0.54800 0.48900 23.02200
H  -0.18000 0.48400 24.56300
H  1.63900 0.80900 24.44700
H  -0.07300 7.21100 21.27600
H  1.19800 9.80700 21.52900
H  2.82500 8.13200 20.96700
H  1.81900 7.15600 19.85400
H  2.32600 6.34800 21.10000
H  -1.19400 9.92000 23.11500
H  -1.53600 8.83700 21.78000
H  -1.87300 11.59800 21.95900
H  -1.90000 10.70100 20.49700
H  -0.45000 11.54300 21.06000
H  2.97400 13.35300 24.91400
H  2.33100 14.01500 26.42900
H  1.18600 13.46700 25.05400
H  1.35400 10.96500 30.23400
H  4.87500 12.22800 32.95400
H  5.07600 10.41100 32.73200
H  3.93800 11.06500 33.88300
Mg 8.98900 48.15800 28.46800
C  7.06800 47.79200 31.48400
C  11.76400 48.48900 30.38500
C  10.60600 49.42100 25.76600
C  5.89500 48.35400 26.80000
N  9.26200 48.45100 30.68000
C  8.38800 48.10300 31.65800
C  9.22300 48.03100 33.04900
C  10.66000 48.41000 32.62700
C  10.58600 48.48600 31.07800
C  11.30100 49.72200 33.26800
C  9.08500 46.72900 33.96000
C  10.15500 46.63300 35.06000
H  9.83200 45.64400 36.15600
N  10.94000 48.77500 28.12500
C  11.98000 48.59700 29.02400
C  13.22500 48.63700 28.28000
C  12.88100 49.05700 26.92300
C  11.43200 49.12400 26.88100
C  14.64400 48.55500 28.86200
C  13.78700 49.24900 25.68300
O  13.28200 49.53100 24.62500
C  15.26300 48.92100 25.80700
N  8.32700 48.95600 26.58200
C  9.21600 49.40300 25.58300
C  8.39600 49.75000 24.33700
C  6.99900 49.35500 24.69500
C  7.04600 48.78500 26.11300
C  8.65400 51.27400 23.86900
C  6.33000 48.46600 23.68300
C  5.98400 49.05400 22.28000
N  6.85900 47.97000 28.95600
C  5.75800 48.04200 28.20200
C  4.54700 47.82300 28.98900
C  5.01300 47.54000 30.29100
C  6.41300 47.76000 30.23400
C  3.20800 47.89800 28.40700
C  4.71400 47.15200 31.65400
O  3.60800 46.74500 32.08000
C  6.04100 47.25900 32.47700
C  6.35500 45.88800 32.93500
O  6.86400 45.00100 32.16200
O  5.84100 45.72100 34.23300
C  6.18200 44.37700 34.76600
H  12.61700 48.52700 31.06600
H  10.94400 49.66500 24.75700
H  4.93200 48.41200 26.28800
H  8.85400 48.86700 33.64400
H  11.36400 47.58900 32.76200
H  12.27300 50.08400 32.93400
H  11.41400 49.60500 34.34600
H  10.60400 50.54400 33.10500
H  9.10600 45.86400 33.29700
H  8.13000 46.84900 34.47100
H  10.39900 47.61700 35.46200
H  11.05500 46.23800 34.58900
H  15.17200 47.74100 28.36700
H  14.54300 48.31100 29.91900
H  15.11700 49.53000 28.74400
H  15.38700 47.91300 26.20100
H  15.69400 49.73700 26.38800
H  15.76900 48.95800 24.84200
H  8.76500 49.12700 23.52300
H  6.52400 50.33600 24.71600
H  7.75100 51.88400 23.85600
H  9.15500 51.33100 22.90300
H  9.30500 51.83200 24.54200
H  5.38700 48.13500 24.11700
H  6.90300 47.55600 23.50800
H  6.58800 48.55000 21.52500
H  6.16200 50.12900 22.32000
H  4.96800 48.89000 21.92100
H  3.07600 48.86700 27.92700
H  2.47000 47.95700 29.20600
H  2.99400 47.11700 27.67700
H  6.11500 47.96900 33.30100
H  5.32900 44.06400 35.36800
H  7.12200 44.49300 35.30500
H  6.16000 43.67400 33.93300

