158

Mg 26.12700 0.55300 28.84800
C  28.01100 0.16200 31.67000
C  23.39500 1.18800 30.80700
C  24.16800 0.74300 26.09100
C  28.65400 -0.96900 26.87600
N  25.79400 0.62300 31.00400
C  26.75100 0.61200 31.97500
C  26.10200 0.71900 33.37900
C  24.56400 0.84300 33.08400
C  24.58700 0.91400 31.58000
C  23.72500 -0.31200 33.61600
C  26.64500 1.96700 34.20500
C  26.63800 1.77600 35.68100
H  26.26700 2.97400 36.64000
N  24.09200 1.08700 28.45500
C  23.13100 1.34100 29.44500
C  21.88100 1.71700 28.79400
C  22.05700 1.49400 27.37400
C  23.48000 1.13200 27.25500
C  20.55800 2.11700 29.42600
C  21.08100 1.53500 26.21400
O  21.34600 1.50600 25.05000
C  19.62900 1.83500 26.52800
N  26.23900 -0.29800 26.81200
C  25.37400 0.06800 25.81200
C  25.81000 -0.42200 24.40900
C  27.25200 -0.83700 24.70900
C  27.43000 -0.61000 26.21500
C  24.91200 -1.56000 23.83700
C  28.35300 -0.19800 23.80300
C  28.90200 1.13700 24.22300
N  28.00000 -0.25300 29.12100
C  28.90500 -0.83700 28.29700
C  30.08400 -1.01700 29.07500
C  29.85300 -0.63900 30.40800
C  28.53400 -0.22300 30.41000
C  31.40500 -1.44300 28.54200
C  30.40900 -0.50700 31.69300
O  31.53000 -0.69400 32.10700
C  29.25300 0.06300 32.61100
C  28.89900 -0.98100 33.58900
O  28.08900 -1.89300 33.49200
O  29.70900 -0.69400 34.70600
C  29.40800 -1.47100 35.90300
H  22.50400 1.34700 31.41800
H  23.66200 0.77300 25.12400
H  29.52300 -1.42300 26.39500
H  26.41000 -0.17900 33.91600
H  24.16700 1.82000 33.35700
H  23.29400 -0.89600 32.80300
H  22.83400 -0.02200 34.17200
H  24.23400 -0.99700 34.29400
H  26.00800 2.83300 34.02500
H  27.66800 2.21600 33.92500
H  27.58100 1.31900 35.98400
H  25.78800 1.10000 35.77600
H  19.87100 1.27100 29.41500
H  19.99700 2.90400 28.92200
H  20.68900 2.43300 30.46100
H  18.86600 1.80500 25.75000
H  19.62000 2.86800 26.87800
H  19.31700 1.05900 27.22700
H  25.64800 0.38200 23.69200
H  27.44300 -1.90600 24.61900
H  24.97200 -2.35800 24.57600
H  25.11100 -2.03600 22.87700
H  23.89300 -1.17300 23.84900
H  27.97500 -0.20000 22.78100
H  29.23900 -0.82100 23.92700
H  28.27600 1.58900 24.99200
H  28.93000 1.73900 23.31500
H  29.97000 1.07200 24.42900
H  32.10500 -1.82500 29.28500
H  31.92600 -0.62200 28.05000
H  31.37000 -2.18400 27.74400
H  29.55900 1.02100 33.03300
H  28.52200 -1.04600 36.37400
H  30.27100 -1.41900 36.56600
H  29.21700 -2.54200 35.83400
Mg -2.86300 34.87900 26.65300
C  -4.42800 32.87600 28.92900
C  -1.85400 37.02600 29.28400
C  -1.65500 37.04900 24.37400
C  -4.38800 32.99200 24.02600
N  -3.37200 35.06700 28.87900
C  -3.73700 33.94500 29.57100
C  -3.50700 34.16100 31.08600
C  -2.66900 35.46500 31.15100
C  -2.71700 35.95700 29.70900
C  -3.14700 36.54600 32.13700
C  -3.03400 32.97100 31.95100
C  -1.95400 33.12400 33.02100
H  -2.15900 32.28800 34.35200
N  -1.90000 36.71400 26.81800
C  -1.55600 37.39900 27.96300
C  -0.78200 38.57700 27.57400
C  -0.70500 38.55100 26.15500
C  -1.45700 37.40000 25.72000
C  -0.28300 39.59100 28.53600
C  -0.06700 39.55800 25.16100
O  -0.08300 39.52800 23.91600
C  0.94200 40.46800 25.69900
N  -3.25200 35.19100 24.40300
C  -2.46000 36.07900 23.74400
C  -2.68600 35.93600 22.20800
C  -3.33700 34.50400 22.11700
C  -3.73500 34.22000 23.60500
C  -3.68000 36.92700 21.65100
C  -2.37600 33.44600 21.47300
C  -0.85800 33.52500 21.76000
N  -4.26700 33.29800 26.51900
C  -4.72100 32.57500 25.37900
C  -5.40000 31.41500 25.87200
C  -5.41700 31.48100 27.25800
C  -4.61500 32.64400 27.56700
C  -6.12800 30.41000 25.03000
C  -5.81000 30.86900 28.53500
O  -6.44900 29.86600 28.79400
C  -5.29400 31.83700 29.66900
C  -6.41700 32.36400 30.45900
O  -7.30800 33.05300 30.02300
O  -6.30700 31.93400 31.79800
C  -7.28000 32.08800 32.87800
H  -1.29300 37.57400 30.04400
H  -1.34600 37.75200 23.59700
H  -4.62600 32.26900 23.24300
H  -4.48800 34.36900 31.51300
H  -1.61500 35.23600 31.30800
H  -2.56800 37.46900 32.11900
H  -3.04800 36.05800 33.10600
H  -4.18300 36.78100 31.89200
H  -2.58500 32.24900 31.26800
H  -3.92500 32.53500 32.40300
H  -1.98900 34.14200 33.40900
H  -0.98500 32.98600 32.54200
H  0.80200 39.69700 28.56400
H  -0.57600 39.42300 29.57200
H  -0.67700 40.54900 28.19500
H  0.35600 41.18300 26.27700
H  1.38900 40.95400 24.83200
H  1.59700 39.80000 26.25900
H  -1.75300 36.10100 21.66900
H  -4.26500 34.50400 21.54500
H  -4.50500 36.64200 20.99700
H  -3.06400 37.61900 21.07600
H  -4.12900 37.51300 22.45300
H  -2.43400 33.57000 20.39200
H  -2.76900 32.47200 21.76400
H  -0.76700 34.06600 22.70200
H  -0.40600 34.19500 21.02800
H  -0.35100 32.57000 21.62300
H  -6.35600 29.62500 25.75100
H  -5.42700 29.92300 24.35200
H  -6.96100 30.82400 24.46300
H  -4.64500 31.33200 30.38300
H  -6.80900 32.64500 33.68700
H  -7.70500 31.14000 33.20900
H  -7.99400 32.85100 32.56800

