158

Mg 40.47800 9.23400 29.31600
C  42.25800 10.65000 31.83200
C  38.05600 8.13800 31.56000
C  38.66200 8.04300 26.70100
C  43.06500 10.28400 27.01300
N  40.21800 9.44200 31.44600
C  41.10300 10.02000 32.28500
C  40.54100 10.03100 33.69200
C  39.43200 9.01700 33.52900
C  39.16400 8.86100 32.06400
C  39.48600 7.66300 34.34900
C  40.06200 11.41900 34.25800
C  40.75400 11.79100 35.61100
H  39.94500 12.27200 36.81200
N  38.66000 8.11100 29.17100
C  37.79800 7.85300 30.19300
C  36.57500 7.24000 29.62000
C  36.76200 7.18900 28.21800
C  38.08200 7.79900 27.95500
C  35.45400 6.68400 30.47200
C  35.95500 6.45400 27.24300
O  36.16700 6.45000 26.02600
C  34.79500 5.62100 27.62900
N  40.88200 9.21200 27.20300
C  39.94100 8.64900 26.35100
C  40.35100 8.81600 24.86500
C  41.77000 9.45700 24.95500
C  41.93200 9.68200 26.49200
C  40.14500 7.59300 23.96800
C  41.91200 10.70400 23.97700
C  41.45200 12.10100 24.57500
N  42.25000 10.15700 29.37100
C  43.23500 10.51700 28.41100
C  44.30900 11.23800 29.00100
C  44.02500 11.33000 30.38800
C  42.73800 10.67400 30.52700
C  45.55100 11.63000 28.24900
C  44.45600 11.77100 31.61900
O  45.51600 12.32500 31.99500
C  43.33100 11.34200 32.70800
C  43.95500 10.42700 33.60700
O  44.16300 9.21700 33.45800
O  44.13000 11.06700 34.78000
C  44.78100 10.28900 35.86600
H  37.22900 7.91300 32.23700
H  38.11700 7.68900 25.82300
H  43.76400 10.75300 26.31800
H  41.25500 9.56400 34.37100
H  38.54500 9.57900 33.82000
H  40.33700 7.67900 35.03000
H  39.68900 6.80600 33.70700
H  38.63400 7.52200 35.01500
H  38.99500 11.41800 34.47800
H  40.28200 12.10300 33.43800
H  41.40700 12.65200 35.46700
H  41.33800 10.90700 35.86700
H  35.29200 5.62000 30.30000
H  34.56200 7.18900 30.10200
H  35.78300 6.94500 31.47800
H  35.05700 4.76500 28.25100
H  34.35200 5.11600 26.77000
H  34.03500 6.17900 28.17600
H  39.64000 9.58200 24.55200
H  42.53200 8.72400 24.69000
H  39.10200 7.51900 23.66100
H  40.48600 6.72400 24.53100
H  40.66100 7.66500 23.01100
H  41.23300 10.47000 23.15800
H  42.96400 10.70000 23.69400
H  41.10000 11.92900 25.59200
H  40.59300 12.54400 24.07000
H  42.31500 12.76600 24.59800
H  46.08700 12.07000 29.09000
H  45.45800 12.42800 27.51300
H  46.04700 10.73900 27.86300
H  42.86500 12.22600 33.14400
H  45.13700 9.30500 35.56100
H  44.06400 10.01000 36.63900
H  45.49600 10.96000 36.34200
Mg 36.68100 49.42900 24.97400
C  36.87700 47.62500 27.81900
C  35.30700 52.03400 26.75900
C  36.30600 51.12800 22.07400
C  37.36800 46.50400 23.14300
N  36.34200 49.84300 27.07300
C  36.55200 48.96900 28.07000
C  36.21800 49.52800 29.45900
C  35.65900 50.89200 29.05400
C  35.73100 50.92800 27.54100
C  34.29900 51.17000 29.73900
C  37.38000 49.51400 30.45800
C  37.06600 49.22800 31.92900
H  35.65900 49.26900 32.42300
N  35.92500 51.37800 24.51700
C  35.35900 52.23700 25.36000
C  34.96600 53.43000 24.64900
C  35.36300 53.19600 23.28100
C  35.86800 51.81600 23.25100
C  34.50000 54.63800 25.42300
C  35.22400 54.14700 22.03100
O  35.59800 53.86800 20.90300
C  34.48400 55.44700 22.08200
N  36.79000 48.87300 22.90200
C  36.75100 49.79200 21.94500
C  36.98400 49.23000 20.57900
C  37.52100 47.73800 20.94400
C  37.15400 47.65500 22.38000
C  35.77300 49.29300 19.62400
C  39.05800 47.53800 20.70300
C  40.09800 48.50100 21.36300
N  37.21600 47.48600 25.34800
C  37.48900 46.41100 24.52900
C  37.67400 45.18900 25.33300
C  37.53000 45.65200 26.64900
C  37.17000 47.02700 26.59000
C  37.88600 43.77100 24.88000
C  37.52900 45.34100 28.02800
O  37.80000 44.27200 28.59500
C  37.01200 46.52000 28.84100
C  35.72400 46.11800 29.41300
O  34.65500 46.10400 28.86400
O  35.86000 45.72300 30.73000
C  34.68800 45.15900 31.36600
H  34.85700 52.81500 27.37600
H  36.07300 51.65500 21.14700
H  37.75600 45.59700 22.67500
H  35.37300 48.93600 29.81100
H  36.39300 51.66400 29.28400
H  34.45300 52.08200 30.31500
H  34.01600 50.38600 30.44200
H  33.46000 51.30400 29.05600
H  38.02600 50.37900 30.31400
H  38.04800 48.75300 30.05400
H  37.64000 49.95500 32.50300
H  37.40700 48.19700 32.02900
H  33.75200 55.21200 24.87500
H  35.37500 55.24300 25.66000
H  33.91700 54.44900 26.32400
H  34.55500 55.96600 21.12600
H  34.96000 56.03200 22.87000
H  33.46200 55.20600 22.37500
H  37.73500 49.85900 20.10000
H  36.93400 47.00200 20.39400
H  34.87000 49.24200 20.23200
H  35.77200 48.44700 18.93700
H  35.95000 50.20100 19.04700
H  39.13000 47.38000 19.62700
H  39.31700 46.54000 21.05700
H  40.80600 48.80000 20.59000
H  40.63300 48.18600 22.25900
H  39.63600 49.47000 21.55400
H  37.63400 43.65500 23.82600
H  37.21400 43.09700 25.41000
H  38.90500 43.43800 25.07600
H  37.80800 46.74100 29.55200
H  33.78800 45.77400 31.38400
H  34.96800 45.18800 32.41900
H  34.40600 44.14600 31.07800

