158

Mg 24.18200 -6.87400 46.62800
C  25.85800 -4.20100 45.33700
C  21.50000 -5.98800 44.32600
C  22.68100 -9.85000 47.14900
C  26.85800 -7.84800 48.34700
N  23.75300 -5.27500 44.98800
C  24.63800 -4.25400 44.70600
C  24.03700 -3.35600 43.62400
C  22.51700 -3.80600 43.52600
C  22.58100 -5.08900 44.31900
C  21.45000 -2.73600 43.91800
C  24.86800 -3.48800 42.31100
C  25.14300 -2.20500 41.47900
H  24.65100 -2.17600 40.02200
N  22.25100 -7.82100 45.99300
C  21.32200 -7.30400 45.00200
C  20.16800 -8.15600 45.05000
C  20.46300 -9.21300 45.96600
C  21.81100 -8.99800 46.42000
C  18.93500 -7.91900 44.18200
C  19.49100 -10.33200 46.37200
O  18.40400 -10.45200 45.77300
C  19.84000 -11.32800 47.49600
N  24.66600 -8.59800 47.62200
C  23.83900 -9.62000 47.77300
C  24.42500 -10.63900 48.79000
C  25.82700 -10.05000 49.12600
C  25.77300 -8.72600 48.36000
C  23.53900 -11.01800 49.96200
C  27.13700 -10.92800 48.85700
C  28.03000 -11.16700 50.14500
N  25.99100 -6.26200 46.76300
C  27.05900 -6.70400 47.55300
C  28.10700 -5.71100 47.56800
C  27.68000 -4.74600 46.68500
C  26.37200 -5.11800 46.24000
C  29.31400 -5.76700 48.49200
C  28.02100 -3.43600 46.18500
O  28.90100 -2.62700 46.41800
C  26.85300 -3.06100 45.23500
C  26.35600 -1.79300 45.68400
O  26.87400 -0.71900 45.26900
O  25.17100 -1.90900 46.37300
C  24.73400 -0.68500 47.11300
H  20.61900 -5.77800 43.71500
H  22.28300 -10.84000 47.38200
H  27.68500 -8.09600 49.01500
H  24.01900 -2.29200 43.85700
H  22.27800 -4.07300 42.49700
H  20.88500 -3.11200 44.77000
H  20.73100 -2.58600 43.11300
H  21.84500 -1.80300 44.32100
H  24.37600 -4.18500 41.63300
H  25.80100 -3.99800 42.55200
H  26.22400 -2.27500 41.36400
H  24.99100 -1.29500 42.06100
H  18.83700 -8.78700 43.52900
H  19.02400 -7.11600 43.45100
H  17.98800 -7.82100 44.71300
H  20.40600 -12.07000 46.93200
H  18.94200 -11.79100 47.90600
H  20.40900 -10.78700 48.25300
H  24.55000 -11.59100 48.27600
H  25.75500 -9.81700 50.18900
H  22.73900 -10.28000 50.03200
H  23.99200 -11.05200 50.95200
H  23.13100 -12.00600 49.74900
H  27.82300 -10.52400 48.11300
H  26.70300 -11.86400 48.50500
H  28.00400 -12.23700 50.35300
H  27.66300 -10.66200 51.03800
H  29.05500 -10.82500 50.00100
H  29.35200 -4.83400 49.05500
H  30.21000 -5.87400 47.88100
H  29.12200 -6.56000 49.21400
H  27.18100 -3.02500 44.19600
H  24.07500 -0.07600 46.49400
H  25.59700 -0.06600 47.36000
H  24.28800 -1.00400 48.05500
Mg 26.32600 51.44000 25.42300
C  23.96300 52.59100 27.77000
C  28.41400 50.79200 27.94500
C  28.41800 50.54400 23.16300
C  24.01400 52.71900 22.90600
N  26.20600 51.74100 27.58100
C  25.17800 52.12000 28.29600
C  25.36600 51.88600 29.78300
C  26.87700 51.54300 29.86000
C  27.24700 51.37200 28.34400
C  27.84900 52.67400 30.47000
C  24.41700 50.75200 30.35000
C  23.57400 51.07700 31.59000
H  23.97600 50.47100 32.94400
N  28.20100 50.78800 25.55900
C  28.91200 50.51000 26.68400
C  30.21700 50.04900 26.28700
C  30.27300 50.02300 24.86600
C  28.90400 50.39200 24.46900
C  31.23700 49.83300 27.44300
C  31.44400 49.71500 23.92100
O  31.38300 49.95500 22.69200
C  32.70700 49.22900 24.51900
N  26.25000 51.80700 23.29800
C  27.27100 51.21100 22.63800
C  26.99800 51.24300 21.12300
C  25.45000 51.75000 21.05500
C  25.21800 52.10300 22.52300
C  28.11200 52.06300 20.19600
C  24.34900 50.82900 20.51700
C  23.27700 51.40600 19.56400
N  24.35700 52.46700 25.31600
C  23.56500 52.84400 24.22800
C  22.33400 53.38400 24.65100
C  22.35000 53.31100 26.04000
C  23.65200 52.76600 26.37200
C  21.26100 53.95200 23.74100
C  21.71800 53.49300 27.35000
O  20.62400 53.86200 27.61200
C  22.71700 53.08100 28.53500
C  23.05000 54.09800 29.52000
O  23.90300 54.96300 29.44700
O  22.31300 53.88700 30.66900
C  22.24500 54.89000 31.74200
H  29.04300 50.44800 28.76900
H  28.96500 49.99400 22.39400
H  23.24600 52.84900 22.14200
H  25.29200 52.80200 30.36900
H  26.99100 50.58000 30.35800
H  27.28400 53.57500 30.70900
H  28.58100 53.01400 29.73700
H  28.17600 52.44000 31.48300
H  25.05900 49.87500 30.42000
H  23.76400 50.41200 29.54600
H  22.58700 50.66300 31.38200
H  23.36600 52.14500 31.65100
H  30.79900 49.26600 28.26400
H  31.31600 50.84500 27.84000
H  32.24300 49.45100 27.26700
H  33.01100 50.16100 24.99500
H  33.33700 48.97300 23.66700
H  32.56600 48.31100 25.08900
H  26.97800 50.21800 20.75200
H  25.42100 52.66900 20.47100
H  28.94100 52.21800 20.88500
H  27.74500 53.03700 19.87200
H  28.59100 51.51000 19.38800
H  23.74500 50.38000 21.30600
H  24.77700 49.95800 20.02100
H  23.23500 50.88700 18.60600
H  23.48800 52.46800 19.44400
H  22.30100 51.33800 20.04500
H  20.57600 54.58600 24.30400
H  20.81600 53.18200 23.11000
H  21.75300 54.72800 23.15600
H  22.17900 52.29200 29.06100
H  23.10000 55.56200 31.66000
H  22.23700 54.45100 32.73900
H  21.40500 55.58500 31.70200

