158

Mg 1.85000 -2.11900 44.30900
C  5.07000 -1.15600 43.39400
C  0.50900 0.46300 42.41400
C  -1.20100 -3.46400 44.75600
C  3.22600 -4.84200 46.03500
N  2.72400 -0.65500 42.85700
C  4.09600 -0.41200 42.72700
C  4.31000 0.82100 41.85300
C  2.83100 1.49700 41.68700
C  1.95500 0.39300 42.34900
C  2.67300 2.92900 42.39800
C  5.06700 0.63600 40.55700
C  4.66000 -0.58100 39.63400
H  4.34900 -0.39200 38.19900
N  -0.08500 -1.55400 43.78200
C  -0.37100 -0.50900 42.94200
C  -1.88500 -0.39900 42.89300
C  -2.41300 -1.47100 43.62200
C  -1.21300 -2.21100 44.07500
C  -2.51500 0.81600 42.29200
C  -3.89600 -1.58100 44.02800
O  -4.64100 -0.68300 43.68000
C  -4.46200 -2.72100 44.77100
N  1.13300 -4.00600 45.11200
C  -0.20100 -4.29700 45.16700
C  -0.43100 -5.66700 45.72000
C  0.96400 -5.99000 46.38700
C  1.88000 -4.91600 45.70300
C  -1.64700 -5.80100 46.71600
C  1.42700 -7.50400 46.25700
C  1.45200 -8.33800 47.50900
N  3.73300 -2.87800 44.67400
C  4.12200 -3.91600 45.44100
C  5.60800 -3.88500 45.66400
C  5.98100 -2.78000 44.80700
C  4.81000 -2.25600 44.22200
C  6.38500 -4.79100 46.47000
C  7.15600 -2.05700 44.30300
O  8.31500 -2.10300 44.49700
C  6.58700 -1.03000 43.29300
C  7.04300 0.34800 43.66200
O  7.92600 0.95700 43.03200
O  6.31200 0.83800 44.79600
C  6.85500 2.02800 45.46300
H  0.03600 1.29800 41.89400
H  -2.19000 -3.89600 44.92100
H  3.69000 -5.63100 46.63100
H  4.95800 1.54000 42.35400
H  2.58800 1.55500 40.62600
H  3.37200 3.10600 43.21500
H  1.68900 2.98100 42.86400
H  2.83500 3.72100 41.66800
H  6.12900 0.44400 40.71000
H  5.01500 1.55800 39.97800
H  3.90000 -1.13100 40.19000
H  5.40800 -1.36800 39.73000
H  -3.49500 0.50600 41.92800
H  -1.95300 1.09300 41.40000
H  -2.53000 1.57000 43.08000
H  -5.48300 -2.48100 45.06700
H  -3.88900 -2.72400 45.69900
H  -4.40500 -3.66200 44.22300
H  -0.49800 -6.33900 44.86500
H  0.85300 -5.69700 47.43100
H  -2.05500 -4.84900 47.05500
H  -1.22300 -6.37400 47.54100
H  -2.47900 -6.32100 46.24100
H  2.47100 -7.66800 45.99200
H  0.72900 -7.99500 45.57700
H  2.35000 -8.05600 48.05900
H  1.46700 -9.39500 47.24300
H  0.60500 -8.22000 48.18500
H  7.28300 -4.33000 46.88000
H  6.65900 -5.64200 45.84600
H  5.88900 -5.28300 47.30700
H  6.91000 -1.28400 42.28300
H  7.87000 2.22800 45.11900
H  6.83100 2.01800 46.55200
H  6.26500 2.92700 45.28700
Mg -11.08800 38.94500 41.36300
C  -8.74000 36.12100 40.96100
C  -9.04200 40.80000 39.51300
C  -13.63700 41.07800 40.99500
C  -13.36500 36.43500 42.38300
N  -9.17000 38.46500 40.21600
C  -8.40800 37.30800 40.24300
C  -7.10300 37.54400 39.51400
C  -7.15700 39.07100 39.09500
C  -8.53500 39.48900 39.67200
C  -5.96600 39.97600 39.61800
C  -7.05900 36.62600 38.26500
C  -5.72400 35.89100 38.20900
H  -4.95700 36.11900 36.93900
N  -11.19900 40.73700 40.47800
C  -10.22800 41.33900 39.84400
C  -10.61500 42.69700 39.51200
C  -11.98400 42.80600 39.83500
C  -12.35100 41.51400 40.48000
C  -9.73400 43.83200 38.79000
C  -12.87400 43.98600 39.55300
O  -12.40200 45.01700 38.97400
C  -14.31500 44.04400 39.81200
N  -13.21000 38.76900 41.67600
C  -14.02300 39.86000 41.54800
C  -15.50700 39.48800 41.96500
C  -15.36500 37.95200 42.36400
C  -13.91700 37.70400 42.13600
C  -16.14400 40.32100 43.15100
C  -16.30100 37.02700 41.59500
C  -17.06900 36.02600 42.55600
N  -11.14500 36.74700 41.72000
C  -12.10400 35.92700 42.20100
C  -11.57300 34.61900 42.47600
C  -10.33400 34.66600 41.97700
C  -10.05000 35.97500 41.51700
C  -12.37700 33.59200 43.10400
C  -9.13000 33.85800 41.81400
O  -8.96500 32.67600 41.99600
C  -8.07800 34.78700 41.05500
C  -6.72600 34.78500 41.70400
O  -5.83800 33.95100 41.61300
O  -6.55700 36.00900 42.38600
C  -5.25800 36.25900 43.14700
H  -8.28500 41.45700 39.07900
H  -14.54800 41.67300 40.90000
H  -14.04000 35.74700 42.89600
H  -6.17000 37.50400 40.07600
H  -7.20400 39.23000 38.01800
H  -6.41300 40.62000 40.37600
H  -5.56700 40.60700 38.82400
H  -5.10500 39.54800 40.13200
H  -7.34100 37.20400 37.38400
H  -7.87000 35.89800 38.24200
H  -5.92400 34.82700 38.32700
H  -5.05700 36.19300 39.01800
H  -10.16800 43.99300 37.80400
H  -8.71800 43.47500 38.62800
H  -9.65500 44.79700 39.29200
H  -14.31700 43.94200 40.89700
H  -14.83900 43.23000 39.31100
H  -14.73200 44.98600 39.45700
H  -16.20600 39.59300 41.13500
H  -15.53400 37.82300 43.43400
H  -16.51500 41.28600 42.80600
H  -15.54600 40.43600 44.05500
H  -16.90200 39.65600 43.56500
H  -15.79000 36.43300 40.83700
H  -17.05900 37.57700 41.03700
H  -17.00100 35.02500 42.13000
H  -18.01500 36.47600 42.85800
H  -16.55600 35.93200 43.51300
H  -13.04400 33.91300 43.90500
H  -11.60300 33.07200 43.66900
H  -12.78200 32.97100 42.30600
H  -8.06200 34.46900 40.01300
H  -5.24800 35.57700 43.99700
H  -5.04800 37.30200 43.38200
H  -4.51200 36.15600 42.35900

