158

Mg -1.42200 17.17100 26.59800
C  -1.82400 15.11800 29.44600
C  -1.99600 19.87900 28.54700
C  -1.78900 18.83300 23.74600
C  -1.46300 14.17200 24.66100
N  -1.69300 17.38900 28.74100
C  -1.67900 16.46200 29.71700
C  -1.69500 17.14600 31.07700
C  -2.09500 18.61900 30.75200
C  -1.94800 18.64600 29.26100
C  -3.59900 18.99500 31.12900
C  -0.25500 16.98900 31.61600
C  0.06700 17.81500 32.91100
H  -0.05900 17.15600 34.30800
N  -1.65000 19.15600 26.20500
C  -1.85700 20.13400 27.17200
C  -2.01800 21.43500 26.42900
C  -2.21700 21.09500 25.05400
C  -1.87600 19.61600 24.94000
C  -2.19500 22.73300 27.21700
C  -2.58100 21.91400 23.95300
O  -2.62100 21.53600 22.77800
C  -3.00600 23.24200 24.23100
N  -1.37400 16.65600 24.51000
C  -1.50000 17.51100 23.54200
C  -1.48400 16.93100 22.07100
C  -1.33000 15.39700 22.42300
C  -1.40600 15.38200 23.94700
C  -2.68100 17.33500 21.12300
C  -0.08700 14.71800 21.87100
C  0.39200 15.09700 20.40100
N  -1.52600 15.08600 26.92800
C  -1.51800 14.02500 26.07900
C  -1.68800 12.73100 26.83700
C  -1.84100 13.18600 28.16300
C  -1.70900 14.63000 28.13600
C  -1.70000 11.41200 26.23700
C  -2.10700 12.69300 29.48300
O  -2.35900 11.55100 29.89800
C  -2.12200 13.93200 30.41900
C  -1.12500 13.67000 31.43000
O  0.05300 13.51400 31.19000
O  -1.72400 13.51100 32.65700
C  -0.86500 12.95000 33.68500
H  -2.15600 20.78500 29.13400
H  -1.86700 19.29200 22.75800
H  -1.42400 13.23800 24.09600
H  -2.42000 16.74000 31.78200
H  -1.33800 19.33900 31.06200
H  -3.97500 18.28000 31.86100
H  -4.24900 19.19900 30.27800
H  -3.45200 19.92400 31.67900
H  0.48200 17.09100 30.81900
H  -0.29500 15.92600 31.85100
H  -0.73200 18.55300 32.97800
H  1.01500 18.35100 32.86400
H  -3.26500 22.92500 27.30500
H  -1.90400 23.64100 26.69000
H  -1.90200 22.74400 28.26700
H  -3.29800 23.81500 23.35100
H  -2.16000 23.82500 24.59200
H  -3.83300 23.20200 24.94100
H  -0.56000 17.21200 21.56600
H  -2.18900 14.90700 21.96500
H  -3.28500 16.47400 20.83700
H  -2.32300 17.84800 20.23000
H  -3.27000 18.16800 21.50700
H  -0.31300 13.65500 21.78700
H  0.79000 14.82300 22.51000
H  1.26300 15.74700 20.48300
H  -0.42100 15.52600 19.81500
H  0.60700 14.13500 19.93700
H  -0.98100 10.94600 26.91000
H  -1.33600 11.41300 25.21000
H  -2.72300 11.04600 26.32300
H  -3.07900 14.01900 30.93300
H  -0.70400 13.75400 34.40400
H  0.08100 12.52000 33.35500
H  -1.20500 12.09200 34.26500
Mg -5.74600 25.47000 25.39600
C  -3.97100 26.78200 28.13500
C  -7.01400 23.12500 27.54700
C  -7.00200 23.94100 22.70200
C  -3.90300 27.71900 23.35200
N  -5.52600 25.02200 27.63400
C  -4.83800 25.79800 28.51400
C  -5.23900 25.35500 29.92600
C  -6.10600 24.05700 29.75000
C  -6.21600 24.01400 28.21100
C  -5.44900 22.72600 30.33400
C  -6.04300 26.42000 30.84800
C  -6.95300 25.92000 32.02300
H  -6.34600 24.86200 32.91200
N  -6.83200 23.72600 25.16300
C  -7.31300 22.94800 26.16700
C  -8.14800 21.92000 25.54100
C  -8.17900 22.13800 24.11400
C  -7.33800 23.32600 23.93200
C  -8.72700 20.71700 26.28500
C  -8.89400 21.36100 23.02100
O  -8.85400 21.69300 21.83400
C  -9.72000 20.06000 23.33500
N  -5.60900 25.95100 23.29200
C  -6.21200 25.12600 22.36900
C  -5.81400 25.62100 21.01600
C  -4.94900 26.90200 21.24400
C  -4.84000 26.89000 22.72800
C  -5.04300 24.56900 20.17200
C  -5.45900 28.21600 20.50900
C  -5.94800 29.40600 21.31900
N  -4.30800 27.04300 25.57600
C  -3.67000 27.87400 24.66400
C  -2.80600 28.75100 25.34500
C  -2.87300 28.31400 26.68800
C  -3.81600 27.27600 26.80100
C  -1.91300 29.71900 24.77400
C  -2.32800 28.61500 27.99900
O  -1.59000 29.50200 28.38000
C  -3.10900 27.66200 28.99500
C  -2.06300 26.92400 29.78100
O  -1.15600 26.20200 29.35700
O  -2.20200 27.35700 31.10600
C  -1.15300 26.85900 32.05300
H  -7.59400 22.45500 28.18500
H  -7.15900 23.37900 21.77900
H  -3.34200 28.37400 22.68200
H  -4.23300 25.16800 30.30200
H  -7.13200 24.03600 30.11900
H  -4.57600 22.89600 30.96400
H  -5.23500 22.04600 29.50900
H  -6.14500 22.16300 30.95600
H  -6.44400 27.16400 30.16000
H  -5.25900 26.90300 31.43200
H  -7.86200 25.49600 31.59700
H  -7.23500 26.80800 32.59000
H  -9.75800 20.70700 25.92900
H  -8.80700 20.88300 27.35900
H  -8.18600 19.84300 25.92100
H  -8.88600 19.59900 23.86400
H  -10.00300 19.47300 22.46100
H  -10.55500 20.33600 23.97800
H  -6.73600 25.94100 20.53100
H  -3.94700 26.73500 20.84700
H  -4.51100 23.90000 20.84800
H  -4.38200 25.01100 19.42600
H  -5.81000 24.01100 19.63600
H  -6.20300 27.87100 19.79000
H  -4.66700 28.60300 19.86900
H  -6.62700 29.89700 20.62200
H  -5.09400 30.04400 21.54800
H  -6.48400 29.07800 22.21000
H  -1.59600 29.52500 23.74900
H  -1.01100 29.76200 25.38500
H  -2.40900 30.68200 24.89800
H  -3.71200 28.19700 29.72800
H  -1.60400 26.79900 33.04300
H  -0.33200 27.56700 32.16300
H  -0.81500 25.85400 31.80000

