158

Mg 0.58700 8.02000 27.22000
C  1.70000 10.14500 29.83900
C  0.74400 5.50400 29.45600
C  -0.09000 6.03300 24.65300
C  0.95700 10.66800 24.96400
N  1.06200 7.90700 29.43800
C  1.34700 8.92600 30.35800
C  1.12400 8.41600 31.82200
C  1.23700 6.87800 31.61000
C  1.04900 6.70800 30.07500
C  2.57400 6.22100 32.14500
C  -0.23800 8.87100 32.35500
C  -0.33400 8.82400 33.91000
H  0.90400 8.36200 34.78300
N  0.39700 5.93700 27.05700
C  0.46800 5.08000 28.10000
C  0.23500 3.73300 27.54600
C  0.00300 3.89600 26.14100
C  0.14300 5.36800 25.87500
C  0.14600 2.43300 28.36500
C  -0.24400 2.84800 25.04500
O  -0.56200 3.18700 23.90700
C  -0.30700 1.35000 25.34300
N  0.62600 8.27300 25.06900
C  0.08600 7.37000 24.30500
C  -0.27500 7.83200 22.90300
C  -0.13300 9.34400 23.01800
C  0.50400 9.48100 24.39900
C  0.49800 7.20800 21.75100
C  -1.42800 10.09900 22.86300
C  -1.32700 11.50000 22.27800
N  1.15400 10.02600 27.31200
C  1.36900 10.97200 26.34300
C  1.63200 12.27900 26.94000
C  1.76800 11.96500 28.30400
C  1.59800 10.53800 28.45100
C  1.96200 13.61000 26.27900
C  2.19400 12.56100 29.53000
O  2.47200 13.76100 29.77300
C  1.95500 11.45500 30.59500
C  2.97100 11.37700 31.65500
O  4.09100 10.93800 31.53100
O  2.41600 11.99700 32.85600
C  3.31600 12.09700 33.98200
H  0.78100 4.68400 30.17700
H  -0.36500 5.44400 23.77600
H  0.97000 11.56000 24.33400
H  1.93900 8.69900 32.48800
H  0.43200 6.53100 32.25800
H  3.24700 5.92500 31.34100
H  2.27200 5.35600 32.73500
H  3.12700 6.91800 32.77500
H  -1.06800 8.29600 31.94400
H  -0.23400 9.91800 32.05000
H  -1.14900 8.11300 34.04700
H  -0.71000 9.78800 34.25400
H  1.03300 1.82200 28.19700
H  -0.72600 1.82600 28.12100
H  0.16700 2.53500 29.45000
H  -0.09300 0.79700 24.42800
H  -1.31100 1.17700 25.73000
H  0.39300 1.09600 26.13800
H  -1.32700 7.59500 22.74800
H  0.54500 9.70000 22.24200
H  -0.14800 6.82500 20.96100
H  1.16500 6.38900 22.02100
H  1.16600 7.97400 21.35700
H  -1.83900 10.16000 23.87100
H  -2.02200 9.45500 22.21400
H  -1.05400 12.16200 23.10000
H  -2.17400 11.77000 21.64800
H  -0.51300 11.49200 21.55400
H  1.23400 13.90100 25.52200
H  2.89200 13.32100 25.79100
H  2.11000 14.38100 27.03600
H  0.95600 11.72300 30.94000
H  4.29100 12.43800 33.63500
H  3.45800 11.10300 34.40700
H  2.74600 12.68700 34.70000
Mg -10.61300 16.71000 41.09500
C  -7.14900 16.33500 41.35700
C  -10.12300 20.04800 40.49600
C  -13.77500 16.93100 40.11900
C  -10.86400 13.15200 40.89900
N  -8.81800 18.04700 40.91000
C  -7.49700 17.64100 41.01100
C  -6.58200 18.87600 40.83000
C  -7.57800 20.07900 40.92500
C  -8.94400 19.36000 40.76100
C  -7.51200 20.94400 42.17600
C  -5.75700 18.79300 39.51700
C  -4.28600 18.34500 39.57700
H  -3.84100 17.01400 38.78800
N  -11.83800 18.36200 40.55400
C  -11.46200 19.63700 40.35700
C  -12.65000 20.40400 40.07300
C  -13.80400 19.57200 40.17400
C  -13.24400 18.21900 40.31100
C  -12.66100 21.80100 39.89300
C  -15.31900 20.00700 40.05900
O  -15.65900 21.18100 39.85400
C  -16.38100 18.93800 40.34300
N  -12.05800 15.18800 40.39200
C  -13.31100 15.57200 40.13200
C  -14.26300 14.38600 39.92500
C  -13.40100 13.21400 40.35500
C  -11.99600 13.86400 40.52100
C  -15.65800 14.42800 40.69600
C  -13.47900 11.94600 39.44700
C  -13.56100 10.48100 40.07000
N  -9.33500 14.99700 41.29400
C  -9.55400 13.67000 41.17100
C  -8.29800 12.95000 41.46400
C  -7.37800 14.03000 41.54400
C  -8.01700 15.22100 41.33000
C  -8.14100 11.44900 41.54900
C  -5.96800 14.22600 41.74600
O  -5.01400 13.41200 41.92600
C  -5.77600 15.70500 41.63000
C  -5.03600 16.11400 42.88100
O  -3.81900 16.12900 42.89500
O  -5.92200 16.55700 43.83100
C  -5.29200 17.24400 44.92800
H  -10.00600 21.13400 40.51800
H  -14.84000 17.01700 39.89500
H  -10.86600 12.06000 40.89000
H  -5.91300 19.02800 41.67600
H  -7.43000 20.68200 40.02900
H  -6.69200 21.66000 42.21000
H  -7.46000 20.40700 43.12400
H  -8.45800 21.48600 42.16200
H  -5.72600 19.77700 39.04900
H  -6.22000 18.09900 38.81600
H  -3.99700 18.22000 40.62100
H  -3.62000 19.08200 39.12900
H  -13.21600 21.99000 38.97400
H  -11.65200 22.21200 39.89100
H  -13.10600 22.36300 40.71400
H  -17.35800 19.34300 40.60500
H  -16.05800 18.24300 41.11800
H  -16.45800 18.38000 39.40900
H  -14.41100 14.44300 38.84700
H  -13.71200 12.87700 41.34400
H  -15.70400 13.65600 41.46400
H  -16.46800 14.25900 39.98600
H  -15.84000 15.43300 41.07600
H  -12.48400 11.86900 39.00900
H  -14.13000 12.05300 38.57800
H  -13.53700 10.62700 41.15000
H  -12.72500 9.89500 39.69000
H  -14.53600 10.03300 39.87600
H  -7.15200 11.27600 41.12500
H  -8.94000 11.08600 40.90200
H  -8.24700 11.18000 42.60000
H  -5.11300 15.97500 40.80800
H  -4.94100 16.44900 45.58600
H  -5.96700 17.95900 45.39900
H  -4.43500 17.82100 44.58200

