158

Mg 53.92200 24.98600 44.55600
C  51.27700 27.02000 43.39800
C  52.21800 22.26000 42.96200
C  56.71000 23.17500 44.83500
C  55.37000 27.69800 45.88800
N  52.11000 24.72200 43.21000
C  51.21100 25.71600 42.88700
C  49.93100 25.17100 42.10600
C  50.09500 23.61200 42.43000
C  51.60600 23.52500 42.87900
C  49.10200 22.95500 43.50100
C  49.86100 25.33400 40.61000
C  51.21300 25.40900 39.80800
H  51.25000 26.37300 38.65600
N  54.44600 23.01900 43.88800
C  53.56300 22.07900 43.33900
C  54.34600 20.87800 43.13400
C  55.60800 21.06900 43.73900
C  55.66600 22.44800 44.21200
C  53.81000 19.71600 42.35400
C  56.64000 19.99000 43.83200
O  56.31300 18.90000 43.41100
C  58.02800 20.18800 44.35100
N  55.98000 25.48600 44.87600
C  56.95300 24.56800 45.09000
C  58.18400 25.18800 45.63200
C  57.73800 26.57700 46.11600
C  56.25100 26.57200 45.67600
C  58.84900 24.45800 46.86100
C  58.44600 27.86200 45.53800
C  59.91100 28.05300 46.00800
N  53.41800 26.91600 44.83300
C  54.07500 27.91600 45.43100
C  53.24200 29.08900 45.55900
C  52.13100 28.79600 44.77400
C  52.30900 27.45700 44.27000
C  53.37600 30.24900 46.50000
C  50.82100 29.27100 44.29000
O  50.20500 30.29900 44.46900
C  50.18000 28.10400 43.45900
C  49.76300 28.60500 42.14600
O  50.50100 29.29400 41.46600
O  48.39700 28.52800 42.00300
C  47.90100 29.42800 41.01300
H  51.63600 21.39300 42.63800
H  57.55800 22.49800 44.96200
H  55.67300 28.54300 46.50800
H  49.04700 25.51500 42.64100
H  49.95200 22.98800 41.54800
H  48.48600 23.78000 43.86100
H  49.57900 22.53100 44.38400
H  48.45400 22.28300 42.93800
H  49.23800 26.19200 40.35900
H  49.46300 24.48500 40.05500
H  51.46000 24.40900 39.45100
H  52.00400 25.63700 40.52300
H  53.56400 18.88200 43.01100
H  54.33700 19.47400 41.43100
H  52.82000 19.93100 41.95200
H  58.56500 19.24800 44.21800
H  58.13100 20.44000 45.40600
H  58.39300 21.01700 43.74500
H  58.86400 25.31900 44.79000
H  57.72000 26.65700 47.20300
H  58.07200 23.72600 47.07900
H  59.00100 25.04500 47.76700
H  59.68500 23.80000 46.62200
H  57.94400 28.75200 45.91700
H  58.40900 27.86700 44.44900
H  60.52400 27.58800 45.23700
H  60.10500 27.40200 46.86000
H  60.26400 29.07800 46.11700
H  53.77300 31.17700 46.08700
H  53.91900 29.90800 47.38100
H  52.34900 30.45600 46.80000
H  49.30300 27.76400 44.00900
H  48.16600 29.12100 40.00100
H  48.26600 30.44600 41.15000
H  46.81300 29.41500 40.95000
Mg 36.86500 50.17200 25.27400
C  37.00100 47.89700 27.89000
C  35.67600 52.60800 27.55000
C  35.96800 52.04000 22.77200
C  37.59700 47.57600 23.07700
N  36.31300 50.16500 27.42200
C  36.55600 49.20900 28.26300
C  36.37200 49.72200 29.67300
C  35.65600 51.09800 29.50500
C  35.80300 51.29700 28.08400
C  34.18100 51.24600 30.10600
C  37.75700 49.70400 30.54100
C  37.61500 48.91800 31.84100
H  36.29900 49.03000 32.58800
N  36.03500 52.12500 25.17700
C  35.57900 52.95100 26.18100
C  35.18100 54.18300 25.56900
C  35.24500 54.02500 24.13800
C  35.78800 52.75200 23.99000
C  34.77900 55.37300 26.37600
C  34.79700 55.03600 23.05600
O  34.69600 54.71400 21.88900
C  34.47200 56.49800 23.46500
N  36.71700 49.77500 23.15500
C  36.40500 50.76800 22.41000
C  36.76400 50.48000 20.91700
C  37.47900 49.03100 21.04100
C  37.22500 48.75300 22.52900
C  35.49000 50.55800 20.02900
C  38.94800 48.90900 20.53700
C  39.12900 47.65300 19.61000
N  37.24100 48.10600 25.38100
C  37.54000 47.22100 24.47000
C  37.65100 45.94600 25.06300
C  37.47500 46.18100 26.41600
C  37.18200 47.49600 26.57600
C  38.14900 44.73100 24.36300
C  37.46300 45.55500 27.66400
O  37.65600 44.42100 28.06000
C  37.23100 46.69200 28.76800
C  35.99900 46.45600 29.59000
O  34.85300 46.89200 29.34300
O  36.38700 45.61400 30.62200
C  35.35600 45.04300 31.39500
H  35.39400 53.33000 28.32000
H  36.01900 52.64000 21.86100
H  37.92800 46.83900 22.34300
H  35.67600 49.03700 30.15700
H  36.15100 51.86000 30.10700
H  34.05800 52.29200 30.38500
H  33.97100 50.80800 31.08100
H  33.38700 50.96900 29.41300
H  38.18100 50.67100 30.81000
H  38.53600 49.11800 30.05500
H  38.33000 49.36900 32.52900
H  37.79000 47.85700 31.66100
H  35.21300 56.30000 26.00300
H  34.98800 55.20900 27.43300
H  33.69000 55.38800 26.32400
H  33.68600 56.56800 24.21700
H  34.16600 56.90800 22.50200
H  35.31100 57.09800 23.81600
H  37.54800 51.14600 20.55800
H  36.71900 48.37200 20.62100
H  35.28200 51.62100 19.90800
H  34.72300 50.06500 20.62700
H  35.83100 50.12600 19.08900
H  39.71300 49.00200 21.30700
H  39.15600 49.73000 19.85200
H  40.05300 47.10900 19.80100
H  39.06800 48.01600 18.58400
H  38.36100 46.90100 19.79200
H  37.45000 44.32100 23.63400
H  38.44300 44.00400 25.12000
H  39.03100 44.97400 23.77000
H  38.10300 46.71600 29.42100
H  34.51700 45.71000 31.59400
H  35.67900 44.74800 32.39300
H  34.83700 44.18400 30.97000

