158

Mg 35.76200 3.37200 29.99200
C  33.21000 4.34700 32.37400
C  38.03600 3.20700 32.74200
C  38.03700 2.27200 27.94300
C  33.28300 3.69900 27.58800
N  35.63800 3.85300 32.29400
C  34.47300 4.13800 33.00000
C  34.87000 4.27300 34.55300
C  36.41200 4.21000 34.47700
C  36.76400 3.64700 33.06500
C  37.15800 5.53300 34.82300
C  34.18800 3.10600 35.31200
C  34.32300 3.00700 36.83700
H  35.17700 3.90200 37.71300
N  37.84800 2.95700 30.24500
C  38.53600 2.82100 31.44100
C  39.76300 2.09400 31.21000
C  39.79500 1.84200 29.78300
C  38.52600 2.32600 29.27300
C  40.79300 1.68700 32.23200
C  40.87300 1.15400 28.92500
O  40.70100 0.82500 27.74900
C  42.28200 0.77200 29.49000
N  35.75300 3.21400 28.05100
C  36.82500 2.66500 27.38300
C  36.48500 2.50800 25.87600
C  34.88000 2.83400 25.84500
C  34.58200 3.26800 27.28900
C  37.30900 3.45900 24.98200
C  34.03900 1.64700 25.29800
C  33.40500 1.74200 23.83500
N  33.70800 4.02900 29.93700
C  32.83200 4.05800 28.80300
C  31.48200 4.30900 29.29100
C  31.58000 4.49700 30.67600
C  32.94900 4.35600 30.99000
C  30.23400 4.34600 28.55700
C  30.91600 4.90400 31.84000
O  29.75400 5.27200 32.00200
C  31.92600 4.80900 32.99700
C  31.95000 6.11800 33.72400
O  32.43800 7.17800 33.38300
O  31.39700 5.84500 34.94100
C  31.55100 6.96000 35.95000
H  38.67100 3.05500 33.61600
H  38.76200 1.99600 27.17400
H  32.54100 3.66900 26.78800
H  34.58300 5.22500 35.00000
H  36.72500 3.42200 35.16300
H  37.80000 5.40900 35.69500
H  36.39500 6.24000 35.14900
H  37.70000 5.86800 33.93900
H  34.53900 2.20700 34.80500
H  33.12200 3.16400 35.09100
H  34.44100 1.93800 37.01800
H  33.29900 3.32300 37.03500
H  41.80000 1.96500 31.92000
H  40.83100 0.60400 32.10900
H  40.55900 2.03500 33.23800
H  42.94700 0.34200 28.74100
H  42.06900 0.01100 30.24100
H  42.83900 1.59400 29.94000
H  36.67300 1.50200 25.50100
H  34.78100 3.78500 25.32100
H  36.69200 3.72900 24.12500
H  38.21100 2.98700 24.59100
H  37.62900 4.35800 25.50900
H  33.17700 1.65900 25.96500
H  34.54200 0.71100 25.54000
H  33.71700 2.61000 23.25500
H  32.33700 1.90600 23.98000
H  33.45000 0.87200 23.18100
H  30.17400 3.55900 27.80400
H  29.97900 5.34300 28.19700
H  29.52400 4.04100 29.32600
H  31.48100 4.08400 33.67900
H  30.69700 7.63800 35.97200
H  32.48600 7.52000 35.92400
H  31.56300 6.39600 36.88200
Mg -0.19000 44.04100 25.71200
C  2.27000 44.17500 28.39600
C  -2.44300 43.13600 28.04000
C  -2.19900 43.66000 23.15900
C  2.56200 44.30400 23.55900
N  0.00400 43.59100 27.93800
C  1.00400 43.85100 28.84800
C  0.59300 43.73600 30.34200
C  -0.95300 43.22000 30.08900
C  -1.13800 43.28200 28.57200
C  -1.38000 41.84700 30.70000
C  0.61600 45.10400 31.03100
C  0.83500 45.07200 32.66200
H  0.44900 43.82800 33.44500
N  -2.11200 43.55400 25.61500
C  -2.91600 43.25200 26.71500
C  -4.28300 43.05800 26.23700
C  -4.19500 43.25600 24.79700
C  -2.77800 43.50200 24.43900
C  -5.40800 42.67500 27.05200
C  -5.32600 43.09700 23.69600
O  -5.08400 43.06900 22.52700
C  -6.71700 42.82000 24.01000
N  0.14800 43.89400 23.72800
C  -0.87300 43.73400 22.79400
C  -0.35100 43.68300 21.33100
C  1.07900 44.18300 21.49000
C  1.27000 44.08700 23.01500
C  -0.54700 42.26800 20.67000
C  1.36900 45.64400 20.89600
C  1.27200 46.89700 21.88400
N  1.94000 44.36700 25.88800
C  2.88200 44.40400 24.92100
C  4.28100 44.40200 25.49500
C  4.01900 44.42600 26.88700
C  2.61900 44.32500 27.02000
C  5.57700 44.62200 24.75000
C  4.71200 44.52400 28.21800
O  5.87900 44.62000 28.47700
C  3.53900 44.41700 29.30500
C  3.81000 43.24600 30.13000
O  3.67900 42.12600 29.72100
O  4.14200 43.67900 31.37200
C  4.48500 42.64900 32.30100
H  -3.25200 42.96900 28.75400
H  -2.87100 43.77000 22.30600
H  3.30200 44.39000 22.76000
H  1.26500 43.06900 30.88300
H  -1.70300 43.90100 30.49300
H  -0.47100 41.35000 31.04100
H  -1.92100 41.27000 29.95000
H  -1.96800 41.97800 31.60800
H  -0.33500 45.62500 30.92000
H  1.32300 45.65700 30.41300
H  0.55300 45.97500 33.20500
H  1.92500 45.08700 32.66500
H  -6.28300 43.06900 26.53500
H  -5.40900 43.25800 27.97300
H  -5.45800 41.60700 27.26300
H  -6.65600 41.95100 24.66400
H  -7.27800 42.50800 23.12900
H  -7.17700 43.63000 24.57600
H  -1.08000 44.34500 20.86500
H  1.79200 43.54300 20.97000
H  -1.37700 41.84400 21.23600
H  0.38100 41.69700 20.63600
H  -0.97800 42.36300 19.67300
H  0.58600 45.70200 20.13900
H  2.26800 45.68500 20.28100
H  0.63600 47.73300 21.59100
H  2.25000 47.28100 22.17400
H  0.75200 46.55000 22.77600
H  6.10000 45.49300 25.14500
H  5.27000 44.74800 23.71200
H  6.20800 43.76000 24.96700
H  3.52800 45.34500 29.87800
H  4.06800 43.00300 33.24400
H  5.56600 42.56100 32.41000
H  4.23900 41.60500 32.10700

