158

Mg -1.88100 17.40200 26.74500
C  -2.18200 14.97100 29.27600
C  -2.70000 19.96700 29.07700
C  -2.06000 19.63200 24.23900
C  -2.09200 14.62100 24.36400
N  -2.26300 17.39300 28.94000
C  -2.32700 16.30200 29.82800
C  -2.58900 16.74800 31.29000
C  -2.77900 18.34900 31.09100
C  -2.59400 18.63300 29.61700
C  -4.06700 18.94400 31.63900
C  -1.46000 16.39600 32.22900
C  -1.45300 17.14800 33.53500
H  -0.76700 16.48900 34.72200
N  -2.01300 19.51200 26.63900
C  -2.31000 20.38200 27.69500
C  -2.07000 21.76600 27.20900
C  -1.77700 21.64100 25.82600
C  -1.86200 20.25600 25.47600
C  -2.09700 22.98100 28.04900
C  -1.45400 22.76200 24.79500
O  -1.14200 22.51500 23.58400
C  -1.66500 24.18400 25.12500
N  -1.98200 17.12500 24.67200
C  -2.10000 18.25000 23.83300
C  -2.34300 17.80300 22.38600
C  -2.02000 16.24500 22.43100
C  -2.01700 15.93400 23.90000
C  -3.77500 18.14100 21.85300
C  -0.69700 15.79500 21.75900
C  0.68600 16.41400 22.25800
N  -2.13700 15.24800 26.75700
C  -2.09300 14.29800 25.75700
C  -2.01400 13.00000 26.36000
C  -2.03800 13.22500 27.74200
C  -2.17700 14.57500 27.93900
C  -2.06900 11.73200 25.62400
C  -2.03100 12.53900 29.11200
O  -1.91500 11.34100 29.36800
C  -2.26700 13.67800 30.13300
C  -1.11400 13.49200 31.04900
O  0.02800 13.90700 30.99100
O  -1.61500 12.75200 32.07000
C  -0.83000 12.64600 33.33900
H  -2.92100 20.78500 29.76600
H  -2.26400 20.36600 23.45700
H  -2.13900 13.80300 23.64200
H  -3.54100 16.30800 31.58600
H  -1.99800 18.87900 31.63500
H  -4.77100 19.29400 30.88300
H  -3.77200 19.79700 32.25000
H  -4.56400 18.20300 32.26500
H  -0.46400 16.44300 31.78900
H  -1.65700 15.39300 32.60900
H  -2.47800 17.36800 33.83500
H  -0.97900 18.12600 33.45600
H  -2.94300 23.65500 27.91600
H  -1.23300 23.64500 28.01200
H  -2.13800 22.70100 29.10200
H  -0.89300 24.46900 25.84000
H  -2.66300 24.22000 25.56100
H  -1.72900 24.81700 24.24000
H  -1.58500 18.30200 21.78200
H  -2.74800 15.65200 21.87700
H  -4.18300 18.95500 22.45300
H  -4.36800 17.23500 21.72600
H  -3.74600 18.61000 20.87000
H  -0.83600 16.14100 20.73500
H  -0.70500 14.70700 21.81200
H  1.37000 15.57100 22.35800
H  0.58800 17.08500 23.11200
H  0.99200 17.08900 21.45900
H  -1.56800 10.94900 26.19300
H  -1.39800 11.94100 24.79000
H  -3.02000 11.48000 25.15600
H  -3.17500 13.53400 30.72000
H  -0.13700 11.80700 33.27700
H  -1.42100 12.35100 34.20700
H  -0.24900 13.55200 33.51000
Mg 35.02800 2.29700 29.89700
C  32.74000 3.49400 32.28700
C  37.41600 2.24600 32.44200
C  37.43900 1.62700 27.49400
C  32.64500 2.84900 27.45500
N  35.02800 2.67900 32.13000
C  34.03600 3.29200 32.83700
C  34.36300 3.25600 34.34300
C  35.91800 3.02000 34.36200
C  36.11000 2.53800 32.92600
C  36.84700 4.03000 34.98700
C  33.60100 2.11800 35.11700
C  33.77600 2.11500 36.68700
H  34.53000 3.19400 37.42200
N  37.08800 1.81700 29.97700
C  37.84000 1.88400 31.09800
C  39.20200 1.66700 30.67400
C  39.21800 1.35700 29.30300
C  37.91100 1.63800 28.87300
C  40.27800 1.86200 31.70900
C  40.38300 1.00600 28.44200
O  40.26200 1.11800 27.26800
C  41.65200 0.49100 29.05500
N  35.01700 2.18100 27.81500
C  36.16600 1.91200 27.02900
C  35.75000 1.72600 25.52200
C  34.16400 2.02900 25.56300
C  33.87900 2.30000 27.08600
C  36.43900 2.61000 24.47300
C  33.37000 0.82100 25.00800
C  32.25500 0.99800 24.09400
N  33.08900 3.05800 29.78500
C  32.21000 3.19800 28.76400
C  30.91000 3.56000 29.16800
C  31.08600 3.75200 30.57300
C  32.45700 3.42500 30.89400
C  29.77500 4.05400 28.30600
C  30.44100 4.23700 31.78000
O  29.29200 4.64400 32.07100
C  31.48800 3.99100 32.94100
C  31.89300 5.25200 33.59000
O  32.36400 6.24800 33.03800
O  31.61900 5.18000 34.94400
C  31.92000 6.37100 35.78800
H  38.20900 2.18000 33.19000
H  38.15300 1.30800 26.73200
H  31.91700 2.94000 26.64700
H  34.08900 4.16800 34.87200
H  36.08600 2.09800 34.91900
H  36.22200 4.87000 35.28800
H  37.67500 4.47600 34.43700
H  37.33700 3.53500 35.82600
H  33.96500 1.15700 34.75100
H  32.53600 2.14700 34.88400
H  34.26700 1.21100 37.04700
H  32.85000 1.99900 37.25000
H  40.48500 0.90900 32.19500
H  40.05300 2.61900 32.46100
H  41.22300 2.19900 31.28300
H  42.21300 1.40000 29.27500
H  42.23600 -0.19900 28.44700
H  41.40800 -0.02900 29.98200
H  36.09900 0.73700 25.22500
H  33.97900 2.90400 24.93800
H  36.75000 1.94400 23.66800
H  37.37300 3.06100 24.80900
H  35.84900 3.37800 23.97100
H  32.99600 0.25100 25.85800
H  34.07600 0.06500 24.66600
H  32.49200 0.26300 23.32400
H  32.17200 1.96300 23.59400
H  31.33600 0.78200 24.63900
H  30.28600 4.34500 27.38800
H  29.39400 5.00200 28.68600
H  29.00500 3.30200 28.13200
H  30.97400 3.38900 33.69100
H  31.05300 7.03100 35.79000
H  32.78300 6.92100 35.41400
H  32.15600 6.03400 36.79700

