158

Mg 44.09400 3.54400 46.84100
C  42.16400 6.33100 46.60700
C  41.33200 1.67600 46.12300
C  46.08300 0.84300 46.54100
C  47.00600 5.62000 47.30800
N  42.01100 4.03600 46.36900
C  41.41500 5.20800 46.31600
C  39.90800 5.17800 45.97700
C  39.68900 3.61300 45.92500
C  41.15400 3.05500 46.14200
C  38.68400 3.03900 46.97800
C  39.63000 5.92200 44.61000
C  40.70500 6.06400 43.54900
H  40.24700 6.29700 42.06700
N  43.69100 1.49600 46.61200
C  42.48600 0.93000 46.40400
C  42.68000 -0.51000 46.31800
C  44.10400 -0.73800 46.42900
C  44.70200 0.60900 46.51800
C  41.58500 -1.53700 45.98100
C  44.76500 -2.10100 46.33700
O  44.05600 -3.12600 46.27000
C  46.25000 -2.31000 46.35600
N  46.24400 3.29500 46.86700
C  46.76900 2.01300 46.87100
C  48.38500 2.10000 46.83500
C  48.62300 3.62500 46.95100
C  47.20200 4.21800 47.07400
C  49.06800 1.27600 48.05600
C  49.48200 4.24600 45.78300
C  50.97700 4.43200 46.06600
N  44.55800 5.56800 46.93700
C  45.72400 6.27400 47.32400
C  45.41800 7.69600 47.57300
C  43.99000 7.70500 47.19800
C  43.56300 6.43100 46.89000
C  46.44300 8.64500 47.98000
C  42.90800 8.67600 47.14900
O  42.81500 9.87900 47.41100
C  41.61000 7.78800 46.73700
C  40.61700 8.08700 47.83100
O  40.52300 7.56100 48.94300
O  39.69200 8.98800 47.33700
C  38.63800 9.21700 48.32800
H  40.46500 1.05400 45.89100
H  46.67400 -0.06400 46.40000
H  47.93100 6.19800 47.35300
H  39.29700 5.51700 46.81400
H  39.21400 3.41500 44.96400
H  38.57400 3.72200 47.82000
H  39.02200 2.06300 47.32600
H  37.64500 2.91400 46.67200
H  39.41300 6.94700 44.91000
H  38.64200 5.76000 44.17700
H  41.13300 5.06200 43.58500
H  41.44700 6.78700 43.88700
H  41.57300 -1.71600 44.90500
H  40.60100 -1.08900 46.12100
H  41.70900 -2.43100 46.59200
H  46.82400 -1.98500 45.48900
H  46.35100 -3.39000 46.46600
H  46.71900 -1.92400 47.26100
H  48.72800 1.64200 45.90700
H  49.07400 3.91400 47.90100
H  49.48200 0.34400 47.67100
H  48.27800 1.06500 48.77600
H  49.84400 1.92000 48.47000
H  49.08500 5.23200 45.53800
H  49.41400 3.57000 44.93100
H  51.18400 3.90500 46.99800
H  51.33900 5.45700 46.14000
H  51.55900 4.08400 45.21200
H  46.48600 9.53000 47.34600
H  47.44800 8.23100 47.89800
H  46.26400 8.94900 49.01100
H  41.14400 8.21600 45.85000
H  37.94900 8.39000 48.49800
H  38.03500 10.01700 47.89800
H  39.10000 9.62800 49.22600
Mg 47.09500 34.86800 28.28700
C  45.27200 32.94500 30.56300
C  47.43700 37.27800 30.73600
C  48.41300 37.05500 25.97200
C  46.20300 32.69100 25.70700
N  46.49400 34.95900 30.45100
C  45.75600 34.09100 31.17100
C  45.83300 34.60400 32.62300
C  46.02900 36.17100 32.46700
C  46.68400 36.16700 31.13600
C  44.63000 36.93600 32.46000
C  47.12400 34.02400 33.37500
C  47.01300 34.02300 34.94900
H  46.07600 35.03900 35.63400
N  47.91100 36.86100 28.32700
C  47.97400 37.68400 29.44400
C  48.76700 38.83300 29.12600
C  49.05000 38.79500 27.75100
C  48.52900 37.49400 27.26400
C  49.10600 39.89300 30.09900
C  49.70000 39.83500 26.91100
O  50.03300 39.57700 25.75600
C  50.06900 41.22200 27.35200
N  47.20700 34.86300 26.19100
C  47.76100 35.90000 25.48200
C  47.57200 35.71500 24.06200
C  47.05500 34.23500 23.90700
C  46.83500 33.87100 25.38400
C  46.60100 36.83800 23.48000
C  48.00200 33.23400 23.14600
C  49.32200 33.00300 23.80800
N  46.10100 33.11900 28.15300
C  45.83600 32.32900 27.03100
C  44.99000 31.23300 27.47800
C  44.75300 31.42600 28.86800
C  45.44300 32.63000 29.20300
C  44.31100 30.12000 26.63000
C  44.08800 30.94300 30.04000
O  43.31500 29.99000 30.26600
C  44.27100 31.96100 31.11500
C  44.37900 31.51100 32.53400
O  45.09500 30.60600 32.88900
O  43.35800 32.05100 33.27000
C  43.08200 31.63200 34.58100
H  47.55200 37.97600 31.56800
H  48.94500 37.65100 25.22700
H  45.93400 32.05400 24.86300
H  44.91900 34.26900 33.11300
H  46.77300 36.50800 33.18900
H  44.58700 37.51900 31.54100
H  44.71400 37.62600 33.30000
H  43.86500 36.16300 32.54100
H  47.98800 34.66100 33.18300
H  47.30900 33.01200 33.01500
H  48.01800 34.27400 35.28600
H  46.84700 33.02900 35.36400
H  48.36700 40.69300 30.06300
H  50.07800 40.35700 29.93500
H  49.15400 39.51600 31.12100
H  49.32200 41.60000 28.05000
H  50.18200 42.03300 26.63200
H  51.00500 41.17100 27.90700
H  48.47000 35.89600 23.47100
H  46.04600 34.18300 23.49800
H  46.24200 37.42400 24.32600
H  45.64500 36.52000 23.06500
H  47.02300 37.54300 22.76400
H  48.21700 33.62700 22.15200
H  47.45200 32.29600 23.08100
H  49.67500 33.85200 24.39400
H  50.06400 32.88700 23.01800
H  49.27200 32.14700 24.48100
H  43.38300 30.57900 26.28800
H  44.05500 29.25100 27.23600
H  44.94800 29.95500 25.76000
H  43.27100 32.39200 31.12900
H  43.63000 30.73600 34.87600
H  42.03700 31.50100 34.86300
H  43.29000 32.45000 35.27000

