158

Mg 40.43000 8.45400 29.65700
C  42.20500 9.54000 32.30600
C  38.38000 6.70100 31.89500
C  38.89600 7.01500 27.03100
C  42.94300 9.58900 27.47100
N  40.36900 8.15800 31.85700
C  41.08900 8.89500 32.78700
C  40.68000 8.56800 34.23500
C  39.64500 7.43000 34.07200
C  39.48400 7.36400 32.50300
C  40.14500 6.16100 34.75700
C  40.10900 9.89100 34.91300
C  40.91800 10.50500 36.08100
H  40.23800 11.48900 37.11600
N  38.70900 7.19600 29.54000
C  38.01800 6.59600 30.56300
C  36.94000 5.75400 29.99400
C  36.94500 6.12500 28.57800
C  38.23500 6.75700 28.28300
C  36.00100 4.72400 30.66500
C  35.94700 5.75100 27.51100
O  36.16100 5.86700 26.27900
C  34.64700 5.16600 27.88600
N  40.92100 8.27500 27.54600
C  40.11900 7.62500 26.71300
C  40.58600 7.81400 25.26200
C  41.67000 8.94100 25.33100
C  41.87500 8.97700 26.87100
C  41.07600 6.54900 24.58100
C  41.24600 10.27700 24.61800
C  39.93500 11.05100 25.06500
N  42.23900 9.43500 29.74000
C  43.17000 9.85600 28.86400
C  44.17100 10.60500 29.51700
C  43.86600 10.50600 30.82900
C  42.67700 9.75000 30.97600
C  45.25500 11.31800 28.84600
C  44.24800 10.91300 32.20100
O  45.20300 11.58300 32.57500
C  43.22600 10.31300 33.13900
C  44.04400 9.55700 34.17400
O  44.45900 8.39800 34.12400
O  44.05600 10.31400 35.34900
C  44.29900 9.44600 36.47800
H  37.74500 6.19700 32.62700
H  38.44900 6.52200 26.16600
H  43.72600 10.02000 26.84400
H  41.61500 8.30100 34.72700
H  38.72700 7.69900 34.59400
H  41.17600 6.24300 35.10300
H  40.03400 5.29000 34.11200
H  39.49400 5.84500 35.57200
H  39.06700 9.87500 35.23400
H  40.11800 10.68500 34.16600
H  41.70100 11.10600 35.61900
H  41.34100 9.63300 36.57900
H  34.97400 5.07600 30.75400
H  36.21800 4.40200 31.68300
H  35.79800 3.83800 30.06300
H  34.00000 5.04600 27.01700
H  34.23100 5.92500 28.54900
H  34.74500 4.14700 28.26200
H  39.71300 8.18900 24.72700
H  42.61100 8.57900 24.91600
H  41.54400 5.89400 25.31600
H  41.71100 6.94600 23.78900
H  40.27400 6.07200 24.01800
H  41.11500 9.87800 23.61300
H  42.04700 11.01700 24.63500
H  39.21900 10.89700 24.25800
H  40.12700 12.11700 25.18200
H  39.56000 10.64700 26.00600
H  45.02400 11.45900 27.79000
H  46.25200 10.90200 28.98800
H  45.19400 12.33200 29.24200
H  42.86900 11.17300 33.70500
H  43.94400 8.41500 36.47300
H  44.10500 9.93800 37.43000
H  45.37300 9.26900 36.53700
Mg 46.13700 35.49900 28.07300
C  44.73700 33.23600 30.47500
C  46.67200 37.72100 30.51400
C  47.61600 37.31700 25.76300
C  45.45100 32.98000 25.67000
N  45.66900 35.46100 30.30100
C  45.25600 34.42400 31.07000
C  45.43600 34.79500 32.53800
C  45.55900 36.36500 32.46700
C  45.99400 36.60700 30.98200
C  44.22300 37.15800 32.66800
C  46.73600 34.17900 33.11100
C  46.91200 34.02000 34.62600
H  46.08500 34.79500 35.60200
N  46.88300 37.43700 28.11700
C  47.18200 38.14200 29.23600
C  48.05300 39.25700 28.88700
C  48.27600 39.12800 27.49200
C  47.56700 37.93600 27.03300
C  48.67700 40.13200 29.98300
C  49.10500 40.05400 26.56600
O  49.32000 39.91700 25.34100
C  49.76600 41.29000 27.24400
N  46.29700 35.23000 25.99200
C  47.03500 36.18400 25.28700
C  47.28500 35.66700 23.79200
C  46.27000 34.44800 23.72600
C  46.04300 34.15600 25.20100
C  47.00700 36.75900 22.67000
C  46.78000 33.24700 22.92700
C  45.76200 32.59000 22.00400
N  45.31200 33.52000 28.08700
C  45.14800 32.66000 27.01200
C  44.53100 31.41700 27.52000
C  44.23200 31.73100 28.86900
C  44.76700 32.95000 29.10400
C  44.25000 30.22000 26.80500
C  43.52100 31.23500 30.01700
O  42.84500 30.25900 30.08800
C  43.75600 32.23400 31.20700
C  44.23400 31.55700 32.40600
O  45.11000 30.72200 32.39900
O  43.63200 32.08000 33.54600
C  43.89300 31.39000 34.76100
H  46.75200 38.46300 31.31200
H  48.32900 37.80000 25.09200
H  45.14000 32.18200 24.99300
H  44.57900 34.66000 33.19700
H  46.30900 36.59000 33.22500
H  44.18500 37.65800 33.63600
H  43.34400 36.51900 32.58300
H  44.10900 37.91500 31.89200
H  47.54800 34.75800 32.67000
H  46.81200 33.17400 32.69700
H  47.98800 34.19400 34.65100
H  46.64500 32.98800 34.85200
H  48.44900 39.98700 31.03900
H  48.22100 41.07300 29.67400
H  49.75600 40.18400 29.83500
H  49.02900 41.81300 27.85300
H  50.13100 41.95500 26.46200
H  50.56800 40.89200 27.86600
H  48.30300 35.28800 23.70200
H  45.33900 34.82300 23.30100
H  46.08300 36.58500 22.11700
H  47.82200 36.64600 21.95400
H  46.84100 37.78400 23.00100
H  47.33400 32.54300 23.54700
H  47.46200 33.56800 22.13900
H  45.74800 33.12200 21.05300
H  44.76400 32.84200 22.36300
H  45.97700 31.52300 21.93700
H  44.38500 29.50100 27.61300
H  45.06500 30.16800 26.08400
H  43.23200 30.20800 26.41600
H  42.81600 32.73000 31.44700
H  44.53000 30.50800 34.69100
H  42.98600 31.06100 35.26700
H  44.28400 32.12100 35.46900

