158

Mg 47.68500 24.99100 29.16700
C  48.43700 27.41600 31.79500
C  46.23600 23.08800 31.46600
C  47.27000 22.83900 26.71100
C  49.34600 27.30600 27.04200
N  47.55300 25.19900 31.42100
C  47.82500 26.24300 32.21000
C  47.39400 25.94600 33.75100
C  46.83200 24.51500 33.55700
C  46.88000 24.17500 32.09600
C  47.38600 23.42300 34.52600
C  46.52400 27.05600 34.35700
C  46.80800 27.58900 35.78000
H  47.17900 26.57600 36.89300
N  46.86100 23.22700 29.07900
C  46.26100 22.58600 30.14800
C  45.60500 21.35800 29.61700
C  45.75300 21.42600 28.24700
C  46.61100 22.53400 27.93200
C  44.85500 20.41400 30.49900
C  45.21300 20.50700 27.21600
O  45.42200 20.62500 26.02200
C  44.39700 19.18100 27.58200
N  48.35100 25.06400 27.21700
C  48.01200 23.99900 26.37100
C  48.60300 24.20300 24.96700
C  49.05800 25.72400 25.02600
C  48.97500 26.06100 26.49100
C  49.75500 23.14700 24.72400
C  48.29300 26.77500 24.22000
C  49.11500 27.59700 23.22600
N  48.55300 27.10100 29.32500
C  49.28900 27.80700 28.36900
C  49.75200 29.07800 28.89600
C  49.39900 28.96300 30.30100
C  48.73500 27.72700 30.48600
C  50.26700 30.24000 28.10700
C  49.46400 29.63300 31.58000
O  49.98300 30.69000 31.90100
C  48.86000 28.55000 32.65600
C  49.91100 28.25400 33.73700
O  50.70300 27.35700 33.83200
O  49.87400 29.32700 34.57400
C  50.72200 29.32700 35.78000
H  45.77400 22.40600 32.18300
H  47.13700 22.14800 25.87600
H  49.75400 28.04800 26.35200
H  48.40800 25.96000 34.15200
H  45.75300 24.59400 33.69100
H  47.74600 22.60900 33.89700
H  46.61900 23.03500 35.19700
H  48.17500 23.75300 35.20100
H  45.53800 26.60000 34.27200
H  46.44800 27.85700 33.62200
H  45.84800 27.98500 36.11100
H  47.45400 28.45500 35.92200
H  43.78600 20.33100 30.30200
H  44.76900 20.76200 31.52900
H  45.24500 19.40400 30.62800
H  43.48500 19.33500 28.15900
H  45.00800 18.47700 28.14700
H  44.12100 18.79100 26.60300
H  47.84500 24.17000 24.18300
H  50.09000 25.70100 24.67600
H  50.06400 22.75000 25.69100
H  50.72500 23.48900 24.36400
H  49.25700 22.44000 24.06100
H  47.85100 27.45700 24.94700
H  47.44200 26.33700 23.69800
H  48.75100 27.38100 22.22200
H  50.17600 27.39900 23.38100
H  48.98800 28.65600 23.44700
H  50.48500 30.03200 27.06000
H  51.20400 30.57300 28.55200
H  49.59100 31.07400 28.29700
H  47.93500 28.95000 33.07200
H  51.74600 29.01800 35.56600
H  50.30800 28.59400 36.47100
H  50.75600 30.33400 36.19500
Mg 48.90000 45.14800 42.91600
C  45.45200 45.49000 41.91400
C  48.62300 41.82800 42.07600
C  52.12000 45.11400 42.81900
C  48.71300 48.59200 43.56500
N  47.31300 43.95500 41.83300
C  46.00900 44.25400 41.62500
C  45.20900 43.07500 41.21000
C  46.06300 41.95800 41.83400
C  47.43900 42.58100 41.93300
C  45.51000 41.41000 43.13100
C  44.93500 42.95300 39.68400
C  45.60500 43.97800 38.74600
H  45.21300 43.91400 37.29800
N  50.24600 43.59900 42.58700
C  49.94200 42.29500 42.29000
C  51.11800 41.56000 42.53900
C  52.16900 42.46100 42.63700
C  51.55700 43.79400 42.67000
C  51.22900 40.06900 42.45200
C  53.63500 42.03000 42.85400
O  54.01300 40.90200 42.65600
C  54.71200 43.07200 43.22400
N  50.21500 46.68100 42.95600
C  51.56000 46.39200 43.04800
C  52.36900 47.77000 43.22800
C  51.23600 48.73200 43.63900
C  49.96500 47.96900 43.41500
C  53.45200 47.59000 44.31600
C  51.22800 50.18400 42.99400
C  51.45700 51.30800 43.92100
N  47.35700 46.71300 42.98200
C  47.51300 48.08100 43.25000
C  46.19500 48.72800 43.15600
C  45.40300 47.73500 42.61100
C  46.11900 46.55300 42.49400
C  45.92400 50.22400 43.21800
C  44.06500 47.49500 42.07700
O  43.13700 48.25200 41.93500
C  44.11800 46.03800 41.51800
C  42.94100 45.33400 42.12600
O  42.13000 44.78100 41.38300
O  42.74400 45.50300 43.46300
C  41.46300 44.88700 43.88500
H  48.41500 40.76300 41.95400
H  53.20600 45.21800 42.87500
H  48.66600 49.59900 43.98400
H  44.22700 43.01200 41.68000
H  46.13300 41.09800 41.16800
H  45.22900 40.36700 42.98700
H  44.66200 41.93900 43.56700
H  46.29300 41.47600 43.88700
H  43.87900 43.17500 39.53400
H  45.14000 41.92900 39.37000
H  46.69400 44.01600 38.74800
H  45.33100 44.95600 39.14200
H  51.80100 39.81300 41.56000
H  50.26900 39.60000 42.23700
H  51.68200 39.77200 43.39900
H  55.58500 42.49900 43.53700
H  54.17300 43.60700 44.00600
H  54.94700 43.73200 42.38900
H  52.68500 47.99700 42.21000
H  51.30400 48.88500 44.71600
H  53.73400 48.51200 44.82500
H  54.40300 47.26300 43.89500
H  53.15600 46.81400 45.02100
H  50.21700 50.26700 42.59700
H  51.81900 50.17700 42.07900
H  51.70700 52.19500 43.34000
H  52.28200 51.08000 44.59700
H  50.63700 51.54500 44.59800
H  46.54900 50.85500 42.58500
H  45.91800 50.53800 44.26200
H  44.90300 50.40900 42.88400
H  43.98400 45.96200 40.43900
H  40.66800 45.20600 43.21100
H  41.17300 45.22600 44.87900
H  41.63500 43.81100 43.90300

