158

Mg 53.44600 24.29200 44.33400
C  50.62100 26.33100 43.25400
C  52.07800 21.72000 42.61200
C  56.45000 22.67500 44.46000
C  55.10500 27.24400 45.11600
N  51.61600 24.20300 42.95000
C  50.55000 25.07100 42.70900
C  49.45800 24.37500 41.92200
C  49.85400 22.92200 42.02400
C  51.24700 22.90500 42.69900
C  48.83500 22.01700 42.76000
C  49.31800 24.86400 40.41400
C  50.71100 25.06400 39.69300
H  50.50800 25.80000 38.33200
N  54.07400 22.41200 43.80200
C  53.37300 21.47300 43.17600
C  54.05300 20.23400 43.12900
C  55.29000 20.45600 43.69800
C  55.35600 21.90100 44.02000
C  53.49800 18.97300 42.54500
C  56.34000 19.39100 43.95300
O  56.13500 18.31800 43.50100
C  57.58100 19.63900 44.74600
N  55.46900 24.84400 44.77100
C  56.50500 23.98300 44.90300
C  57.87300 24.72100 45.07900
C  57.40500 26.19700 44.96000
C  55.88900 26.10900 45.02000
C  58.47100 24.45300 46.50100
C  57.88400 26.84700 43.68400
C  58.90900 27.99300 43.65400
N  52.96200 26.41700 44.41300
C  53.73100 27.35600 44.84800
C  52.84900 28.50700 44.98200
C  51.66900 28.22400 44.31500
C  51.75000 26.88000 43.98800
C  53.18200 29.67000 45.88300
C  50.45600 28.75100 43.85800
O  50.05400 29.89500 43.98900
C  49.70400 27.53400 43.16300
C  49.34200 28.09700 41.78300
O  50.08000 28.69300 40.98200
O  47.97000 28.04500 41.63400
C  47.36700 28.73400 40.45700
H  51.56600 20.86000 42.17500
H  57.42700 22.18800 44.47200
H  55.63000 28.14600 45.43700
H  48.47700 24.67700 42.29100
H  49.88400 22.59400 40.98500
H  48.25500 21.42400 42.05300
H  48.11700 22.71600 43.19000
H  49.32700 21.45000 43.55000
H  48.78100 25.80400 40.28800
H  48.67900 24.18800 39.84500
H  50.87000 24.04900 39.33000
H  51.54300 25.47800 40.26300
H  54.10400 18.59900 41.72000
H  52.56600 19.20700 42.03000
H  53.24300 18.24400 43.31400
H  57.87700 18.65800 45.11900
H  57.36200 20.33600 45.55500
H  58.36600 20.07200 44.12600
H  58.59700 24.45300 44.30900
H  57.73600 26.82800 45.78500
H  59.51900 24.15900 46.45300
H  57.80500 23.74900 46.99900
H  58.45900 25.40200 47.03800
H  56.96100 27.20600 43.22900
H  58.20200 26.03200 43.03300
H  59.38900 28.29000 44.58600
H  58.44700 28.87900 43.21700
H  59.66400 27.69300 42.92600
H  54.09100 30.21000 45.61700
H  53.18300 29.35000 46.92500
H  52.38700 30.41600 45.88800
H  48.81000 27.21400 43.69900
H  46.48100 29.28700 40.77100
H  46.97000 27.97500 39.78300
H  48.00300 29.35800 39.82800
Mg 1.01900 43.03600 26.42600
C  3.41800 43.08600 28.90800
C  -1.31700 41.95400 28.73000
C  -0.98800 42.39000 23.93700
C  3.72100 43.46100 24.11000
N  1.03600 42.62500 28.52400
C  2.10500 42.87900 29.42500
C  1.63400 42.88700 30.88600
C  0.15200 42.26700 30.77200
C  -0.05700 42.32100 29.24400
C  -0.16400 40.88800 31.42900
C  1.65900 44.35700 31.50800
C  1.70400 44.41600 33.03900
H  1.33800 43.10600 33.76700
N  -0.89800 42.34800 26.38400
C  -1.67800 41.97600 27.39400
C  -3.00500 41.74900 26.87900
C  -2.94200 41.77900 25.41600
C  -1.55600 42.16900 25.20000
C  -4.16800 41.52300 27.88600
C  -4.01200 41.47500 24.44700
O  -3.80800 41.42500 23.22800
C  -5.39400 41.25500 24.88400
N  1.36900 43.00100 24.30600
C  0.30400 42.68500 23.54800
C  0.72200 42.84900 21.98400
C  2.13200 43.45900 22.02200
C  2.49000 43.29600 23.52600
C  0.60000 41.55900 21.15300
C  2.29700 44.88200 21.53800
C  1.56800 45.97000 22.39300
N  3.12100 43.20100 26.40700
C  4.03000 43.45000 25.45600
C  5.34900 43.57900 26.06500
C  5.13900 43.33700 27.45000
C  3.72800 43.25700 27.59600
C  6.63500 43.84200 25.40200
C  5.77500 43.21000 28.66300
O  6.95600 43.19700 29.05300
C  4.65800 43.11400 29.74500
C  4.94800 41.88000 30.60100
O  5.11700 40.70000 30.24000
O  4.96200 42.28400 31.91400
C  5.10400 41.27600 32.97100
H  -1.96700 41.62100 29.54200
H  -1.64300 42.21900 23.08100
H  4.51300 43.87800 23.48400
H  2.19800 42.17000 31.48100
H  -0.55700 42.98100 31.19000
H  0.66000 40.39700 31.94700
H  -0.45100 40.17200 30.66000
H  -0.99400 40.98500 32.13000
H  0.73000 44.80400 31.15400
H  2.47300 44.92700 31.06000
H  0.96800 45.08300 33.48800
H  2.71300 44.76800 33.25700
H  -4.82800 42.37800 27.73900
H  -3.83500 41.70500 28.90800
H  -4.78900 40.63100 27.80700
H  -6.08100 41.05100 24.06200
H  -5.72500 42.06000 25.54000
H  -5.23400 40.36700 25.49600
H  0.06000 43.58700 21.53000
H  2.75600 42.78400 21.43700
H  1.50200 40.95000 21.20800
H  0.25600 41.78100 20.14300
H  -0.29100 41.08500 21.56600
H  1.83300 44.94900 20.55400
H  3.37800 45.02400 21.54300
H  0.70200 45.62700 22.96000
H  1.20400 46.73500 21.70700
H  2.30400 46.41800 23.06100
H  7.41300 44.30400 26.01100
H  6.34700 44.67100 24.75600
H  7.11200 43.03400 24.84800
H  4.59500 43.97600 30.40900
H  4.75900 40.29800 32.63500
H  4.50800 41.71300 33.77200
H  6.11600 41.20400 33.36900

