158

Mg 36.15600 50.21500 25.11400
C  36.53300 48.46200 28.08700
C  34.55800 52.74700 26.79200
C  35.82100 51.87100 22.14300
C  37.65000 47.58500 23.46200
N  35.65200 50.57900 27.17900
C  35.96600 49.73100 28.24100
C  35.62900 50.35400 29.60000
C  34.81100 51.65400 29.14900
C  35.01400 51.72400 27.61400
C  33.28200 51.67600 29.52400
C  36.92300 50.58900 30.50900
C  36.81700 50.24900 31.96700
H  35.42200 50.00200 32.53800
N  35.46800 52.16700 24.56000
C  34.70800 52.95900 25.35600
C  34.18900 54.07900 24.51300
C  34.66900 53.93800 23.21800
C  35.42900 52.62400 23.24000
C  33.31400 55.12600 25.21300
C  34.40900 54.81200 21.95600
O  34.83400 54.57700 20.80100
C  33.65700 56.07700 22.20300
N  36.73200 49.77400 23.06500
C  36.47800 50.65200 22.03400
C  36.74000 49.88800 20.67000
C  37.52200 48.63300 21.14500
C  37.28800 48.60800 22.63700
C  35.34300 49.50600 20.06400
C  38.95400 48.49400 20.57500
C  40.11000 48.38200 21.63800
N  36.85900 48.32800 25.58400
C  37.44900 47.33300 24.82700
C  37.69500 46.12400 25.59900
C  37.43100 46.55500 26.91700
C  36.98400 47.86600 26.88000
C  38.31600 44.84600 25.17800
C  37.46600 46.18100 28.29900
O  37.76500 45.06700 28.75300
C  37.00200 47.45400 29.13700
C  35.96600 46.90700 30.06000
O  34.78600 46.87800 29.82100
O  36.52100 46.33900 31.19700
C  35.55300 45.62700 32.04000
H  34.05200 53.55200 27.33100
H  35.67600 52.39000 21.19400
H  38.20200 46.86600 22.85200
H  35.03100 49.64100 30.16700
H  35.26200 52.52600 29.62200
H  32.84600 50.68100 29.61500
H  32.70200 52.17200 28.74600
H  33.06600 52.22000 30.44300
H  37.13900 51.65200 30.40100
H  37.77000 50.14800 29.98400
H  37.22900 51.00700 32.63300
H  37.40400 49.36700 32.22500
H  33.95500 55.95000 25.52300
H  32.76600 54.63600 26.01800
H  32.55400 55.64700 24.63000
H  32.58000 55.96500 22.33200
H  33.78000 56.74000 21.34600
H  34.09100 56.61500 23.04600
H  37.34900 50.40600 19.93000
H  36.90300 47.83500 20.73500
H  34.50500 50.12000 20.39400
H  35.14900 48.46900 20.33900
H  35.44800 49.65400 18.99000
H  39.18200 49.40400 20.02000
H  39.05500 47.64900 19.89400
H  39.86400 48.80400 22.61200
H  40.89800 49.07800 21.35000
H  40.46600 47.35600 21.72900
H  38.24000 44.77100 24.09300
H  37.93500 43.90800 25.58200
H  39.36700 44.87800 25.46500
H  37.77600 47.78000 29.83200
H  35.28900 44.68900 31.55200
H  34.66300 46.17900 32.34300
H  36.05300 45.31600 32.95700
Mg -11.40500 37.49400 43.25900
C  -8.98800 35.24400 42.41300
C  -9.20200 40.01000 41.92500
C  -13.85100 39.91800 43.36500
C  -13.63400 35.01400 43.78000
N  -9.37400 37.56200 42.07100
C  -8.53900 36.51500 41.98200
C  -7.10600 36.85300 41.49600
C  -7.22500 38.42700 41.66600
C  -8.70700 38.69300 41.89300
C  -6.31600 39.08500 42.73700
C  -6.88100 36.29500 40.03900
C  -5.47800 35.62400 39.76600
H  -4.96100 35.45300 38.36900
N  -11.48800 39.64100 42.67800
C  -10.53700 40.43600 42.14900
C  -10.94600 41.78100 42.04900
C  -12.31700 41.83400 42.48600
C  -12.61900 40.43500 42.86100
C  -10.06700 42.88300 41.55800
C  -13.18100 43.13700 42.66000
O  -12.80900 44.22500 42.22300
C  -14.57200 43.12500 43.18400
N  -13.46700 37.47900 43.35600
C  -14.22700 38.59600 43.64600
C  -15.60600 38.25500 44.31800
C  -15.56400 36.66600 44.16200
C  -14.11200 36.34200 43.71400
C  -15.82200 38.78200 45.76000
C  -16.52100 36.06900 43.07400
C  -17.83800 35.43600 43.69800
N  -11.36500 35.48600 43.24800
C  -12.31500 34.54400 43.45000
C  -11.77200 33.26200 43.41000
C  -10.43500 33.41700 43.00100
C  -10.23000 34.86500 42.93100
C  -12.49100 31.96000 43.64700
C  -9.20000 32.75600 42.69400
O  -8.82500 31.56200 42.69200
C  -8.19300 33.92500 42.30300
C  -6.99800 33.93000 43.19800
O  -5.88300 33.92500 42.70800
O  -7.24700 34.01500 44.54800
C  -6.10500 33.90400 45.50200
H  -8.46100 40.77500 41.68100
H  -14.59900 40.66800 43.62800
H  -14.24200 34.24900 44.26700
H  -6.40600 36.43300 42.21800
H  -6.94600 38.86400 40.70800
H  -6.82500 39.47300 43.62000
H  -5.63000 39.73600 42.19400
H  -5.66500 38.35200 43.21300
H  -6.98800 37.16900 39.39600
H  -7.51000 35.45900 39.73300
H  -5.68900 34.60400 40.08700
H  -4.66100 36.01900 40.36900
H  -10.14000 42.92300 40.47100
H  -9.03500 42.69800 41.85500
H  -10.24900 43.92700 41.81400
H  -15.09500 44.07300 43.30900
H  -14.46200 42.64900 44.15900
H  -15.10800 42.53000 42.44400
H  -16.47600 38.56700 43.74100
H  -15.62600 36.19600 45.14400
H  -14.89100 39.22200 46.11600
H  -16.03600 37.89600 46.35800
H  -16.62500 39.51100 45.65300
H  -16.08300 35.28500 42.45600
H  -16.73700 36.76000 42.26000
H  -18.69000 35.83000 43.14300
H  -17.90200 35.68200 44.75800
H  -17.81900 34.36600 43.48800
H  -13.48800 32.13100 44.05200
H  -11.95900 31.31700 44.34800
H  -12.65100 31.34000 42.76500
H  -8.05200 33.79400 41.23000
H  -6.39100 33.18500 46.27000
H  -6.00500 34.94700 45.80400
H  -5.18700 33.58300 45.00900

