158

Mg 37.03000 48.70100 25.72800
C  37.00700 46.72700 28.60500
C  36.12700 51.52600 27.57900
C  36.52800 50.42400 22.87500
C  37.69900 45.78200 23.88700
N  36.44200 49.05800 27.84100
C  36.69700 48.10600 28.81700
C  36.72600 48.79900 30.19800
C  36.18000 50.24600 29.83100
C  36.27700 50.26300 28.31200
C  34.72000 50.47800 30.27800
C  38.06600 48.83300 30.99900
C  38.05700 48.06100 32.34200
H  37.88300 48.95200 33.55300
N  36.59500 50.74700 25.35500
C  36.21600 51.70800 26.19500
C  36.03600 53.01200 25.50000
C  36.21600 52.76800 24.09300
C  36.37300 51.27100 24.07500
C  35.88200 54.32300 26.32800
C  36.14000 53.74700 22.98200
O  36.26100 53.43400 21.77000
C  35.89400 55.23400 23.22100
N  37.14000 48.22000 23.68400
C  36.90100 49.06900 22.67400
C  36.97400 48.37200 21.32000
C  37.65000 46.96400 21.64100
C  37.46300 46.93300 23.14100
C  35.58400 48.37100 20.65600
C  39.13200 47.10800 21.20400
C  39.62300 45.97900 20.30800
N  37.34700 46.70200 26.04600
C  37.64700 45.62600 25.23400
C  37.66700 44.39800 25.95900
C  37.61200 44.86500 27.30100
C  37.25100 46.20800 27.32100
C  37.85400 43.16100 25.20500
C  37.55000 44.36300 28.64800
O  37.67600 43.24900 29.09700
C  37.06800 45.54300 29.50700
C  35.73000 45.17700 30.14000
O  34.91300 44.41000 29.60000
O  35.58300 45.78300 31.36000
C  34.27100 45.52100 31.89500
H  35.90900 52.40000 28.19600
H  36.30500 50.90500 21.92000
H  37.81200 44.97300 23.16200
H  36.02000 48.29600 30.85900
H  36.80100 51.07400 30.17600
H  34.03600 49.66200 30.04700
H  34.20500 51.25600 29.71500
H  34.78400 50.69100 31.34500
H  38.40600 49.86800 31.05000
H  38.83800 48.34100 30.40800
H  38.95300 47.46200 32.50400
H  37.30600 47.27200 32.30000
H  36.47600 55.09100 25.83300
H  36.24200 54.20100 27.35000
H  34.82800 54.54100 26.50000
H  35.52200 55.63300 22.27800
H  36.84900 55.70000 23.46600
H  35.07700 55.37300 23.92800
H  37.67100 48.92500 20.69000
H  37.15500 46.12900 21.14300
H  34.85400 49.07300 21.05800
H  35.11800 47.39800 20.49700
H  35.56500 48.69800 19.61700
H  39.68100 46.99000 22.13800
H  39.41900 48.06800 20.77300
H  40.61800 45.60500 20.54600
H  39.65500 46.36700 19.28900
H  38.91300 45.15200 20.29800
H  37.35600 42.44600 25.85900
H  38.90500 42.91400 25.05300
H  37.30100 43.14600 24.26500
H  37.79700 45.66900 30.30700
H  34.35200 45.76000 32.95500
H  34.00500 44.46700 31.81200
H  33.51700 46.18000 31.46300
Mg -0.27600 44.42200 26.91600
C  2.03300 44.23200 29.42200
C  -2.81300 44.22000 29.22700
C  -2.59600 44.15300 24.38600
C  2.11400 44.66600 24.41900
N  -0.36200 44.28700 29.02600
C  0.70500 44.15300 29.87500
C  0.28600 44.02500 31.34000
C  -1.22100 43.71300 31.21700
C  -1.49500 44.20800 29.76800
C  -1.66100 42.32100 31.60700
C  0.51800 45.36200 32.06500
C  0.98300 45.23900 33.56200
H  0.61500 43.96800 34.42900
N  -2.41600 44.31500 26.80400
C  -3.23500 44.31400 27.89100
C  -4.61300 44.15200 27.46800
C  -4.56300 44.05300 26.01800
C  -3.15400 44.19800 25.68300
C  -5.65800 43.91400 28.46300
C  -5.72600 43.72800 25.11700
O  -5.59600 43.78200 23.89100
C  -7.12500 43.30900 25.70600
N  -0.19600 44.42700 24.64300
C  -1.31100 44.23400 23.87300
C  -0.95200 44.16700 22.40500
C  0.51800 44.55700 22.38400
C  0.87300 44.51300 23.86000
C  -1.26300 42.82800 21.71000
C  0.78100 45.86100 21.66400
C  2.06300 45.85800 20.70800
N  1.72300 44.45700 26.93100
C  2.60200 44.58900 25.82500
C  3.94800 44.57900 26.31700
C  3.79200 44.46200 27.71000
C  2.38400 44.39100 27.99300
C  5.11500 44.80300 25.45200
C  4.44000 44.34300 29.01700
O  5.60700 44.33500 29.26400
C  3.27300 44.23100 30.14100
C  3.52700 43.01700 30.99200
O  3.24500 41.87200 30.65600
O  3.97700 43.42600 32.22800
C  4.46700 42.37900 33.11200
H  -3.53700 44.06600 30.03000
H  -3.28200 44.01800 23.54700
H  2.97100 44.77300 23.75000
H  0.84100 43.22100 31.82300
H  -1.75800 44.26000 31.99100
H  -0.93600 41.75000 32.18700
H  -1.95500 41.77400 30.71100
H  -2.55000 42.37300 32.23600
H  -0.37400 45.98300 32.14700
H  1.27900 45.99100 31.60300
H  0.71900 46.11500 34.15600
H  2.07300 45.25300 33.54700
H  -6.60100 44.38900 28.19500
H  -5.53300 44.46100 29.39700
H  -5.80400 42.86000 28.70100
H  -7.91800 43.20800 24.96500
H  -7.43100 44.11000 26.37800
H  -6.97100 42.39500 26.27900
H  -1.55100 44.94800 21.93700
H  1.15900 43.74300 22.04800
H  -1.53900 42.07800 22.45200
H  -0.39600 42.43700 21.17600
H  -2.04100 43.09400 20.99400
H  0.95900 46.63400 22.41100
H  -0.07100 46.17700 21.06200
H  2.80600 46.47200 21.21700
H  1.86400 46.31400 19.73900
H  2.34500 44.81600 20.55800
H  4.86200 45.52300 24.67400
H  5.44500 43.83300 25.08200
H  5.76800 45.39000 26.09700
H  3.36800 45.14300 30.73000
H  4.55900 41.44000 32.56600
H  3.77400 42.32100 33.95100
H  5.43000 42.69200 33.51500

