158

Mg 40.72300 8.36900 29.49400
C  42.34500 9.74200 32.22800
C  38.59300 6.71300 31.67900
C  39.36900 6.90000 26.77900
C  43.24800 9.56300 27.50500
N  40.50100 8.31500 31.67600
C  41.30000 8.99600 32.62000
C  40.58300 8.99000 34.00400
C  39.49200 7.82700 33.77700
C  39.51900 7.60000 32.27100
C  39.63700 6.49800 34.50400
C  39.93900 10.28100 34.44900
C  39.47400 10.39600 35.96000
H  40.10300 11.59400 36.72800
N  39.29500 6.97000 29.28000
C  38.49200 6.43300 30.28100
C  37.52100 5.55000 29.69900
C  37.53600 5.76100 28.32300
C  38.75000 6.62700 28.05800
C  36.78000 4.53600 30.51200
C  36.66500 5.03900 27.35400
O  37.03900 4.92300 26.22200
C  35.40000 4.40500 27.66100
N  41.18900 8.24400 27.35100
C  40.47300 7.65000 26.44000
C  41.01700 7.87700 24.99100
C  42.30200 8.68700 25.28100
C  42.27900 8.84800 26.81200
C  41.27600 6.51400 24.44600
C  42.36100 10.07400 24.59800
C  41.44900 10.32300 23.38900
N  42.49600 9.44300 29.75600
C  43.46800 9.75500 28.87500
C  44.46500 10.59800 29.55500
C  44.06500 10.69200 30.85300
C  42.89700 9.88200 30.93200
C  45.67500 11.18600 28.89800
C  44.38800 11.21700 32.17600
O  45.32000 11.90900 32.53400
C  43.21200 10.72800 33.10200
C  43.85500 10.10300 34.25000
O  44.86300 9.42700 34.34000
O  43.03100 10.38800 35.37700
C  43.37200 9.62700 36.63000
H  37.86400 6.19900 32.30900
H  38.78700 6.56800 25.91700
H  44.07200 9.89300 26.86700
H  41.23300 8.78500 34.85400
H  38.50900 8.15000 34.12000
H  39.09000 6.61200 35.43900
H  40.67300 6.42700 34.83600
H  39.42100 5.60800 33.91200
H  39.06400 10.56500 33.86500
H  40.75400 11.00400 34.42200
H  39.72300 9.42300 36.38400
H  38.39900 10.50000 35.81700
H  35.74000 4.80700 30.69200
H  37.16100 4.33800 31.51400
H  36.91800 3.60000 29.97200
H  35.61400 3.43600 28.11100
H  34.84700 4.28100 26.73100
H  34.85500 5.05000 28.35000
H  40.23500 8.42000 24.45900
H  43.25500 8.21100 25.05100
H  42.18900 6.49100 23.85200
H  40.48800 6.22200 23.75100
H  41.45700 5.78400 25.23400
H  43.37400 10.41600 24.38500
H  42.01800 10.83100 25.30400
H  41.29000 9.43800 22.77200
H  41.90400 11.04600 22.71200
H  40.50300 10.76400 23.70400
H  45.72600 12.16300 29.37900
H  45.59600 11.27900 27.81500
H  46.48300 10.60100 29.33800
H  42.56800 11.55700 33.39600
H  43.06600 8.58800 36.51000
H  42.80700 10.05000 37.46100
H  44.44700 9.72100 36.78200
Mg 29.68400 60.10000 40.13100
C  26.64700 58.60800 39.01900
C  31.25900 57.23000 38.85800
C  32.66500 61.69400 40.08800
C  27.99000 62.85400 40.88800
N  29.02500 58.19800 39.01800
C  27.75000 57.79500 38.64100
C  27.67000 56.41200 37.92600
C  29.09900 55.85700 38.40700
C  29.84900 57.18700 38.71400
C  29.05700 54.88200 39.60700
C  27.47800 56.46500 36.35900
C  26.21600 55.69400 35.92500
H  25.68400 55.98300 34.54200
N  31.75100 59.47800 39.64800
C  32.11100 58.27300 39.20400
C  33.54600 58.15500 39.22900
C  34.03100 59.49600 39.63600
C  32.86800 60.28800 39.83300
C  34.30700 56.93700 38.95400
C  35.49700 59.90000 39.87200
O  36.42300 59.12700 39.49900
C  35.83200 61.16500 40.41500
N  30.25300 62.10900 40.25400
C  31.53500 62.51300 40.27800
C  31.54100 64.04500 40.62900
C  30.03400 64.40000 40.90700
C  29.38200 63.03800 40.68300
C  32.48900 64.37900 41.85700
C  29.40100 65.57400 40.10500
C  28.98800 66.75900 40.97400
N  27.78600 60.57300 40.06800
C  27.16400 61.74100 40.56500
C  25.77900 61.59300 40.59400
C  25.54300 60.34600 40.04700
C  26.73800 59.78100 39.73400
C  24.70500 62.54600 41.00800
C  24.46700 59.45600 39.60500
O  23.28900 59.56200 39.76700
C  25.13000 58.30100 38.81700
C  24.64900 57.12800 39.50700
O  25.09100 56.67400 40.56800
O  23.70200 56.53400 38.80100
C  23.06900 55.33300 39.39300
H  31.65600 56.25100 38.58300
H  33.60300 62.23800 40.21700
H  27.33800 63.66400 41.22200
H  26.89000 55.71300 38.22600
H  29.72500 55.31300 37.69900
H  28.04600 54.71400 39.97600
H  29.57500 55.30400 40.46800
H  29.46900 53.91300 39.32600
H  28.33300 56.06700 35.81300
H  27.27400 57.49100 36.05600
H  25.45300 56.11600 36.58000
H  26.29300 54.61500 36.06300
H  34.76900 56.77300 37.98100
H  33.87700 55.99200 39.28700
H  35.06500 56.99400 39.73600
H  36.89900 61.03500 40.59700
H  35.18900 61.17800 41.29400
H  35.58500 61.92600 39.67500
H  31.80400 64.54300 39.69600
H  29.82600 64.56200 41.96500
H  31.87600 64.84100 42.63100
H  33.15400 65.15100 41.46800
H  33.01800 63.48700 42.19400
H  28.60400 65.21800 39.45100
H  30.14800 66.07100 39.48600
H  28.03800 66.61100 41.48800
H  28.88200 67.67700 40.39700
H  29.66300 66.81000 41.82800
H  24.48200 63.29600 40.24900
H  25.07300 63.05900 41.89600
H  23.74800 62.12700 41.32000
H  24.86000 58.23200 37.76300
H  22.09900 55.67400 39.75500
H  23.47500 54.96900 40.33800
H  22.99800 54.53500 38.65400

