158

Mg 16.02400 52.54300 25.50300
C  18.05200 51.52000 28.37600
C  13.46300 52.95600 27.66300
C  14.16600 53.28900 22.81700
C  18.72300 51.45900 23.48400
N  15.78700 52.11200 27.72000
C  16.73300 51.89000 28.70400
C  16.21100 52.30000 30.13700
C  14.68400 52.36900 29.88000
C  14.62700 52.53800 28.30200
C  13.91600 51.15600 30.49800
C  16.91100 53.62700 30.64600
C  16.76700 53.89800 32.17900
H  16.19000 52.78700 33.04400
N  14.08500 53.10500 25.27900
C  13.17700 53.19700 26.25200
C  11.89800 53.63900 25.77300
C  12.04500 53.73500 24.39300
C  13.47700 53.38400 24.07200
C  10.68900 53.92100 26.56700
C  11.02800 54.23800 23.31700
O  11.42500 54.39800 22.18700
C  9.49500 54.52700 23.60000
N  16.35500 52.32900 23.43900
C  15.42900 52.77800 22.52700
C  16.03100 52.74800 21.09800
C  17.42800 52.09000 21.35200
C  17.52000 51.91400 22.85500
C  15.16700 52.27300 19.93000
C  18.57100 52.83300 20.64500
C  19.29700 53.85200 21.51300
N  17.99600 51.67600 25.78500
C  19.04600 51.33600 24.86100
C  20.08500 50.79500 25.58300
C  19.77000 50.84100 26.90600
C  18.53300 51.44100 27.00400
C  21.43600 50.39400 25.03500
C  20.31400 50.60500 28.17400
O  21.45100 50.19700 28.43800
C  19.21400 50.96000 29.20600
C  18.83500 49.74600 30.07700
O  18.39500 48.65200 29.69500
O  19.14600 50.00000 31.40700
C  18.65100 49.03800 32.43200
H  12.68400 53.06100 28.42100
H  13.59600 53.50200 21.91000
H  19.52100 51.03500 22.87000
H  16.51200 51.44800 30.74600
H  14.31000 53.29100 30.32600
H  13.25500 51.57800 31.25500
H  14.63300 50.55400 31.05600
H  13.36600 50.64600 29.70700
H  16.40500 54.45000 30.14200
H  17.91900 53.71400 30.24000
H  16.07300 54.73700 32.20600
H  17.67000 54.17300 32.72400
H  9.99400 53.08400 26.49000
H  10.28800 54.87500 26.22600
H  10.99500 54.08400 27.60100
H  9.09200 53.74200 24.23900
H  8.89300 54.71700 22.71100
H  9.37000 55.44000 24.18300
H  16.23300 53.81300 20.97900
H  17.31400 51.09000 20.93500
H  14.84800 51.27000 20.21500
H  15.86600 52.29100 19.09400
H  14.31500 52.89300 19.65300
H  18.26200 53.30300 19.71100
H  19.28600 52.04700 20.40100
H  19.26100 54.82200 21.01700
H  20.32800 53.54100 21.68000
H  19.00300 54.15400 22.51800
H  21.58200 49.31500 24.99600
H  22.20300 50.93400 25.59000
H  21.46800 50.64000 23.97300
H  19.56300 51.79200 29.81800
H  17.67600 48.63000 32.16600
H  18.75300 49.47800 33.42500
H  19.34600 48.20100 32.49400
Mg -2.06500 34.57400 26.89400
C  -3.18400 32.47600 29.51800
C  -0.33800 36.54300 29.27600
C  -1.15400 36.75200 24.42700
C  -4.12700 32.91700 24.71400
N  -1.90600 34.54400 29.05500
C  -2.38600 33.55100 29.94100
C  -2.00300 33.84300 31.46200
C  -1.14500 35.16500 31.33000
C  -1.15000 35.51600 29.77700
C  -1.47700 36.28700 32.35000
C  -1.43400 32.58700 32.20700
C  -0.61100 32.81100 33.48500
H  -1.03500 32.12800 34.81200
N  -0.84300 36.26300 26.86100
C  -0.20100 36.86200 27.91500
C  0.73900 37.86700 27.43300
C  0.50300 37.99200 26.00000
C  -0.51400 36.96000 25.70700
C  1.72300 38.68900 28.34200
C  1.13400 38.89800 24.96500
O  0.89000 38.95600 23.75100
C  2.12600 39.89000 25.42700
N  -2.72500 34.96300 24.99600
C  -2.10400 35.78600 24.08900
C  -2.77400 35.79000 22.69100
C  -3.63700 34.49500 22.75300
C  -3.47900 34.06800 24.28000
C  -3.46200 37.13200 22.29300
C  -3.33100 33.50600 21.63500
C  -2.06800 32.69300 21.73400
N  -3.34100 32.96300 27.00600
C  -4.03900 32.35500 26.01000
C  -4.53300 31.12300 26.48600
C  -4.38800 31.10900 27.90300
C  -3.58100 32.26500 28.13200
C  -5.15100 30.05900 25.69600
C  -4.60700 30.49800 29.23300
O  -5.26500 29.44000 29.58100
C  -3.83100 31.36300 30.19000
C  -4.84100 31.68700 31.25300
O  -5.59800 32.63600 31.27100
O  -4.98400 30.69000 32.18800
C  -5.99900 30.81400 33.21400
H  0.08900 37.22400 30.01600
H  -0.95600 37.49500 23.65100
H  -4.70300 32.35600 23.97500
H  -2.92100 34.13500 31.97100
H  -0.12900 34.87800 31.60200
H  -2.10400 36.04800 33.20900
H  -1.98500 37.04900 31.75900
H  -0.56600 36.70700 32.77600
H  -0.78300 32.02900 31.53400
H  -2.24900 31.90800 32.45400
H  -0.60200 33.88200 33.68900
H  0.43400 32.55500 33.31100
H  2.76400 38.68400 28.01900
H  1.62900 38.20000 29.31200
H  1.44500 39.74000 28.42400
H  1.72400 40.67300 26.07000
H  2.62800 40.47000 24.65400
H  2.87900 39.28500 25.93300
H  -1.89200 35.59600 22.08100
H  -4.67800 34.78200 22.60000
H  -2.71000 37.62800 21.67800
H  -3.59800 37.77700 23.16100
H  -4.38500 36.91200 21.75700
H  -3.46100 34.02900 20.68800
H  -4.21600 32.87000 21.67200
H  -1.75400 32.95200 22.74600
H  -1.31500 33.04000 21.02700
H  -2.26200 31.62600 21.62300
H  -4.67200 29.95000 24.72300
H  -6.22800 30.21800 25.63800
H  -4.97600 29.11800 26.21700
H  -3.08600 30.71200 30.65000
H  -6.87800 31.43100 33.03200
H  -5.45000 31.31400 34.01200
H  -6.24400 29.83200 33.61900

