158

Mg 54.17700 24.28100 45.32000
C  51.55700 26.55700 44.27900
C  52.22100 21.73600 43.85800
C  56.80300 22.39900 45.10200
C  55.98700 27.13200 45.96500
N  52.22800 24.18400 44.13300
C  51.37900 25.24100 43.82600
C  50.29800 24.77600 42.81600
C  50.23800 23.28500 43.08600
C  51.62300 22.98400 43.77000
C  49.15700 22.84900 44.15200
C  50.61600 25.24300 41.34300
C  50.79900 24.19200 40.21200
H  51.85600 23.13500 40.36500
N  54.38600 22.22200 44.78900
C  53.48900 21.35800 44.22000
C  54.12700 20.13700 44.07900
C  55.46800 20.30800 44.35500
C  55.64100 21.67600 44.83900
C  53.43900 18.88500 43.42400
C  56.58400 19.20500 44.26800
O  56.29500 17.99800 44.01500
C  58.04800 19.46500 44.37500
N  56.13000 24.66100 45.40200
C  57.05900 23.76200 45.36200
C  58.42100 24.26800 45.79000
C  58.17200 25.79000 45.91800
C  56.66600 25.88300 45.80300
C  59.04300 23.63600 47.03500
C  58.83100 26.55500 44.78000
C  58.10500 26.56300 43.48800
N  53.75900 26.43300 45.51200
C  54.59100 27.41000 45.82600
C  53.82900 28.64600 45.95600
C  52.67500 28.40100 45.28500
C  52.64700 27.01200 45.03000
C  54.32700 29.96800 46.33500
C  51.43000 28.90300 44.73600
O  51.02400 30.07300 44.73100
C  50.68400 27.77600 44.03600
C  50.45200 28.27700 42.63000
O  51.28200 28.86000 41.95200
O  49.20800 28.00300 42.22400
C  48.73000 28.35300 40.87500
H  51.66700 20.93200 43.36800
H  57.80000 22.00100 44.90500
H  56.57300 28.05000 46.05100
H  49.41800 25.34600 43.11200
H  50.16300 22.57800 42.25900
H  49.69200 22.39200 44.98400
H  48.38200 22.24800 43.67600
H  48.60200 23.72900 44.47900
H  51.48600 25.87800 41.17400
H  49.75200 25.84100 41.05400
H  51.10000 24.67900 39.28500
H  49.80100 23.76800 40.09600
H  53.86200 17.98200 43.86300
H  53.40300 18.88700 42.33400
H  52.41800 18.91300 43.80600
H  58.43800 20.05700 43.54600
H  58.53400 18.49600 44.48000
H  58.27000 19.93900 45.33100
H  58.93100 23.93900 44.88500
H  58.51900 26.02600 46.92400
H  60.03600 23.25200 46.80200
H  58.31600 22.88400 47.34000
H  59.26600 24.37700 47.80300
H  59.83500 26.17900 44.58700
H  58.91200 27.57800 45.14800
H  57.67200 27.55200 43.33500
H  57.30200 25.83600 43.36900
H  58.85000 26.52700 42.69300
H  55.16700 30.21100 45.68500
H  54.75900 29.86600 47.33100
H  53.48400 30.64600 46.46600
H  49.67700 27.83000 44.44900
H  49.40600 28.89300 40.21300
H  47.79300 28.91000 40.89700
H  48.42700 27.38500 40.47800
Mg -0.16500 33.54300 26.97400
C  -1.99300 31.75000 29.51800
C  1.21000 35.38700 29.44600
C  1.31400 34.96000 24.60700
C  -2.05500 31.46300 24.61400
N  -0.30100 33.52600 29.28800
C  -1.03100 32.66700 30.05500
C  -0.92600 32.98200 31.57300
C  0.05300 34.22700 31.47500
C  0.31100 34.43500 29.96000
C  -0.35200 35.48900 32.22200
C  -0.35600 31.83800 32.43700
C  -1.26800 31.30800 33.58000
H  -0.65500 30.98600 34.97500
N  0.92800 35.08500 27.02700
C  1.49600 35.74700 28.07400
C  2.37100 36.83100 27.59400
C  2.37700 36.67500 26.20500
C  1.53900 35.49900 25.86800
C  3.07200 37.78900 28.45700
C  3.17100 37.47400 25.18500
O  3.09900 37.37000 24.01700
C  4.19400 38.45900 25.65900
N  -0.37500 33.30500 24.94000
C  0.50900 33.97700 24.17600
C  0.36700 33.67300 22.60100
C  -0.67100 32.47900 22.65500
C  -1.15300 32.42900 24.14000
C  0.00800 34.82200 21.68700
C  -0.17300 31.08700 22.31500
C  -1.00600 30.25500 21.38300
N  -1.58500 31.93600 27.00200
C  -2.26200 31.17700 25.95100
C  -3.17900 30.22600 26.54500
C  -3.07700 30.37200 27.94900
C  -2.19500 31.51200 28.12500
C  -4.12500 29.19400 25.86700
C  -3.65700 29.95800 29.23300
O  -4.51200 29.10000 29.48300
C  -2.91300 30.86900 30.31600
C  -3.83000 31.59900 31.18000
O  -4.12300 32.79900 30.95900
O  -4.33000 30.90300 32.29200
C  -5.34000 31.65200 33.07500
H  1.69400 35.86800 30.29800
H  1.78800 35.58100 23.84500
H  -2.52500 30.81400 23.87200
H  -1.86600 33.43200 31.89300
H  0.98900 33.84500 31.88200
H  0.57600 36.01400 32.45000
H  -0.94200 35.34100 33.12600
H  -0.94100 36.15400 31.59000
H  0.63300 32.02100 32.85600
H  -0.27400 30.98000 31.76900
H  -1.67400 30.32300 33.35000
H  -2.09200 31.99600 33.77400
H  2.64900 37.91600 29.45400
H  3.03800 38.82000 28.10300
H  4.12900 37.55300 28.58400
H  3.66800 39.32500 26.06100
H  4.80300 38.62600 24.77000
H  4.74000 38.09900 26.53100
H  1.33600 33.28100 22.29400
H  -1.55200 32.70400 22.05300
H  0.86800 34.83900 21.01700
H  -0.23700 35.70500 22.27600
H  -0.81800 34.74800 20.97900
H  -0.12300 30.46400 23.20800
H  0.83900 31.04800 21.91100
H  -0.24900 29.71900 20.81000
H  -1.73900 30.77400 20.76600
H  -1.48500 29.53200 22.04400
H  -3.41600 28.49900 25.41500
H  -4.78000 29.66800 25.13600
H  -4.54800 28.51900 26.61100
H  -2.27900 30.25100 30.95200
H  -5.89100 32.36600 32.46200
H  -4.96900 32.27900 33.88500
H  -6.00600 30.88600 33.47200

