158

Mg 29.98000 57.70900 40.03300
C  27.00100 55.82200 39.02700
C  31.94800 55.24600 38.77600
C  32.54400 59.95800 39.85600
C  27.67300 60.60200 40.20800
N  29.46000 55.77500 39.04700
C  28.23100 55.13000 38.88100
C  28.51400 53.62500 38.52900
C  30.07500 53.52500 38.26200
C  30.53600 54.91700 38.78700
C  30.79100 52.39400 39.04200
C  27.74500 53.07700 37.24700
C  27.50900 53.98100 36.01800
H  28.12900 53.82900 34.64700
N  31.99000 57.54600 39.60700
C  32.60200 56.43200 39.08900
C  34.01700 56.69900 38.86800
C  34.20000 58.05900 39.09800
C  32.88100 58.59700 39.52900
C  34.95700 55.58700 38.29300
C  35.49900 58.78300 38.87500
O  36.55700 58.20400 38.53000
C  35.65900 60.24300 39.12300
N  30.02700 60.03800 39.77600
C  31.30000 60.57100 39.98000
C  31.10900 62.06800 40.22200
C  29.55500 62.19800 40.48300
C  28.98600 60.93100 40.08000
C  32.10800 62.72700 41.31100
C  28.90600 63.44300 39.72600
C  28.22000 64.43000 40.64800
N  27.76700 58.18100 39.88200
C  27.07700 59.34300 40.00100
C  25.73900 59.05900 39.95500
C  25.63600 57.69500 39.52000
C  26.89400 57.18700 39.52800
C  24.63600 59.99700 40.19200
C  24.70300 56.66200 39.13200
O  23.49300 56.75000 39.01800
C  25.48100 55.45500 38.79500
C  25.04900 54.27500 39.65500
O  25.47400 54.05200 40.79300
O  24.07600 53.50500 39.06900
C  23.23000 52.63600 39.79600
H  32.62000 54.48500 38.37400
H  33.35500 60.66600 40.03400
H  26.92900 61.33800 40.52000
H  28.26900 53.00100 39.38900
H  30.25900 53.44100 37.19100
H  30.19900 51.68500 39.62000
H  31.46700 52.81400 39.78800
H  31.38200 51.79600 38.34900
H  26.78300 52.71000 37.60500
H  28.33100 52.18600 37.02000
H  27.78900 54.98300 36.34400
H  26.42200 53.95900 35.94200
H  35.13800 55.78400 37.23600
H  34.58200 54.58700 38.51200
H  35.86700 55.65900 38.88800
H  36.71800 60.43800 38.95300
H  35.45600 60.34400 40.18900
H  34.94500 60.76800 38.48800
H  31.18700 62.69200 39.33200
H  29.34600 62.21600 41.55300
H  33.05300 62.92000 40.80200
H  32.29800 62.09800 42.18000
H  31.59100 63.60500 41.69800
H  28.13000 63.11400 39.03600
H  29.58200 63.99100 39.06900
H  28.28300 65.44200 40.24900
H  28.56700 64.41400 41.68100
H  27.15000 64.22500 40.61900
H  24.76700 60.76400 40.95500
H  23.75300 59.43900 40.50300
H  24.55000 60.58600 39.27900
H  25.31700 55.24600 37.73800
H  23.74000 51.67900 39.89900
H  22.26000 52.55100 39.30700
H  23.03100 53.07500 40.77400
Mg 9.58600 48.11200 26.38500
C  7.68600 47.86800 29.24700
C  12.33800 49.08200 28.22100
C  11.25200 48.54500 23.45900
C  6.73400 47.28800 24.50100
N  9.89000 48.47900 28.52600
C  9.04300 48.24700 29.52900
C  9.67600 48.51400 30.86800
C  11.12200 49.10400 30.51900
C  11.13600 48.89600 28.98300
C  11.44000 50.60200 30.98800
C  9.77300 47.40400 32.02000
C  10.56400 47.70800 33.24000
H  9.95300 47.45000 34.61400
N  11.53300 48.63400 25.86500
C  12.51600 48.96700 26.80700
C  13.72500 49.08400 26.11500
C  13.45800 48.99200 24.69400
C  12.00600 48.69100 24.60500
C  15.07300 49.39500 26.82300
C  14.44400 49.11500 23.50600
O  14.07700 49.26100 22.34100
C  15.92400 49.06100 23.72900
N  9.02100 48.18100 24.23000
C  9.93700 48.40100 23.25400
C  9.33100 48.22500 21.89300
C  7.95900 47.59700 22.22000
C  7.89500 47.58800 23.75500
C  9.30600 49.57400 21.16500
C  7.70200 46.18200 21.53700
C  7.84500 44.88600 22.39300
N  7.52200 47.88000 26.71400
C  6.54000 47.48100 25.85400
C  5.27600 47.21000 26.56900
C  5.69200 47.31200 27.94600
C  7.09600 47.66600 27.97000
C  3.91300 46.76600 26.10700
C  5.18800 47.26300 29.30400
O  4.05500 47.14100 29.80900
C  6.54600 47.52300 30.19900
C  6.74500 46.25600 30.97200
O  7.49400 45.35600 30.55100
O  6.09700 46.38500 32.18600
C  6.24000 45.07400 32.99800
H  13.11200 49.43500 28.90600
H  11.77600 48.58300 22.50200
H  5.81200 47.06400 23.96100
H  8.96200 49.29100 31.14200
H  11.98400 48.49700 30.79500
H  12.26500 50.65400 31.69900
H  10.61100 51.18000 31.39500
H  11.80000 51.26800 30.20400
H  9.97700 46.39200 31.67100
H  8.76900 47.27200 32.42500
H  10.90000 48.74500 33.21400
H  11.37500 46.98600 33.14400
H  15.57700 48.43000 26.76700
H  15.00300 49.61100 27.88900
H  15.62300 50.19100 26.32200
H  16.29700 49.77400 24.46500
H  16.37500 49.12300 22.73900
H  16.20500 48.04900 24.02100
H  9.94200 47.52700 21.32200
H  7.08100 48.16800 21.91900
H  8.27700 49.77600 20.86700
H  9.97800 49.58500 20.30700
H  9.53700 50.47800 21.72900
H  8.31200 46.12700 20.63500
H  6.66300 46.12600 21.21000
H  8.63600 44.30600 21.91800
H  6.89300 44.35800 22.34000
H  8.08300 45.10700 23.43300
H  3.89600 46.79900 25.01800
H  3.27100 47.53100 26.54400
H  3.71400 45.79000 26.55000
H  6.35700 48.30000 30.94100
H  5.29100 44.54200 32.94900
H  6.35500 45.23000 34.07100
H  6.89800 44.29700 32.60800

