158

Mg 1.53700 -2.04800 44.31000
C  4.85300 -1.30700 43.88100
C  0.77100 0.83800 42.76400
C  -1.73200 -3.11600 44.30100
C  2.62600 -5.16900 45.60100
N  2.70000 -0.55000 43.44300
C  4.00000 -0.36400 43.41800
C  4.43400 0.91300 42.62100
C  3.06000 1.68600 42.58700
C  2.13600 0.58500 42.91900
C  2.87600 2.92500 43.49500
C  5.07900 0.55700 41.30500
C  6.31900 1.30000 40.89700
H  6.23200 2.18700 39.71100
N  -0.21200 -1.23700 43.75600
C  -0.28700 0.01800 43.12200
C  -1.68200 0.33400 42.89000
C  -2.43900 -0.82000 43.20100
C  -1.44000 -1.77800 43.78300
C  -2.10700 1.69100 42.42400
C  -3.99900 -1.04700 43.02000
O  -4.71100 -0.18000 42.55300
C  -4.80100 -2.30600 43.30900
N  0.60500 -3.90300 44.73800
C  -0.82600 -4.04200 44.69800
C  -1.21300 -5.46600 45.19100
C  0.18600 -6.09500 45.56900
C  1.19900 -4.92800 45.32300
C  -2.32900 -5.43600 46.27900
C  0.61600 -7.34800 44.64600
C  0.72700 -8.72600 45.32100
N  3.38300 -3.05800 44.73900
C  3.65700 -4.27700 45.27100
C  5.06600 -4.40100 45.58000
C  5.62800 -3.22500 45.03300
C  4.52900 -2.50900 44.50900
C  5.69700 -5.52200 46.40300
C  6.87900 -2.57500 44.73400
O  8.09800 -2.84800 44.99600
C  6.40300 -1.29600 43.94400
C  6.78400 -0.07700 44.74300
O  6.46400 0.18900 45.89700
O  7.57300 0.73600 43.99800
C  7.86900 2.03100 44.50600
H  0.49300 1.74200 42.21900
H  -2.74400 -3.48800 44.47000
H  2.79800 -6.03900 46.23800
H  5.08000 1.53600 43.24000
H  2.91200 2.01100 41.55700
H  2.16200 2.74400 44.29900
H  2.60100 3.71600 42.79700
H  3.86200 3.16300 43.89400
H  4.37700 0.51800 40.47200
H  5.40000 -0.46400 41.51100
H  7.12800 0.57500 40.98900
H  6.45400 2.03700 41.68700
H  -2.32400 1.60700 41.35900
H  -1.35700 2.44600 42.66100
H  -3.10500 1.97300 42.75900
H  -4.23600 -3.11600 42.84600
H  -5.76400 -2.21500 42.80800
H  -4.84300 -2.27900 44.39800
H  -1.57600 -5.97400 44.29800
H  0.25200 -6.40000 46.61400
H  -2.01300 -5.95800 47.18200
H  -3.17100 -5.98000 45.85000
H  -2.69700 -4.44000 46.52500
H  1.63300 -7.27500 44.26100
H  0.02100 -7.62800 43.77600
H  1.23800 -9.40700 44.64000
H  -0.29600 -9.05900 45.49500
H  1.30800 -8.61000 46.23600
H  5.22500 -6.35300 45.88000
H  5.31100 -5.56800 47.42100
H  6.76300 -5.51200 46.17700
H  6.75500 -1.25700 42.91300
H  8.18000 2.66600 43.67600
H  8.69100 2.05100 45.22200
H  7.00400 2.59600 44.85200
Mg 48.83200 35.85700 27.66000
C  46.82800 33.95000 29.92300
C  49.33500 38.12000 30.09900
C  50.13900 37.91700 25.29000
C  47.88800 33.48600 25.22600
N  48.18600 35.98500 29.76800
C  47.45700 35.07900 30.48700
C  47.57000 35.39200 31.97800
C  47.89600 36.95700 31.95600
C  48.53100 37.01500 30.55200
C  46.60200 37.80800 31.97900
C  48.58000 34.53000 32.94200
C  48.69700 34.80700 34.41800
H  47.79700 35.88400 35.07700
N  49.67900 37.79400 27.74400
C  49.83800 38.53000 28.83700
C  50.47800 39.71900 28.45100
C  50.72000 39.74700 27.02300
C  50.14400 38.47700 26.62300
C  50.56000 40.92900 29.53300
C  51.20600 40.84800 26.12600
O  51.35600 40.59300 24.93200
C  51.59200 42.18300 26.75900
N  48.97600 35.80600 25.61600
C  49.63100 36.73200 24.87400
C  49.85300 36.26700 23.37500
C  49.40400 34.78800 23.46800
C  48.76800 34.62400 24.88200
C  49.04400 37.02700 22.30300
C  50.59800 33.72700 23.34400
C  50.63800 33.08100 21.90700
N  47.63700 34.01900 27.59100
C  47.35900 33.23300 26.45900
C  46.41600 32.19100 26.89500
C  46.21000 32.40100 28.28100
C  46.91700 33.60900 28.58400
C  45.82500 31.13000 26.05100
C  45.48600 32.00800 29.44900
O  44.69600 31.09700 29.65900
C  45.88800 32.92900 30.54700
C  46.51900 32.12600 31.64200
O  47.59200 31.51300 31.62400
O  45.68500 32.23800 32.70800
C  46.11600 31.68300 34.00900
H  49.44200 38.77800 30.96500
H  50.62000 38.59400 24.58200
H  47.74900 32.80400 24.38500
H  46.60800 35.19100 32.44800
H  48.51000 37.31400 32.78300
H  46.30500 38.17800 32.96100
H  45.71800 37.40000 31.48900
H  46.73900 38.63400 31.28100
H  49.45500 34.80000 32.35100
H  48.53700 33.44100 32.94200
H  49.70900 35.14900 34.63400
H  48.53900 33.85000 34.91600
H  51.59700 41.20600 29.72100
H  50.01900 40.61800 30.42600
H  49.94200 41.78200 29.25200
H  52.20300 41.89200 27.61400
H  50.77300 42.70500 27.25500
H  52.07200 42.97900 26.19000
H  50.90200 36.35900 23.09400
H  48.60400 34.56400 22.76300
H  48.04400 37.27600 22.65800
H  48.78800 36.54900 21.35800
H  49.48100 37.96500 21.95900
H  50.54500 33.01800 24.17000
H  51.52100 34.28300 23.50900
H  50.66100 31.99700 22.02300
H  51.47700 33.35700 21.26800
H  49.83200 33.50300 21.30700
H  45.03500 31.57500 25.44500
H  45.36600 30.46800 26.78500
H  46.64300 30.62200 25.54000
H  45.03700 33.50900 30.90300
H  45.67500 32.30800 34.78500
H  47.20300 31.74700 34.06300
H  45.77900 30.64600 34.00600

