158

Mg 23.25300 -5.32400 45.50000
C  25.34300 -2.99800 44.01400
C  20.71000 -4.28300 43.69300
C  21.65700 -8.25700 46.14300
C  26.31100 -6.79600 47.06200
N  23.15300 -3.97000 43.97400
C  24.06100 -3.04900 43.60700
C  23.47900 -2.06200 42.62900
C  21.96500 -2.12300 42.96500
C  21.90600 -3.59800 43.53600
C  21.47200 -1.02600 43.97900
C  23.80100 -2.32000 41.09600
C  24.80300 -1.26900 40.48800
H  25.88700 -1.79100 39.49200
N  21.41200 -6.07500 45.05700
C  20.45000 -5.45700 44.32000
C  19.28700 -6.32900 44.16600
C  19.51900 -7.50300 44.95000
C  20.92600 -7.32500 45.42200
C  17.99300 -5.79500 43.36700
C  18.51900 -8.67600 45.27900
O  17.36200 -8.57600 44.78100
C  18.79100 -9.89600 46.12300
N  23.91800 -7.19100 46.52200
C  22.96200 -8.16600 46.69900
C  23.57800 -9.35600 47.53200
C  24.97800 -8.71700 48.00900
C  25.09000 -7.55200 47.21100
C  22.62000 -9.87300 48.62500
C  26.17400 -9.72700 47.87500
C  27.21200 -9.66300 48.96200
N  25.43800 -4.95800 45.63400
C  26.48900 -5.58900 46.23800
C  27.71500 -4.78300 46.10900
C  27.31000 -3.77800 45.18200
C  25.94900 -3.93500 44.97400
C  29.09400 -5.08200 46.69300
C  27.77400 -2.64600 44.33300
O  28.93100 -2.26900 44.11900
C  26.53400 -2.22800 43.56800
C  26.37200 -0.79600 43.92300
O  26.67000 0.13900 43.15200
O  25.77300 -0.66400 45.19200
C  25.70900 0.73700 45.58900
H  19.86300 -3.70100 43.32300
H  21.10700 -9.12000 46.52500
H  27.24800 -7.19800 47.45500
H  23.92200 -1.12500 42.96800
H  21.47200 -1.99700 42.00100
H  22.15900 -0.23800 44.28700
H  21.39100 -1.63500 44.87900
H  20.53700 -0.57000 43.65400
H  22.93100 -2.25400 40.44300
H  24.30200 -3.27300 40.92800
H  25.25200 -0.75700 41.34000
H  24.32000 -0.46600 39.93200
H  17.99200 -5.93900 42.28700
H  17.89300 -4.71900 43.51500
H  17.10200 -6.22400 43.82500
H  19.70600 -10.39400 45.80100
H  17.96500 -10.55100 45.84800
H  18.83100 -9.75200 47.20300
H  23.85600 -10.12100 46.80700
H  24.99200 -8.28000 49.00700
H  21.64500 -9.38600 48.66400
H  23.17700 -9.85000 49.56200
H  22.36400 -10.90400 48.38100
H  26.76800 -9.42600 47.01200
H  25.82700 -10.75900 47.81600
H  26.87500 -9.10600 49.83500
H  28.21700 -9.39200 48.64100
H  27.34400 -10.69400 49.29100
H  29.19700 -6.14300 46.91900
H  29.35200 -4.51300 47.58600
H  29.79100 -4.87100 45.88200
H  26.85600 -2.36100 42.53600
H  24.94600 0.89700 46.35100
H  25.41400 1.37600 44.75700
H  26.72200 0.87800 45.96500
Mg 47.66300 24.78800 28.32500
C  48.69300 27.10600 30.96700
C  46.49900 22.70000 30.78400
C  47.15600 22.65200 25.91600
C  49.19100 27.13100 26.06000
N  47.58600 24.93400 30.54400
C  47.91900 25.96400 31.33000
C  47.41200 25.80200 32.83400
C  46.99800 24.25900 32.80400
C  46.96000 23.90900 31.28700
C  47.98100 23.24100 33.57300
C  46.21100 26.75200 33.33000
C  46.48700 27.62800 34.63400
H  46.76400 26.83900 35.87300
N  46.84200 22.94200 28.31800
C  46.40400 22.26600 29.44500
C  45.89200 21.00200 28.95800
C  46.05600 20.97300 27.54900
C  46.69800 22.19700 27.18000
C  45.39900 19.98800 29.89600
C  45.69300 19.91700 26.52700
O  46.03200 20.04100 25.36700
C  45.01900 18.69800 27.03300
N  48.23800 24.84800 26.35800
C  47.78700 23.85500 25.53200
C  48.18300 24.11600 24.04700
C  48.57800 25.61200 24.10500
C  48.74000 25.90200 25.55300
C  49.40000 23.18100 23.55000
C  47.51400 26.54900 23.37400
C  46.14500 26.45200 23.88300
N  48.85600 26.74200 28.43400
C  49.26700 27.53700 27.38800
C  49.83900 28.76300 27.92700
C  49.66500 28.59300 29.32400
C  49.07900 27.36400 29.56500
C  50.59000 29.86700 27.08600
C  49.87400 29.23800 30.57700
O  50.40800 30.33400 30.77300
C  49.20200 28.32000 31.65300
C  50.08500 28.16100 32.85300
O  51.04100 27.41300 32.88800
O  49.68700 28.99600 33.81500
C  50.31000 28.98800 35.11600
H  46.13400 22.02200 31.55900
H  46.98500 22.02500 25.03700
H  49.53400 27.83900 25.30300
H  48.29500 25.97700 33.45000
H  45.97700 24.06700 33.13400
H  48.95000 23.15900 33.08200
H  47.51400 22.28000 33.79200
H  48.18200 23.65100 34.56300
H  45.34100 26.12700 33.53400
H  45.66900 27.39500 32.63700
H  45.60700 28.23000 34.85900
H  47.37100 28.25100 34.50000
H  46.25900 19.41200 30.23900
H  44.57600 19.34300 29.59000
H  44.96600 20.61700 30.67400
H  45.47900 18.28300 27.93000
H  45.17700 17.89700 26.31000
H  43.96800 18.95900 27.15900
H  47.30100 23.89900 23.44500
H  49.58500 25.70200 23.69700
H  50.34700 23.71500 23.62500
H  49.16400 22.92900 22.51700
H  49.51000 22.30300 24.18800
H  47.50900 26.19500 22.34300
H  47.96800 27.53600 23.46300
H  45.85300 27.35000 24.42800
H  46.00200 25.57500 24.51500
H  45.46100 26.21600 23.06800
H  51.24500 29.38700 26.35900
H  51.37300 30.36700 27.65600
H  49.92800 30.60600 26.63400
H  48.33300 28.88700 31.98800
H  50.42200 30.05100 35.32900
H  51.28100 28.49300 35.11800
H  49.64600 28.63100 35.90400

