158

Mg 17.27500 -3.12000 27.75500
C  16.55300 -1.02100 30.60700
C  19.22700 -5.01600 29.75900
C  18.46000 -4.50600 24.96800
C  15.39200 -0.82100 25.68200
N  17.88700 -2.89000 29.88400
C  17.38900 -2.10800 30.87600
C  17.81400 -2.57600 32.25000
C  18.92800 -3.64000 31.89100
C  18.66300 -3.89800 30.42400
C  20.44700 -3.37200 32.26900
C  16.69000 -3.11500 33.22900
C  16.62600 -2.51700 34.63400
H  17.91700 -1.96800 35.31300
N  18.52100 -4.64500 27.41600
C  19.19500 -5.34500 28.37800
C  19.88600 -6.49600 27.77400
C  19.61100 -6.30200 26.35800
C  18.75200 -5.13100 26.19800
C  20.62500 -7.49400 28.56100
C  20.02000 -7.17200 25.19700
O  19.73800 -6.99400 24.03500
C  20.77100 -8.44300 25.56900
N  16.82700 -2.83500 25.63500
C  17.56300 -3.49400 24.70100
C  17.47300 -2.81100 23.32700
C  16.23500 -1.84900 23.59800
C  16.12300 -1.79100 25.07600
C  18.67000 -2.08100 22.77800
C  14.90400 -2.38800 22.96300
C  13.91300 -1.31900 22.46600
N  16.22300 -1.32600 28.02800
C  15.40700 -0.56700 27.12400
C  14.77300 0.47500 27.85100
C  15.21000 0.31200 29.15800
C  16.10900 -0.76500 29.26100
C  13.78500 1.38600 27.23900
C  15.13600 0.87800 30.42300
O  14.47300 1.82400 30.74600
C  15.94700 0.03100 31.47900
C  16.85800 0.95100 32.27100
O  18.07800 1.08500 32.23700
O  15.98500 1.57400 33.13100
C  16.60800 2.54400 34.02500
H  19.66800 -5.78300 30.39900
H  18.97800 -4.78300 24.04700
H  14.88400 -0.16200 24.97500
H  18.38100 -1.72200 32.62200
H  18.75000 -4.63000 32.31100
H  20.93500 -4.29900 32.57200
H  20.69200 -2.70300 33.09400
H  21.10100 -3.17600 31.41900
H  16.76000 -4.20000 33.30900
H  15.75200 -2.90300 32.71500
H  16.29900 -3.26800 35.35300
H  15.87500 -1.74200 34.48000
H  21.51400 -7.85500 28.04400
H  19.84400 -8.21700 28.79600
H  21.02400 -7.05000 29.47400
H  20.40900 -9.05000 26.40000
H  21.80800 -8.14900 25.73500
H  20.72300 -9.09600 24.69800
H  17.28100 -3.46600 22.47800
H  16.48800 -0.89500 23.13500
H  18.65200 -1.02600 23.05200
H  18.74100 -2.08500 21.69100
H  19.52700 -2.62200 23.18000
H  14.32800 -2.95400 23.69500
H  15.13800 -3.01300 22.10100
H  13.50200 -1.51300 21.47500
H  14.28600 -0.29500 22.46200
H  13.14500 -1.29500 23.23900
H  12.94500 0.77600 26.90600
H  14.17100 1.83900 26.32500
H  13.54900 2.23100 27.88600
H  15.22500 -0.45800 32.13300
H  16.95300 3.40000 33.44500
H  17.51300 2.16000 34.49700
H  15.93400 2.72600 34.86300
Mg 46.87700 15.05600 27.74900
C  44.90000 15.08500 30.72000
C  48.91800 17.41800 29.24300
C  48.47200 15.18300 25.01200
C  44.24700 13.16700 26.25600
N  46.82000 16.07600 29.74700
C  45.98100 15.94300 30.78300
C  46.52300 16.62900 32.00300
C  47.55200 17.69200 31.37400
C  47.79700 16.99700 30.01200
C  47.20200 19.16400 31.22300
C  47.28000 15.56400 32.93200
C  46.96900 15.63600 34.40000
H  48.17700 15.47800 35.40300
N  48.57900 16.04800 27.22400
C  49.28900 16.94100 27.95600
C  50.42200 17.42200 27.19500
C  50.37000 16.75500 25.92100
C  49.12800 15.97100 26.01200
C  51.41400 18.43500 27.72500
C  51.30600 16.80600 24.69700
O  51.11600 16.19200 23.62900
C  52.56900 17.68200 24.83400
N  46.26700 14.37700 25.78800
C  47.25500 14.50800 24.84600
C  46.93800 13.61100 23.62400
C  45.53800 12.96000 24.02900
C  45.31000 13.51500 25.41600
C  46.83100 14.48800 22.35800
C  45.45500 11.32700 23.96600
C  46.68400 10.57500 24.62500
N  45.02600 14.22100 28.26300
C  44.05800 13.57900 27.52400
C  42.93400 13.26800 28.38100
C  43.23700 13.85200 29.61600
C  44.49800 14.43600 29.52900
C  41.63600 12.76000 27.95200
C  42.61300 14.10100 30.96500
O  41.50300 13.89500 31.46600
C  43.82300 14.84000 31.71500
C  43.27400 16.16700 32.19600
O  43.02200 17.10300 31.50100
O  43.12500 16.13000 33.58500
C  42.67600 17.30200 34.36200
H  49.59600 18.14100 29.70300
H  49.14900 15.18900 24.15600
H  43.41500 12.64200 25.78400
H  45.70900 17.03500 32.60300
H  48.44500 17.74000 31.99700
H  46.99100 19.39700 30.17900
H  48.04400 19.76100 31.57200
H  46.27200 19.30400 31.77300
H  48.35000 15.63500 32.73400
H  46.95500 14.57000 32.62400
H  46.26000 14.86800 34.70900
H  46.48500 16.59500 34.58500
H  51.70500 19.12600 26.93400
H  52.28500 17.90100 28.10600
H  51.03000 19.01800 28.56300
H  53.12600 17.62700 23.89900
H  53.18200 17.29800 25.64900
H  52.26800 18.72900 24.85900
H  47.67500 12.80800 23.63400
H  44.79000 13.26800 23.29700
H  46.50900 15.51400 22.53600
H  46.04700 14.10400 21.70500
H  47.84100 14.55500 21.95300
H  45.49500 11.02700 22.91900
H  44.59200 10.89500 24.47200
H  47.27300 10.15200 23.81200
H  46.24700 9.77700 25.22600
H  47.23900 11.22400 25.30300
H  41.22300 13.19600 27.04300
H  40.98600 13.04300 28.78000
H  41.80600 11.69100 27.82500
H  44.16600 14.35700 32.63000
H  42.30700 18.17100 33.81800
H  43.47600 17.69100 34.99200
H  41.85900 17.01300 35.02300

