158

Mg 24.64500 -4.99500 45.86000
C  26.63000 -2.72500 44.21200
C  21.97300 -4.02400 43.96400
C  22.88500 -7.86700 46.75200
C  27.28900 -6.09100 47.72100
N  24.36800 -3.55400 44.16000
C  25.33700 -2.67800 43.71900
C  24.71500 -1.76000 42.60400
C  23.16300 -1.93100 42.81000
C  23.16500 -3.22300 43.68900
C  22.41800 -0.65700 43.40700
C  25.12400 -2.06400 41.13700
C  25.48000 -0.88000 40.20700
H  26.46000 -1.11100 39.07700
N  22.71200 -5.82500 45.41100
C  21.70500 -5.22900 44.64600
C  20.48200 -6.05500 44.70300
C  20.74100 -7.22800 45.50500
C  22.16900 -7.01700 45.93700
C  19.21900 -5.60700 44.01800
C  19.70300 -8.16700 45.91700
O  18.57600 -8.03100 45.50100
C  19.97800 -9.26300 46.74300
N  24.99700 -6.79000 47.06700
C  24.17700 -7.80100 47.30800
C  24.82400 -8.82900 48.32500
C  26.09600 -8.07500 48.74000
C  26.15600 -6.88400 47.80400
C  23.92100 -9.26300 49.58000
C  27.35800 -9.05000 48.56700
C  28.44700 -8.97500 49.68400
N  26.57700 -4.51300 46.00500
C  27.55400 -5.07400 46.78100
C  28.76300 -4.37600 46.52500
C  28.49300 -3.45500 45.54100
C  27.11600 -3.57100 45.24100
C  30.05900 -4.81100 47.13800
C  29.04700 -2.42900 44.69700
O  30.20400 -2.05700 44.47300
C  27.83200 -1.94200 43.86600
C  27.64700 -0.52700 44.12600
O  26.74300 -0.03100 44.82100
O  28.40700 0.29000 43.32700
C  28.30200 1.79600 43.38200
H  21.09500 -3.68900 43.40800
H  22.56100 -8.88300 46.98500
H  28.15700 -6.30400 48.34900
H  24.97900 -0.72600 42.82500
H  22.47800 -2.23700 42.01900
H  21.69900 -0.34200 42.65100
H  23.07400 0.20900 43.49600
H  21.89600 -0.75800 44.35800
H  24.38100 -2.69600 40.65100
H  26.04900 -2.63800 41.07100
H  25.74900 -0.09600 40.91500
H  24.59900 -0.48300 39.70100
H  19.04300 -6.09300 43.05800
H  19.04000 -4.53200 44.00500
H  18.32100 -5.96500 44.52300
H  19.11000 -9.58200 47.32100
H  20.71100 -8.94100 47.48200
H  20.43300 -10.07700 46.18000
H  25.02800 -9.76400 47.80400
H  26.10500 -7.79100 49.79300
H  24.46800 -9.17500 50.51900
H  23.41000 -10.21200 49.41600
H  23.13400 -8.51500 49.66600
H  27.77400 -8.79800 47.59100
H  27.06200 -10.09600 48.49200
H  29.43300 -9.19700 49.27700
H  28.25300 -9.52600 50.60400
H  28.56600 -7.95500 50.05100
H  30.87200 -4.18500 46.77100
H  30.22100 -5.84800 46.84500
H  30.10000 -4.70100 48.22200
H  28.17400 -2.05300 42.83700
H  29.34600 2.09300 43.27700
H  27.78100 2.23300 44.23400
H  27.81000 2.15300 42.47800
Mg 49.67200 45.49800 42.88400
C  46.15800 45.88500 41.89200
C  49.54100 42.43400 41.50900
C  52.94300 45.37900 43.19300
C  49.70800 48.98500 43.12800
N  47.99000 44.36200 41.72300
C  46.65900 44.61700 41.53300
C  45.91800 43.47200 40.90200
C  46.97900 42.30800 41.05400
C  48.28700 43.08500 41.45800
C  46.61100 41.29500 42.15600
C  45.67700 43.77900 39.38800
C  44.59800 42.97000 38.72100
H  44.69900 42.76300 37.21600
N  51.05700 44.03000 42.48600
C  50.81000 42.80100 41.94900
C  51.99600 41.95200 42.02900
C  53.03100 42.73400 42.56100
C  52.38900 44.11800 42.78500
C  52.12200 40.52600 41.47300
C  54.37800 42.23500 42.86600
O  54.68300 41.07900 42.54500
C  55.37800 43.10400 43.49000
N  51.16200 46.99000 43.12100
C  52.44700 46.69600 43.26900
C  53.29400 47.98500 43.62800
C  52.23100 49.18300 43.41300
C  50.91900 48.37800 43.25200
C  53.90400 48.05500 45.09500
C  52.40900 50.28200 42.31900
C  52.44800 51.75400 42.74700
N  48.23500 47.12100 42.81200
C  48.46900 48.44600 42.93600
C  47.22000 49.20200 42.90900
C  46.28800 48.17500 42.58500
C  46.97500 47.00000 42.36100
C  46.97700 50.70300 43.11800
C  44.86700 47.92000 42.42100
O  43.88500 48.62100 42.64500
C  44.71500 46.39600 41.88600
C  43.78800 45.56700 42.58700
O  42.73100 45.08900 42.16100
O  44.30700 45.30200 43.87600
C  43.56300 44.33300 44.64000
H  49.53700 41.41100 41.12700
H  54.01400 45.33700 43.40200
H  49.71900 50.04700 43.38100
H  44.94900 43.38400 41.39400
H  47.24100 41.81400 40.11900
H  47.26600 41.18700 43.02000
H  46.55700 40.30200 41.70900
H  45.66700 41.67700 42.54600
H  46.57300 43.65500 38.78000
H  45.38300 44.82200 39.27400
H  43.66400 43.51900 38.83900
H  44.44800 41.99100 39.17700
H  52.86200 40.41500 40.68100
H  51.18900 40.26100 40.97500
H  52.29900 39.79100 42.25900
H  54.93500 43.72000 44.27300
H  55.90800 43.67200 42.72500
H  56.03900 42.39200 43.98300
H  54.09700 47.95000 42.89200
H  52.01200 49.59300 44.39900
H  54.94700 47.74400 45.04100
H  53.31700 47.31900 45.64400
H  53.85500 49.01300 45.61400
H  51.68100 50.17200 41.51500
H  53.34900 49.94100 41.88500
H  52.00000 52.30100 41.91700
H  53.49600 52.00400 42.91300
H  51.98800 51.87700 43.72800
H  47.47700 51.00200 44.03900
H  45.89400 50.82300 43.16400
H  47.36600 51.16600 42.21200
H  44.23200 46.49600 40.91400
H  43.88700 44.40800 45.67700
H  43.51700 43.28600 44.33900
H  42.52400 44.66300 44.66000

