158

Mg 27.17500 50.10300 26.52900
C  25.11200 51.12800 29.19400
C  29.37600 49.10300 28.74500
C  29.23400 49.61700 23.93900
C  24.91400 51.69800 24.32500
N  27.25800 50.36600 28.72400
C  26.24000 50.59000 29.58800
C  26.65100 50.13000 30.98900
C  28.10000 49.65900 30.83400
C  28.20600 49.63500 29.32800
C  29.19100 50.63500 31.49300
C  25.73600 49.01000 31.53000
C  25.35500 49.08200 33.06800
H  26.30200 49.52800 34.15100
N  29.07800 49.41100 26.32400
C  29.81800 48.96000 27.36700
C  31.02800 48.29000 26.84700
C  30.99800 48.45900 25.46200
C  29.70400 49.17400 25.17600
C  32.03700 47.70200 27.76600
C  32.07900 48.14800 24.39000
O  31.94600 48.48400 23.21400
C  33.36800 47.55600 24.95600
N  27.10400 50.59800 24.47800
C  28.04700 50.37700 23.61400
C  27.62800 50.55800 22.14500
C  26.07000 50.85300 22.29500
C  25.98000 51.01000 23.83100
C  28.48900 51.71100 21.54700
C  25.15600 49.76300 21.72400
C  23.89700 50.27400 21.03100
N  25.48900 51.31400 26.70600
C  24.63200 51.83000 25.72300
C  23.45800 52.44900 26.29500
C  23.60400 52.14300 27.62800
C  24.80100 51.48200 27.84300
C  22.42300 53.19600 25.55900
C  22.94800 52.11200 28.96600
O  21.86600 52.52300 29.23100
C  23.95800 51.50900 30.03900
C  24.25900 52.56900 31.05500
O  24.97400 53.56800 30.88600
O  23.59500 52.25900 32.18400
C  24.13000 53.01800 33.29500
H  30.11100 48.70300 29.44600
H  29.80600 49.38300 23.03800
H  24.20700 52.14400 23.62200
H  26.60800 50.93600 31.72000
H  28.22300 48.61500 31.11900
H  28.65800 51.47100 31.94500
H  29.81300 50.91700 30.64400
H  29.79700 50.25800 32.31700
H  26.24000 48.04800 31.43400
H  24.73800 49.01100 31.09100
H  24.90100 48.10300 33.22500
H  24.58900 49.85700 33.05200
H  32.31500 46.68500 27.49200
H  31.75000 47.68500 28.81700
H  32.89300 48.37600 27.73600
H  34.09500 47.54600 24.14400
H  33.23400 46.51900 25.26300
H  33.81400 48.07300 25.80500
H  27.79400 49.64500 21.57300
H  25.76000 51.82800 21.91800
H  29.44800 51.87600 22.03800
H  27.92000 52.62800 21.70000
H  28.68000 51.51500 20.49200
H  24.77100 49.08500 22.48600
H  25.66000 49.14000 20.98500
H  23.92100 51.36400 21.00100
H  23.04400 49.88600 21.58700
H  23.76500 49.95700 19.99700
H  21.59200 52.59800 25.18400
H  22.87600 53.78300 24.76100
H  22.03900 53.85500 26.33800
H  23.37600 50.72000 30.51400
H  25.11600 52.61600 33.52500
H  23.49400 52.80000 34.15300
H  24.21700 54.10300 33.35100
Mg -5.90300 24.87800 26.16800
C  -4.37300 26.14700 28.94600
C  -7.92600 22.89900 28.17400
C  -6.87400 23.04300 23.40000
C  -3.54600 26.48000 24.23300
N  -5.99300 24.41700 28.25400
C  -5.34900 25.14300 29.25500
C  -5.90300 24.75500 30.66400
C  -6.78100 23.49100 30.42400
C  -6.97500 23.61100 28.88800
C  -6.16800 22.14800 30.92600
C  -6.67500 25.95500 31.24700
C  -6.35400 26.28600 32.71800
H  -5.79400 25.26100 33.75300
N  -7.32000 23.29700 25.80900
C  -8.17700 22.73800 26.77600
C  -9.16900 21.95900 26.12500
C  -8.83100 21.94900 24.73700
C  -7.63100 22.80400 24.59400
C  -10.22600 21.24300 26.90900
C  -9.49500 21.23700 23.57000
O  -8.97600 21.08900 22.49500
C  -10.84400 20.66600 23.79200
N  -5.42400 24.77800 24.02100
C  -5.83000 23.90800 23.06200
C  -5.08500 24.06400 21.74300
C  -4.26500 25.40300 22.02900
C  -4.50600 25.65600 23.46600
C  -4.24200 22.78000 21.42100
C  -4.52900 26.73000 21.27400
C  -4.23600 26.58700 19.78900
N  -4.36300 26.20600 26.43100
C  -3.45500 26.80100 25.59600
C  -2.49100 27.66700 26.30700
C  -2.95000 27.53000 27.65400
C  -3.99400 26.52600 27.69200
C  -1.32200 28.46400 25.69700
C  -2.62400 27.87100 29.00900
O  -1.84900 28.66900 29.51400
C  -3.61600 27.01400 29.87700
C  -2.68500 26.25700 30.72000
O  -1.73200 25.62400 30.34200
O  -2.97100 26.39900 32.09100
C  -1.87000 26.01000 33.01100
H  -8.43500 22.25200 28.89100
H  -7.03100 22.46200 22.48800
H  -2.85800 26.95200 23.52900
H  -5.01800 24.47700 31.23600
H  -7.77700 23.56600 30.86000
H  -5.77800 21.58600 30.07800
H  -6.95600 21.55600 31.39200
H  -5.40900 22.38100 31.67200
H  -7.74100 25.73400 31.17800
H  -6.43300 26.82400 30.63500
H  -7.22200 26.78000 33.15400
H  -5.53300 26.99500 32.61500
H  -10.34700 21.80100 27.83700
H  -9.94000 20.20200 27.05900
H  -11.22100 21.30400 26.46700
H  -11.23600 20.32000 22.83500
H  -11.47400 21.51300 24.06200
H  -10.87400 19.85700 24.52200
H  -5.88200 24.24300 21.02200
H  -3.21800 25.16000 21.84800
H  -3.26100 23.01000 21.00500
H  -4.76700 22.11800 20.73300
H  -4.08200 22.14900 22.29500
H  -3.86400 27.51000 21.64300
H  -5.54400 27.03900 21.52500
H  -3.29000 26.99500 19.43100
H  -5.03100 27.09600 19.24400
H  -4.30300 25.53600 19.50400
H  -1.74900 29.43400 25.43900
H  -0.81900 28.05200 24.82200
H  -0.52300 28.66400 26.41100
H  -4.12000 27.82200 30.40600
H  -1.44400 25.04600 32.73500
H  -2.24800 26.08100 34.03100
H  -1.13400 26.80900 32.92000

