158

Mg 7.94300 3.31200 27.49000
C  9.25900 1.84900 30.42700
C  6.00100 5.45200 29.44500
C  6.71600 4.71500 24.67500
C  9.50700 0.76700 25.51900
N  7.62700 3.48700 29.68500
C  8.46700 2.94200 30.66200
C  8.30300 3.75000 31.99700
C  7.09500 4.68000 31.68700
C  6.89300 4.55500 30.16200
C  5.81100 4.31900 32.36900
C  9.58200 4.42400 32.61000
C  9.47100 5.03100 34.04500
H  10.30000 4.53300 35.16900
N  6.49400 4.72800 27.12000
C  5.85000 5.51900 28.00600
C  4.94500 6.45900 27.26600
C  5.21400 6.35400 25.88300
C  6.26000 5.28100 25.84900
C  3.96500 7.37600 28.02100
C  4.75500 7.20100 24.69100
O  5.07400 7.01400 23.54000
C  3.99800 8.49900 24.95900
N  8.04800 2.85400 25.38200
C  7.47800 3.56400 24.41800
C  7.57300 3.04300 22.95300
C  8.54000 1.80400 23.31900
C  8.77300 1.79500 24.83700
C  6.12900 2.75700 22.38100
C  9.81300 1.73000 22.43500
C  10.10800 0.52500 21.50600
N  9.14700 1.68200 27.81500
C  9.60000 0.71100 26.90300
C  10.34900 -0.29400 27.70200
C  10.23300 0.10800 29.02300
C  9.47700 1.33300 29.09400
C  11.04200 -1.44300 27.14600
C  10.65300 -0.22900 30.41500
O  11.30700 -1.15300 30.90600
C  10.07700 0.96600 31.32400
C  9.15700 0.27600 32.28400
O  8.00600 0.02400 32.12800
O  9.77500 0.09300 33.42000
C  8.98200 -0.09500 34.66900
H  5.58000 6.25400 30.05500
H  6.41300 5.23100 23.76200
H  9.83300 -0.05900 24.88300
H  8.08600 3.03000 32.78500
H  7.42900 5.69500 31.90600
H  5.11900 5.14200 32.55100
H  6.06000 3.94300 33.36200
H  5.36200 3.49100 31.82000
H  10.03800 5.11800 31.90400
H  10.35400 3.65900 32.68800
H  8.44300 4.99500 34.40800
H  9.81200 6.04800 33.85100
H  3.54700 6.68100 28.74900
H  3.13800 7.77300 27.43200
H  4.45800 8.21200 28.51700
H  4.54700 9.18000 25.60800
H  3.07100 8.09600 25.36800
H  3.79600 8.96100 23.99300
H  8.02500 3.80400 22.31600
H  7.90300 0.97600 23.00800
H  5.30400 3.06200 23.02400
H  6.09300 1.70800 22.08800
H  5.90700 3.31200 21.46900
H  10.55800 1.64600 23.22700
H  10.00100 2.52300 21.71200
H  10.75400 0.69600 20.64500
H  9.18000 0.02600 21.22700
H  10.62900 -0.22300 22.10300
H  11.87300 -1.10000 26.53000
H  10.40600 -2.04800 26.50000
H  11.47200 -2.08700 27.91300
H  10.94000 1.45000 31.78200
H  9.67100 0.05300 35.50100
H  8.54300 -1.09200 34.63100
H  8.17200 0.63400 34.65000
Mg -12.68500 15.94800 42.45400
C  -9.71200 14.08200 42.34500
C  -11.04600 18.36400 40.53100
C  -15.57900 17.50000 42.15000
C  -14.27200 13.01400 43.60000
N  -10.64800 16.19400 41.53000
C  -9.60100 15.26200 41.67700
C  -8.31700 15.78200 40.91700
C  -8.74000 17.26800 40.59200
C  -10.26100 17.31700 40.88100
C  -7.96600 18.38900 41.34500
C  -7.87200 14.93900 39.72800
C  -6.39800 15.29500 39.35100
H  -6.08300 15.76100 37.91400
N  -13.21500 17.77800 41.62000
C  -12.38900 18.60700 40.90400
C  -13.12700 19.75600 40.37600
C  -14.44300 19.56400 40.95900
C  -14.48900 18.24600 41.63200
C  -12.46800 20.99500 39.59400
C  -15.58500 20.54100 40.79500
O  -15.40500 21.61200 40.19800
C  -16.87100 20.29100 41.39600
N  -14.74000 15.27400 42.64300
C  -15.71400 16.15600 42.60400
C  -17.06800 15.57800 42.93300
C  -16.64600 14.13600 43.57000
C  -15.11700 14.10400 43.25000
C  -17.93800 16.47100 43.93400
C  -17.55400 13.00700 42.92400
C  -18.96800 12.95100 43.49500
N  -12.16300 14.02900 42.89800
C  -12.85000 12.94600 43.41800
C  -11.99600 11.82100 43.71600
C  -10.72100 12.25100 43.36000
C  -10.88000 13.56800 42.83600
C  -12.24700 10.47000 44.08200
C  -9.32200 11.83500 43.31200
O  -8.83600 10.78300 43.65700
C  -8.65800 13.02700 42.60200
C  -7.48200 13.54300 43.39500
O  -7.35600 13.93600 44.53700
O  -6.43700 13.48100 42.52800
C  -5.22600 14.19600 42.97000
H  -10.40500 19.14700 40.12000
H  -16.53500 18.01400 42.03300
H  -14.71900 12.08800 43.96900
H  -7.55400 15.81900 41.69500
H  -8.63400 17.51400 39.53600
H  -8.54400 18.50400 42.26200
H  -8.05100 19.29700 40.74800
H  -6.98400 18.06600 41.69000
H  -8.54100 15.06800 38.87700
H  -7.90000 13.86600 39.91800
H  -5.73900 14.48600 39.66700
H  -6.10500 16.19600 39.89000
H  -11.67100 21.31300 40.26700
H  -13.15700 21.82100 39.41800
H  -11.99700 20.59900 38.69400
H  -16.95700 20.21500 42.48000
H  -17.43300 19.49700 40.90400
H  -17.40100 21.21200 41.15600
H  -17.69400 15.45600 42.04900
H  -16.73800 14.22700 44.65300
H  -18.94700 16.61100 43.54500
H  -17.41800 17.40600 44.14000
H  -18.16700 15.88300 44.82300
H  -17.03400 12.05000 42.88000
H  -17.69100 13.25500 41.87100
H  -19.07400 13.62500 44.34500
H  -19.23900 11.90100 43.59900
H  -19.68800 13.16700 42.70600
H  -11.30700 10.11700 44.50500
H  -12.56000 9.76800 43.30900
H  -12.94600 10.38500 44.91400
H  -8.27000 12.67800 41.64500
H  -4.39000 13.91900 42.32700
H  -5.11800 13.91600 44.01800
H  -5.42100 15.25300 42.78700

