158

Mg 16.84800 51.96400 25.53300
C  18.72300 50.72100 28.29300
C  14.48600 52.98400 27.83800
C  15.41800 53.60700 23.09600
C  19.51300 50.91500 23.51800
N  16.66200 51.74600 27.84800
C  17.58100 51.35100 28.74400
C  17.15600 51.67300 30.18500
C  15.70900 52.22200 30.10700
C  15.56100 52.29100 28.48700
C  14.60100 51.22500 30.54500
C  18.15400 52.67500 30.84700
C  18.28300 52.51200 32.42100
H  17.16300 53.30200 33.18500
N  15.24300 53.16000 25.43600
C  14.36500 53.48300 26.48800
C  13.36700 54.35700 26.00700
C  13.66800 54.58600 24.65200
C  14.82300 53.74500 24.31200
C  12.25900 54.81900 26.99900
C  13.06000 55.52400 23.67700
O  13.44400 55.71700 22.52100
C  11.91500 56.42100 24.15600
N  17.36000 52.10600 23.58300
C  16.61500 52.90900 22.70400
C  17.14000 52.83000 21.22400
C  18.43300 51.97700 21.44100
C  18.50400 51.73300 22.96600
C  16.09900 52.31400 20.12500
C  19.70300 52.70600 20.89100
C  20.43900 52.10500 19.68800
N  18.64500 50.72400 25.72400
C  19.65700 50.37600 24.81200
C  20.69500 49.63600 25.45000
C  20.41300 49.86100 26.84000
C  19.13800 50.50500 26.92300
C  21.87000 49.06800 24.81100
C  20.88800 49.50600 28.16600
O  21.91600 48.96800 28.60000
C  19.85600 50.10800 29.11500
C  19.23200 49.03400 29.90100
O  18.45900 48.18100 29.53200
O  19.39000 49.32200 31.28900
C  18.62300 48.42500 32.19200
H  13.75200 53.32500 28.57100
H  15.05600 53.99700 22.14200
H  20.35600 50.78600 22.83600
H  17.21000 50.69000 30.65300
H  15.59900 53.24600 30.46400
H  14.08000 50.80200 29.68600
H  13.89400 51.60900 31.28000
H  15.06700 50.43200 31.12900
H  17.62900 53.60000 30.60800
H  19.10500 52.69700 30.31400
H  19.24100 52.97200 32.66700
H  18.10900 51.50000 32.78600
H  12.12500 54.10100 27.80800
H  11.26600 55.09300 26.64200
H  12.57600 55.67300 27.59700
H  12.30700 57.20000 24.81100
H  11.20100 55.79100 24.68600
H  11.32600 56.87500 23.35900
H  17.30500 53.82800 20.81600
H  18.32200 51.04600 20.88600
H  15.24800 51.85500 20.62800
H  16.50900 51.51000 19.51400
H  15.83200 53.23200 19.60000
H  20.40100 52.71000 21.72900
H  19.57900 53.76800 20.68100
H  19.89300 51.35800 19.11200
H  21.36400 51.61700 19.99500
H  20.76000 52.97800 19.11900
H  21.93200 49.42300 23.78200
H  21.82400 47.98500 24.69300
H  22.78300 49.27800 25.36700
H  20.24500 50.76200 29.89600
H  17.73700 48.08300 31.65900
H  18.31000 48.90400 33.12000
H  19.19300 47.56300 32.53900
Mg -11.84900 39.08200 42.15900
C  -9.66200 36.39900 41.54300
C  -9.53100 41.24900 40.90600
C  -14.14600 41.59500 42.43000
C  -14.37800 36.79100 43.12100
N  -9.84700 38.72200 41.07000
C  -9.13000 37.59000 41.04300
C  -7.91600 37.80500 40.17700
C  -7.85000 39.42500 40.23600
C  -9.19100 39.85100 40.78000
C  -6.63900 40.15000 40.92700
C  -7.96800 37.14700 38.72500
C  -6.99000 35.93600 38.54400
H  -6.04600 36.00300 37.41500
N  -11.83200 41.16400 41.81000
C  -10.80800 41.83000 41.23900
C  -11.18500 43.25800 41.19000
C  -12.48800 43.48900 41.71500
C  -12.89600 42.00700 41.91200
C  -10.10000 44.20500 40.56300
C  -13.13000 44.77500 41.96900
O  -12.52200 45.80400 41.69600
C  -14.39900 44.86500 42.71500
N  -13.96700 39.14200 42.79200
C  -14.62800 40.34000 42.77900
C  -16.16000 40.11200 43.10400
C  -16.25500 38.60900 43.19000
C  -14.77900 38.05700 42.99400
C  -16.69100 40.86700 44.41700
C  -17.35600 38.05700 42.15400
C  -17.03400 37.92200 40.64100
N  -12.07600 36.99200 42.21600
C  -13.10900 36.23000 42.71800
C  -12.72300 34.83500 42.76600
C  -11.38500 34.84500 42.29800
C  -11.01700 36.19500 42.02100
C  -13.65900 33.69700 43.16000
C  -10.28200 33.99000 41.88300
O  -10.17700 32.82800 42.05400
C  -9.16100 35.01700 41.34500
C  -7.90700 34.57400 41.98500
O  -7.48500 34.97600 43.06200
O  -7.25100 33.65200 41.17900
C  -5.89200 33.19000 41.62100
H  -8.81300 41.98900 40.54600
H  -14.92100 42.36100 42.36900
H  -15.25200 36.19600 43.39300
H  -6.99800 37.54100 40.70300
H  -7.81900 39.72000 39.18700
H  -6.98300 40.92400 41.61300
H  -6.01000 40.54400 40.12900
H  -6.12300 39.51800 41.64900
H  -7.71700 37.83100 37.91400
H  -8.95200 36.73700 38.50000
H  -7.66900 35.10400 38.35700
H  -6.59700 35.65600 39.52200
H  -9.16000 44.14500 41.11200
H  -10.48700 45.19900 40.33800
H  -9.99400 43.81300 39.55100
H  -15.15800 44.48300 42.03200
H  -14.58900 45.93400 42.81100
H  -14.17600 44.37800 43.66500
H  -16.76700 40.55300 42.31300
H  -16.49900 38.35500 44.22200
H  -17.69700 41.20600 44.17000
H  -16.00900 41.63200 44.78700
H  -16.85100 40.19900 45.26400
H  -18.09700 38.85600 42.13100
H  -17.83200 37.18100 42.59500
H  -17.33300 38.85500 40.16300
H  -17.63000 37.13700 40.17500
H  -15.95300 37.80500 40.56700
H  -14.52800 33.86400 42.52500
H  -13.93200 33.70600 44.21500
H  -13.23800 32.72400 42.90800
H  -9.08000 34.72400 40.29800
H  -5.36700 33.94700 42.20300
H  -5.34200 32.90700 40.72300
H  -5.74700 32.28400 42.20900

