158

Mg -0.96800 17.80700 27.37000
C  -1.85900 15.56600 29.85100
C  -1.84000 20.37000 29.37900
C  -0.85500 19.67800 24.60900
C  -0.62900 14.90900 25.15200
N  -1.72800 17.92200 29.44600
C  -1.79400 16.88100 30.32700
C  -2.22000 17.41100 31.75700
C  -2.14000 19.00800 31.53500
C  -1.87700 19.16500 30.00600
C  -3.44400 19.72900 32.02000
C  -1.63200 16.96000 33.07900
C  -2.56200 16.85600 34.31500
H  -1.96100 16.29200 35.58300
N  -1.23000 19.75800 27.00200
C  -1.45900 20.67100 28.00000
C  -1.40700 21.98800 27.45600
C  -1.31500 21.81500 25.99400
C  -1.13300 20.33700 25.79800
C  -1.37700 23.23100 28.31000
C  -1.17200 22.85400 24.84700
O  -1.01500 22.58200 23.65500
C  -1.08000 24.30000 25.29700
N  -0.80000 17.27900 25.18400
C  -0.67000 18.28500 24.26200
C  -0.64000 17.76200 22.84000
C  -0.21300 16.30800 23.05700
C  -0.57500 16.15500 24.54400
C  -1.92300 18.05400 21.99000
C  1.27500 15.97900 22.72200
C  2.42600 16.24600 23.71300
N  -1.15900 15.73700 27.39300
C  -0.97100 14.69200 26.46000
C  -1.25000 13.46100 27.09700
C  -1.66700 13.71300 28.38500
C  -1.55100 15.14300 28.54600
C  -1.27900 12.13100 26.44700
C  -2.06400 13.14100 29.66500
O  -2.05400 11.95700 30.04800
C  -2.30000 14.36100 30.63200
C  -1.44000 14.01600 31.91200
O  -0.21700 14.18200 32.05200
O  -2.26500 13.37400 32.87200
C  -1.45200 12.79600 33.96400
H  -1.84400 21.14500 30.14800
H  -0.88200 20.27500 23.69500
H  -0.30300 14.12700 24.46300
H  -3.23800 17.02200 31.80100
H  -1.29300 19.46300 32.04700
H  -3.15800 20.59800 32.61400
H  -4.08400 19.09600 32.63500
H  -4.11200 20.08500 31.23600
H  -0.95300 17.77600 33.32400
H  -1.01100 16.06400 33.10900
H  -3.21000 16.03000 34.02200
H  -3.12300 17.78100 34.44900
H  -0.54100 23.90700 28.13200
H  -1.37300 23.10700 29.39300
H  -2.32200 23.74800 28.14800
H  -1.00300 24.96700 24.43900
H  -0.11500 24.57500 25.72300
H  -1.91000 24.68600 25.88900
H  0.21700 18.19400 22.32400
H  -0.76500 15.57900 22.46400
H  -2.32100 17.07400 21.72800
H  -1.68600 18.64800 21.10700
H  -2.70200 18.59100 22.53200
H  1.61900 16.60100 21.89600
H  1.42800 14.93100 22.46300
H  2.06400 16.71600 24.62700
H  3.24600 16.87700 23.37000
H  2.93300 15.29500 23.87700
H  -0.71400 11.43700 27.06900
H  -0.83300 12.04800 25.45500
H  -2.31500 11.79300 26.46500
H  -3.37900 14.37400 30.78700
H  -0.53100 13.29500 34.26700
H  -1.21300 11.77000 33.68600
H  -2.08800 12.62400 34.83200
Mg 48.72900 35.06700 26.19200
C  47.14100 33.51200 28.98200
C  49.23500 37.80800 28.02800
C  50.25200 36.25000 23.55000
C  48.17700 32.01600 24.44100
N  48.13500 35.60600 28.31500
C  47.70700 34.76900 29.30900
C  48.05200 35.32200 30.64700
C  48.38600 36.79700 30.29100
C  48.60800 36.80100 28.76800
C  47.28600 37.83400 30.58000
C  49.15800 34.58600 31.41100
C  49.20200 34.66900 32.94300
H  48.04000 35.34700 33.75800
N  49.56200 36.83800 25.81800
C  49.62700 37.88800 26.67500
C  50.31000 39.01000 25.89900
C  50.70200 38.53800 24.62000
C  50.20800 37.12700 24.63200
C  50.61000 40.33000 26.68400
C  51.46000 39.23100 23.52000
O  51.92100 38.68400 22.53300
C  51.65800 40.75700 23.52100
N  49.21500 34.16300 24.24000
C  49.89500 34.91200 23.35300
C  50.18300 34.05500 22.07200
C  49.46500 32.66100 22.31400
C  48.97800 32.89500 23.79500
C  49.71100 34.79000 20.77300
C  50.45900 31.47300 22.22200
C  51.52800 31.49900 21.08200
N  47.78800 33.22300 26.52000
C  47.66400 32.10400 25.72200
C  46.94400 31.07400 26.42600
C  46.70500 31.57500 27.72500
C  47.24300 32.87500 27.70600
C  46.63100 29.66100 25.91600
C  46.16500 31.27100 29.05300
O  45.78900 30.20600 29.49600
C  46.26800 32.57200 29.81000
C  46.89800 32.18700 31.15000
O  48.05500 31.87400 31.37000
O  45.94600 32.17800 32.15800
C  46.38700 31.83500 33.52000
H  49.38000 38.71400 28.62000
H  50.69700 36.77600 22.70300
H  48.15800 31.06300 23.90900
H  47.19400 35.26800 31.31600
H  49.32700 37.06100 30.77400
H  47.42900 38.40600 31.49700
H  46.35300 37.28600 30.70800
H  47.07500 38.52600 29.76400
H  50.06000 35.16600 31.21100
H  49.48800 33.64400 30.97300
H  50.17400 35.07500 33.22500
H  49.25700 33.60600 33.18000
H  51.65100 40.33300 27.00700
H  49.87600 40.36900 27.48800
H  50.55000 41.18800 26.01400
H  52.03400 41.20300 22.60100
H  52.41900 41.05700 24.24200
H  50.71600 41.24900 23.76500
H  51.25200 33.86800 21.97000
H  48.64000 32.52300 21.61600
H  49.41800 34.23600 19.88100
H  50.50300 35.36200 20.29000
H  48.79300 35.35500 20.93000
H  49.83000 30.58900 22.12100
H  51.01700 31.24700 23.13000
H  52.46000 31.77300 21.57600
H  51.18800 32.04400 20.20100
H  51.60900 30.50400 20.64500
H  45.60000 29.48400 25.60900
H  46.95500 28.94900 26.67500
H  47.33300 29.43000 25.11500
H  45.33300 33.06900 30.07000
H  47.43500 31.54600 33.44500
H  45.79200 31.05400 33.99400
H  46.21400 32.81100 33.97400

