158

Mg 41.38200 9.26700 30.24300
C  42.96000 10.39200 33.10600
C  39.01400 7.66400 32.20900
C  39.64200 8.37500 27.47100
C  43.85200 10.61000 28.42500
N  41.06900 9.01700 32.35300
C  41.82500 9.58100 33.34100
C  41.08900 9.51700 34.67700
C  40.02400 8.35100 34.42500
C  40.04900 8.29200 32.90200
C  40.46400 6.99600 34.98400
C  40.45200 10.89300 35.01200
C  40.17500 11.08900 36.57100
H  40.89100 12.01300 37.51400
N  39.62600 8.20000 29.88400
C  38.77400 7.62600 30.84000
C  37.59600 7.00700 30.10500
C  37.68200 7.31700 28.71900
C  39.03000 7.98300 28.63600
C  36.45600 6.31000 30.81700
C  36.67900 7.10400 27.62100
O  36.84600 7.56300 26.49200
C  35.40400 6.25800 27.89400
N  41.68500 9.44800 28.29400
C  40.89000 8.98200 27.35700
C  41.56100 9.06800 25.95100
C  42.83100 9.96700 26.24400
C  42.80800 10.02100 27.74300
C  41.82900 7.71700 25.27500
C  42.85000 11.37900 25.55300
C  41.62900 12.32200 25.85700
N  43.08300 10.25700 30.63000
C  44.07100 10.73700 29.83600
C  45.07900 11.42700 30.57200
C  44.71200 11.31400 31.89500
C  43.51300 10.64500 31.87200
C  46.38100 12.01900 30.01500
C  45.07300 11.60100 33.28100
O  45.92000 12.27600 33.77000
C  43.87900 11.09500 34.08900
C  44.42500 10.21200 35.12700
O  44.99100 9.11400 34.87900
O  44.25600 10.80100 36.35900
C  44.57000 10.09100 37.59500
H  38.27500 7.13800 32.81700
H  39.15900 8.23700 26.50100
H  44.66500 11.11300 27.89700
H  41.62100 9.25500 35.59100
H  39.04400 8.58900 34.83900
H  39.55100 6.71000 35.50600
H  41.33000 6.85100 35.63000
H  40.74400 6.21100 34.28200
H  39.49200 10.96200 34.50000
H  40.95800 11.77400 34.61400
H  40.25800 10.13400 37.09000
H  39.18500 11.52700 36.69300
H  35.57400 6.88700 30.53700
H  36.59600 6.33400 31.89800
H  36.51600 5.28900 30.44000
H  34.81300 6.18800 26.98000
H  34.77000 6.80400 28.59200
H  35.72200 5.27500 28.24100
H  40.86100 9.75100 25.46900
H  43.66000 9.36200 25.87600
H  41.43400 6.88300 25.85300
H  42.90200 7.52300 25.24400
H  41.46100 7.75400 24.24900
H  42.79100 11.16800 24.48600
H  43.80800 11.86000 25.74800
H  41.96500 13.30500 26.18700
H  41.01900 11.92900 26.67000
H  41.00500 12.36100 24.96400
H  46.99700 11.20400 29.63500
H  46.92300 12.71700 30.65200
H  46.17300 12.62400 29.13300
H  43.48400 11.95300 34.63300
H  45.39700 10.58300 38.10700
H  44.90300 9.11800 37.23400
H  43.71700 9.94200 38.25600
Mg -12.98800 16.12200 41.29700
C  -9.79000 14.77100 40.74900
C  -11.82900 19.17400 40.19600
C  -16.13200 17.32000 41.48400
C  -14.19800 12.89400 41.81500
N  -11.03000 16.85600 40.48700
C  -9.86100 16.11000 40.44000
C  -8.70200 16.96700 39.97200
C  -9.24600 18.48300 39.96200
C  -10.79700 18.21100 40.21800
C  -8.72400 19.39400 41.10800
C  -8.19600 16.53400 38.62000
C  -6.63200 16.28500 38.55400
H  -6.06300 16.03400 37.11600
N  -13.87300 17.89900 40.86900
C  -13.21100 19.03000 40.40800
C  -14.20600 20.11200 40.24500
C  -15.44100 19.64000 40.80000
C  -15.18100 18.23000 41.10100
C  -13.95200 21.35300 39.35900
C  -16.66000 20.52600 40.94500
O  -16.62000 21.73300 40.67800
C  -18.07100 20.10000 41.38000
N  -14.92700 15.16400 41.33700
C  -16.01700 15.88100 41.56600
C  -17.26400 15.01800 41.78700
C  -16.66700 13.57700 41.68500
C  -15.18300 13.86400 41.61700
C  -17.91500 15.31600 43.14500
C  -17.14000 12.79800 40.43200
C  -17.24200 11.24000 40.59300
N  -12.21200 14.20400 41.32500
C  -12.83600 12.99100 41.53900
C  -11.78600 11.93700 41.47200
C  -10.57500 12.63500 41.14700
C  -10.93600 13.98600 41.04100
C  -12.01700 10.41000 41.61500
C  -9.17800 12.37400 41.05500
O  -8.48700 11.36200 40.98000
C  -8.60400 13.84700 40.80600
C  -7.76700 14.23900 41.97500
O  -8.14200 14.98400 42.89700
O  -6.61900 13.45900 42.06600
C  -5.67300 13.75300 43.10000
H  -11.35600 20.14200 40.01500
H  -17.13200 17.73500 41.62500
H  -14.65800 11.90500 41.87300
H  -7.87000 16.91500 40.67400
H  -9.10300 19.08700 39.06500
H  -8.29100 20.27000 40.62500
H  -7.97100 18.88000 41.70400
H  -9.56800 19.76200 41.69200
H  -8.55400 17.32800 37.96600
H  -8.70100 15.69100 38.14800
H  -6.50300 15.39800 39.17300
H  -6.09200 17.06500 39.09100
H  -12.91500 21.40800 39.02600
H  -14.17900 22.32700 39.79200
H  -14.62700 21.24300 38.51000
H  -18.36600 19.16100 40.91200
H  -18.71800 20.91100 41.04600
H  -17.93900 19.99700 42.45700
H  -17.98600 15.21600 40.99500
H  -16.86300 13.08000 42.63600
H  -17.57200 16.27100 43.54300
H  -17.68400 14.52300 43.85500
H  -18.97600 15.37300 42.89900
H  -16.37700 12.96300 39.67200
H  -18.04900 13.23900 40.02200
H  -16.95900 10.92900 41.59800
H  -16.64800 10.78400 39.80100
H  -18.29700 11.00800 40.44800
H  -11.28000 9.98800 42.29700
H  -12.08300 9.86200 40.67500
H  -13.03700 10.25100 41.96600
H  -7.92400 13.86500 39.95400
H  -5.05700 12.87100 43.27500
H  -6.21900 14.17200 43.94500
H  -5.03500 14.61300 42.89600

