158

Mg 40.81000 8.82700 29.83900
C  42.77900 9.89300 32.61400
C  38.72100 7.48000 31.96400
C  39.00300 7.88100 27.23800
C  43.22200 10.23900 27.67000
N  40.73700 8.80300 32.08500
C  41.60200 9.27300 33.01900
C  41.09500 9.01900 34.49000
C  39.74800 8.34000 34.23800
C  39.74900 8.10200 32.65900
C  39.50400 7.14600 35.01300
C  40.96000 10.36000 35.29000
C  40.03400 10.28100 36.58800
H  40.37600 11.13900 37.76800
N  39.12800 7.78100 29.63400
C  38.41200 7.27000 30.64900
C  37.26600 6.47200 30.23900
C  37.10200 6.84000 28.87700
C  38.46300 7.53700 28.50200
C  36.35600 5.68200 31.19300
C  36.00100 6.67200 27.87800
O  36.05800 7.24100 26.77800
C  34.76500 5.95400 28.25300
N  40.96700 9.21900 27.76000
C  40.16300 8.61400 26.86400
C  40.63800 8.80800 25.42200
C  41.91300 9.64500 25.63400
C  42.03500 9.73300 27.09600
C  40.91400 7.41900 24.66400
C  41.99000 11.05600 25.01100
C  41.47000 12.26800 25.76800
N  42.66200 9.80300 30.05900
C  43.50900 10.28200 29.08300
C  44.68500 10.88200 29.76900
C  44.43300 10.68300 31.16000
C  43.16600 10.12700 31.24300
C  45.87600 11.48300 29.05000
C  45.05300 10.85000 32.49100
O  46.17100 11.19500 32.78600
C  43.89800 10.47100 33.46400
C  44.47900 9.48900 34.39400
O  45.02900 8.46400 34.10000
O  44.39400 9.88500 35.68500
C  44.79700 8.98300 36.73600
H  37.96600 7.06100 32.63300
H  38.53900 7.45200 26.34800
H  44.00500 10.54200 26.97200
H  41.64400 8.25200 35.03700
H  38.96400 9.07800 34.40500
H  39.57500 6.27300 34.36500
H  38.49200 7.17100 35.41700
H  40.22500 6.88400 35.78800
H  40.48000 11.03000 34.57700
H  41.91400 10.76500 35.62700
H  39.93400 9.32200 37.09600
H  39.08800 10.48200 36.08400
H  35.69300 6.46100 31.56900
H  37.01800 5.24300 31.93900
H  35.75400 4.89800 30.73200
H  35.01000 4.98200 28.67900
H  34.20700 5.98600 27.31700
H  34.14100 6.45400 28.99300
H  39.86500 9.34800 24.87400
H  42.73700 8.99900 25.33100
H  41.67000 6.93200 25.28000
H  41.19900 7.61300 23.63000
H  40.06100 6.74100 24.69500
H  41.40300 11.05000 24.09300
H  43.06800 11.15400 24.88600
H  40.95300 12.03900 26.70000
H  40.79200 12.78400 25.08800
H  42.34100 12.89900 25.94700
H  46.73400 10.81600 28.96800
H  46.02000 12.33900 29.71000
H  45.56400 11.91600 28.09900
H  43.56400 11.36200 33.99600
H  45.33200 8.05300 36.54500
H  43.91900 8.74900 37.33800
H  45.42200 9.51300 37.45500
Mg 9.61700 48.24400 25.78300
C  7.19100 48.07500 28.26300
C  11.63900 49.86500 27.95600
C  11.74800 48.34100 23.30400
C  7.01900 47.52100 23.35300
N  9.45000 48.72800 27.90300
C  8.39700 48.53900 28.82200
C  8.78300 48.78200 30.22900
C  10.12700 49.55300 30.05100
C  10.45300 49.41600 28.50800
C  9.95900 51.10500 30.31700
C  8.77700 47.53900 31.15600
C  9.86700 47.20200 32.19400
H  9.37200 46.35000 33.46100
N  11.44900 49.00600 25.65400
C  12.16500 49.60500 26.64300
C  13.50300 49.81600 26.15600
C  13.61300 49.27800 24.81800
C  12.23200 48.86400 24.51400
C  14.70500 50.44100 26.98200
C  14.78100 49.04500 23.86400
O  14.63500 48.45700 22.79400
C  16.14600 49.51100 24.21400
N  9.45100 47.84600 23.64900
C  10.55500 47.87200 22.87500
C  10.20900 47.58200 21.35900
C  8.70400 47.17700 21.38800
C  8.33600 47.58200 22.86300
C  10.43700 48.80700 20.47700
C  8.40200 45.70700 21.16600
C  8.29100 44.71200 22.32600
N  7.50700 47.89800 25.74700
C  6.61100 47.64200 24.72200
C  5.28300 47.49400 25.29400
C  5.46200 47.55900 26.65300
C  6.85600 47.83600 26.86700
C  4.04600 47.26200 24.46700
C  4.74800 47.50400 27.93900
O  3.54600 47.38600 28.27400
C  5.84700 47.91200 29.03200
C  5.90200 46.92500 30.08300
O  6.37000 45.83800 30.02600
O  5.32600 47.46300 31.23700
C  5.17700 46.55000 32.37600
H  12.28900 50.44800 28.61200
H  12.48400 48.42000 22.50200
H  6.23000 47.37000 22.61300
H  8.03800 49.46900 30.63400
H  10.97000 49.25100 30.67200
H  10.07200 51.45600 31.34300
H  8.94400 51.34300 29.99900
H  10.69400 51.72700 29.80700
H  8.64100 46.64500 30.54800
H  7.85500 47.64700 31.72800
H  10.35000 48.08000 32.62200
H  10.72100 46.68900 31.75300
H  15.56900 49.78400 27.08700
H  14.37600 50.56600 28.01300
H  15.05400 51.39600 26.58800
H  16.01800 50.56300 24.46900
H  16.70700 49.41000 23.28500
H  16.37600 48.82800 25.03200
H  10.81300 46.78500 20.92600
H  8.09800 47.84000 20.77000
H  9.69500 48.81200 19.67900
H  11.35700 48.58300 19.93800
H  10.45400 49.75400 21.01700
H  9.10200 45.26600 20.45700
H  7.46400 45.84600 20.62800
H  9.05100 44.98100 23.06000
H  8.45400 43.73900 21.86200
H  7.33300 44.80700 22.83600
H  3.93400 46.20100 24.24600
H  3.99100 47.71500 23.47700
H  3.22800 47.67500 25.05800
H  5.49200 48.85900 29.43900
H  4.10300 46.40300 32.25700
H  5.36000 47.01400 33.34500
H  5.79200 45.66100 32.23700

