158

Mg 16.03400 52.52200 27.02300
C  17.76300 50.84500 29.63100
C  13.60100 53.16100 29.24300
C  14.28500 53.68300 24.40400
C  18.22300 50.94100 24.80300
N  15.82300 52.14400 29.18500
C  16.61400 51.45900 30.06100
C  16.24300 51.51300 31.55700
C  14.79400 52.12500 31.34000
C  14.70700 52.51100 29.83400
C  13.65900 51.14400 31.69400
C  17.26200 52.27900 32.47500
C  17.52700 51.68600 33.86600
H  16.73400 52.21000 35.02500
N  14.20800 53.45200 26.84200
C  13.33700 53.58800 27.89900
C  12.23700 54.47000 27.42000
C  12.34800 54.55700 25.97000
C  13.64300 53.88400 25.70400
C  11.06400 54.95200 28.33000
C  11.47300 55.09300 24.97500
O  11.70000 55.03000 23.79500
C  10.21600 55.79300 25.41800
N  16.17000 52.33800 24.91800
C  15.37000 52.90400 23.99500
C  16.00000 52.86200 22.60100
C  17.18200 51.92200 22.78600
C  17.19800 51.76700 24.29700
C  14.95500 52.44900 21.48900
C  18.56000 52.53900 22.08400
C  19.15100 53.71100 22.83100
N  17.71400 51.21500 27.13400
C  18.51300 50.74900 26.18600
C  19.71400 50.17700 26.78700
C  19.44300 50.18800 28.16800
C  18.21400 50.78900 28.31200
C  20.89500 49.43700 26.14600
C  19.96100 49.87800 29.40700
O  21.11700 49.54400 29.74800
C  18.92700 50.32900 30.51000
C  18.55100 49.18600 31.38500
O  17.91400 48.20500 31.12700
O  19.10200 49.44700 32.65500
C  19.02200 48.34100 33.62100
H  12.78100 53.33200 29.94500
H  13.93600 54.14100 23.47600
H  18.91600 50.47600 24.10000
H  16.20300 50.47300 31.88100
H  14.75300 53.05300 31.91000
H  12.95400 51.64600 32.35600
H  14.07700 50.18500 32.00000
H  13.08900 50.87500 30.80500
H  16.92500 53.30100 32.64800
H  18.18800 52.47500 31.93500
H  18.58400 51.71800 34.12700
H  17.26200 50.63200 33.77800
H  11.18400 54.79700 29.40300
H  10.18900 54.39000 28.00500
H  10.83500 55.97500 28.03000
H  10.41300 56.63900 26.07700
H  9.78100 55.07900 26.11700
H  9.54600 56.03900 24.59400
H  16.18200 53.93100 22.49400
H  16.91300 50.92700 22.43400
H  13.97100 52.15200 21.85200
H  15.33500 51.64600 20.85700
H  14.79000 53.26400 20.78400
H  18.39700 52.80600 21.04000
H  19.13200 51.61500 22.16400
H  19.05900 54.73200 22.46100
H  20.18900 53.52200 23.10400
H  18.64700 53.82900 23.79000
H  20.59200 49.23400 25.11900
H  21.02700 48.44300 26.57500
H  21.87200 49.91700 26.08800
H  19.40500 51.19600 30.96700
H  18.02900 47.96800 33.87300
H  19.49200 48.69700 34.53800
H  19.60100 47.47000 33.31400
Mg -5.10600 25.52300 25.22000
C  -3.57400 27.15200 27.83900
C  -6.81300 23.50400 27.57300
C  -6.49500 23.74600 22.77100
C  -2.99900 27.28600 23.03000
N  -5.09900 25.32700 27.45400
C  -4.50500 26.23500 28.30200
C  -5.03500 26.05200 29.69800
C  -5.73300 24.62800 29.56700
C  -5.92500 24.42300 28.09400
C  -4.87600 23.46300 30.07200
C  -6.01600 27.24700 30.11700
C  -6.05900 27.72800 31.66500
H  -5.62200 26.74900 32.70600
N  -6.53300 23.83900 25.20300
C  -7.03900 23.25200 26.25100
C  -8.09200 22.28900 25.78900
C  -7.97600 22.29400 24.34200
C  -6.96700 23.33400 24.03900
C  -8.88500 21.44600 26.64300
C  -8.65300 21.41000 23.36000
O  -8.54700 21.53000 22.16600
C  -9.50200 20.24800 23.83500
N  -4.85600 25.62100 23.18000
C  -5.44100 24.68000 22.39000
C  -4.93700 24.86400 20.94700
C  -3.97900 26.12900 21.01100
C  -3.92900 26.35300 22.52700
C  -4.30500 23.64300 20.40300
C  -4.34900 27.35500 20.08900
C  -3.20100 27.89100 19.21100
N  -3.58800 26.94700 25.41100
C  -2.79700 27.58500 24.40900
C  -1.87200 28.52600 25.06400
C  -2.16800 28.44500 26.44100
C  -3.20600 27.50300 26.55500
C  -0.85900 29.42500 24.34600
C  -1.85300 28.90600 27.77700
O  -1.09300 29.79400 28.03600
C  -2.84000 28.08000 28.70900
C  -2.03500 27.43500 29.75300
O  -1.14900 26.59300 29.50100
O  -2.58100 27.66800 30.95300
C  -1.67000 27.35100 32.17000
H  -7.40400 22.84900 28.21600
H  -6.87900 23.20100 21.90700
H  -2.32400 27.72700 22.29400
H  -4.23300 25.95800 30.43000
H  -6.75800 24.58200 29.93500
H  -4.44400 22.83400 29.29300
H  -5.48400 22.89100 30.77300
H  -4.02100 23.83900 30.63300
H  -7.04800 26.94000 29.94400
H  -5.76000 27.98800 29.36000
H  -7.12000 27.90700 31.83600
H  -5.48900 28.65500 31.72800
H  -9.92900 21.73500 26.53000
H  -8.71500 21.49600 27.71900
H  -8.65700 20.40500 26.41300
H  -10.34700 20.64900 24.39400
H  -8.86700 19.57100 24.40600
H  -10.00700 19.65000 23.07700
H  -5.74100 25.16500 20.27600
H  -2.99000 25.86800 20.63400
H  -4.35200 22.84700 21.14700
H  -3.25100 23.83600 20.20600
H  -4.74200 23.27100 19.47600
H  -4.51300 28.22300 20.72900
H  -5.14000 27.08700 19.38800
H  -3.50500 28.00800 18.17000
H  -2.27900 27.31100 19.22800
H  -3.16600 28.95400 19.44900
H  -1.38100 30.17200 23.74800
H  -0.50300 28.83300 23.50200
H  -0.01300 29.75600 24.94900
H  -3.51000 28.84700 29.09800
H  -2.02800 27.70800 33.13600
H  -0.67100 27.75100 31.99700
H  -1.54600 26.26800 32.17600

