158

Mg 0.63200 8.10500 26.61100
C  1.28600 9.95800 29.50400
C  0.48100 5.27000 28.70700
C  0.22800 6.30700 23.95100
C  1.28700 10.98700 24.67700
N  0.74600 7.72900 28.88100
C  0.94200 8.63200 29.82900
C  0.83200 8.03500 31.25400
C  0.69900 6.54000 30.98400
C  0.60100 6.46300 29.42300
C  1.83800 5.74400 31.67400
C  -0.28200 8.69500 32.14300
C  0.17100 9.04800 33.61700
H  -0.37200 8.32900 34.85700
N  0.35400 6.00500 26.39500
C  0.37000 5.03600 27.30500
C  0.15400 3.74800 26.58000
C  -0.02600 4.00700 25.16300
C  0.22300 5.49900 25.15500
C  -0.14600 2.41800 27.29700
C  -0.23800 3.08700 24.05900
O  -0.14900 3.45900 22.90000
C  -0.55500 1.64200 24.29600
N  0.61400 8.62900 24.58900
C  0.45200 7.67700 23.69400
C  0.48000 8.24500 22.27900
C  0.59500 9.82700 22.51300
C  0.81100 9.86900 23.98900
C  1.50400 7.57200 21.30900
C  -0.61200 10.85100 22.09300
C  -2.08000 10.37500 22.36700
N  1.22200 10.05500 26.93500
C  1.41600 11.13300 26.08000
C  1.79200 12.30600 26.77800
C  1.77900 11.87900 28.12400
C  1.37800 10.53300 28.16600
C  2.10900 13.62200 26.25100
C  2.03900 12.26800 29.48100
O  2.32500 13.35400 30.01800
C  1.49300 11.13200 30.40700
C  2.49800 10.91900 31.47600
O  3.50000 10.20500 31.37100
O  2.22000 11.70200 32.63500
C  3.04400 11.64800 33.85900
H  0.36000 4.41600 29.37700
H  0.02800 5.67500 23.08400
H  1.38100 11.81500 23.97000
H  1.79300 8.08600 31.76600
H  -0.16900 6.11100 31.48500
H  1.57700 4.71100 31.90400
H  1.92800 6.16100 32.67600
H  2.76400 5.66500 31.10300
H  -1.12000 8.00700 32.26000
H  -0.59100 9.64100 31.69900
H  -0.06200 10.09300 33.82000
H  1.25600 8.96600 33.68700
H  -1.06700 2.00000 26.88800
H  -0.27600 2.57000 28.36800
H  0.68700 1.72200 27.19800
H  0.21900 1.21600 24.93400
H  -0.59400 1.07400 23.36600
H  -1.55800 1.53300 24.70800
H  -0.52300 8.00400 21.92800
H  1.45700 10.16400 21.93800
H  2.42600 7.32900 21.83600
H  1.58300 8.12700 20.37400
H  1.04700 6.62100 21.03500
H  -0.44300 10.94600 21.02100
H  -0.42800 11.79100 22.61400
H  -2.62100 10.31800 21.42300
H  -2.60600 11.03300 23.05900
H  -2.06500 9.37100 22.79300
H  1.25700 14.27700 26.43000
H  2.39900 13.62000 25.20100
H  2.87800 13.90600 26.97000
H  0.61100 11.44100 30.96900
H  3.22400 12.70100 34.07700
H  3.96100 11.08400 33.68700
H  2.38900 11.15900 34.58000
Mg 24.96300 -4.20900 45.45200
C  26.55200 -1.59000 43.78900
C  22.32100 -3.75000 43.27700
C  23.97800 -7.27900 46.28200
C  28.07200 -4.89100 47.22200
N  24.51100 -2.76800 43.78600
C  25.27400 -1.82000 43.28700
C  24.61600 -1.10700 42.11700
C  23.12100 -1.61600 42.15100
C  23.29400 -2.82400 43.12300
C  21.97200 -0.71400 42.73100
C  25.38300 -1.45300 40.76000
C  25.73100 -0.26200 39.78100
H  25.88500 -0.47400 38.29100
N  23.28700 -5.25500 45.05500
C  22.29700 -4.87400 44.15500
C  21.20200 -5.83400 44.24700
C  21.61200 -6.85600 45.06200
C  22.99600 -6.53300 45.53600
C  19.82000 -5.64700 43.54200
C  20.72500 -8.01400 45.46900
O  19.55200 -8.17700 44.94500
C  21.15200 -8.98800 46.47400
N  25.91800 -5.90200 46.65500
C  25.23600 -7.02500 46.79100
C  26.03100 -8.18200 47.43200
C  27.36100 -7.36800 47.75700
C  27.12200 -5.93300 47.21100
C  25.39000 -8.83500 48.65700
C  28.63100 -7.99600 47.08700
C  29.77400 -8.43200 47.95400
N  26.90500 -3.29400 45.64600
C  27.99800 -3.70100 46.38700
C  29.10200 -2.84200 46.03100
C  28.50200 -1.95100 45.11000
C  27.25500 -2.34800 44.79700
C  30.43900 -2.57300 46.72300
C  28.75600 -0.83200 44.25300
O  29.75000 -0.11900 44.22400
C  27.51900 -0.55300 43.37000
C  27.03700 0.82100 43.76700
O  26.22900 1.10600 44.64700
O  27.68200 1.76100 42.94000
C  27.07700 3.10200 42.91500
H  21.52100 -3.65300 42.54100
H  23.67900 -8.31000 46.48200
H  29.00100 -5.32200 47.60100
H  24.68800 -0.04000 42.32900
H  22.62900 -1.97400 41.24600
H  22.29900 0.24100 42.32000
H  21.95800 -0.71300 43.82000
H  21.02400 -0.95100 42.24700
H  24.76600 -2.13100 40.17000
H  26.27200 -2.02700 41.02000
H  26.67200 0.15600 40.13800
H  24.91000 0.44600 39.88900
H  19.59100 -6.53500 42.95200
H  19.98000 -4.87700 42.78800
H  18.97000 -5.35600 44.15900
H  22.03100 -9.58500 46.23000
H  20.27700 -9.63700 46.51000
H  21.32000 -8.57400 47.46800
H  26.26200 -8.91900 46.66200
H  27.50800 -7.13100 48.81100
H  24.33700 -8.55800 48.61100
H  25.97800 -8.51400 49.51700
H  25.47700 -9.91900 48.58000
H  29.01300 -7.27300 46.36700
H  28.21100 -8.82300 46.51400
H  29.47000 -8.56900 48.99200
H  30.53900 -7.65600 47.96800
H  30.13900 -9.41300 47.65000
H  31.11100 -3.43000 46.69800
H  30.27700 -2.14200 47.71000
H  30.87700 -1.71700 46.20900
H  27.90800 -0.52100 42.35300
H  26.02400 3.02900 42.64300
H  27.49500 3.75600 42.15000
H  27.17000 3.63600 43.86000

