158

Mg 0.21400 7.97200 26.27800
C  0.98100 9.73300 29.22100
C  0.20500 5.05300 28.19300
C  -0.20000 6.31500 23.48300
C  0.58900 10.94000 24.49700
N  0.46800 7.49100 28.33800
C  0.69400 8.37900 29.41800
C  0.57800 7.73700 30.77700
C  0.51000 6.20700 30.40400
C  0.47500 6.24000 28.87400
C  1.65900 5.36000 31.01400
C  -0.69600 8.28500 31.53000
C  -0.51900 8.42700 33.06600
H  0.71000 7.87200 33.87100
N  0.05800 6.00800 25.86000
C  0.01800 4.94600 26.81500
C  -0.33000 3.69800 26.11300
C  -0.31300 4.03800 24.72100
C  -0.15700 5.53600 24.64000
C  -0.51500 2.34000 26.85800
C  -0.60500 3.13200 23.51500
O  -0.56500 3.50500 22.36200
C  -1.06400 1.83800 23.78900
N  0.38400 8.53100 24.29100
C  -0.01400 7.66500 23.30500
C  -0.20300 8.27900 21.92500
C  -0.03700 9.81000 22.28100
C  0.30500 9.78200 23.77000
C  0.86600 7.75100 20.83500
C  -1.22900 10.69700 21.85000
C  -2.52200 10.61600 22.64000
N  0.80000 9.91700 26.70700
C  0.94600 10.98300 25.83800
C  1.36300 12.13800 26.57900
C  1.36500 11.70900 27.93700
C  1.04500 10.33600 27.95900
C  1.68400 13.50400 25.99100
C  1.55000 12.14000 29.27500
O  1.94700 13.18900 29.70000
C  1.26000 10.92600 30.14000
C  2.32400 10.76300 31.07300
O  3.24200 9.93600 30.99700
O  2.21200 11.70100 32.05900
C  3.19100 11.59600 33.15000
H  0.09900 4.14800 28.79400
H  -0.51600 5.77200 22.59000
H  0.82800 11.84900 23.94100
H  1.42200 8.06200 31.38500
H  -0.44600 5.75400 30.66900
H  1.28700 4.55500 31.64700
H  2.20600 5.89400 31.79100
H  2.39900 4.95400 30.32300
H  -1.34900 7.42900 31.35900
H  -1.08500 9.19700 31.07900
H  -1.38800 7.95000 33.51800
H  -0.56000 9.49400 33.28800
H  -1.26700 1.69900 26.39800
H  -0.84600 2.51600 27.88100
H  0.43800 1.82100 26.74900
H  -1.44000 1.32700 22.90200
H  -1.95400 2.10200 24.35900
H  -0.40400 1.19400 24.37100
H  -1.17900 7.99100 21.53500
H  0.83500 10.23900 21.78800
H  1.58500 7.03000 21.22600
H  1.52300 8.48000 20.36100
H  0.27400 7.13600 20.15700
H  -1.36400 10.54800 20.77900
H  -0.92100 11.73400 21.98200
H  -2.44700 9.80200 23.36000
H  -3.38100 10.44600 21.99100
H  -2.76300 11.52800 23.18700
H  0.67000 13.81800 25.74200
H  2.31200 13.36200 25.11100
H  2.04200 14.20500 26.74500
H  0.36200 11.06800 30.74200
H  4.05000 12.26500 33.09500
H  3.50200 10.57500 33.37300
H  2.59500 11.91600 34.00400
Mg 40.48200 9.11500 29.30200
C  42.15200 10.41800 32.07100
C  38.31500 7.53300 31.61200
C  38.92200 7.73600 26.69300
C  43.04800 10.14100 27.25900
N  40.28900 9.03500 31.55800
C  41.00100 9.79200 32.46300
C  40.34500 9.75400 33.88700
C  39.24800 8.71300 33.60900
C  39.33900 8.35100 32.21800
C  39.20400 7.46900 34.59900
C  39.99200 11.17200 34.43800
C  39.27000 11.17000 35.82300
H  39.97000 11.91600 36.96200
N  38.74200 7.89500 29.15200
C  38.00200 7.37100 30.21700
C  36.90100 6.77800 29.60000
C  36.99900 6.84300 28.19200
C  38.28200 7.49300 27.92300
C  35.82000 6.13000 30.46600
C  36.05500 6.40500 27.11700
O  36.29400 6.58800 25.93100
C  34.79200 5.72800 27.53000
N  40.93200 8.95700 27.35700
C  40.05000 8.49200 26.41400
C  40.55100 8.56700 24.97900
C  41.86100 9.43200 25.11400
C  41.98600 9.55900 26.66400
C  40.81200 7.13300 24.37100
C  41.89800 10.78400 24.38600
C  41.10600 12.01200 24.94900
N  42.23300 10.13200 29.58200
C  43.17300 10.52400 28.61700
C  44.26900 11.27900 29.26200
C  43.84900 11.33900 30.61100
C  42.67100 10.52800 30.76900
C  45.49400 11.83300 28.64600
C  44.21000 11.88000 31.89700
O  45.18600 12.52300 32.23200
C  43.09500 11.31200 32.90000
C  43.76900 10.53300 34.03400
O  44.72000 9.82500 33.82400
O  43.23400 10.93700 35.23800
C  43.68200 10.12400 36.36400
H  37.60000 7.15500 32.34500
H  38.40300 7.37700 25.80100
H  43.81300 10.46200 26.54800
H  41.15100 9.25700 34.42700
H  38.33300 9.28000 33.77800
H  38.17600 7.42300 34.95900
H  39.83300 7.63800 35.47300
H  39.63400 6.58700 34.12400
H  39.34600 11.64400 33.69900
H  40.91000 11.74000 34.58800
H  39.18800 10.12500 36.12100
H  38.31400 11.67200 35.67200
H  35.96500 6.36700 31.52000
H  35.90900 5.07000 30.22900
H  34.81200 6.48900 30.25700
H  34.06500 6.48200 27.82900
H  34.85700 4.94500 28.28600
H  34.36600 5.21700 26.66700
H  39.75900 9.06000 24.41800
H  42.74500 8.86600 24.81900
H  41.86300 6.85200 24.31700
H  40.36000 7.06900 23.38100
H  40.33200 6.36800 24.98300
H  41.30200 10.59100 23.49400
H  42.91300 11.11400 24.16300
H  40.76000 11.90400 25.97700
H  40.22700 12.33800 24.39300
H  41.79100 12.85600 25.03400
H  45.25600 12.86400 28.38200
H  45.81600 11.32400 27.73800
H  46.28700 11.89500 29.39000
H  42.59600 12.23200 33.20400
H  44.74400 9.88600 36.29700
H  42.87400 9.42400 36.57900
H  43.54600 10.84000 37.17500

