158

Mg 8.97400 4.02600 27.07000
C  10.41900 2.58600 30.02100
C  6.85000 5.76100 29.27800
C  7.35100 5.16300 24.47000
C  10.62100 1.52300 25.17100
N  8.80300 4.23800 29.37300
C  9.52800 3.62100 30.33000
C  9.19400 4.12600 31.73200
C  7.98600 4.99500 31.51900
C  7.83100 4.96500 29.94500
C  6.67700 4.54600 32.29400
C  10.34800 4.89600 32.50000
C  10.54200 4.28300 33.93400
H  11.25000 5.09800 35.06100
N  7.45300 5.41800 26.89900
C  6.70700 5.98400 27.87800
C  5.70100 6.76400 27.28400
C  5.88000 6.71500 25.88200
C  6.94700 5.74600 25.67500
C  4.77600 7.55700 28.07000
C  5.07300 7.34000 24.79600
O  5.43000 7.22500 23.59700
C  3.80100 8.07000 25.11000
N  8.89300 3.28700 25.09200
C  8.31100 4.16000 24.15700
C  8.61000 3.64400 22.72200
C  9.70500 2.56600 22.94700
C  9.76600 2.39000 24.43800
C  7.33700 3.03000 22.11800
C  11.09700 2.81900 22.26500
C  11.51400 1.75600 21.20400
N  10.17000 2.39200 27.43400
C  10.82800 1.48700 26.55100
C  11.59600 0.59000 27.34200
C  11.45500 1.00000 28.62800
C  10.62300 2.09700 28.71300
C  12.37800 -0.49600 26.70900
C  11.95400 0.69800 29.89200
O  12.76800 -0.16300 30.27800
C  11.21300 1.68100 30.84100
C  10.41100 0.90700 31.79200
O  9.27000 0.50300 31.64800
O  11.14800 0.77900 32.89000
C  10.47400 0.40900 34.14100
H  6.13900 6.12600 30.02200
H  6.95000 5.53800 23.52700
H  11.25200 0.85000 24.58600
H  8.89700 3.19600 32.21600
H  8.15000 6.04400 31.76900
H  6.20900 5.44200 32.70200
H  6.83000 3.87100 33.13600
H  6.01300 4.15900 31.52100
H  10.09200 5.93600 32.70300
H  11.26000 4.70100 31.93600
H  11.22400 3.43900 33.83000
H  9.58100 3.84300 34.19900
H  5.22800 8.50900 28.35000
H  4.55300 6.98700 28.97200
H  3.79700 7.70000 27.61200
H  3.96300 9.10400 25.41700
H  3.10800 7.50400 25.73200
H  3.30500 8.24700 24.15600
H  8.97400 4.40000 22.02500
H  9.42200 1.59100 22.54900
H  6.64700 2.85400 22.94300
H  7.44300 2.02000 21.72200
H  6.81800 3.57800 21.33100
H  11.82400 2.71400 23.07000
H  11.20900 3.75200 21.71200
H  10.67400 1.11100 20.94800
H  12.28900 1.09700 21.59700
H  11.98100 2.16800 20.30900
H  11.95300 -0.84700 25.76800
H  12.26800 -1.39600 27.31400
H  13.43400 -0.22800 26.68900
H  11.97600 2.14400 31.46800
H  9.84300 -0.48000 34.17200
H  9.92700 1.30700 34.42900
H  11.24600 0.22800 34.88900
Mg -6.73500 25.51200 25.83900
C  -5.24300 27.12600 28.52000
C  -8.41400 23.45400 27.82500
C  -8.35400 24.36600 23.13900
C  -5.18300 27.94500 23.63700
N  -6.75000 25.42500 27.90700
C  -6.13000 26.10100 28.88900
C  -6.56200 25.76400 30.33300
C  -7.47400 24.50800 29.96400
C  -7.49900 24.41300 28.46100
C  -7.08700 23.22700 30.67000
C  -7.11200 26.92200 31.23100
C  -8.12400 26.57800 32.31800
H  -7.72300 25.67200 33.51700
N  -8.18100 24.04000 25.54900
C  -8.76500 23.28700 26.50300
C  -9.64100 22.38100 25.85700
C  -9.71100 22.75500 24.45000
C  -8.69400 23.74700 24.34000
C  -10.44000 21.32700 26.56300
C  -10.61700 22.21500 23.37800
O  -10.50400 22.57300 22.20100
C  -11.52200 21.10200 23.62300
N  -6.74100 26.05700 23.71700
C  -7.56500 25.42900 22.80200
C  -7.63500 26.09200 21.38400
C  -6.57100 27.19800 21.56100
C  -6.07200 27.02100 23.05300
C  -7.36700 25.15700 20.17600
C  -7.03100 28.72400 21.28200
C  -7.52900 29.06500 19.85600
N  -5.28700 27.06900 25.94900
C  -4.73600 27.93300 25.03800
C  -3.88900 28.89300 25.74100
C  -4.03600 28.56200 27.07700
C  -4.90000 27.48000 27.14600
C  -3.18400 30.01800 25.12700
C  -3.70400 28.92900 28.40700
O  -3.06600 29.86900 28.88300
C  -4.54300 28.08200 29.38700
C  -3.61500 27.26800 30.21300
O  -2.77800 26.48300 29.83700
O  -3.81500 27.65200 31.56100
C  -2.94700 27.18700 32.57300
H  -9.09500 22.82300 28.40000
H  -8.87300 24.01600 22.24400
H  -4.78900 28.73500 22.99400
H  -5.63700 25.34100 30.72500
H  -8.53800 24.65800 30.14300
H  -7.96900 22.79800 31.14600
H  -6.30200 23.34900 31.41600
H  -6.78800 22.41800 30.00400
H  -7.43300 27.72000 30.56200
H  -6.28700 27.25800 31.86000
H  -9.07200 26.24500 31.89600
H  -8.28900 27.51600 32.84800
H  -11.46800 21.29700 26.20200
H  -10.38100 21.53700 27.63100
H  -9.93700 20.36200 26.49600
H  -11.00300 20.33100 24.19300
H  -12.02100 20.87400 22.68100
H  -12.25500 21.41400 24.36800
H  -8.62900 26.51600 21.23700
H  -5.68300 27.05400 20.94600
H  -8.34800 25.05300 19.71100
H  -7.05500 24.20700 20.61100
H  -6.61600 25.46900 19.45200
H  -6.20000 29.36600 21.57700
H  -7.72700 29.13400 22.01400
H  -7.82700 28.16700 19.31400
H  -6.79200 29.69800 19.36300
H  -8.50000 29.56000 19.88500
H  -3.42700 30.27500 24.09600
H  -2.10700 29.98500 25.29100
H  -3.51200 30.84200 25.76000
H  -5.07600 28.71800 30.09300
H  -2.63400 26.15400 32.41700
H  -3.42100 27.18700 33.55500
H  -2.05600 27.81000 32.49200

