158

Mg 17.31200 -2.09700 27.61800
C  16.37400 -0.43000 30.50300
C  19.33500 -4.02700 29.54500
C  18.28500 -3.78500 24.73800
C  15.57800 0.22600 25.74900
N  17.85400 -2.14100 29.71900
C  17.25700 -1.44900 30.74000
C  17.69500 -1.96900 32.11900
C  18.90800 -2.90100 31.80000
C  18.76100 -3.05200 30.26500
C  20.37000 -2.63900 32.23200
C  16.54200 -2.64700 32.87300
C  16.42300 -2.16600 34.34900
H  17.74600 -1.93000 35.13900
N  18.65500 -3.64700 27.22000
C  19.26500 -4.33700 28.19800
C  19.99600 -5.43100 27.58200
C  19.67800 -5.48000 26.11800
C  18.85300 -4.24000 25.92700
C  20.78600 -6.45700 28.38500
C  20.16900 -6.44700 25.05100
O  19.81700 -6.32800 23.87500
C  21.30200 -7.47300 25.34000
N  16.98400 -1.89700 25.53100
C  17.41600 -2.72000 24.53400
C  17.00500 -2.17400 23.16100
C  15.88700 -1.04800 23.53200
C  16.24400 -0.83300 25.03300
C  18.20300 -1.77400 22.19800
C  14.37900 -1.24900 23.34400
C  13.90100 -0.84800 21.95200
N  16.13500 -0.52000 27.89400
C  15.49300 0.36400 27.08500
C  14.77000 1.41000 27.83700
C  15.13300 1.16400 29.19800
C  15.90900 -0.02000 29.18600
C  14.01200 2.56900 27.21100
C  15.07100 1.69800 30.48100
O  14.51600 2.73700 30.79000
C  15.64100 0.61200 31.43200
C  16.62300 1.32100 32.39800
O  17.80100 1.55300 32.18300
O  15.91800 1.70700 33.54700
C  16.68600 2.52100 34.45200
H  19.74700 -4.77200 30.23000
H  18.52700 -4.38500 23.85800
H  15.01100 0.96100 25.17400
H  18.06200 -1.08700 32.64400
H  18.65300 -3.85300 32.26500
H  20.39400 -1.58900 32.52600
H  21.06400 -2.68000 31.39200
H  20.72800 -3.16700 33.11500
H  16.65700 -3.72800 32.78600
H  15.66900 -2.32400 32.30600
H  16.04500 -3.00300 34.93500
H  15.69600 -1.36800 34.50200
H  21.03900 -6.16300 29.40400
H  21.67400 -6.95300 27.99500
H  20.05100 -7.25700 28.47200
H  21.59100 -8.04600 24.45900
H  21.02800 -8.18800 26.11600
H  22.22800 -6.98200 25.64000
H  16.48800 -3.00900 22.68700
H  16.10400 -0.09500 23.05000
H  19.16400 -1.77700 22.71200
H  18.12200 -0.88200 21.57700
H  18.19900 -2.57100 21.45400
H  13.75400 -1.02100 24.20700
H  14.21900 -2.32700 23.31100
H  12.83300 -1.01700 22.09200
H  14.26800 -1.54100 21.19500
H  13.96600 0.19600 21.64400
H  13.95700 3.47700 27.81100
H  13.00200 2.16400 27.13800
H  14.48900 2.79100 26.25600
H  14.85200 0.13800 32.01500
H  17.69900 2.24400 34.74300
H  16.09600 2.53600 35.36800
H  16.70400 3.55500 34.10800
Mg 0.73500 42.98900 25.73100
C  2.35900 43.77500 28.82400
C  -2.15000 42.13400 27.49300
C  -0.50300 41.99900 22.94300
C  3.88800 43.60700 24.21700
N  0.19600 42.96900 27.95000
C  0.96700 43.35000 29.01100
C  0.25500 43.02600 30.33500
C  -1.12200 42.38000 29.85400
C  -1.04400 42.57500 28.31800
C  -1.24700 40.88600 30.20900
C  0.18000 44.38900 31.10700
C  0.65600 44.44400 32.62600
H  0.12800 43.30900 33.61800
N  -1.09400 42.19900 25.31500
C  -2.22600 41.92700 26.11700
C  -3.33900 41.32600 25.35500
C  -2.75900 41.22800 24.01100
C  -1.39900 41.83000 24.03500
C  -4.64800 40.78500 25.87500
C  -3.38200 40.64500 22.82000
O  -2.75300 40.57400 21.78100
C  -4.81300 40.20200 22.72000
N  1.58600 42.77800 23.86300
C  0.79600 42.46200 22.81400
C  1.54500 42.57400 21.46400
C  2.91600 43.15600 21.89600
C  2.82900 43.23800 23.40400
C  1.70500 41.21100 20.82300
C  3.27200 44.53000 21.26600
C  2.87900 45.86200 21.88700
N  2.70600 43.66400 26.37600
C  3.86700 43.85800 25.60100
C  4.98200 44.34900 26.49800
C  4.44100 44.24700 27.76000
C  3.08800 43.96800 27.59900
C  6.40800 44.54700 26.06100
C  4.75500 44.29700 29.16800
O  5.82900 44.47000 29.78000
C  3.39300 43.94300 29.88200
C  3.68200 42.73000 30.66200
O  3.88900 41.61100 30.21500
O  3.65900 42.98000 32.03200
C  3.92300 41.73700 32.80400
H  -2.99400 41.72300 28.05000
H  -0.83400 41.79800 21.92200
H  4.81500 43.91000 23.72500
H  0.87100 42.29300 30.85500
H  -2.01200 42.88000 30.23600
H  -2.09100 40.61900 30.84500
H  -0.40200 40.62200 30.84400
H  -1.34800 40.31100 29.28900
H  -0.88400 44.61800 31.05000
H  0.67800 45.21800 30.60400
H  0.31800 45.36700 33.09700
H  1.74000 44.44900 32.73200
H  -4.68000 39.70600 25.72900
H  -5.51100 41.32000 25.47900
H  -4.75400 40.90100 26.95400
H  -4.92800 39.69600 21.76200
H  -5.40100 41.11900 22.67100
H  -5.05400 39.36400 23.37400
H  0.88900 43.14100 20.80500
H  3.71900 42.42800 21.78400
H  0.94600 41.05400 20.05700
H  1.67000 40.44100 21.59400
H  2.66600 41.20500 20.31000
H  2.98000 44.40900 20.22300
H  4.35900 44.51100 21.19000
H  2.13300 45.71400 22.66800
H  2.44500 46.46000 21.08600
H  3.77700 46.39400 22.20100
H  6.57700 45.62400 26.05300
H  6.68100 44.01200 25.15200
H  7.02100 44.14100 26.86500
H  3.15900 44.62500 30.69900
H  4.90100 41.37000 32.49400
H  3.23500 40.91400 32.61100
H  3.94500 42.03700 33.85200

