158

Mg 47.74300 45.22700 43.17200
C  44.27500 44.93900 43.18400
C  47.90700 41.78200 43.02600
C  51.00400 45.49200 42.48000
C  47.33900 48.73100 42.73300
N  46.25100 43.58100 42.90800
C  44.86600 43.69700 43.10800
C  44.23200 42.26700 43.19000
C  45.45900 41.34400 43.47900
C  46.59600 42.28000 43.11800
C  45.57900 40.90000 44.94700
C  43.46500 41.85000 41.91500
C  43.47200 42.79500 40.71700
H  42.84800 42.36800 39.35800
N  49.20200 43.85900 42.70400
C  49.08800 42.51000 42.76800
C  50.40500 41.90500 42.47900
C  51.35000 42.92000 42.30100
C  50.53500 44.17600 42.48900
C  50.55000 40.41000 42.26500
C  52.87000 42.74800 41.90300
O  53.36500 41.64000 41.96300
C  53.70200 43.94200 41.58200
N  48.94300 46.84100 42.49800
C  50.26600 46.65000 42.47500
C  50.95200 47.98600 42.71000
C  49.83500 49.06900 42.55100
C  48.58700 48.18200 42.61400
C  51.70200 48.08100 44.10200
C  49.97400 49.80700 41.17300
C  49.74000 51.31000 41.29400
N  46.24600 46.60800 43.02100
C  46.20300 47.99600 42.92700
C  44.81000 48.44500 43.01900
C  44.05800 47.27000 43.05100
C  44.92200 46.20900 43.12600
C  44.41500 49.86400 43.05400
C  42.67900 46.79700 43.22400
O  41.63200 47.44000 43.20300
C  42.77900 45.28600 43.25200
C  42.21800 44.88400 44.53900
O  42.59100 45.26500 45.62100
O  41.20200 43.90500 44.37800
C  40.59600 43.47200 45.59800
H  48.02700 40.73100 43.29700
H  52.07700 45.69000 42.43900
H  47.21900 49.79600 42.52600
H  43.63900 42.22400 44.10400
H  45.45500 40.53400 42.75000
H  44.69900 40.29100 45.15700
H  45.54000 41.74900 45.62900
H  46.59000 40.49600 45.00300
H  42.42800 41.73600 42.22900
H  43.90300 40.90900 41.58100
H  44.47100 43.10700 40.41100
H  42.90200 43.67500 41.01300
H  50.65200 40.34200 41.18200
H  49.77400 39.73300 42.62300
H  51.53200 40.04900 42.57000
H  53.23900 44.43100 40.72500
H  54.73200 43.61200 41.44400
H  53.66100 44.56100 42.47900
H  51.69600 48.05500 41.91600
H  49.83000 49.77200 43.38400
H  51.51300 48.90300 44.79300
H  52.72100 48.09800 43.71700
H  51.59700 47.12500 44.61500
H  49.22300 49.36900 40.51500
H  50.96200 49.72200 40.71900
H  48.79000 51.48100 40.78700
H  50.51700 51.77000 40.68400
H  49.68600 51.53700 42.35900
H  45.06700 50.41800 43.72900
H  43.40100 50.03300 43.41600
H  44.54200 50.23900 42.03800
H  42.19700 44.96500 42.38900
H  40.04200 44.32500 45.98900
H  41.26100 43.13500 46.39400
H  40.01600 42.60800 45.27200
Mg 35.24800 48.62300 25.49800
C  35.40900 46.96000 28.54700
C  34.22800 51.44700 27.20500
C  34.53300 49.98600 22.47700
C  36.21900 45.64300 23.86600
N  34.77000 49.08300 27.72100
C  35.01800 48.29200 28.72800
C  34.90900 49.03500 30.05400
C  34.38700 50.39900 29.61500
C  34.44600 50.33000 28.09800
C  32.91200 50.79200 29.98600
C  36.23300 49.03200 30.81300
C  36.10200 48.66200 32.28100
H  34.77700 49.10700 32.95000
N  34.53500 50.50600 24.84300
C  34.19100 51.57700 25.68200
C  33.89100 52.73600 24.90500
C  34.01500 52.32400 23.53200
C  34.34600 50.90900 23.53700
C  33.48800 54.05600 25.60600
C  33.76800 53.19200 22.29100
O  33.83200 52.74600 21.19400
C  33.44900 54.66600 22.53700
N  35.24900 47.90200 23.46500
C  34.98300 48.69300 22.39800
C  35.36000 48.07200 21.07600
C  36.23200 46.87800 21.60600
C  35.89200 46.77500 23.10000
C  34.17700 47.60400 20.23700
C  37.76000 47.13400 21.17400
C  38.72600 47.90300 22.14400
N  35.70400 46.67800 26.01100
C  36.10200 45.50800 25.29600
C  36.48300 44.40900 26.17900
C  36.18500 44.98600 27.42700
C  35.59100 46.31000 27.31500
C  37.16500 43.18200 25.78800
C  36.44100 44.67300 28.85800
O  37.05900 43.71100 29.33700
C  35.82300 45.93000 29.59400
C  34.62500 45.40400 30.18000
O  33.57600 45.16200 29.64200
O  34.91900 45.10600 31.47800
C  33.74800 44.61900 32.26400
H  33.92100 52.29900 27.81600
H  34.47100 50.58600 21.56700
H  36.53100 44.78200 23.27100
H  34.16400 48.49600 30.63900
H  35.00700 51.25500 29.88200
H  32.22200 50.79800 29.14200
H  32.84700 51.75000 30.50000
H  32.50200 50.00200 30.61400
H  36.77000 49.95400 30.58900
H  36.96700 48.37700 30.34200
H  36.89600 49.07000 32.90600
H  36.28900 47.58900 32.32100
H  32.50800 54.34600 25.22900
H  34.06800 54.95200 25.38700
H  33.42000 53.99400 26.69200
H  32.50400 54.83900 23.05200
H  33.31500 55.20000 21.59600
H  34.22800 55.15300 23.12300
H  35.96200 48.68400 20.40500
H  35.83800 45.94100 21.21200
H  34.29600 46.61600 19.79400
H  34.07400 48.27200 19.38200
H  33.29700 47.64000 20.88000
H  37.70000 47.65700 20.21900
H  38.18100 46.18100 20.85100
H  38.31700 48.02900 23.14600
H  38.98100 48.87700 21.72700
H  39.57800 47.24200 22.30400
H  37.84100 42.90400 26.59600
H  37.61100 43.07400 24.79900
H  36.44900 42.36300 25.72100
H  36.58400 46.25800 30.30200
H  33.00700 45.41400 32.18300
H  33.92400 44.31900 33.29700
H  33.26700 43.77900 31.76300

