158

Mg 16.35100 -2.08000 27.55100
C  15.38800 -0.00700 30.31900
C  18.60100 -3.52600 29.62900
C  17.53800 -3.60700 24.85300
C  14.24600 -0.32200 25.55100
N  16.78400 -1.87700 29.70700
C  16.28900 -1.00700 30.68700
C  16.78000 -1.32900 32.08200
C  17.88300 -2.39800 31.79300
C  17.74400 -2.61100 30.25900
C  19.27300 -1.99900 32.27200
C  15.68100 -1.87900 32.98700
C  15.57300 -1.30000 34.51200
H  16.82300 -0.90700 35.26300
N  17.78100 -3.47200 27.32100
C  18.62300 -3.93100 28.28900
C  19.46800 -4.95500 27.73600
C  19.10300 -5.08900 26.35800
C  18.10500 -3.98800 26.07300
C  20.35900 -5.82700 28.44900
C  19.64800 -6.12900 25.31900
O  19.19800 -6.13800 24.21000
C  20.83000 -7.05700 25.63300
N  16.03800 -1.93000 25.45700
C  16.62100 -2.62300 24.51900
C  16.29700 -2.11700 23.10000
C  14.89300 -1.44200 23.37000
C  15.09400 -1.18000 24.87200
C  17.42000 -1.29100 22.38100
C  13.60900 -2.26600 22.98700
C  12.61400 -2.84700 24.04600
N  15.06800 -0.54300 27.82900
C  14.16300 0.01100 26.92000
C  13.46800 1.12400 27.55600
C  13.88600 1.06700 28.91300
C  14.89100 0.08800 29.01100
C  12.71300 2.19100 26.76100
C  13.74100 1.79900 30.15200
O  13.06600 2.80900 30.39900
C  14.61800 1.03000 31.18100
C  15.55000 1.97100 31.91100
O  16.49300 2.55400 31.45200
O  15.11100 2.04100 33.22400
C  15.65100 3.12500 34.09300
H  19.32400 -4.09100 30.22200
H  18.00400 -4.04200 23.96600
H  13.37800 0.03000 24.99000
H  17.23600 -0.37600 32.34900
H  17.64500 -3.31200 32.33800
H  19.33100 -1.19900 33.00900
H  20.03500 -1.79000 31.52100
H  19.72600 -2.84800 32.78400
H  15.63900 -2.96700 32.93600
H  14.76100 -1.81500 32.40600
H  15.09600 -2.08800 35.09500
H  15.02700 -0.35700 34.51600
H  21.32200 -5.90000 27.94300
H  19.92800 -6.82700 28.41200
H  20.44200 -5.67200 29.52500
H  21.76800 -6.64400 25.26300
H  20.68800 -7.90100 24.95800
H  20.93100 -7.60200 26.57100
H  16.25700 -3.04400 22.52700
H  14.77700 -0.42800 22.98800
H  17.15400 -0.27500 22.08800
H  17.71200 -1.88100 21.51200
H  18.27000 -1.35800 23.06000
H  14.06400 -3.15700 22.55500
H  13.10800 -1.77300 22.15400
H  12.90900 -2.58800 25.06300
H  12.43000 -3.92100 24.01100
H  11.62900 -2.39500 23.93900
H  12.88300 3.14700 27.25500
H  11.70800 1.77800 26.84900
H  13.06400 2.19300 25.72900
H  13.88300 0.56700 31.84000
H  14.82900 3.81300 34.28900
H  16.52300 3.62500 33.67000
H  15.97600 2.59400 34.98700
Mg 53.68200 24.04500 45.12300
C  50.96700 26.12400 44.53400
C  51.75700 21.41500 43.79500
C  56.41400 22.02500 44.98300
C  55.52800 26.71300 46.03100
N  51.66800 23.83200 44.17700
C  50.72400 24.87700 44.09000
C  49.41800 24.29100 43.64900
C  49.59500 22.76800 44.00400
C  51.10600 22.61500 44.04800
C  48.98200 22.16600 45.27500
C  48.89400 24.68800 42.21500
C  50.00000 24.67800 41.16200
H  50.53300 23.30800 40.75700
N  54.02000 21.97600 44.51400
C  53.13700 21.08900 44.05100
C  53.79100 19.79800 44.00800
C  55.08800 19.97200 44.58500
C  55.24000 21.32600 44.74300
C  53.07500 18.54100 43.46700
C  56.03800 18.78600 44.90300
O  55.74600 17.62600 44.61400
C  57.27200 18.95400 45.80200
N  55.73200 24.42700 45.15100
C  56.66100 23.41600 45.25100
C  58.03300 24.02300 45.71600
C  57.66200 25.48400 46.01100
C  56.18200 25.56200 45.70400
C  58.78400 23.34600 46.85700
C  58.41200 26.51000 45.14900
C  57.90900 26.71600 43.61600
N  53.36900 25.98200 45.36800
C  54.17200 26.98700 45.81100
C  53.44600 28.18500 46.07400
C  52.23400 27.90800 45.41600
C  52.21300 26.58700 45.05100
C  53.84000 29.41400 46.68700
C  50.93400 28.45800 45.02300
O  50.54800 29.60700 45.12600
C  50.06000 27.30000 44.50200
C  49.68500 27.79300 43.10300
O  50.40300 28.01000 42.12000
O  48.30300 27.75800 43.06000
C  47.67200 28.47400 41.93700
H  51.22700 20.52100 43.45900
H  57.37400 21.53500 45.15400
H  56.17200 27.55000 46.31000
H  48.67300 24.70400 44.33000
H  49.12500 22.23700 43.17500
H  48.50900 22.89100 45.93700
H  49.72600 21.67300 45.90100
H  48.29800 21.39300 44.92400
H  48.33400 25.61700 42.32400
H  48.14300 23.99700 41.83200
H  50.86300 25.25200 41.49700
H  49.72900 25.13200 40.20800
H  53.61200 18.33600 42.54100
H  52.01700 18.65400 43.23100
H  52.95900 17.67100 44.11300
H  57.49900 18.12100 46.46800
H  57.18300 19.86200 46.39800
H  58.15000 18.91900 45.15700
H  58.67100 24.02600 44.83200
H  57.72800 25.68800 47.08000
H  59.64200 22.80100 46.46200
H  58.12700 22.64900 47.37800
H  59.22100 24.08000 47.53400
H  59.41200 26.07800 45.11600
H  58.49800 27.49900 45.59900
H  57.02900 26.11000 43.39700
H  58.78100 26.49600 43.00000
H  57.63100 27.76400 43.51000
H  54.22600 30.09400 45.92800
H  54.60500 29.21000 47.43700
H  52.93400 29.87000 47.08600
H  49.18200 27.18000 45.13700
H  48.29800 29.11000 41.31100
H  46.94900 29.22100 42.26300
H  47.14000 27.74400 41.32700

