158

Mg 17.05000 -0.63800 28.13500
C  16.01900 1.35200 30.83000
C  19.15700 -2.49100 30.15000
C  18.40000 -2.05800 25.40000
C  15.30300 1.62600 25.99800
N  17.48300 -0.62500 30.20000
C  16.95700 0.32200 31.13900
C  17.47400 -0.08500 32.56500
C  18.48300 -1.22300 32.29200
C  18.39200 -1.47100 30.78000
C  19.90000 -0.99300 32.82800
C  16.25900 -0.54500 33.42300
C  16.14500 -0.07100 34.86400
H  17.44300 0.43900 35.54800
N  18.37300 -2.21100 27.85900
C  19.20400 -2.86600 28.80300
C  19.92700 -3.98300 28.17500
C  19.74100 -3.87200 26.81400
C  18.80900 -2.65600 26.64300
C  20.69900 -4.99200 28.94000
C  20.32900 -4.70600 25.79900
O  19.96600 -4.57800 24.59100
C  21.28200 -5.88300 26.05300
N  16.87400 -0.29900 25.96700
C  17.63800 -0.97500 25.09900
C  17.26900 -0.67400 23.65000
C  16.18600 0.44100 23.83400
C  16.08900 0.61100 25.32500
C  18.43200 -0.18600 22.82600
C  14.76400 0.20100 23.15000
C  13.62500 -0.44800 23.92900
N  15.77700 1.02100 28.29200
C  15.23100 1.91500 27.39800
C  14.52100 2.94800 28.04100
C  14.78700 2.74900 29.41100
C  15.60800 1.63100 29.47600
C  13.84700 4.15800 27.37100
C  14.57500 3.34300 30.77900
O  13.96400 4.38400 31.10400
C  15.38000 2.43400 31.74600
C  16.37900 3.27200 32.35900
O  17.48900 3.49200 31.90900
O  15.98300 3.58700 33.66100
C  17.04800 4.22300 34.54000
H  19.90800 -2.91700 30.81800
H  18.84400 -2.58400 24.55200
H  14.83300 2.28400 25.26400
H  17.95500 0.81300 32.95200
H  18.09500 -2.12100 32.77200
H  20.73600 -1.19700 32.16000
H  20.09100 -1.75700 33.58100
H  20.03400 -0.04700 33.35300
H  16.17200 -1.63000 33.36700
H  15.38900 -0.14900 32.89900
H  15.77300 -0.78200 35.60100
H  15.42300 0.74600 34.88700
H  20.64400 -4.79600 30.01100
H  21.72200 -5.10400 28.58300
H  20.24900 -5.97000 28.77000
H  20.79800 -6.55300 26.76300
H  22.15500 -5.46900 26.55700
H  21.54900 -6.41900 25.14300
H  16.86400 -1.57300 23.18600
H  16.62300 1.41100 23.59800
H  18.11500 0.72800 22.32400
H  18.67300 -1.00600 22.14900
H  19.34200 0.08500 23.36100
H  15.04300 -0.31700 22.23300
H  14.43800 1.22100 22.94600
H  13.85100 -1.40500 24.40000
H  12.79100 -0.62000 23.24900
H  13.25400 0.22600 24.70100
H  14.31000 4.34900 26.40200
H  13.92300 4.99700 28.06300
H  12.79800 4.00400 27.12100
H  14.70400 1.93800 32.44100
H  16.65100 4.03400 35.53700
H  17.06700 5.29700 34.35200
H  18.02700 3.75800 34.42200
Mg -5.29000 25.56100 26.96100
C  -3.93700 27.27900 29.65900
C  -7.08900 23.72800 29.15100
C  -6.34700 23.73200 24.35000
C  -3.23600 27.30000 24.85000
N  -5.51100 25.54000 29.19500
C  -4.87800 26.33300 30.08500
C  -5.33200 26.00000 31.53900
C  -6.00600 24.57000 31.29800
C  -6.17600 24.55800 29.76600
C  -5.21200 23.30000 31.90000
C  -6.30000 27.03000 32.06500
C  -6.30500 27.10500 33.60200
H  -5.70000 25.99300 34.42400
N  -6.64200 24.08300 26.82200
C  -7.27600 23.41800 27.77200
C  -8.22700 22.58000 27.23600
C  -8.08400 22.57600 25.80400
C  -7.00800 23.51800 25.61800
C  -9.22900 21.78100 28.12200
C  -8.86100 21.88100 24.76400
O  -8.62400 22.12900 23.59500
C  -9.81300 20.81100 25.14700
N  -4.81100 25.47600 24.91400
C  -5.44800 24.66400 24.02500
C  -5.04600 24.93100 22.57100
C  -4.22100 26.24400 22.76000
C  -4.06500 26.39800 24.24100
C  -4.20100 23.78100 21.88200
C  -4.70000 27.54300 22.05400
C  -4.01700 27.71700 20.67700
N  -3.80400 26.89400 27.17100
C  -3.14600 27.65600 26.21700
C  -2.45100 28.76500 26.82100
C  -2.71700 28.67200 28.17700
C  -3.51400 27.50700 28.33700
C  -1.72200 29.89200 26.17600
C  -2.54800 29.24900 29.53800
O  -1.98300 30.27900 29.93400
C  -3.37600 28.37300 30.47600
C  -2.48900 28.03900 31.64300
O  -1.50300 27.36000 31.60600
O  -3.07000 28.58700 32.80200
C  -2.40100 28.32300 34.09900
H  -7.62600 23.17700 29.92600
H  -6.60000 23.10200 23.49500
H  -2.66600 27.94300 24.17600
H  -4.39300 25.95000 32.09000
H  -6.99800 24.65900 31.74100
H  -4.29400 23.80600 32.19800
H  -4.97400 22.58200 31.11500
H  -5.73000 22.77100 32.70000
H  -7.27200 26.75600 31.65500
H  -5.93300 27.97800 31.67200
H  -7.34500 27.11600 33.92700
H  -5.71600 27.99700 33.81300
H  -10.06100 22.47100 28.26200
H  -8.87400 21.73000 29.15100
H  -9.42100 20.79100 27.70800
H  -9.35200 19.94800 25.62600
H  -10.34200 20.49300 24.24800
H  -10.50400 21.31800 25.82100
H  -5.94200 25.16200 21.99400
H  -3.22100 26.07600 22.36000
H  -4.27800 22.89200 22.50700
H  -3.11900 23.91200 21.89300
H  -4.53100 23.49600 20.88300
H  -4.43400 28.44300 22.60900
H  -5.77500 27.36300 22.07600
H  -3.06200 28.21400 20.85000
H  -4.66900 28.23100 19.97100
H  -3.70800 26.75600 20.26600
H  -0.66000 29.74400 25.98100
H  -1.88600 30.83100 26.70500
H  -2.14300 30.24800 25.23600
H  -4.14100 29.08200 30.79100
H  -3.13000 28.26000 34.90700
H  -1.67100 29.08600 34.37000
H  -1.85800 27.38000 34.04700

