158

Mg 23.90300 -7.50600 46.89700
C  26.66100 -5.66200 45.77600
C  22.00100 -6.06400 44.40300
C  21.55300 -9.76700 47.55900
C  26.28300 -9.45400 48.75400
N  24.40500 -6.16900 45.07100
C  25.55800 -5.47600 44.97400
C  25.41800 -4.43900 43.89400
C  23.91900 -4.62700 43.33100
C  23.37200 -5.62700 44.35400
C  23.19800 -3.24400 43.28600
C  26.46900 -4.73300 42.74300
C  27.07100 -3.51600 42.04500
H  26.85500 -3.32000 40.62200
N  21.99100 -7.87200 46.05000
C  21.35100 -7.10500 45.12900
C  19.93000 -7.54300 45.12900
C  19.78800 -8.57500 46.09800
C  21.11400 -8.79600 46.60200
C  18.91000 -6.94200 44.35100
C  18.50100 -9.30200 46.42700
O  17.44800 -9.04100 45.84600
C  18.56600 -10.61600 47.21600
N  23.93000 -9.32600 47.97200
C  22.75700 -10.12300 48.14000
C  23.10400 -11.43600 48.89800
C  24.49600 -11.10800 49.38800
C  24.94900 -9.84500 48.70500
C  22.11800 -11.87600 50.02100
C  25.38400 -12.37700 49.50200
C  25.84000 -13.02200 48.17400
N  26.01900 -7.45300 47.41500
C  26.84600 -8.39200 48.11000
C  28.20500 -7.96000 48.15400
C  28.18200 -6.81800 47.26400
C  26.83800 -6.66900 46.81100
C  29.27200 -8.43200 48.99600
C  28.93700 -5.71200 46.81200
O  30.13300 -5.38100 46.97900
C  28.00300 -4.95900 45.64000
C  27.95000 -3.56400 45.91800
O  27.20900 -2.91200 46.67100
O  28.82600 -2.95400 45.09400
C  28.90900 -1.50200 45.21300
H  21.41500 -5.49400 43.67900
H  20.88000 -10.56800 47.87100
H  26.99900 -10.14900 49.19700
H  25.56500 -3.50200 44.43000
H  23.91500 -5.07400 42.33700
H  22.76800 -3.13300 42.29100
H  24.01700 -2.53700 43.42200
H  22.43600 -3.18100 44.06200
H  26.04200 -5.37700 41.97400
H  27.17500 -5.42100 43.20800
H  28.16000 -3.55100 42.06800
H  26.82600 -2.62400 42.62300
H  18.52500 -7.69000 43.65800
H  19.23800 -6.01400 43.88300
H  18.10500 -6.55700 44.97800
H  18.82200 -10.38800 48.25000
H  19.26200 -11.29100 46.71900
H  17.62800 -11.15500 47.07800
H  22.99800 -12.22100 48.15000
H  24.30200 -10.88100 50.43600
H  21.49200 -11.02200 50.28000
H  22.68300 -12.11200 50.92300
H  21.62300 -12.77200 49.64800
H  25.01500 -13.13600 50.19100
H  26.31200 -12.05700 49.97700
H  26.91800 -12.92500 48.30700
H  25.42400 -12.58400 47.26700
H  25.47900 -14.05000 48.17900
H  29.03200 -8.60300 50.04500
H  30.00800 -7.62900 48.96400
H  29.65300 -9.41400 48.71700
H  28.51100 -5.18400 44.70100
H  28.85600 -1.11600 46.23100
H  28.15300 -1.03900 44.57900
H  29.84000 -1.15800 44.76300
Mg 36.28600 49.50100 24.08900
C  36.23000 48.06300 27.23400
C  34.99500 52.52600 25.41900
C  36.26100 50.92600 21.03500
C  37.45600 46.51300 22.82200
N  35.69000 50.10400 26.01900
C  35.86900 49.41800 27.19800
C  35.55300 50.37300 28.46800
C  35.01400 51.63900 27.81000
C  35.14900 51.38300 26.29800
C  33.60300 51.99300 28.36500
C  36.81400 50.42900 29.39400
C  36.62400 50.26800 30.89700
H  35.17900 50.10300 31.34600
N  35.76800 51.55100 23.30700
C  35.22300 52.57800 24.03100
C  34.96000 53.68300 23.10000
C  35.39600 53.23500 21.80700
C  35.80800 51.82400 22.00200
C  34.53800 55.04300 23.56700
C  35.51000 54.03600 20.55500
O  35.92100 53.56000 19.48200
C  35.20200 55.52300 20.44400
N  36.84200 48.84400 22.22800
C  36.68000 49.57400 21.10300
C  36.86700 48.72500 19.82500
C  37.23100 47.33900 20.44800
C  37.12000 47.56800 21.93100
C  35.51900 48.66900 18.93600
C  38.69000 46.99700 20.00200
C  39.77000 47.80800 20.69100
N  36.78900 47.59000 24.83700
C  37.26200 46.48200 24.24200
C  37.45500 45.32700 25.18900
C  37.04100 45.94100 26.41100
C  36.67400 47.28500 26.16200
C  37.72600 43.91200 25.02800
C  36.80400 45.73200 27.79700
O  36.85900 44.78400 28.49300
C  36.31200 47.09200 28.44100
C  35.02100 46.84200 29.15800
O  33.85300 46.91200 28.70200
O  35.26100 46.41500 30.42500
C  34.04300 45.90600 31.07500
H  34.59900 53.37400 25.98100
H  36.15100 51.32000 20.02200
H  37.70200 45.57700 22.31400
H  34.82200 49.77600 29.01400
H  35.77700 52.36700 28.08800
H  32.93000 52.09200 27.51300
H  33.55100 52.99600 28.78800
H  33.21900 51.25300 29.06600
H  37.27000 51.38100 29.12000
H  37.53500 49.70200 29.01900
H  36.93600 51.20800 31.35100
H  37.24800 49.45300 31.26500
H  34.07500 55.63600 22.77900
H  35.35900 55.65300 23.94400
H  33.87500 55.07100 24.43200
H  34.11600 55.61100 20.47300
H  35.52800 55.92100 19.48300
H  35.74800 55.94000 21.29000
H  37.64300 49.12000 19.17000
H  36.50000 46.54600 20.29000
H  34.75900 49.34500 19.32600
H  35.03600 47.69900 18.81600
H  35.61400 48.99900 17.90100
H  38.87300 47.18700 18.94400
H  38.90000 45.93100 20.09000
H  39.37300 48.67100 21.22600
H  40.59700 48.10900 20.04900
H  40.29500 47.31100 21.50800
H  38.64500 43.49900 25.44400
H  37.76800 43.68200 23.96400
H  36.86400 43.40300 25.46000
H  37.16400 47.33900 29.07500
H  33.55000 45.16100 30.45000
H  33.30200 46.67500 31.29400
H  34.26700 45.37100 31.99700

