158

Mg 3.21600 0.07900 44.43700
C  6.09100 1.85200 44.00600
C  1.44100 2.84900 43.22000
C  0.43000 -1.89600 44.11400
C  5.10100 -2.70900 45.29800
N  3.79500 2.10700 43.56400
C  4.99500 2.61200 43.52900
C  5.06400 3.98900 42.84400
C  3.54600 4.40700 42.99700
C  2.85100 3.04000 43.27600
C  3.27900 5.44000 44.00600
C  5.64500 4.00800 41.42400
C  5.51700 2.80000 40.44800
H  5.93700 3.14400 38.94500
N  1.16500 0.39600 43.77900
C  0.64100 1.69600 43.49700
C  -0.80600 1.56900 43.35800
C  -1.10300 0.25900 43.61900
C  0.18500 -0.50600 43.90300
C  -1.70900 2.76900 42.92100
C  -2.56700 -0.39200 43.77600
O  -3.50000 0.35600 43.64800
C  -2.85400 -1.86500 44.09900
N  2.89400 -1.99800 44.40600
C  1.64700 -2.59200 44.30200
C  1.71600 -4.13500 44.69600
C  3.24800 -4.38400 45.00100
C  3.75800 -2.94100 44.98500
C  0.70500 -4.60900 45.69500
C  3.91400 -5.36900 43.98900
C  4.87300 -6.21400 44.76600
N  5.16700 -0.32900 44.87500
C  5.76300 -1.48300 45.34400
C  7.18000 -1.23100 45.52400
C  7.33200 0.12500 45.10000
C  6.08900 0.57100 44.60900
C  8.20700 -2.22100 45.96900
C  8.26300 1.20000 44.87300
O  9.47100 1.17600 45.10700
C  7.50400 2.36000 44.13800
C  7.70800 3.64300 44.87000
O  8.68600 4.36300 44.84100
O  6.60700 3.91400 45.60600
C  6.79100 5.14000 46.45700
H  0.95000 3.76100 42.87600
H  -0.38100 -2.59400 43.89600
H  5.70700 -3.56600 45.59900
H  5.76900 4.67700 43.31000
H  3.15500 4.69700 42.02100
H  4.06600 5.77300 44.68300
H  2.42900 5.15800 44.62700
H  3.02400 6.32200 43.41900
H  6.68200 4.33100 41.51600
H  5.21000 4.89200 40.95700
H  4.49600 2.42300 40.38700
H  6.08300 1.93000 40.78100
H  -2.61200 2.38100 42.45000
H  -1.38400 3.35700 42.06300
H  -2.01000 3.36500 43.78200
H  -3.91100 -2.11200 44.00100
H  -2.69800 -2.15300 45.13800
H  -2.31100 -2.58300 43.48500
H  1.41700 -4.56300 43.73900
H  3.41900 -4.73000 46.02000
H  -0.01000 -5.28600 45.22600
H  0.17100 -3.76000 46.12200
H  1.21800 -5.15600 46.48500
H  4.49100 -4.87500 43.20700
H  3.19100 -6.04700 43.53600
H  4.96000 -6.04300 45.83900
H  5.85400 -5.99400 44.34600
H  4.58600 -7.23500 44.51400
H  9.20300 -1.81200 45.79900
H  8.08500 -3.16900 45.44400
H  7.93800 -2.42500 47.00600
H  7.99900 2.40900 43.16800
H  6.07800 5.21800 47.27800
H  6.84700 6.06800 45.88700
H  7.73100 4.97700 46.98300
Mg 35.27500 1.47700 29.05200
C  32.90700 2.28000 31.59700
C  37.58000 1.20800 31.42400
C  37.45900 1.26500 26.57600
C  32.96000 2.65400 26.77500
N  35.22600 1.73700 31.21900
C  34.18000 2.04900 32.10200
C  34.60700 1.99100 33.60200
C  36.17800 1.88100 33.42700
C  36.33900 1.52600 31.96300
C  36.93400 3.13700 33.90900
C  34.06700 0.80400 34.49000
C  34.19700 1.03900 36.00900
H  35.00800 2.18500 36.63400
N  37.26000 1.15200 29.01400
C  38.04100 0.99400 30.12200
C  39.40200 0.77700 29.73400
C  39.35400 0.67200 28.24900
C  37.96800 1.08600 27.87400
C  40.54000 0.55300 30.70500
C  40.59100 0.20800 27.31500
O  40.47800 0.24400 26.09200
C  41.90000 -0.29100 27.82700
N  35.14500 1.81700 26.91300
C  36.20600 1.60200 26.16200
C  36.04400 2.04500 24.71900
C  34.54600 2.41100 24.71300
C  34.17200 2.22000 26.17800
C  37.03500 3.11700 24.27900
C  33.70800 1.56800 23.69900
C  33.46800 0.03000 24.07000
N  33.28600 2.14200 29.11300
C  32.45800 2.49700 28.03300
C  31.08800 2.71100 28.51200
C  31.23000 2.73800 29.91100
C  32.54500 2.32500 30.22100
C  29.93200 2.99900 27.69500
C  30.56000 3.03100 31.15900
O  29.42100 3.43100 31.39700
C  31.60000 2.72300 32.28700
C  31.72700 4.04300 33.00700
O  32.32700 4.99600 32.59200
O  31.23200 3.86300 34.27100
C  31.51600 4.95100 35.18900
H  38.31200 1.12600 32.23000
H  38.17100 1.15500 25.75500
H  32.32500 2.84700 25.90800
H  34.47100 2.95900 34.08500
H  36.54500 0.92700 33.80700
H  36.31800 3.77000 34.54800
H  37.47000 3.69400 33.14100
H  37.64300 2.70700 34.61700
H  34.44200 -0.17100 34.17800
H  33.00700 0.71300 34.25500
H  34.35400 0.12800 36.58700
H  33.15800 1.20300 36.29300
H  40.22200 0.20400 31.68800
H  41.02600 1.51600 30.86300
H  41.25100 -0.06900 30.16200
H  41.63800 -1.12600 28.47700
H  42.31800 0.59500 28.30600
H  42.61400 -0.52700 27.03800
H  36.17500 1.28800 23.94600
H  34.30800 3.46200 24.54800
H  37.70500 2.78900 23.48400
H  37.59100 3.41000 25.16900
H  36.56000 3.99400 23.83800
H  34.44100 1.50900 22.89500
H  32.80100 2.06100 23.34800
H  34.15400 -0.21600 24.88100
H  33.76000 -0.62000 23.24600
H  32.40600 -0.09800 24.27900
H  30.05700 3.84100 27.01400
H  29.01000 2.98200 28.27700
H  30.14800 2.12700 27.07700
H  31.12700 1.97100 32.91900
H  30.98200 5.85100 34.88300
H  32.56100 5.12200 34.93300
H  31.42800 4.64200 36.23100

