158

Mg -8.91000 40.17100 43.60900
C  -7.88200 36.90100 42.44400
C  -6.34000 41.37700 41.67700
C  -10.07500 43.18800 44.28200
C  -11.89500 38.73600 44.81700
N  -7.33600 39.21600 42.23600
C  -7.10300 37.89100 41.94800
C  -5.76600 37.76000 41.18600
C  -5.36700 39.22100 40.93300
C  -6.41200 40.00700 41.66400
C  -3.87900 39.63200 41.24800
C  -5.87200 36.88100 39.87000
C  -4.96500 37.22500 38.63100
H  -4.52100 36.18300 37.65400
N  -8.21100 42.08900 43.16000
C  -7.19800 42.37800 42.33800
C  -7.07700 43.82900 42.13100
C  -7.95100 44.36100 43.10800
C  -8.75000 43.19900 43.71100
C  -6.02100 44.49100 41.19100
C  -8.13800 45.84600 43.32800
O  -7.62600 46.69900 42.60000
C  -8.82300 46.32300 44.58000
N  -10.81400 40.90400 44.33200
C  -10.99400 42.19600 44.66100
C  -12.28100 42.43900 45.23300
C  -12.89700 41.03400 45.29400
C  -11.79100 40.11300 44.83100
C  -12.28900 43.15300 46.65900
C  -14.38400 40.85100 44.76500
C  -14.48300 40.16600 43.42600
N  -9.83600 38.28600 43.63100
C  -11.00800 37.86100 44.14300
C  -11.04600 36.46300 44.04800
C  -9.84900 36.01000 43.36800
C  -9.14700 37.21700 43.11100
C  -12.21900 35.62600 44.54700
C  -9.10600 34.89400 42.91400
O  -9.38700 33.67900 42.88600
C  -7.77500 35.39300 42.27600
C  -6.56300 34.83400 42.98700
O  -6.31900 34.98900 44.18600
O  -5.71700 34.12400 42.10500
C  -4.50900 33.63300 42.68900
H  -5.56400 41.90300 41.11700
H  -10.39500 44.16800 44.64200
H  -12.84300 38.46900 45.28800
H  -5.09400 37.20700 41.84200
H  -5.46600 39.45200 39.87200
H  -3.44700 40.18700 40.41500
H  -3.25200 38.74900 41.36900
H  -3.80800 40.31200 42.09700
H  -6.84100 37.17300 39.46500
H  -6.02200 35.82700 40.10400
H  -4.03100 37.61900 39.03200
H  -5.51600 38.00200 38.10100
H  -6.36500 45.50100 40.97100
H  -5.88100 43.87500 40.30200
H  -5.12000 44.54000 41.80200
H  -8.39100 47.28700 44.84600
H  -8.79600 45.64000 45.42900
H  -9.88100 46.44200 44.34500
H  -12.83200 43.05600 44.52300
H  -12.82800 40.84000 46.36500
H  -11.38100 42.88100 47.19700
H  -13.10000 42.79600 47.29500
H  -12.37100 44.22900 46.50600
H  -14.93300 41.78400 44.88800
H  -14.89400 40.08100 45.34400
H  -13.56800 40.12600 42.83500
H  -15.20200 40.78900 42.89300
H  -14.87700 39.14900 43.41500
H  -12.26400 34.74000 43.91400
H  -13.14600 36.18800 44.65700
H  -11.92800 35.38200 45.56800
H  -7.70900 35.21300 41.20300
H  -4.47900 33.18000 43.68000
H  -3.71700 34.38200 42.68200
H  -4.19500 32.91000 41.93700
Mg -5.43500 24.49100 27.39300
C  -3.68300 26.14900 30.05700
C  -6.31500 22.19800 29.68900
C  -6.33800 22.49400 24.86500
C  -3.86200 26.63400 25.24600
N  -5.00800 24.25300 29.68200
C  -4.42000 25.06200 30.51000
C  -4.59700 24.63200 31.93100
C  -5.34100 23.28900 31.76900
C  -5.60600 23.24000 30.27700
C  -4.56200 22.01900 32.15800
C  -5.39800 25.70000 32.74900
C  -4.95800 25.93700 34.17600
H  -5.59100 25.00700 35.18500
N  -6.39700 22.64800 27.28000
C  -6.73300 21.88400 28.37000
C  -7.44200 20.74200 27.86600
C  -7.42800 20.81100 26.47700
C  -6.59900 21.94400 26.11000
C  -7.88300 19.63400 28.68900
C  -8.03100 19.86200 25.41900
O  -7.66000 19.81300 24.24800
C  -9.06900 18.73300 25.95100
N  -5.15500 24.58300 25.30400
C  -5.64700 23.67400 24.43100
C  -5.49400 24.13000 22.98400
C  -4.64800 25.43600 23.15500
C  -4.57600 25.62900 24.61100
C  -4.91500 22.99300 22.06500
C  -5.10200 26.74100 22.43100
C  -3.93100 27.43100 21.58900
N  -4.20100 26.07600 27.58300
C  -3.62300 26.89000 26.59500
C  -2.80600 27.93600 27.21100
C  -2.75700 27.67000 28.53900
C  -3.66000 26.58600 28.73600
C  -2.19200 29.03700 26.38400
C  -2.23300 28.13200 29.79000
O  -1.40600 28.98600 30.07400
C  -2.90300 27.16700 30.84200
C  -1.73400 26.44700 31.46200
O  -1.15500 25.40000 31.03700
O  -1.41500 26.97400 32.72000
C  -0.44300 26.21000 33.51800
H  -6.64200 21.47800 30.44200
H  -6.90800 22.14200 24.00200
H  -3.43500 27.34800 24.53900
H  -3.62200 24.42200 32.37100
H  -6.32000 23.18200 32.23800
H  -3.77200 22.24700 32.87400
H  -4.01200 21.65400 31.29100
H  -5.13600 21.22100 32.63000
H  -6.45300 25.44000 32.65800
H  -5.31300 26.60400 32.14600
H  -5.12200 26.98200 34.44200
H  -3.89600 25.69500 34.15700
H  -8.91600 19.35600 28.47600
H  -7.72800 19.91700 29.73000
H  -7.37400 18.69800 28.45700
H  -8.41100 17.97100 26.36800
H  -9.33100 18.21900 25.02600
H  -9.97000 19.11800 26.42700
H  -6.42700 24.29800 22.44600
H  -3.62500 25.20500 22.85700
H  -4.19600 22.48600 22.70800
H  -4.48800 23.19700 21.08300
H  -5.70100 22.26200 21.87700
H  -5.48500 27.48900 23.12600
H  -5.91900 26.60600 21.72200
H  -3.59300 28.31300 22.13200
H  -4.40500 27.73100 20.65500
H  -3.10900 26.79900 21.25100
H  -2.94900 29.63800 25.88100
H  -1.59900 28.62800 25.56500
H  -1.61300 29.76100 26.95700
H  -3.41800 27.79200 31.57100
H  0.56900 26.56500 33.32100
H  -0.39600 25.13700 33.33500
H  -0.72900 26.34600 34.56100

