158

Mg 27.68700 49.86100 26.48700
C  25.64000 50.86300 29.14200
C  30.07200 49.01800 28.86100
C  29.80700 49.40300 23.98900
C  25.08300 50.61100 24.25800
N  27.77200 49.98700 28.81300
C  26.80500 50.33700 29.62400
C  27.22200 50.24900 31.07200
C  28.73600 49.74900 30.98600
C  28.90700 49.59700 29.50100
C  29.75800 50.78100 31.60200
C  26.34900 49.18300 31.87500
C  25.58400 49.75000 33.14400
H  26.42600 49.67200 34.38700
N  29.54200 49.07700 26.42000
C  30.36600 48.81900 27.52700
C  31.64900 48.40200 26.97900
C  31.59600 48.51300 25.56500
C  30.27400 49.03600 25.28200
C  32.72500 47.79400 27.96700
C  32.68500 48.23400 24.52000
O  32.53000 48.50500 23.29300
C  33.97100 47.64400 24.99500
N  27.54900 50.18200 24.34300
C  28.53200 49.74300 23.54800
C  28.14000 49.93100 22.01700
C  26.55800 50.21600 22.16600
C  26.33600 50.33500 23.69100
C  28.79700 51.13100 21.32300
C  25.69000 49.04200 21.55700
C  25.48500 47.69600 22.36400
N  25.76400 50.67900 26.68300
C  24.81300 50.87400 25.65600
C  23.61800 51.42000 26.26200
C  23.86800 51.46700 27.64000
C  25.22300 51.03200 27.82800
C  22.41200 51.84600 25.50700
C  23.32400 51.71700 28.93700
O  22.33300 52.31100 29.26200
C  24.34500 51.34600 29.94000
C  24.65900 52.52800 30.83600
O  25.61800 53.30900 30.77800
O  23.64400 52.54900 31.81600
C  23.90700 53.39600 33.00300
H  30.80100 48.61400 29.56500
H  30.43200 49.14000 23.13400
H  24.18100 50.66100 23.64500
H  27.18800 51.20900 31.58800
H  28.86000 48.78400 31.47800
H  30.55200 51.07300 30.91500
H  30.18300 50.26000 32.46000
H  29.21500 51.68900 31.86600
H  26.95200 48.32500 32.17300
H  25.59300 48.75600 31.21700
H  24.59700 49.29400 33.20700
H  25.36500 50.81000 33.01200
H  32.64300 46.71400 27.84200
H  32.65500 48.01900 29.03100
H  33.72200 48.17100 27.73900
H  34.55900 47.35100 24.12600
H  33.62800 46.75900 25.53100
H  34.51300 48.44100 25.50300
H  28.37500 49.00200 21.49700
H  26.24600 51.16100 21.72300
H  29.43300 50.75600 20.52200
H  29.48200 51.65000 21.99400
H  28.08500 51.79300 20.83000
H  26.10200 48.77200 20.58500
H  24.66500 49.41000 21.51400
H  24.50400 47.67800 22.84000
H  26.25500 47.74100 23.13500
H  25.67200 46.74400 21.86800
H  21.65100 51.58800 26.24300
H  22.28700 51.24300 24.60800
H  22.53300 52.91000 25.30100
H  23.95300 50.60300 30.63400
H  24.93100 53.75800 33.09500
H  23.63900 52.74600 33.83600
H  23.32700 54.31900 33.03700
Mg 1.38900 42.17800 25.52700
C  2.78500 42.02500 28.59400
C  -1.67700 41.23300 26.80700
C  0.15900 42.00400 22.32900
C  4.56200 42.33400 24.13600
N  0.69400 41.62100 27.47100
C  1.39200 41.87700 28.58500
C  0.48600 41.95000 29.79800
C  -0.87100 41.46200 29.24300
C  -0.61700 41.28000 27.77000
C  -1.35000 40.04700 29.92900
C  0.44200 43.29800 30.65900
C  0.93700 42.91800 32.09300
H  0.03100 43.12100 33.36200
N  -0.47100 41.79100 24.71700
C  -1.60700 41.44700 25.37700
C  -2.69900 41.27100 24.53800
C  -2.26200 41.42600 23.21900
C  -0.79900 41.72900 23.39600
C  -4.05900 40.94100 25.00800
C  -3.03700 41.28100 21.91100
O  -2.52200 41.27600 20.81500
C  -4.59600 41.02800 21.90600
N  2.26800 42.17900 23.54500
C  1.51800 42.21900 22.40400
C  2.38800 42.36400 21.14400
C  3.77400 42.72800 21.77800
C  3.53600 42.45200 23.25000
C  2.48400 41.11500 20.22500
C  4.17100 44.16600 21.36600
C  5.04100 44.29600 20.15900
N  3.30500 42.09700 26.21200
C  4.49700 42.17200 25.54200
C  5.60500 42.06000 26.52800
C  4.98900 42.13400 27.79000
C  3.57800 42.06500 27.51800
C  7.10100 42.18500 26.14900
C  5.15600 42.10200 29.22100
O  6.17500 42.04600 29.90500
C  3.68100 42.08300 29.83200
C  3.53300 41.04300 30.82000
O  3.26000 39.86300 30.64100
O  3.98500 41.58400 32.05100
C  4.20200 40.62500 33.13800
H  -2.56100 40.98500 27.39700
H  -0.14500 42.00500 21.28100
H  5.53000 42.72500 23.81500
H  0.92300 41.05000 30.23100
H  -1.68500 42.17300 29.38500
H  -2.43000 40.12200 30.05900
H  -0.77000 39.75700 30.80600
H  -1.09500 39.35700 29.12500
H  -0.54000 43.76600 30.58700
H  1.02100 44.02200 30.08600
H  1.83000 43.53500 32.18700
H  1.27700 41.90100 32.29300
H  -4.28800 39.94000 24.64200
H  -4.84300 41.65500 24.75500
H  -4.04100 40.95300 26.09800
H  -4.95500 41.02500 20.87700
H  -5.07100 41.86000 22.42400
H  -4.90300 40.07200 22.33100
H  1.97600 43.16500 20.53000
H  4.46800 41.94800 21.46700
H  2.28300 40.18400 20.75600
H  3.46700 41.07100 19.75600
H  1.84900 41.15300 19.34100
H  4.55700 44.72000 22.22200
H  3.28700 44.70000 21.01700
H  4.52600 44.42800 19.20800
H  5.62600 43.37700 20.10900
H  5.76500 45.09800 20.30000
H  7.51200 43.18800 26.02800
H  7.31500 41.62500 25.23900
H  7.69600 41.65800 26.89500
H  3.53700 43.06000 30.29200
H  4.65900 41.24900 33.90700
H  4.90100 39.82500 32.89500
H  3.21300 40.29600 33.45800

