158

Mg 41.04100 41.77700 26.46900
C  40.36400 43.87500 29.26000
C  42.50500 39.65500 28.54100
C  42.06600 40.05500 23.71200
C  39.83300 44.34100 24.42400
N  41.39200 41.76700 28.68000
C  40.84800 42.63600 29.60700
C  40.97600 42.09900 31.01300
C  41.91600 40.84000 30.75700
C  41.93100 40.68400 29.23700
C  43.38600 40.92000 31.22700
C  39.65500 41.92100 31.82700
C  39.80900 41.26800 33.25000
H  39.00000 41.87800 34.34400
N  42.06700 40.08800 26.21500
C  42.58000 39.32000 27.16100
C  43.08000 38.09000 26.58800
C  42.87000 38.19800 25.20500
C  42.35800 39.50600 24.97800
C  43.68100 36.96900 27.38700
C  43.09300 37.14500 24.19300
O  42.84800 37.25200 23.00600
C  43.67200 35.82400 24.62400
N  40.90700 42.12700 24.40100
C  41.44000 41.29000 23.44700
C  41.25400 41.87100 22.01400
C  40.18700 43.02600 22.30000
C  40.27600 43.21600 23.78000
C  42.65200 42.38400 21.41100
C  38.70400 42.77300 21.84200
C  38.13900 41.46700 22.25400
N  40.26400 43.71300 26.68800
C  39.87800 44.65500 25.78900
C  39.62700 45.88700 26.43400
C  39.74200 45.62600 27.78700
C  40.15800 44.27700 27.92200
C  39.21400 47.14200 25.79100
C  39.63400 46.23100 29.09200
O  39.35600 47.31500 29.44200
C  40.02000 45.13300 30.13600
C  41.16600 45.57600 31.02000
O  42.31800 45.66000 30.64800
O  40.81200 45.87400 32.26000
C  41.92800 46.19800 33.20100
H  42.67500 38.81000 29.21100
H  42.29000 39.47800 22.81300
H  39.44000 45.17600 23.84000
H  41.62800 42.84800 31.46300
H  41.41700 39.96800 31.17700
H  44.16700 40.86900 30.46800
H  43.46700 40.10800 31.94900
H  43.47100 41.81600 31.84300
H  39.02500 41.34800 31.14700
H  39.18200 42.88000 32.04200
H  40.87900 41.27800 33.46000
H  39.48400 40.23000 33.17700
H  44.48000 36.59900 26.74400
H  42.88700 36.28700 27.69100
H  44.21200 37.42600 28.22200
H  43.21300 35.34000 25.48600
H  44.75700 35.91900 24.68100
H  43.56000 35.19300 23.74200
H  40.78400 41.11400 21.38600
H  40.57900 43.93500 21.84300
H  42.65900 43.47300 21.36300
H  42.82100 41.99200 20.40800
H  43.49600 42.13800 22.05600
H  38.60300 42.89700 20.76400
H  38.01100 43.53900 22.19100
H  37.12500 41.52800 22.64800
H  38.65700 40.97600 23.07800
H  38.18300 40.87200 21.34200
H  39.74200 47.22500 24.84100
H  39.44400 48.00800 26.41100
H  38.13900 47.28600 25.68800
H  39.17500 44.93900 30.79700
H  42.54600 46.96000 32.72700
H  42.40700 45.22700 33.32600
H  41.48000 46.63300 34.09400
Mg -10.49800 17.06100 41.33800
C  -7.11600 16.72900 41.33700
C  -10.23300 20.18900 40.07500
C  -13.83400 17.04100 40.70300
C  -10.66000 13.49900 41.56700
N  -8.84300 18.28400 40.74400
C  -7.51700 17.99600 40.92100
C  -6.68000 19.15200 40.41300
C  -7.71400 20.40200 40.62300
C  -9.04300 19.62100 40.47500
C  -7.64500 21.23800 41.91100
C  -6.23200 18.88100 38.90000
C  -4.66900 18.99200 38.61700
H  -4.07400 17.96600 37.64900
N  -11.92000 18.48200 40.56500
C  -11.58500 19.70000 40.10600
C  -12.71000 20.43100 39.62300
C  -13.83600 19.52500 39.91700
C  -13.20400 18.25300 40.37600
C  -12.68300 21.77500 39.07000
C  -15.31300 19.78100 39.75800
O  -15.75200 20.92600 39.42800
C  -16.48700 18.80400 39.95900
N  -12.05200 15.52600 41.28100
C  -13.36400 15.82600 41.12900
C  -14.28600 14.60100 41.43400
C  -13.27000 13.51500 41.22400
C  -11.87500 14.15600 41.36700
C  -14.99200 14.68700 42.79500
C  -13.47200 12.86900 39.81700
C  -13.56400 11.38100 39.85100
N  -9.14900 15.46200 41.65600
C  -9.37000 14.02200 41.71900
C  -8.06900 13.41500 41.95400
C  -7.13900 14.43900 41.80700
C  -7.87600 15.65000 41.59100
C  -7.87200 11.89600 42.02100
C  -5.67300 14.76100 41.71100
O  -4.72400 14.04800 41.91600
C  -5.65700 16.29700 41.34100
C  -4.84800 16.95200 42.36900
O  -3.63100 17.01800 42.35200
O  -5.62800 17.38300 43.46100
C  -4.76000 17.76600 44.65200
H  -10.14600 21.13900 39.54200
H  -14.91900 16.97600 40.59900
H  -10.76000 12.41200 41.56900
H  -5.86700 19.37000 41.10600
H  -7.73600 20.94700 39.67900
H  -6.85300 20.94200 42.60000
H  -8.60000 21.26300 42.43400
H  -7.40100 22.26100 41.62300
H  -6.72400 19.63100 38.28200
H  -6.63100 17.92200 38.56800
H  -4.10000 18.88900 39.54000
H  -4.37500 19.97400 38.24800
H  -13.52200 21.86300 38.37900
H  -11.80300 21.84600 38.43100
H  -12.64300 22.53300 39.85200
H  -16.30200 18.07400 39.17200
H  -17.48000 19.23300 39.82100
H  -16.46000 18.27200 40.91000
H  -15.07000 14.54900 40.67800
H  -13.43300 12.82600 42.05300
H  -14.46300 15.38300 43.44500
H  -15.23600 13.77100 43.33300
H  -15.94100 15.15100 42.52500
H  -12.60600 13.19000 39.23800
H  -14.30700 13.33400 39.29200
H  -12.73100 10.85200 39.38700
H  -14.50200 11.07200 39.39000
H  -13.74200 10.97300 40.84500
H  -8.60900 11.39100 42.64700
H  -6.86300 11.59800 42.30600
H  -7.99000 11.52600 41.00300
H  -5.23100 16.51900 40.36200
H  -5.40800 18.18700 45.42100
H  -4.05900 18.53600 44.32900
H  -4.23000 16.95700 45.15500

