158

Mg 8.95800 3.43400 27.59500
C  10.25900 1.74000 30.57400
C  7.61800 5.76100 29.64400
C  7.70300 4.77800 24.88400
C  10.39500 0.82200 25.76300
N  8.87600 3.62400 29.92900
C  9.44200 2.85600 30.91000
C  9.16700 3.43600 32.27400
C  8.18100 4.67200 31.96700
C  8.22600 4.67700 30.42700
C  6.74000 4.75400 32.60000
C  10.52500 3.82400 32.94200
C  10.39700 4.84500 34.18700
H  11.19500 4.60000 35.42500
N  7.93800 5.18400 27.27800
C  7.47700 6.03400 28.26500
C  6.82900 7.13000 27.65400
C  6.83600 6.83400 26.23500
C  7.53000 5.58500 26.04000
C  6.22800 8.25000 28.36900
C  6.22400 7.66700 25.11500
O  6.29100 7.38900 23.91900
C  5.43300 8.88400 25.47500
N  9.10600 2.86600 25.65000
C  8.42100 3.57100 24.69900
C  8.52800 2.84100 23.32200
C  9.60300 1.76400 23.57000
C  9.79300 1.81300 25.08700
C  7.24000 2.39700 22.65700
C  10.87700 1.98400 22.71200
C  11.34400 0.81700 21.81000
N  10.22200 1.71800 28.00400
C  10.63800 0.71700 27.11000
C  11.24400 -0.35200 27.87300
C  11.24600 0.08100 29.21900
C  10.50300 1.28900 29.23200
C  11.74900 -1.57200 27.41700
C  11.60800 -0.28700 30.54600
O  12.27900 -1.27400 30.95600
C  11.06400 0.81900 31.49800
C  10.25000 0.28000 32.56500
O  9.08800 -0.02400 32.44800
O  10.90900 0.24600 33.67400
C  10.11900 -0.36200 34.78500
H  7.23300 6.52000 30.32900
H  7.30200 5.19200 23.95600
H  10.83500 0.01200 25.17600
H  8.63900 2.74400 32.93100
H  8.78400 5.55800 32.16200
H  6.76900 3.88100 33.25100
H  5.94900 4.83600 31.85400
H  6.61400 5.66000 33.19200
H  11.17000 4.28300 32.19300
H  11.12300 3.00200 33.33400
H  9.33300 4.85100 34.42200
H  10.60700 5.86900 33.87700
H  6.64900 9.13500 27.89300
H  6.39500 8.31900 29.44400
H  5.16600 8.18500 28.13200
H  6.09500 9.59400 25.97100
H  4.55000 8.43600 25.93000
H  5.06100 9.31100 24.54300
H  8.96900 3.59500 22.67000
H  9.21100 0.76000 23.41000
H  7.00100 3.02400 21.79800
H  6.51000 2.56000 23.45000
H  7.25900 1.33600 22.40400
H  11.79600 2.25700 23.23100
H  10.75300 2.78400 21.98200
H  10.63900 -0.01300 21.83500
H  12.25900 0.48600 22.30300
H  11.45100 1.32300 20.85100
H  11.16300 -1.70800 26.50800
H  11.45600 -2.35300 28.11800
H  12.82400 -1.48400 27.25800
H  11.94000 1.32700 31.90000
H  9.49000 0.36900 35.29300
H  10.91500 -0.73500 35.43000
H  9.53000 -1.21600 34.45100
Mg 41.48200 40.95000 26.63400
C  40.90000 43.46700 29.07600
C  42.23100 38.79500 29.41200
C  42.50000 38.71200 24.48500
C  40.92500 43.32100 24.13400
N  41.76900 41.15600 28.99900
C  41.24000 42.20700 29.68900
C  41.12000 41.80500 31.14000
C  41.82300 40.44100 31.22300
C  41.99400 40.10300 29.79100
C  43.18300 40.48300 31.98900
C  39.60000 41.83300 31.65200
C  39.28500 42.97700 32.63300
H  38.79900 42.59200 34.00500
N  42.17500 38.97700 26.89100
C  42.38500 38.26600 28.07300
C  42.73100 36.89500 27.76200
C  42.79600 36.75600 26.32600
C  42.52200 38.19800 25.79500
C  42.90200 35.81800 28.78600
C  43.09700 35.50000 25.41500
O  43.02200 35.58800 24.16100
C  43.46800 34.27500 26.09500
N  41.76200 41.04200 24.60300
C  42.08100 39.91200 23.94000
C  42.07500 40.17300 22.37400
C  41.39600 41.52600 22.35700
C  41.38000 42.02700 23.78200
C  43.47000 40.05700 21.72300
C  39.97800 41.53300 21.77200
C  38.91100 40.61500 22.42300
N  40.93600 42.95100 26.58900
C  40.78200 43.79000 25.45900
C  40.30700 45.04800 26.02600
C  40.31600 44.98900 27.36000
C  40.80500 43.72600 27.69300
C  40.18600 46.26100 25.15200
C  40.07500 45.78500 28.52900
O  39.67100 46.94000 28.66500
C  40.47000 44.82900 29.71600
C  41.58800 45.39200 30.49400
O  42.77800 45.39900 30.23600
O  41.05100 45.91300 31.63100
C  41.96100 46.78700 32.40300
H  42.35600 38.08400 30.23200
H  42.76200 38.04700 23.65900
H  40.73900 44.00100 23.30100
H  41.65300 42.53400 31.75100
H  41.23300 39.64200 31.67300
H  43.89400 40.67200 31.18500
H  43.49600 39.53600 32.42800
H  43.29900 41.32000 32.67700
H  39.27300 40.85700 32.01100
H  38.89900 42.03600 30.84200
H  38.48700 43.56800 32.18400
H  40.13600 43.63300 32.81800
H  42.18800 35.04000 28.51800
H  42.74800 36.15100 29.81200
H  43.89900 35.39700 28.65100
H  43.78400 33.56100 25.33400
H  42.76900 33.68400 26.68800
H  44.34800 34.52400 26.68800
H  41.51000 39.33000 21.97800
H  42.07300 42.17100 21.79600
H  43.90400 40.87400 21.14600
H  43.41600 39.17000 21.09100
H  44.19800 39.74200 22.47000
H  40.08700 41.36100 20.70200
H  39.59500 42.54900 21.67500
H  38.02800 41.22500 22.61200
H  39.34200 40.26800 23.36200
H  38.66100 39.76700 21.78400
H  40.61700 46.10000 24.16400
H  40.75400 46.99200 25.72900
H  39.17100 46.65700 25.19300
H  39.61000 44.67000 30.36700
H  42.67200 47.34700 31.79600
H  42.39700 46.26000 33.25200
H  41.38000 47.63500 32.76700

