158

Mg 54.38500 25.20100 43.21800
C  51.60600 27.32000 42.81100
C  52.47700 22.58800 42.14400
C  57.25700 23.40800 42.84200
C  56.22200 28.07200 44.09700
N  52.28100 25.05500 42.50200
C  51.30900 26.01400 42.48500
C  49.95600 25.34300 42.21600
C  50.21800 23.87100 42.45800
C  51.74200 23.79700 42.36100
C  49.90800 23.26600 43.81900
C  49.33500 25.57900 40.77700
C  50.39700 26.05100 39.65600
H  50.99100 24.96200 38.79500
N  54.80200 23.21200 42.64600
C  53.84800 22.28000 42.25300
C  54.49600 20.99500 42.01900
C  55.93000 21.18400 42.24700
C  56.08600 22.64000 42.55800
C  53.66700 19.80600 41.63900
C  56.95800 20.12400 42.16400
O  56.68900 19.02700 41.82300
C  58.35900 20.33200 42.64600
N  56.43700 25.69900 43.38900
C  57.42900 24.76900 43.29700
C  58.88100 25.39900 43.50800
C  58.47400 26.85800 43.88500
C  56.88700 26.86300 43.86300
C  59.76800 24.63200 44.52100
C  59.12500 27.91800 43.03700
C  60.30600 28.70200 43.56800
N  54.02500 27.29200 43.38000
C  54.84800 28.31900 43.86200
C  54.04700 29.52200 44.06200
C  52.75100 29.16100 43.65200
C  52.82700 27.79300 43.21400
C  54.54600 30.85000 44.66100
C  51.37300 29.60500 43.63600
O  50.97600 30.71900 43.96600
C  50.55600 28.48400 43.03100
C  49.95300 28.99400 41.78000
O  50.47500 29.17200 40.63400
O  48.62200 29.16000 41.96800
C  47.83700 29.49300 40.76800
H  51.89200 21.69500 41.91600
H  58.16700 22.84900 42.61400
H  56.79700 28.93100 44.45000
H  49.20900 25.78100 42.87800
H  49.75700 23.33900 41.62600
H  50.67700 22.69900 44.34300
H  49.10800 22.57400 43.55500
H  49.61900 23.96200 44.60600
H  48.48100 26.25600 40.78000
H  48.80400 24.69400 40.42800
H  51.23800 26.59700 40.08400
H  49.89300 26.64500 38.89300
H  53.37300 19.87700 40.59200
H  52.77100 19.68600 42.24900
H  54.25000 18.88500 41.63200
H  58.79100 19.44300 43.10500
H  58.28000 21.02800 43.48100
H  58.98900 20.73300 41.85100
H  59.41100 25.26700 42.56400
H  58.71900 27.11800 44.91400
H  59.54200 23.57000 44.43100
H  59.39800 24.90800 45.50800
H  60.81100 24.90900 44.36900
H  58.34700 28.61400 42.72000
H  59.52000 27.53900 42.09400
H  60.18500 29.78300 43.49200
H  61.23500 28.44200 43.06100
H  60.48500 28.56100 44.63400
H  55.10100 30.76500 45.59500
H  53.57200 31.28900 44.87700
H  55.09300 31.33300 43.85200
H  49.81600 28.20000 43.78000
H  47.67800 28.62600 40.12600
H  48.34900 30.28100 40.21600
H  46.84600 29.83400 41.06600
Mg -13.02500 16.56300 41.26700
C  -10.22700 14.45800 40.75300
C  -11.13200 19.10900 40.03400
C  -15.82200 18.21500 41.12500
C  -14.92600 13.59800 42.00500
N  -10.82000 16.74800 40.40600
C  -9.88700 15.77500 40.38400
C  -8.56900 16.27400 39.81400
C  -8.88800 17.83800 39.58600
C  -10.33900 17.93200 40.05100
C  -8.00300 18.92300 40.38200
C  -8.18600 15.52800 38.56900
C  -6.72300 15.13100 38.45900
H  -6.02900 15.59300 37.16100
N  -13.39600 18.46200 40.71300
C  -12.52900 19.41400 40.31100
C  -13.19200 20.71700 40.29000
C  -14.55800 20.43300 40.35200
C  -14.70800 18.92900 40.69700
C  -12.41600 22.01500 40.14100
C  -15.54200 21.50100 40.25900
O  -15.25200 22.69700 40.19300
C  -16.98300 21.16100 39.96500
N  -15.14000 15.93200 41.40700
C  -16.06700 16.88400 41.44600
C  -17.47000 16.25600 41.60400
C  -17.17500 14.84900 42.01200
C  -15.72300 14.80500 41.82800
C  -18.38500 16.94500 42.60900
C  -17.94300 13.72000 41.20900
C  -19.07900 13.08500 41.96800
N  -12.66000 14.53000 41.51800
C  -13.52200 13.46400 41.80400
C  -12.73700 12.22700 42.06700
C  -11.47900 12.53700 41.55600
C  -11.48400 13.93400 41.25400
C  -13.20600 10.86000 42.51300
C  -10.14000 12.03400 41.25100
O  -9.67200 10.92100 41.31100
C  -9.27300 13.31000 40.78700
C  -8.12300 13.55700 41.65100
O  -8.10400 14.26100 42.63800
O  -6.97600 12.92200 41.15300
C  -5.73100 13.09800 41.88500
H  -10.48900 19.96800 39.83200
H  -16.76800 18.74900 41.00800
H  -15.41700 12.67300 42.31600
H  -7.84800 16.24100 40.63000
H  -8.83100 18.09700 38.52900
H  -7.35500 18.45500 41.12400
H  -8.63600 19.50100 41.05600
H  -7.43600 19.52700 39.67400
H  -8.41300 16.10700 37.67400
H  -8.76800 14.63600 38.33900
H  -6.58400 14.05200 38.53400
H  -6.21000 15.52200 39.33800
H  -12.21200 22.48400 41.10300
H  -12.80500 22.70800 39.39400
H  -11.42700 21.75600 39.76500
H  -17.43400 20.80000 40.88900
H  -17.08600 20.41900 39.17300
H  -17.31300 22.13200 39.59700
H  -17.88300 16.32800 40.59800
H  -17.40200 14.77500 43.07600
H  -19.20500 17.49700 42.15100
H  -17.77400 17.67100 43.14500
H  -18.85700 16.42600 43.44400
H  -17.21200 12.92000 41.09000
H  -18.16000 14.05400 40.19400
H  -19.27700 13.66300 42.87100
H  -18.76400 12.07100 42.21500
H  -19.97200 13.07700 41.34400
H  -12.69400 10.27200 41.75100
H  -14.27400 10.64500 42.47400
H  -12.82000 10.56700 43.48900
H  -8.79400 13.12700 39.82500
H  -5.05200 12.66000 41.15300
H  -5.70600 12.39800 42.72000
H  -5.48300 14.13300 42.12000

