158

Mg 16.88700 -1.64600 28.54900
C  15.75100 0.66200 31.09900
C  18.95200 -3.08900 30.90000
C  18.42100 -3.22400 26.04900
C  15.10200 0.36700 26.24300
N  17.45900 -1.08800 30.73400
C  16.66200 -0.32300 31.56900
C  17.20000 -0.45200 33.06600
C  18.34300 -1.58300 32.95700
C  18.24400 -1.98000 31.43700
C  19.80500 -1.14600 33.34400
C  16.00700 -0.82700 33.94300
C  15.86900 -0.02200 35.35100
H  17.10800 0.52300 36.06200
N  18.44200 -3.00800 28.47200
C  19.13800 -3.54300 29.55200
C  19.90500 -4.73700 29.06800
C  19.63800 -4.83700 27.67300
C  18.78000 -3.72000 27.31200
C  20.67600 -5.53800 30.03000
C  20.29200 -5.74300 26.70600
O  20.20700 -5.72400 25.49500
C  21.12500 -6.91300 27.17400
N  16.79600 -1.39400 26.45100
C  17.58400 -2.10800 25.62700
C  17.22400 -1.90300 24.17400
C  15.95200 -0.88200 24.21500
C  15.86100 -0.65200 25.75100
C  18.42600 -1.22200 23.36300
C  14.68600 -1.55700 23.60600
C  13.68300 -0.68400 22.87200
N  15.62200 0.03200 28.64300
C  14.92500 0.69500 27.62400
C  14.18200 1.83300 28.19500
C  14.39100 1.75600 29.55500
C  15.33100 0.72300 29.73600
C  13.21900 2.74600 27.37600
C  14.01100 2.34900 30.82900
O  13.18600 3.25000 31.07500
C  14.93700 1.69600 31.85600
C  15.80200 2.76400 32.35600
O  16.41000 3.42900 31.58300
O  15.89500 2.84900 33.68800
C  16.76100 3.94600 34.16600
H  19.47500 -3.70200 31.63800
H  18.88600 -3.79700 25.24400
H  14.40500 0.85600 25.55800
H  17.63800 0.51900 33.30000
H  18.22300 -2.51000 33.51700
H  19.76400 -0.17900 33.84600
H  20.18000 -0.91400 32.34700
H  20.32600 -1.87400 33.96700
H  16.07000 -1.88900 34.17800
H  15.06700 -0.54100 33.47100
H  15.49900 -0.81500 36.00000
H  15.13800 0.78300 35.27000
H  20.50000 -5.25500 31.06800
H  21.76000 -5.47000 29.93900
H  20.37400 -6.58200 29.94300
H  21.87200 -6.52500 27.86600
H  21.65000 -7.40600 26.35500
H  20.44500 -7.56400 27.72400
H  17.02400 -2.88900 23.75700
H  16.20500 0.08300 23.77500
H  18.19000 -0.18500 23.12300
H  18.60800 -1.78200 22.44600
H  19.33900 -1.09700 23.94500
H  14.20200 -2.10400 24.41500
H  15.01300 -2.33800 22.91900
H  14.13600 0.30300 22.78300
H  12.80800 -0.58700 23.51500
H  13.25000 -0.87200 21.89000
H  13.11500 3.73000 27.83400
H  12.18000 2.41900 27.33900
H  13.60500 2.78400 26.35700
H  14.36500 1.32900 32.70800
H  16.63600 4.11100 35.23600
H  16.55700 4.90800 33.69500
H  17.81700 3.82100 33.92600
Mg -12.61300 15.99400 42.05700
C  -9.66600 14.07200 41.66100
C  -10.98500 18.40100 40.06300
C  -15.48100 17.64000 41.50600
C  -14.34900 13.19900 42.99900
N  -10.46600 16.24000 40.92700
C  -9.48000 15.24900 40.91900
C  -8.24800 15.73400 40.02900
C  -8.80300 17.13200 39.51400
C  -10.22400 17.28400 40.18800
C  -7.87200 18.33000 39.96500
C  -7.77500 14.76600 38.89100
C  -6.22100 14.54800 38.76300
H  -5.52500 15.26100 37.59800
N  -13.11500 17.86000 41.14700
C  -12.29700 18.75400 40.47800
C  -12.92800 20.04900 40.33000
C  -14.26600 19.85900 40.78300
C  -14.29800 18.42200 41.18300
C  -12.22400 21.28400 40.00600
C  -15.39800 20.84900 40.95800
O  -15.24200 22.00800 40.62900
C  -16.72700 20.51900 41.71400
N  -14.65200 15.46000 42.16600
C  -15.68100 16.33400 41.96000
C  -16.98600 15.74300 42.47600
C  -16.54300 14.36800 43.09500
C  -15.13800 14.33400 42.66900
C  -17.92800 16.64500 43.34100
C  -17.40300 13.11000 42.77700
C  -18.94000 13.22300 42.89300
N  -12.17500 14.06400 42.29300
C  -12.98100 13.03100 42.78200
C  -12.11400 11.89600 43.04900
C  -10.80500 12.31700 42.62200
C  -10.91100 13.55500 42.10500
C  -12.45200 10.51100 43.66400
C  -9.41300 11.82600 42.45900
O  -8.83900 10.78900 42.78500
C  -8.60200 12.95000 41.68100
C  -7.52400 13.40600 42.56300
O  -7.59200 13.55100 43.79000
O  -6.33600 13.55100 41.85200
C  -5.16500 14.15300 42.56000
H  -10.46500 19.24100 39.59800
H  -16.42200 18.18000 41.37400
H  -14.90100 12.31900 43.33600
H  -7.54500 15.80300 40.86000
H  -8.88400 17.14700 38.42800
H  -6.94400 17.98500 40.42100
H  -8.37200 19.09900 40.55500
H  -7.61000 18.95800 39.11400
H  -8.20900 15.05700 37.93500
H  -8.27000 13.79600 38.94300
H  -5.97100 13.49400 38.88700
H  -5.67500 14.91200 39.63300
H  -12.92000 21.73400 39.29800
H  -11.18700 21.18500 39.68500
H  -12.20300 21.90600 40.90100
H  -17.20700 19.92700 40.93400
H  -17.22300 21.47700 41.86800
H  -16.50900 19.96500 42.62700
H  -17.55800 15.38300 41.62100
H  -16.57100 14.56400 44.16700
H  -17.52700 17.65700 43.39800
H  -17.98200 16.25300 44.35700
H  -18.91800 16.72600 42.89200
H  -17.04100 12.43600 43.55300
H  -17.15100 12.59100 41.85200
H  -19.41000 12.28100 42.61300
H  -19.30100 13.93800 42.15300
H  -19.22700 13.47500 43.91300
H  -12.25300 9.72900 42.93100
H  -13.46100 10.43000 44.06800
H  -11.79400 10.44600 44.52900
H  -8.24400 12.39100 40.81700
H  -4.35100 13.48600 42.27700
H  -5.35800 14.19000 43.63300
H  -5.02600 15.14800 42.13800

