158

Mg 44.32000 3.77800 47.17500
C  42.48000 6.81500 47.44100
C  41.36100 2.06300 46.61400
C  46.11400 1.15900 46.33900
C  47.32700 5.82500 47.08800
N  42.19300 4.46600 47.20600
C  41.71700 5.68100 47.46900
C  40.18000 5.55200 47.53400
C  39.90400 4.05100 47.27200
C  41.23200 3.47400 47.05100
C  39.26900 3.24600 48.47700
C  39.46200 6.54600 46.50400
C  39.99700 6.57000 45.05800
H  39.12800 6.06100 43.85100
N  43.84600 1.76000 46.65700
C  42.57500 1.27200 46.55500
C  42.70100 -0.10500 45.98400
C  44.10800 -0.42800 45.92000
C  44.74700 0.82600 46.33500
C  41.47800 -0.98200 45.75500
C  44.76000 -1.67800 45.39300
O  43.96100 -2.57800 45.09200
C  46.29500 -1.94100 45.35700
N  46.36200 3.59100 46.63100
C  46.85200 2.31100 46.56000
C  48.39500 2.33500 46.36400
C  48.68700 3.86900 46.54700
C  47.36500 4.48100 46.80400
C  49.19900 1.30000 47.23600
C  49.57900 4.54700 45.47600
C  51.00400 4.92900 45.85200
N  44.84300 5.89800 47.21600
C  46.07500 6.54700 47.19500
C  45.87800 7.91900 47.14600
C  44.44000 8.09700 47.34800
C  43.90200 6.87600 47.30400
C  46.93500 9.01000 47.30700
C  43.45700 9.05700 47.54700
O  43.48200 10.30300 47.56200
C  42.13500 8.31900 47.57500
C  41.37100 8.48700 48.84000
O  41.39700 7.77000 49.84600
O  40.52800 9.59900 48.75600
C  39.74500 9.90400 49.94300
H  40.40100 1.63800 46.31300
H  46.86700 0.42300 46.04900
H  48.28300 6.34600 47.17600
H  40.06300 5.73900 48.60100
H  39.29900 3.94100 46.37200
H  38.62800 2.40300 48.22200
H  38.63500 3.96400 48.99700
H  40.06500 2.81400 49.08400
H  39.55000 7.56800 46.87200
H  38.39600 6.32400 46.46100
H  40.87700 5.94600 44.90000
H  40.40600 7.57800 44.98800
H  41.51500 -1.83600 46.43100
H  41.43000 -1.28500 44.71000
H  40.58000 -0.42700 46.02800
H  46.82200 -1.78100 46.29800
H  46.73700 -1.33700 44.56500
H  46.42600 -2.96900 45.01800
H  48.60600 2.02800 45.33900
H  49.20500 3.95000 47.50300
H  48.58900 0.65600 47.86900
H  50.02600 1.76700 47.77200
H  49.69200 0.76000 46.42800
H  48.98100 5.37700 45.10100
H  49.71600 3.83300 44.66300
H  51.61200 4.56700 45.02300
H  51.40100 4.44300 46.74300
H  51.05800 6.01700 45.84400
H  47.77300 8.75900 46.65600
H  47.45200 8.95300 48.26500
H  46.61600 10.01000 47.01300
H  41.64400 8.51900 46.62300
H  40.17300 10.78900 50.41400
H  39.51600 9.07300 50.61000
H  38.74300 10.18100 49.61500
Mg 46.70700 25.73800 28.75000
C  47.60900 27.86900 31.54800
C  46.13100 23.30000 31.08900
C  46.35500 23.80100 26.25400
C  47.91000 28.35200 26.62300
N  46.94400 25.63700 31.10000
C  47.23000 26.64400 31.96000
C  46.98100 26.21700 33.40300
C  46.75200 24.67000 33.28300
C  46.64800 24.49300 31.69100
C  47.84600 23.81500 33.95200
C  45.72300 26.84400 34.15300
C  46.01700 27.56300 35.51900
H  46.70800 26.73700 36.63700
N  46.15900 23.88800 28.65900
C  45.90100 23.04400 29.74300
C  45.54800 21.72900 29.21900
C  45.67800 21.83000 27.81000
C  46.04700 23.23000 27.51600
C  45.11000 20.52000 30.11500
C  45.48300 20.79000 26.77200
O  45.60100 20.94400 25.56900
C  45.32200 19.45500 27.28400
N  46.99100 26.07200 26.64000
C  46.83400 25.04000 25.81000
C  47.16900 25.41600 24.35600
C  47.44500 26.95000 24.51600
C  47.45400 27.15400 26.02000
C  48.32200 24.67300 23.65800
C  46.42000 27.90200 23.81900
C  46.64600 27.98000 22.32800
N  47.56200 27.73300 28.96600
C  47.99700 28.62100 28.00800
C  48.58100 29.70100 28.69200
C  48.39700 29.53700 30.09000
C  47.76200 28.29100 30.20000
C  49.20400 30.94200 28.12800
C  48.61000 30.11700 31.45900
O  48.99100 31.23600 31.74300
C  48.09300 29.00700 32.43600
C  49.19800 28.74900 33.37200
O  50.31500 28.32600 33.03500
O  48.90800 29.07600 34.67100
C  49.77800 28.85400 35.81800
H  46.11900 22.41400 31.72800
H  46.43100 23.11400 25.40900
H  48.06300 29.11600 25.85800
H  47.92800 26.53500 33.84000
H  45.86500 24.31100 33.80500
H  47.59400 23.38800 34.92300
H  48.73600 24.44500 33.92700
H  48.16300 23.11300 33.18100
H  44.92600 26.15300 34.43000
H  45.16900 27.52700 33.50900
H  44.97000 27.76400 35.74300
H  46.43200 28.54500 35.29500
H  44.12400 20.17000 29.81000
H  45.13000 20.79900 31.16800
H  45.83000 19.71600 29.96300
H  46.24600 19.34700 27.85200
H  45.32000 18.73000 26.47100
H  44.35700 19.49700 27.78900
H  46.29800 25.34000 23.70500
H  48.44400 27.20500 24.16200
H  48.68100 23.99800 24.43500
H  49.14300 25.32600 23.36300
H  47.93000 24.09300 22.82300
H  46.48100 28.90700 24.23700
H  45.40300 27.53600 23.96100
H  47.53000 27.46500 21.95200
H  46.68500 29.04100 22.08200
H  45.77700 27.60500 21.78700
H  50.28200 30.82900 28.01200
H  48.95400 31.74700 28.81900
H  48.70600 31.11900 27.17500
H  47.32000 29.42300 33.08200
H  49.40700 29.54300 36.57800
H  50.80500 28.96900 35.47000
H  49.72500 27.79600 36.07400

