158

Mg 36.24100 0.96500 29.84700
C  34.24200 2.14300 32.58800
C  38.81400 0.71700 31.97500
C  37.96500 -0.06900 27.29100
C  33.43300 1.54500 27.77600
N  36.46100 1.31900 32.08200
C  35.45200 1.70200 33.05600
C  36.08200 1.67300 34.35700
C  37.59700 1.52900 34.14000
C  37.69000 1.13300 32.67000
C  38.39300 2.73600 34.59700
C  35.41300 0.52100 35.15900
C  35.08200 0.86700 36.60000
H  36.05000 1.76200 37.32700
N  38.20800 0.51500 29.67400
C  39.14800 0.40800 30.64900
C  40.38300 -0.15000 30.08800
C  40.11100 -0.29400 28.63500
C  38.67800 0.04800 28.47600
C  41.60900 -0.36000 30.96700
C  41.04500 -0.69200 27.43600
O  40.65900 -0.92800 26.27600
C  42.43100 -0.98100 27.75000
N  35.71400 0.78000 27.82700
C  36.65000 0.26700 27.01900
C  36.12100 0.39800 25.53200
C  34.65900 0.68400 25.73700
C  34.57600 1.05800 27.16800
C  37.02400 1.33900 24.62400
C  33.56700 -0.29400 25.13800
C  32.29300 0.24200 24.62400
N  34.27000 1.71500 30.03300
C  33.21300 1.81600 29.12600
C  32.05200 2.25400 29.80000
C  32.40900 2.26800 31.17900
C  33.77300 2.03500 31.25200
C  30.75800 2.59700 29.13100
C  31.87900 2.74900 32.43300
O  30.82300 3.26200 32.77400
C  33.07300 2.55400 33.40400
C  33.34700 3.75200 34.20500
O  33.55400 4.89800 33.78300
O  33.29800 3.35600 35.49800
C  33.54800 4.48100 36.44900
H  39.63600 0.63500 32.68900
H  38.54600 -0.47400 26.46000
H  32.68100 1.81900 27.03300
H  35.81900 2.59300 34.87800
H  37.86000 0.69300 34.78800
H  37.98300 3.39200 35.36500
H  38.50400 3.40900 33.74800
H  39.35900 2.37600 34.95300
H  35.99600 -0.40000 35.18200
H  34.52900 0.19500 34.61200
H  34.85700 -0.04800 37.14900
H  34.12200 1.38300 36.58000
H  42.17200 0.57100 31.04100
H  42.21000 -1.21600 30.66100
H  41.27000 -0.69500 31.94700
H  43.00300 -0.90000 26.82500
H  42.35100 -1.97700 28.18600
H  42.74500 -0.31000 28.55000
H  36.08300 -0.55000 24.99300
H  34.45700 1.69200 25.37400
H  37.83300 1.72500 25.24400
H  36.50500 2.23200 24.27500
H  37.45600 0.72800 23.83100
H  33.36700 -0.97400 25.96600
H  34.08000 -0.70400 24.26900
H  32.45300 0.06300 23.56100
H  32.14700 1.31700 24.72400
H  31.43200 -0.19300 25.13200
H  29.86200 2.47300 29.73800
H  30.55400 2.05200 28.20900
H  30.73700 3.65500 28.87100
H  32.73200 1.78600 34.09700
H  34.47200 5.00800 36.21100
H  33.39800 4.06800 37.44600
H  32.66800 5.11200 36.33100
Mg 46.84300 24.51200 28.35600
C  47.54000 26.71500 30.93100
C  46.15800 22.06600 30.75600
C  46.79400 22.14400 25.99800
C  47.83000 26.95500 26.05900
N  46.87000 24.45400 30.54600
C  47.06700 25.47000 31.36800
C  46.85700 25.05200 32.85700
C  46.61100 23.54400 32.78300
C  46.56700 23.31200 31.27400
C  47.61100 22.67600 33.57700
C  45.72000 25.85300 33.53300
C  46.15800 26.61900 34.85700
H  45.05900 26.87600 35.94000
N  46.27100 22.39900 28.32900
C  45.95700 21.67400 29.40300
C  45.71400 20.30000 28.90700
C  45.92900 20.24500 27.53600
C  46.33500 21.60800 27.22500
C  45.49100 19.10200 29.80900
C  45.67000 19.07500 26.54800
O  45.97000 19.17800 25.37200
C  45.09200 17.89700 27.01100
N  47.30900 24.53700 26.35500
C  47.12000 23.51200 25.60500
C  47.61300 23.79700 24.16700
C  47.53700 25.33900 24.09400
C  47.61300 25.62200 25.59600
C  48.96400 23.24000 23.70600
C  46.24100 25.86300 23.49100
C  44.90200 25.99100 24.28400
N  47.53300 26.44600 28.39400
C  47.85600 27.37100 27.41400
C  48.19200 28.65600 27.96800
C  48.09000 28.36400 29.39200
C  47.72500 27.06400 29.54100
C  48.65700 29.88400 27.24800
C  48.24800 28.99700 30.70300
O  48.52800 30.18000 30.94000
C  47.91000 27.93700 31.72900
C  49.04300 27.72300 32.66700
O  50.04300 27.02400 32.40500
O  48.83000 28.35900 33.84100
C  49.61200 27.98400 35.02400
H  45.95300 21.21500 31.40900
H  46.99400 21.37800 25.24700
H  47.93400 27.70200 25.26900
H  47.84200 25.32300 33.23700
H  45.59500 23.33800 33.12200
H  48.21200 23.20900 34.31400
H  48.31600 22.15900 32.92500
H  47.06300 21.86900 34.06200
H  44.81700 25.25700 33.66000
H  45.31900 26.53600 32.78400
H  46.38800 27.63800 34.54400
H  47.08700 26.26200 35.30300
H  45.54600 19.14400 30.89700
H  46.13700 18.29800 29.45700
H  44.46800 18.74600 29.68000
H  44.83900 17.18100 26.22800
H  44.19800 18.17400 27.57000
H  45.81700 17.41400 27.66600
H  46.94300 23.26500 23.49100
H  48.34100 25.83300 23.54800
H  49.07500 22.35200 24.32800
H  49.73700 24.00600 23.65300
H  48.77200 22.91200 22.68400
H  45.99500 25.33400 22.57100
H  46.55100 26.84500 23.13200
H  44.08700 25.73900 23.60600
H  44.81700 26.97200 24.75100
H  44.92600 25.22600 25.05900
H  48.18600 30.04700 26.27900
H  49.69000 29.82600 26.90600
H  48.62900 30.78100 27.86700
H  47.09600 28.24300 32.38500
H  50.22900 27.08600 35.05000
H  48.86400 27.72600 35.77300
H  50.24000 28.84100 35.26700

