158

Mg -1.97400 17.04500 26.18700
C  -2.06000 14.69600 28.87800
C  -2.77300 19.42300 28.51400
C  -1.80500 19.12100 23.67900
C  -2.10900 14.36800 23.90300
N  -2.43400 16.98700 28.39000
C  -2.33700 15.99500 29.31400
C  -2.64900 16.46400 30.77500
C  -3.30900 17.84900 30.52500
C  -2.86700 18.14800 29.04200
C  -4.89300 17.64200 30.59100
C  -1.27400 16.53200 31.59400
C  -1.29400 15.79900 32.92600
H  -1.68100 16.67500 33.98700
N  -2.16100 18.98100 26.14600
C  -2.44900 19.81900 27.22700
C  -2.33500 21.20800 26.76400
C  -1.95700 21.17200 25.33100
C  -1.92200 19.74000 24.97900
C  -2.51500 22.32600 27.68000
C  -1.75800 22.29400 24.29200
O  -1.55300 22.09300 23.09300
C  -1.58600 23.67300 24.79500
N  -2.23200 16.71300 24.01700
C  -2.00500 17.82300 23.24200
C  -2.11300 17.40100 21.73400
C  -2.33000 15.84900 21.82200
C  -2.20300 15.59100 23.33600
C  -3.12000 18.12700 20.85400
C  -1.15700 15.15800 21.06400
C  0.28800 15.11900 21.68500
N  -2.05900 14.98600 26.26700
C  -1.93300 14.02700 25.26400
C  -1.80300 12.70000 25.84000
C  -1.83100 12.90400 27.24300
C  -2.04200 14.31000 27.48800
C  -1.79000 11.39200 25.14900
C  -1.76800 12.25600 28.49500
O  -1.57400 11.10400 28.81600
C  -2.00000 13.38200 29.58800
C  -0.93800 13.15100 30.67400
O  0.24100 13.43200 30.53700
O  -1.47100 12.57100 31.74100
C  -0.70000 12.37200 32.96900
H  -2.94800 20.16900 29.29200
H  -1.72600 19.81000 22.83500
H  -2.09500 13.59400 23.13300
H  -3.29700 15.75600 31.29200
H  -2.96200 18.64200 31.18800
H  -5.26500 18.47300 31.19100
H  -5.18400 16.81000 31.23100
H  -5.35900 17.55700 29.61000
H  -1.02800 17.54800 31.90400
H  -0.39700 16.25600 31.00800
H  -0.33200 15.38000 33.21800
H  -2.02100 14.98700 32.89100
H  -2.98500 22.20600 28.65500
H  -3.08400 23.00900 27.04900
H  -1.55800 22.82600 27.82900
H  -0.79500 23.60100 25.54200
H  -2.50700 23.98300 25.29000
H  -1.27500 24.31000 23.96700
H  -1.13600 17.66400 21.32900
H  -3.29100 15.46100 21.48300
H  -2.45900 18.57000 20.10900
H  -3.77900 18.83500 21.35800
H  -3.66700 17.42600 20.22400
H  -0.93200 15.71300 20.15400
H  -1.47800 14.21600 20.62000
H  0.36000 15.52600 22.69400
H  1.02500 15.65100 21.08300
H  0.67800 14.10100 21.70400
H  -1.31000 11.41800 24.17100
H  -2.80400 11.06500 24.92000
H  -1.32200 10.62200 25.76300
H  -2.93800 13.40600 30.14300
H  -0.48200 11.30700 33.03700
H  -1.16300 12.80600 33.85500
H  0.30700 12.79000 32.94000
Mg 9.26300 2.63000 27.72100
C  10.74100 1.00500 30.56600
C  7.23500 4.32000 29.93200
C  7.38500 3.66600 25.19700
C  11.01300 0.42800 25.72800
N  9.01300 2.61400 29.91100
C  9.77700 1.96500 30.90000
C  9.42100 2.45900 32.36300
C  8.15900 3.34100 32.10900
C  8.12400 3.40800 30.57700
C  6.84500 2.78000 32.68600
C  10.63400 3.24700 33.04400
C  10.41800 4.17000 34.31000
H  11.05400 3.61400 35.57800
N  7.61100 3.95100 27.60500
C  6.91300 4.56600 28.61900
C  5.83300 5.35300 28.08300
C  5.88500 5.24700 26.59300
C  6.96300 4.21400 26.40600
C  4.81500 6.12800 28.83800
C  5.06300 5.85700 25.44200
O  5.23200 5.54400 24.22900
C  4.05200 6.97100 25.74700
N  9.29700 2.16700 25.69300
C  8.44900 2.76000 24.84400
C  8.70300 2.26000 23.39100
C  9.89900 1.33400 23.56000
C  10.13900 1.32400 25.08900
C  7.43200 1.56400 22.75500
C  11.14300 1.75000 22.76400
C  11.79200 0.58600 22.09800
N  10.55400 0.95900 27.99400
C  11.22100 0.22300 27.08300
C  12.11700 -0.70200 27.73300
C  11.96300 -0.46800 29.08900
C  11.04500 0.65100 29.21800
C  13.02800 -1.71900 27.10800
C  12.41600 -0.80400 30.41400
O  13.29000 -1.56500 30.76900
C  11.60200 0.14400 31.47100
C  10.78900 -0.67200 32.37500
O  10.24200 -1.70600 32.03800
O  10.73200 -0.20200 33.66000
C  10.22300 -1.17100 34.62900
H  6.58900 4.83300 30.64700
H  6.81300 3.87800 24.29200
H  11.54600 -0.25700 25.06500
H  9.12700 1.60100 32.96700
H  8.38300 4.34400 32.47200
H  6.27600 3.55500 33.19900
H  7.05100 1.83600 33.19100
H  6.15600 2.57500 31.86600
H  11.15300 3.89500 32.33800
H  11.32200 2.44000 33.29400
H  9.36600 4.42000 34.44800
H  10.84600 5.16100 34.16200
H  4.99000 7.20300 28.79900
H  4.82800 5.81200 29.88200
H  3.92200 5.82100 28.29300
H  3.62400 7.30300 24.80100
H  4.46400 7.79200 26.33400
H  3.25200 6.44800 26.27200
H  8.86500 3.05800 22.66700
H  9.59800 0.34600 23.21200
H  6.74600 2.37300 22.50300
H  6.93100 0.98300 23.52900
H  7.59800 0.80000 21.99500
H  11.88600 2.12800 23.46600
H  10.96200 2.67700 22.21800
H  11.56700 0.75900 21.04600
H  11.50200 -0.39400 22.47600
H  12.84800 0.57900 22.37000
H  13.65500 -1.39200 26.27800
H  12.54900 -2.63100 26.75300
H  13.77000 -2.02600 27.84500
H  12.25600 0.76500 32.08300
H  10.53000 -2.20400 34.46000
H  9.14900 -1.08800 34.79000
H  10.68100 -0.94300 35.59100

