158

Mg -1.82200 16.92200 25.85600
C  -2.31600 14.59600 28.54700
C  -2.43600 19.41100 28.19300
C  -1.57400 19.02100 23.40300
C  -1.67200 14.09700 23.72800
N  -2.54400 17.01000 28.10100
C  -2.41100 15.95800 28.94500
C  -2.55800 16.40700 30.43300
C  -2.69000 17.98500 30.20500
C  -2.64900 18.14200 28.76300
C  -3.87900 18.66000 30.89300
C  -1.56200 16.06600 31.51700
C  -1.34300 16.91000 32.77700
H  -1.89800 16.36100 34.15900
N  -1.94300 18.95300 25.83100
C  -2.18000 19.81400 26.88700
C  -2.00000 21.14200 26.39000
C  -1.71000 21.01800 24.99300
C  -1.62300 19.59900 24.68600
C  -2.19800 22.39500 27.23600
C  -1.55700 22.16900 23.98100
O  -1.35400 21.90400 22.83600
C  -1.60200 23.57200 24.35300
N  -1.74000 16.59700 23.87800
C  -1.55500 17.68100 23.00500
C  -1.51200 17.23900 21.59000
C  -1.14300 15.73200 21.78800
C  -1.58900 15.42900 23.20700
C  -2.81900 17.63700 20.82400
C  0.30800 15.26300 21.41700
C  1.50200 15.43800 22.49000
N  -2.13800 14.79200 26.00700
C  -1.94900 13.77100 25.09600
C  -2.10300 12.49500 25.69000
C  -2.27900 12.76500 27.09400
C  -2.27200 14.17700 27.16100
C  -2.11900 11.16400 25.06700
C  -2.30900 12.13900 28.35000
O  -2.30200 10.97200 28.72100
C  -2.37700 13.29900 29.36500
C  -1.20300 13.09600 30.26400
O  -0.05900 13.52200 30.04500
O  -1.68800 12.46300 31.43400
C  -0.79800 12.31800 32.50600
H  -2.58000 20.21600 28.91600
H  -1.47200 19.73800 22.58600
H  -1.60500 13.30500 22.97800
H  -3.54600 16.04500 30.71900
H  -1.77800 18.49100 30.52200
H  -4.50100 19.13900 30.13800
H  -3.61200 19.43400 31.61300
H  -4.53300 17.90800 31.33400
H  -0.61000 15.89100 31.01500
H  -1.88200 15.13100 31.97800
H  -1.89500 17.83000 32.58500
H  -0.28500 17.12200 32.93300
H  -2.50600 22.38200 28.28100
H  -2.91200 23.07000 26.76100
H  -1.21400 22.85600 27.15200
H  -2.60100 23.82200 24.71000
H  -1.34000 24.18300 23.49000
H  -0.80100 23.65900 25.08700
H  -0.66400 17.75800 21.14500
H  -1.79000 15.14200 21.13800
H  -3.43000 16.74300 20.69500
H  -2.72700 17.97400 19.79100
H  -3.41900 18.32300 21.42300
H  0.66400 15.65700 20.46500
H  0.11700 14.20900 21.21900
H  2.33700 15.96300 22.02500
H  1.84400 14.46500 22.84300
H  1.20000 16.03100 23.35300
H  -2.80200 10.57400 25.67800
H  -1.11300 10.74400 25.06900
H  -2.54200 11.31200 24.07400
H  -3.32100 13.26500 29.90900
H  0.01500 13.03300 32.63300
H  -0.25000 11.37600 32.53800
H  -1.45300 12.37700 33.37500
Mg 43.95500 3.22400 47.52600
C  41.76300 5.89400 46.94100
C  41.23200 1.08000 47.29400
C  46.03100 0.57900 47.86300
C  46.56800 5.45400 47.54000
N  41.73600 3.52800 47.29800
C  41.02900 4.68900 47.01800
C  39.52800 4.48800 46.75600
C  39.44800 2.96000 47.15000
C  40.92700 2.44300 47.22400
C  38.77600 2.69000 48.55600
C  39.08400 4.83500 45.31400
C  37.72100 5.55000 45.17500
H  37.63400 6.62100 44.00800
N  43.65500 1.04800 47.64500
C  42.47000 0.42800 47.44500
C  42.68000 -1.00800 47.53400
C  44.09800 -1.21400 47.59100
C  44.67500 0.16200 47.74100
C  41.56200 -2.01100 47.35600
C  44.74000 -2.60900 47.46500
O  43.97300 -3.59200 47.36500
C  46.26800 -2.80200 47.43500
N  46.04500 3.00000 47.59900
C  46.61700 1.78900 47.82100
C  48.15000 2.06000 47.92100
C  48.41000 3.57800 47.69500
C  46.94900 4.06300 47.64900
C  48.80600 1.21800 49.10100
C  49.43900 4.02600 46.64200
C  50.84500 4.51700 47.17600
N  44.20300 5.32700 47.17300
C  45.35200 6.06800 47.22400
C  44.97900 7.47300 46.96000
C  43.60900 7.44400 46.96900
C  43.16400 6.10300 47.07300
C  45.85200 8.60700 46.96500
C  42.44100 8.31100 46.77900
O  42.48200 9.56000 46.60000
C  41.20000 7.28200 46.76100
C  40.25300 7.68800 47.81400
O  40.04300 7.08000 48.83200
O  39.52200 8.83500 47.40700
C  38.48000 9.30000 48.34500
H  40.41400 0.35800 47.34100
H  46.71500 -0.26300 47.98500
H  47.31000 6.25300 47.59500
H  38.91600 4.95300 47.52800
H  38.89200 2.38800 46.40600
H  39.54800 2.39000 49.26600
H  38.04800 1.87900 48.58200
H  38.29700 3.56000 49.00400
H  38.89500 3.86500 44.85400
H  39.85100 5.25800 44.66700
H  37.26400 5.86700 46.11200
H  37.04200 4.74600 44.89100
H  41.45300 -2.49900 46.38700
H  40.60400 -1.58200 47.64600
H  41.61800 -2.78300 48.12300
H  46.87900 -2.50100 46.58400
H  46.35300 -3.88700 47.51000
H  46.60800 -2.44200 48.40600
H  48.45900 1.61200 46.97700
H  48.76500 4.02200 48.62500
H  48.01000 1.07400 49.83200
H  49.55600 1.96300 49.36400
H  49.25100 0.24400 48.89800
H  48.94300 4.89900 46.21800
H  49.51200 3.22700 45.90400
H  51.67100 3.88300 46.85400
H  50.83500 4.38400 48.25800
H  51.13900 5.52100 46.86800
H  45.51600 9.20000 46.11500
H  46.90700 8.49300 46.71900
H  45.86300 9.15700 47.90600
H  40.62500 7.47500 45.85500
H  37.74300 9.83300 47.74400
H  38.94100 9.98800 49.05400
H  38.02000 8.44200 48.83500

