158

Mg 46.83000 25.33000 28.13600
C  47.69100 27.61300 30.73700
C  46.48300 22.88900 30.65100
C  46.52000 23.09100 25.76200
C  47.78000 27.83300 25.85700
N  46.97900 25.26600 30.38400
C  47.18000 26.35600 31.22400
C  47.16500 25.99300 32.69800
C  46.81300 24.45600 32.68300
C  46.73200 24.16900 31.15500
C  47.92700 23.63300 33.34700
C  46.16500 26.85300 33.46300
C  45.78100 26.34600 34.86900
H  46.11500 27.17000 36.04100
N  46.48100 23.28400 28.18200
C  46.44300 22.44400 29.30000
C  46.35400 21.07300 28.79800
C  46.18500 21.17200 27.44400
C  46.39000 22.58500 27.04900
C  46.48400 19.81500 29.69000
C  45.84300 20.08000 26.43900
O  45.88700 20.23900 25.22100
C  45.49300 18.67000 26.91300
N  47.22700 25.42700 26.00700
C  46.89800 24.38000 25.25600
C  46.81900 24.78600 23.77300
C  47.25300 26.30800 23.81200
C  47.40600 26.56300 25.30400
C  47.68600 23.82200 22.92500
C  46.36000 27.38200 23.10200
C  46.99600 28.04300 21.92200
N  47.52400 27.32900 28.22300
C  47.87400 28.15800 27.18500
C  48.41600 29.41600 27.71100
C  48.33600 29.23800 29.09000
C  47.78600 27.96900 29.36800
C  49.10000 30.50700 27.06800
C  48.60500 29.87900 30.29400
O  49.15600 30.98100 30.56100
C  48.22900 28.84300 31.51700
C  49.34300 28.75200 32.44700
O  50.40700 28.23800 32.22800
O  48.90400 29.31500 33.58600
C  49.75000 29.31000 34.76100
H  46.35100 22.08600 31.38000
H  46.24800 22.49000 24.89200
H  47.85100 28.64900 25.13400
H  48.10900 26.17100 33.21300
H  45.83400 24.25600 33.11900
H  48.13500 22.76100 32.72700
H  47.65600 23.30600 34.35100
H  48.79400 24.28700 33.44600
H  45.31000 27.13600 32.84900
H  46.66100 27.82000 33.54700
H  46.13400 25.32100 34.97800
H  44.71200 26.13700 34.89000
H  47.23700 19.24100 29.15000
H  45.52800 19.29600 29.76500
H  46.94100 20.06100 30.64900
H  46.43100 18.18400 27.18000
H  45.02400 18.19100 26.05300
H  44.76400 18.64900 27.72300
H  45.77700 24.58900 23.52100
H  48.25900 26.46900 23.42400
H  47.03600 22.95300 22.82600
H  48.56500 23.44600 23.44900
H  47.93000 24.23200 21.94500
H  46.07300 28.14200 23.82900
H  45.55500 26.80700 22.64300
H  46.38400 27.75300 21.06800
H  48.00700 27.67300 21.75000
H  46.96600 29.12700 22.02800
H  48.97400 30.39200 25.99100
H  50.16200 30.52000 27.31200
H  48.64400 31.45500 27.35400
H  47.40000 29.40500 31.94600
H  49.12200 28.96200 35.58100
H  50.00800 30.33800 35.01500
H  50.71100 28.83100 34.57400
Mg -0.26600 43.88600 25.96800
C  2.06400 43.78500 28.80100
C  -2.75500 43.33200 28.21900
C  -2.31200 43.24400 23.36200
C  2.44900 44.23600 23.91000
N  -0.24000 43.36000 28.25800
C  0.76100 43.47400 29.15500
C  0.15100 43.41400 30.59100
C  -1.32000 43.08800 30.34200
C  -1.46900 43.31500 28.88000
C  -1.71800 41.59100 30.74800
C  0.41000 44.74300 31.37000
C  1.03000 44.71500 32.79800
H  0.69900 43.40900 33.61700
N  -2.36300 43.55700 25.84300
C  -3.21100 43.39200 26.90800
C  -4.54100 43.12400 26.34100
C  -4.47400 43.09500 24.90400
C  -3.05900 43.26000 24.66000
C  -5.74800 43.04000 27.26300
C  -5.53900 42.85300 23.85100
O  -5.33300 42.96400 22.64000
C  -6.85500 42.37000 24.36400
N  0.02400 43.64900 23.97300
C  -0.96100 43.30600 23.10400
C  -0.31600 43.14700 21.69800
C  0.98300 43.98600 21.80200
C  1.18800 43.96000 23.29100
C  -0.08800 41.72300 21.13400
C  0.87500 45.35900 21.08500
C  2.21100 46.04400 20.60500
N  1.83400 44.05800 26.17600
C  2.82600 44.35600 25.27600
C  4.08200 44.55000 26.00100
C  3.80900 44.40400 27.29000
C  2.43400 44.07800 27.39300
C  5.41500 44.85800 25.36600
C  4.46300 44.36600 28.63100
O  5.61400 44.44700 28.94500
C  3.28800 44.00300 29.63600
C  3.73100 42.77000 30.26900
O  3.22600 41.64900 30.00700
O  4.70600 42.96500 31.16900
C  5.21700 41.73700 31.82700
H  -3.57900 43.14100 28.90900
H  -2.85800 43.13500 22.42200
H  3.28900 44.55300 23.28900
H  0.75200 42.60700 31.01000
H  -1.93800 43.70500 30.99400
H  -2.44800 41.61100 31.55700
H  -0.91700 40.92800 31.07500
H  -2.19700 41.11600 29.89200
H  -0.55600 45.21500 31.54700
H  1.07600 45.41300 30.82600
H  0.61500 45.59400 33.29100
H  2.10200 44.85200 32.65900
H  -6.25000 42.07300 27.25400
H  -6.39500 43.77800 26.78900
H  -5.62900 43.41100 28.28100
H  -6.66600 41.38900 24.80100
H  -7.45000 42.21800 23.46300
H  -7.35300 43.15900 24.92700
H  -1.08000 43.63000 21.08800
H  1.84600 43.49200 21.35600
H  -0.79900 41.03600 21.59300
H  0.91100 41.36000 21.37800
H  -0.21300 41.82500 20.05600
H  0.34300 45.98500 21.80100
H  0.27300 45.28900 20.17900
H  2.30500 46.93200 21.23100
H  2.13500 46.28700 19.54500
H  3.06400 45.37200 20.69900
H  5.40300 45.78400 24.79000
H  5.71100 44.12100 24.61900
H  6.19800 44.88100 26.12400
H  3.29200 44.79900 30.38000
H  5.15600 40.88800 31.14500
H  4.45000 41.53700 32.57500
H  6.21500 41.83200 32.25500

