158

Mg 1.48500 -1.84400 43.42800
C  4.82400 -0.79700 43.18800
C  0.66700 0.83000 41.50200
C  -1.62500 -3.04600 43.24100
C  2.57500 -4.80800 44.93800
N  2.65800 -0.10100 42.59400
C  3.98500 0.14100 42.59100
C  4.29000 1.37500 41.67000
C  2.87200 2.05300 41.59200
C  1.99400 0.80900 41.92000
C  2.63100 3.15600 42.65600
C  5.03300 1.13800 40.33900
C  6.18500 2.11600 40.15700
H  6.19000 2.86400 38.87300
N  -0.27400 -1.09900 42.48900
C  -0.43100 0.01800 41.73200
C  -1.84400 0.29000 41.45100
C  -2.51800 -0.88300 42.00100
C  -1.49400 -1.74600 42.64300
C  -2.41800 1.49100 40.74200
C  -3.92400 -1.02200 41.93900
O  -4.70900 -0.19200 41.48400
C  -4.58200 -2.16000 42.48900
N  0.60600 -3.67400 43.96500
C  -0.72100 -3.90300 43.88600
C  -1.14100 -5.27900 44.54200
C  0.14300 -5.80000 45.14400
C  1.18900 -4.70400 44.68700
C  -2.28400 -5.01400 45.56600
C  0.65300 -7.26500 44.70300
C  0.49100 -8.41300 45.79300
N  3.28100 -2.72900 43.84800
C  3.60600 -3.92500 44.48000
C  5.06400 -4.01700 44.76000
C  5.57400 -2.86500 44.13900
C  4.42600 -2.08700 43.76800
C  5.85900 -5.17500 45.35000
C  6.78200 -2.20900 43.81600
O  7.96500 -2.56200 43.94500
C  6.35800 -0.80400 43.16600
C  7.02700 0.35700 43.83700
O  6.99200 0.50700 45.04300
O  7.79400 1.05900 42.92600
C  8.55300 2.17200 43.54400
H  0.28900 1.67100 40.91600
H  -2.64200 -3.44600 43.23100
H  2.85000 -5.65400 45.57200
H  4.87700 2.06200 42.28000
H  2.70900 2.46600 40.59700
H  3.55200 3.58800 43.04600
H  2.15900 2.80700 43.57500
H  2.01200 3.86900 42.11100
H  4.36600 1.23600 39.48300
H  5.38900 0.11100 40.41700
H  7.17700 1.66300 40.15800
H  6.28200 2.83900 40.96600
H  -2.80700 2.16700 41.50300
H  -3.28300 1.20800 40.14100
H  -1.68900 2.04000 40.14700
H  -5.63800 -2.05200 42.24400
H  -4.38500 -2.25500 43.55700
H  -4.25100 -3.01000 41.89000
H  -1.46900 -5.94900 43.74800
H  0.16700 -5.74300 46.23200
H  -2.19400 -3.98600 45.91800
H  -2.09000 -5.70100 46.38900
H  -3.24800 -5.27200 45.12700
H  1.71400 -7.23800 44.45600
H  0.19700 -7.61200 43.77600
H  -0.35700 -8.97200 45.39700
H  0.16100 -7.97800 46.73700
H  1.40600 -8.99800 45.87700
H  6.78300 -5.38700 44.81400
H  5.26400 -6.08000 45.23000
H  6.06100 -5.06800 46.41600
H  6.68200 -0.82100 42.12500
H  7.95900 3.08500 43.51300
H  9.37100 2.23300 42.82600
H  8.95400 2.13100 44.55700
Mg 8.91800 3.71300 27.79700
C  10.48700 2.03600 30.51100
C  6.83800 5.19700 29.89900
C  7.47500 4.99500 25.12100
C  10.84300 1.49700 25.74400
N  8.70900 3.59200 29.84500
C  9.51000 3.02100 30.83000
C  9.19200 3.60100 32.26900
C  7.94200 4.46600 32.07000
C  7.84600 4.44300 30.50100
C  6.74500 3.84300 32.84100
C  10.37500 4.07000 33.14700
C  10.09400 5.17300 34.25000
H  10.47800 4.79000 35.69000
N  7.32700 4.92200 27.54600
C  6.55600 5.47500 28.53300
C  5.48000 6.23100 27.96700
C  5.77900 6.38000 26.57500
C  6.88900 5.38600 26.33100
C  4.42800 6.86000 28.71500
C  5.13400 7.17300 25.45900
O  5.50300 7.12400 24.28200
C  4.15800 8.21100 25.89500
N  9.10200 3.16600 25.73500
C  8.46200 4.03800 24.84400
C  8.83000 3.71000 23.41200
C  9.91300 2.57100 23.61300
C  9.93100 2.31900 25.10400
C  7.55700 3.19700 22.59900
C  11.31600 2.88600 23.08600
C  11.79500 1.78900 22.16600
N  10.31100 2.07100 28.04100
C  11.01000 1.25300 27.09900
C  11.81200 0.29500 27.77700
C  11.69600 0.64200 29.11300
C  10.71100 1.63700 29.21400
C  12.68900 -0.76600 27.13000
C  12.11600 0.28800 30.47000
O  12.96900 -0.51300 30.89100
C  11.37400 1.19900 31.38900
C  10.60700 0.42200 32.43500
O  9.45700 -0.01700 32.31400
O  11.33500 0.42600 33.59900
C  10.59600 0.27300 34.87100
H  6.10900 5.59700 30.60700
H  7.24800 5.48600 24.17200
H  11.43400 0.79800 25.14900
H  8.92300 2.71100 32.83800
H  8.16500 5.48900 32.37400
H  5.97900 3.63000 32.09600
H  6.29000 4.60100 33.47700
H  6.75600 2.94800 33.46300
H  11.19400 4.41900 32.51800
H  10.71100 3.17400 33.66800
H  9.07500 5.55900 34.24100
H  10.68200 6.07200 34.06300
H  4.26900 6.51100 29.73500
H  3.43500 6.90800 28.26800
H  4.73600 7.89700 28.84200
H  3.29400 7.63300 26.22300
H  3.85900 8.91700 25.12000
H  4.50400 8.80800 26.73900
H  9.32100 4.60900 23.03900
H  9.51500 1.67300 23.14200
H  6.68500 3.22400 23.25300
H  7.66800 2.16800 22.25800
H  7.36500 3.75200 21.68000
H  11.98200 3.10000 23.92100
H  11.28600 3.82400 22.53100
H  12.21600 2.34900 21.33100
H  11.05000 1.11700 21.74100
H  12.56300 1.23000 22.70200
H  12.02300 -1.31100 26.46100
H  13.09700 -1.46300 27.86100
H  13.54200 -0.31200 26.62600
H  12.14000 1.86700 31.78300
H  9.90500 -0.56200 34.98800
H  10.10700 1.23100 35.05100
H  11.31400 0.09600 35.67200

