158

Mg 41.46200 41.61300 26.96200
C  40.56500 43.84500 29.29300
C  42.35400 39.30900 29.24500
C  42.68200 39.66100 24.39000
C  41.20700 44.21500 24.43600
N  41.29100 41.56800 29.05500
C  40.91700 42.63300 29.85400
C  40.72000 42.11000 31.32200
C  41.48900 40.75700 31.28200
C  41.67300 40.45700 29.78500
C  42.98400 40.82100 31.75800
C  39.28100 42.05500 31.94800
C  38.90800 43.26500 32.93700
H  38.42300 43.04400 34.33600
N  42.26000 39.70500 26.79600
C  42.58500 38.91200 27.85600
C  43.16300 37.63600 27.34400
C  43.17800 37.71800 25.96400
C  42.65400 39.05800 25.64900
C  43.40700 36.47100 28.25700
C  43.64400 36.66100 24.91400
O  43.56900 36.79400 23.71300
C  44.22300 35.38100 25.39400
N  41.82100 41.86500 24.77700
C  42.31200 40.90500 23.98100
C  42.37500 41.22000 22.50300
C  41.49500 42.52400 22.49100
C  41.54100 42.94700 24.01100
C  43.79700 41.55300 21.96400
C  40.07300 42.30900 21.93900
C  39.28600 41.21300 22.53100
N  41.01200 43.60100 26.87000
C  40.96000 44.51900 25.78400
C  40.48800 45.77900 26.32500
C  40.25200 45.52000 27.70500
C  40.65000 44.20000 27.96900
C  40.29700 47.05500 25.45800
C  39.80200 46.14300 28.93800
O  39.43600 47.29600 29.10900
C  39.95300 45.07900 30.04400
C  40.95300 45.71400 30.95300
O  42.15300 45.67200 30.75900
O  40.32200 46.31400 32.03700
C  41.15600 47.02900 33.00100
H  42.62000 38.57900 30.01200
H  43.11200 39.00800 23.62700
H  40.99500 44.98900 23.69600
H  41.32800 42.65100 32.04700
H  40.94100 39.90900 31.69400
H  43.65900 40.56600 30.94100
H  43.25400 40.06800 32.49800
H  43.24800 41.76400 32.23600
H  39.06600 41.03100 32.25700
H  38.72000 42.11300 31.01600
H  38.14900 43.82100 32.38600
H  39.68700 44.02600 32.97400
H  43.49500 36.84700 29.27600
H  44.36000 35.97600 28.07200
H  42.63700 35.70400 28.17500
H  45.10300 35.62800 25.98800
H  44.36100 34.81100 24.47600
H  43.61500 34.78900 26.07900
H  41.96200 40.42000 21.88900
H  41.93500 43.23300 21.79000
H  43.82300 42.52900 21.47800
H  43.98600 40.76800 21.23100
H  44.46000 41.47500 22.82500
H  39.95100 42.34400 20.85700
H  39.49000 43.17900 22.24000
H  38.60800 41.70800 23.22600
H  39.91300 40.37300 22.83100
H  38.62600 40.77600 21.78200
H  40.31100 46.74500 24.41400
H  41.10800 47.77200 25.59100
H  39.32100 47.53300 25.54100
H  38.96000 44.98600 30.48600
H  41.00400 46.62900 34.00400
H  40.72800 48.03100 32.99500
H  42.22400 47.02900 32.78400
Mg 35.72900 49.53600 24.99000
C  35.60600 47.87400 28.08200
C  34.45600 52.38500 26.60300
C  35.09800 50.82600 22.00300
C  37.01500 46.58900 23.60600
N  35.15900 50.03900 27.17100
C  35.25800 49.20900 28.26600
C  34.85900 49.89300 29.54500
C  34.62600 51.40200 29.06100
C  34.85000 51.34900 27.51500
C  33.38500 52.19400 29.56300
C  35.89200 49.76200 30.68300
C  35.43900 49.32400 32.14900
H  34.01000 49.54400 32.63900
N  34.77800 51.34900 24.40400
C  34.34900 52.36200 25.22500
C  33.69400 53.34600 24.46600
C  33.96500 53.05400 23.06900
C  34.65200 51.72200 23.07500
C  33.18600 54.63600 25.07400
C  33.69000 53.79700 21.78600
O  34.13700 53.45300 20.71900
C  32.85100 55.07700 21.88700
N  35.92300 48.76900 23.07100
C  35.60000 49.51500 21.96800
C  36.05300 48.75300 20.74100
C  36.93400 47.56300 21.28700
C  36.59200 47.60700 22.77200
C  34.97600 48.39400 19.69300
C  38.48500 47.61900 21.04300
C  39.17100 46.27600 20.80300
N  36.28700 47.61200 25.60300
C  36.74000 46.47600 24.94000
C  36.73100 45.32700 25.77500
C  36.29500 45.88000 27.03800
C  35.99300 47.21700 26.87200
C  36.98200 43.90900 25.45900
C  36.02300 45.48800 28.46600
O  36.07900 44.43200 29.01700
C  35.66600 46.78600 29.14100
C  34.46600 46.42900 29.90300
O  33.31400 46.41000 29.51800
O  34.86600 46.03600 31.17700
C  33.85800 45.33100 31.94800
H  34.02100 53.29200 27.02600
H  35.10800 51.35600 21.04900
H  37.46700 45.68800 23.18600
H  33.89100 49.54800 29.91000
H  35.49900 51.97400 29.37600
H  33.68300 52.94900 30.29100
H  32.73700 51.46000 30.04100
H  32.84500 52.69000 28.75700
H  36.31600 50.74100 30.90400
H  36.75500 49.11800 30.51300
H  36.13400 49.73300 32.88300
H  35.66500 48.25900 32.09900
H  33.06900 54.68100 26.15700
H  32.20200 54.74200 24.61600
H  33.69400 55.58600 24.91000
H  32.93100 55.67600 20.98000
H  33.42500 55.63400 22.62800
H  31.80700 54.88400 22.13200
H  36.81700 49.40500 20.31700
H  36.47100 46.61100 21.02900
H  34.34600 49.27300 19.55400
H  34.26000 47.66500 20.07200
H  35.44300 48.02200 18.78200
H  38.88200 48.17000 21.89600
H  38.51400 48.16800 20.10200
H  39.54200 46.18800 19.78200
H  38.53700 45.39900 20.93300
H  40.06600 46.21200 21.42200
H  36.34900 43.63800 24.61400
H  36.56800 43.40300 26.33100
H  38.02600 43.74300 25.19500
H  36.39100 47.03800 29.91500
H  32.98300 45.91600 32.23200
H  34.24500 45.09400 32.93900
H  33.54100 44.42000 31.44100

