158

Mg 1.16600 -2.04600 42.88000
C  4.48800 -1.61700 41.89700
C  0.37800 0.87900 41.15300
C  -2.00800 -2.86500 43.09600
C  2.08900 -5.20200 44.11800
N  2.28600 -0.60400 41.55300
C  3.61600 -0.63000 41.35800
C  4.13000 0.65400 40.67100
C  2.72200 1.43200 40.46600
C  1.76100 0.52600 41.15500
C  2.71500 2.84200 41.12700
C  4.96100 0.39100 39.32800
C  4.46000 -0.79800 38.50700
H  5.18600 -1.06800 37.13600
N  -0.56800 -1.10200 42.42300
C  -0.68800 0.11000 41.67600
C  -2.08600 0.40800 41.51300
C  -2.84900 -0.60900 42.03400
C  -1.81800 -1.59300 42.56400
C  -2.64400 1.68300 40.81900
C  -4.37200 -0.63300 42.09700
O  -5.03400 0.17200 41.51100
C  -5.08600 -1.71400 42.85100
N  0.20500 -3.85700 43.44600
C  -1.12600 -3.91900 43.43900
C  -1.62500 -5.30800 43.97000
C  -0.36200 -5.92100 44.58500
C  0.77000 -4.96100 44.09500
C  -2.88900 -5.30800 44.81700
C  -0.08500 -7.36400 44.13900
C  0.39100 -8.34900 45.23800
N  2.95800 -3.15600 43.12500
C  3.14600 -4.35500 43.68200
C  4.56300 -4.60600 43.80900
C  5.18400 -3.53800 43.12700
C  4.10300 -2.75000 42.65700
C  5.20200 -5.72400 44.49700
C  6.42700 -2.94500 42.67800
O  7.58900 -3.28200 42.86900
C  6.07900 -1.64100 41.94600
C  6.76700 -0.46000 42.56400
O  7.64200 0.20400 42.10200
O  6.26400 -0.35000 43.80900
C  6.58800 0.84000 44.65100
H  0.14600 1.81700 40.64300
H  -3.03100 -3.23700 43.18800
H  2.31600 -6.22600 44.42100
H  4.72800 1.15600 41.43200
H  2.36100 1.50600 39.44000
H  3.65100 3.16100 41.58500
H  1.94700 2.86000 41.90000
H  2.21500 3.46700 40.38600
H  6.01200 0.23800 39.57300
H  4.88100 1.27500 38.69500
H  3.39500 -0.61100 38.37100
H  4.66000 -1.70200 39.08200
H  -3.13700 1.46600 39.87200
H  -1.76700 2.29400 40.60400
H  -3.33800 2.21700 41.46800
H  -6.07800 -1.41900 43.19300
H  -4.52300 -1.91300 43.76300
H  -5.22400 -2.55800 42.17500
H  -1.89300 -5.88900 43.08800
H  -0.36300 -5.83400 45.67200
H  -3.79000 -5.66900 44.32100
H  -3.13400 -4.32300 45.21400
H  -2.64700 -6.05900 45.57000
H  0.72800 -7.28100 43.41700
H  -1.00300 -7.70200 43.66000
H  1.27000 -8.89400 44.89300
H  -0.48500 -8.96900 45.43200
H  0.59500 -7.89600 46.20900
H  4.75600 -6.01800 45.44700
H  6.24000 -5.41800 44.62600
H  5.05100 -6.50600 43.75300
H  6.57000 -1.63100 40.97300
H  6.10600 0.96600 45.62100
H  6.36200 1.70800 44.03200
H  7.65000 0.73600 44.87200
Mg 1.60500 43.36600 26.92000
C  3.34400 43.34000 29.98400
C  -1.04900 41.95600 28.67100
C  0.13400 42.87100 23.93500
C  4.49700 44.52500 25.49600
N  1.22800 42.77600 29.12100
C  2.02900 43.03100 30.14800
C  1.28600 42.76100 31.50700
C  -0.10300 41.97600 30.99500
C  -0.00700 42.30500 29.49500
C  -0.01000 40.55400 31.36200
C  1.06100 43.90800 32.50600
C  1.60500 43.64900 34.00700
H  0.60300 43.26400 35.07400
N  -0.23100 42.65200 26.41400
C  -1.19800 42.16600 27.30900
C  -2.45900 41.82300 26.54300
C  -2.15900 42.20700 25.15600
C  -0.71900 42.64600 25.15200
C  -3.72600 41.18400 27.09500
C  -3.06900 42.10000 23.92300
O  -2.61800 42.54000 22.86200
C  -4.57300 41.71400 24.02400
N  2.24800 43.55700 25.00100
C  1.47300 43.32800 23.87500
C  2.29300 43.63500 22.55100
C  3.48500 44.43300 23.10000
C  3.40000 44.24600 24.60900
C  2.58800 42.36300 21.66600
C  3.52100 45.99200 22.63200
C  4.54800 46.28400 21.46500
N  3.56200 43.90100 27.51600
C  4.59400 44.28500 26.82900
C  5.74700 44.28600 27.61100
C  5.35000 43.90500 28.86300
C  3.99700 43.73700 28.77300
C  7.18200 44.63700 27.14600
C  5.77300 43.66000 30.18200
O  6.90000 43.79700 30.61300
C  4.46100 43.30500 31.04100
C  4.69100 42.06200 31.85000
O  4.74900 40.89700 31.40800
O  4.85600 42.42800 33.20200
C  4.93200 41.37900 34.21400
H  -1.96300 41.68800 29.20500
H  -0.42300 42.66800 23.01800
H  5.38700 44.93400 25.01200
H  1.99900 42.13800 32.04700
H  -0.92100 42.49500 31.49400
H  0.56700 40.12300 30.54300
H  -1.03100 40.18100 31.28200
H  0.36600 40.38600 32.37100
H  -0.02300 43.94400 32.60800
H  1.39400 44.81800 32.00600
H  2.17000 44.51700 34.34800
H  2.30000 42.81000 33.99500
H  -3.76700 41.20000 28.18400
H  -3.81500 40.14500 26.77900
H  -4.55700 41.78800 26.73000
H  -4.69400 40.68300 24.35500
H  -5.01300 41.78900 23.03000
H  -4.98900 42.46000 24.70200
H  1.72100 44.35800 21.96800
H  4.37300 44.01900 22.62200
H  3.66400 42.23900 21.54400
H  2.22200 42.31600 20.64000
H  2.14600 41.54300 22.23300
H  3.83400 46.47900 23.55600
H  2.50200 46.29700 22.39300
H  5.09900 47.22400 21.46900
H  4.08100 46.18600 20.48500
H  5.28200 45.47800 21.46400
H  7.88200 44.42100 27.95200
H  7.15100 45.68600 26.85200
H  7.57500 44.10300 26.28100
H  4.34200 44.08700 31.79100
H  4.76100 40.41900 33.72600
H  4.24000 41.69500 34.99400
H  5.92300 41.32000 34.66300

