158

Mg 0.54800 7.53000 25.26700
C  0.99600 9.40600 28.21000
C  1.19100 4.75600 27.21500
C  0.38300 5.74400 22.54300
C  0.74300 10.53100 23.43100
N  1.02600 7.15100 27.54200
C  0.96200 8.05500 28.52300
C  1.03800 7.36000 29.91300
C  1.29600 5.87700 29.55300
C  1.17000 5.93100 28.02300
C  2.63700 5.22500 30.05500
C  -0.24700 7.69200 30.71000
C  -0.14800 7.55100 32.25200
H  1.17700 7.01000 32.82700
N  0.37600 5.49700 24.96500
C  0.79500 4.57700 25.85100
C  0.51200 3.31900 25.17700
C  0.26600 3.59200 23.77500
C  0.37900 4.99400 23.69400
C  0.60300 1.97400 25.90400
C  -0.11900 2.62600 22.58500
O  -0.23500 2.96500 21.44300
C  -0.53700 1.20300 22.99300
N  0.72500 8.07200 23.22900
C  0.40700 7.14200 22.38400
C  0.32800 7.76300 20.98900
C  -0.01900 9.27000 21.38500
C  0.46200 9.32500 22.77800
C  1.49400 7.63900 20.03600
C  -1.47800 9.65300 21.26900
C  -1.82700 11.10000 20.70600
N  0.87800 9.61200 25.72000
C  0.98900 10.66400 24.85600
C  1.33800 11.87300 25.62600
C  1.40100 11.38500 26.95500
C  1.04300 10.05000 26.93600
C  1.35500 13.26100 25.07900
C  1.59600 11.83000 28.29800
O  1.93600 12.90700 28.72900
C  1.21400 10.59000 29.21900
C  2.44900 10.44200 30.16100
O  3.51700 9.85400 29.78800
O  2.24100 11.08300 31.32600
C  3.46800 11.03400 32.14300
H  1.45100 3.86100 27.78500
H  0.18000 5.26300 21.58400
H  0.81100 11.42000 22.80100
H  1.88900 7.85500 30.38200
H  0.52600 5.19400 29.91000
H  3.24900 5.99300 30.52700
H  3.21800 4.83900 29.21700
H  2.40500 4.32400 30.62400
H  -0.97300 6.96100 30.35600
H  -0.62400 8.67500 30.42500
H  -0.89200 6.83000 32.59200
H  -0.30000 8.47200 32.81300
H  1.09100 2.01900 26.87700
H  1.04800 1.20300 25.27500
H  -0.41900 1.65600 26.10900
H  0.34800 0.60400 23.20600
H  -0.95400 0.80300 22.06900
H  -1.28800 1.30500 23.77600
H  -0.51800 7.30000 20.48100
H  0.52500 9.86900 20.65400
H  2.26000 7.12900 20.62000
H  2.02700 8.56900 19.83900
H  1.18300 7.16000 19.10800
H  -2.03200 9.59100 22.20500
H  -1.98200 8.92100 20.63800
H  -2.17500 10.96200 19.68200
H  -0.95000 11.73500 20.83200
H  -2.66000 11.42200 21.33000
H  0.56000 13.26300 24.33300
H  2.31900 13.43000 24.59900
H  1.33900 13.92500 25.94300
H  0.29600 10.82100 29.76000
H  3.38000 11.73400 32.97300
H  4.36000 11.25600 31.55800
H  3.49400 10.02700 32.55900
Mg 46.89700 16.24900 27.89000
C  44.77100 16.24200 30.69400
C  49.01200 18.37700 29.71200
C  48.39400 17.40100 24.98800
C  44.35100 15.04000 25.99600
N  46.81000 17.33900 29.87000
C  45.98300 17.02700 30.89100
C  46.44500 17.56800 32.21700
C  47.71900 18.39700 31.87800
C  47.88900 18.01800 30.40300
C  47.68100 19.87100 32.19400
C  46.87300 16.40600 33.16200
C  46.64700 16.57500 34.67400
H  46.29500 17.97200 35.19300
N  48.56300 17.61300 27.38900
C  49.33000 18.26600 28.34700
C  50.52600 18.71700 27.69800
C  50.42100 18.43200 26.28200
C  49.03500 17.84900 26.15900
C  51.66300 19.27300 28.43600
C  51.39000 18.77700 25.10400
O  51.20000 18.49700 23.92000
C  52.77400 19.33200 25.38900
N  46.50500 16.26200 25.78600
C  47.23600 16.68200 24.81600
C  46.84700 16.14500 23.43600
C  45.57800 15.34300 23.77700
C  45.42300 15.62100 25.32100
C  46.62700 17.29700 22.43500
C  45.70600 13.73600 23.43800
C  44.71600 13.21600 22.34700
N  44.99900 15.56500 28.24800
C  44.15000 14.98400 27.37000
C  42.92800 14.66100 28.09900
C  43.11800 15.09200 29.39900
C  44.36700 15.69100 29.45500
C  41.59800 14.08200 27.60100
C  42.55400 15.19200 30.82300
O  41.45800 14.84600 31.17400
C  43.63300 15.98100 31.68300
C  42.97900 17.17400 32.32700
O  42.73200 18.18800 31.69600
O  42.57500 17.00000 33.63200
C  41.97600 18.04900 34.42000
H  49.71900 18.91300 30.34800
H  48.90400 17.65200 24.05500
H  43.55300 14.61900 25.38000
H  45.70100 18.26700 32.59900
H  48.64400 18.03300 32.32600
H  47.83000 20.49400 31.31200
H  48.48900 20.15600 32.86700
H  46.69600 20.10700 32.59500
H  47.91900 16.14600 33.00200
H  46.31300 15.54300 32.80200
H  47.61300 16.27700 35.08300
H  45.93500 15.85200 35.07200
H  51.62100 19.57900 29.48100
H  51.82200 20.19400 27.87400
H  52.52000 18.64800 28.18400
H  53.32600 19.23800 24.45400
H  53.30400 18.78200 26.16600
H  52.71900 20.40200 25.59400
H  47.64400 15.47300 23.11700
H  44.69800 15.72400 23.25900
H  46.72300 18.20400 23.03200
H  45.65100 17.27600 21.95100
H  47.35000 17.32900 21.62000
H  45.38700 13.26700 24.36900
H  46.77200 13.52400 23.35200
H  45.08600 12.24500 22.01900
H  44.66800 13.90300 21.50200
H  43.71900 13.01400 22.73700
H  41.29200 14.83300 26.87200
H  40.98900 13.89300 28.48500
H  41.81700 13.11100 27.15700
H  43.96800 15.33300 32.49400
H  42.03600 17.88400 35.49500
H  40.91000 18.16600 34.22500
H  42.52900 18.97100 34.23900

