158

Mg 48.03000 34.17000 26.87800
C  45.98600 32.84300 29.43300
C  48.53000 36.96600 28.98600
C  49.37300 35.79300 24.31000
C  47.13800 31.52800 24.88500
N  47.44000 34.74300 29.05000
C  46.60300 34.02100 29.89700
C  46.76900 34.56300 31.32200
C  47.32300 36.00600 31.04100
C  47.88000 35.89000 29.63900
C  46.21700 37.07200 31.11900
C  47.87700 33.78400 32.05000
C  47.94200 33.94700 33.60200
H  47.01000 34.92700 34.32000
N  48.81200 36.05300 26.66500
C  48.99300 37.02400 27.61600
C  49.56500 38.19500 27.06400
C  49.87800 37.93800 25.66500
C  49.28000 36.58300 25.46600
C  49.80600 39.40600 27.91200
C  50.59200 38.78600 24.60500
O  50.81300 38.39600 23.47900
C  51.16700 40.13100 24.89700
N  48.30400 33.75500 24.95800
C  48.88000 34.51200 24.04700
C  49.07800 33.92500 22.71300
C  48.54200 32.52100 23.01000
C  47.89000 32.54000 24.40300
C  48.39900 34.68900 21.59300
C  49.53700 31.23900 22.85600
C  50.83700 31.35600 23.77400
N  46.79900 32.53900 27.03500
C  46.54200 31.50800 26.16800
C  45.68100 30.54900 26.76300
C  45.39600 31.08200 28.02500
C  46.18300 32.21100 28.16600
C  45.06100 29.30200 26.03200
C  44.53000 30.86400 29.13700
O  43.71000 29.99300 29.44400
C  44.79700 32.17100 30.05100
C  44.98500 31.67800 31.37900
O  45.87600 30.85500 31.75500
O  44.12300 32.22600 32.18900
C  44.19000 32.06700 33.59900
H  48.59200 37.85000 29.62400
H  49.67300 36.32500 23.40500
H  47.08000 30.60400 24.30400
H  45.80800 34.54200 31.83600
H  48.08700 36.21100 31.79100
H  45.19000 36.77300 31.32900
H  46.19600 37.53600 30.13300
H  46.50500 37.90100 31.76600
H  48.88200 34.05800 31.73100
H  47.70200 32.72100 31.88400
H  48.95100 34.29800 33.82100
H  47.84200 32.97700 34.08800
H  50.71300 39.94200 27.63300
H  49.79300 39.10600 28.96000
H  48.98500 40.10400 27.75000
H  51.92100 39.88800 25.64500
H  50.43300 40.80900 25.33400
H  51.67700 40.55500 24.03200
H  50.13700 33.78300 22.49600
H  47.68800 32.30800 22.36800
H  49.23400 35.21100 21.12500
H  47.69400 35.43500 21.95900
H  47.89400 34.03900 20.87800
H  49.97300 31.28200 21.85800
H  48.97900 30.30600 22.92600
H  51.73700 31.07900 23.22500
H  50.88300 30.56300 24.52000
H  50.96500 32.27700 24.34100
H  43.97700 29.30800 26.15100
H  45.39000 28.43200 26.60000
H  45.38600 29.13000 25.00600
H  43.93500 32.83900 30.06300
H  43.56700 32.86600 34.00100
H  45.20700 32.16300 33.98100
H  44.01900 31.04000 33.92200
Mg 8.72500 47.93100 26.56500
C  6.73500 48.03700 29.37700
C  11.45300 49.13000 28.57100
C  10.70500 48.09200 23.80900
C  5.98900 47.03200 24.67600
N  9.06900 48.51200 28.76100
C  8.08200 48.45700 29.69600
C  8.63300 48.69600 31.08800
C  10.01900 49.35800 30.64500
C  10.25200 48.86700 29.32100
C  10.06600 50.94700 30.70800
C  8.84300 47.37600 31.92200
C  8.98900 47.55600 33.46500
H  8.67800 46.46900 34.39800
N  10.81500 48.47500 26.26200
C  11.76900 48.91400 27.16700
C  13.00200 49.15600 26.45200
C  12.83100 48.93300 25.09900
C  11.38000 48.52800 25.00500
C  14.25400 49.55900 27.12600
C  13.76900 49.02300 23.96400
O  13.49600 48.78600 22.80300
C  15.19800 49.18400 24.31100
N  8.41200 47.69600 24.51600
C  9.39500 47.67300 23.56300
C  8.81200 47.27400 22.21300
C  7.35300 46.88400 22.51700
C  7.19800 47.24700 24.01600
C  9.08400 48.36100 21.11400
C  6.98800 45.44200 22.20500
C  6.04500 45.25200 20.99100
N  6.79600 47.71900 26.91900
C  5.74900 47.33500 26.04300
C  4.53700 47.33900 26.71500
C  4.84700 47.58200 28.08000
C  6.24400 47.72600 28.15900
C  3.23200 46.83700 26.14400
C  4.30800 47.66000 29.42000
O  3.10600 47.57900 29.79100
C  5.55500 47.80200 30.36300
C  5.65900 46.47700 30.98100
O  5.77200 45.42900 30.39000
O  5.49800 46.65800 32.35600
C  5.55400 45.33200 32.98700
H  12.23600 49.56600 29.19500
H  11.31900 48.08800 22.90600
H  5.15500 46.68800 24.06100
H  7.97500 49.39900 31.60000
H  10.82100 49.02600 31.30400
H  10.77700 51.14200 31.51000
H  9.07400 51.29200 31.00000
H  10.47700 51.42600 29.81900
H  9.75200 46.86800 31.60100
H  8.07500 46.63100 31.71600
H  8.47100 48.48400 33.71100
H  10.06700 47.65700 33.59200
H  14.13200 49.72800 28.19600
H  14.56300 50.50500 26.68100
H  15.03500 48.80800 27.01000
H  15.47200 48.31100 24.90300
H  15.27100 50.18100 24.74600
H  15.76900 49.30900 23.39100
H  9.31600 46.34800 21.93500
H  6.60900 47.47700 21.98400
H  8.16000 48.86300 20.82400
H  9.52400 47.81400 20.28000
H  9.83000 49.12200 21.34300
H  6.59900 44.98000 23.11200
H  7.87100 44.81600 22.08000
H  6.59000 44.71100 20.21700
H  5.85100 46.20400 20.49600
H  5.18100 44.62800 21.21800
H  2.90900 47.27900 25.20200
H  2.46300 46.94500 26.91000
H  3.27100 45.75500 26.01700
H  5.43600 48.65500 31.03100
H  5.39800 45.36500 34.06500
H  6.49900 44.88400 32.68000
H  4.69600 44.82900 32.54000

