158

Mg 53.74600 24.53700 43.82000
C  51.02700 26.99000 43.03800
C  51.41200 22.28200 42.72000
C  56.24200 22.49800 43.34200
C  55.73200 27.21700 44.61700
N  51.48600 24.67400 42.75400
C  50.59500 25.71200 42.72200
C  49.21900 25.24000 42.25200
C  49.27300 23.67600 42.45000
C  50.82000 23.53000 42.72100
C  48.48500 23.13300 43.71500
C  48.76700 25.72300 40.91500
C  49.84500 25.77200 39.75500
H  49.23400 25.78200 38.35600
N  53.80600 22.55700 43.42700
C  52.76100 21.84000 42.99900
C  53.23300 20.42900 42.77200
C  54.68200 20.46100 43.06900
C  54.96100 21.87900 43.27100
C  52.40100 19.33300 42.26900
C  55.64600 19.25100 42.92500
O  55.19800 18.14300 42.54300
C  57.08500 19.32000 43.22600
N  55.76100 24.89500 43.76600
C  56.69800 23.84400 43.58800
C  58.14500 24.39000 43.51200
C  57.85300 25.89600 44.06600
C  56.36000 26.02700 44.20400
C  59.26300 23.55900 44.19500
C  58.54500 27.02300 43.31300
C  57.79500 27.73900 42.23300
N  53.40100 26.59800 44.00500
C  54.34700 27.56200 44.44700
C  53.71600 28.89800 44.52400
C  52.43300 28.68500 43.98100
C  52.27400 27.32200 43.62600
C  54.20500 30.08700 45.22400
C  51.12900 29.31700 43.70700
O  50.74900 30.45100 43.83200
C  50.25900 28.31200 42.99500
C  49.87200 28.83600 41.60900
O  50.62200 29.09500 40.65800
O  48.56200 29.07800 41.73400
C  47.95300 29.54100 40.45900
H  50.73600 21.48500 42.40300
H  57.09600 21.83900 43.17000
H  56.38700 28.04300 44.90100
H  48.60400 25.71200 43.01900
H  49.03300 23.19500 41.50200
H  47.58500 22.69400 43.28500
H  48.40100 23.93600 44.44700
H  49.12500 22.40700 44.21600
H  48.18300 26.64300 40.93700
H  48.08000 24.91900 40.65300
H  50.66700 25.06500 39.86800
H  50.27400 26.77000 39.66000
H  52.34700 19.51400 41.19600
H  51.36800 19.49000 42.58100
H  52.69400 18.30600 42.48300
H  57.56700 19.50400 42.26600
H  57.50500 18.37200 43.56300
H  57.37200 20.06900 43.96500
H  58.42200 24.35500 42.45800
H  58.31400 25.88300 45.05400
H  58.84300 23.27000 45.15800
H  60.14900 24.15900 44.40200
H  59.41600 22.69300 43.55000
H  59.39200 26.53700 42.83000
H  58.90000 27.70700 44.08500
H  57.46100 28.69600 42.63300
H  56.83300 27.26700 42.03700
H  58.35100 27.74300 41.29500
H  53.70600 30.92900 44.74400
H  55.27100 30.15100 45.00900
H  54.04200 30.01900 46.29900
H  49.39000 28.23600 43.65000
H  47.67600 30.59500 40.48700
H  47.03600 28.95900 40.37200
H  48.52500 29.28700 39.56600
Mg 42.74300 42.30200 27.42700
C  41.96200 44.61200 29.90000
C  43.52200 40.07100 29.74600
C  43.44400 40.29700 24.92700
C  42.42500 44.95300 24.98100
N  42.63900 42.27900 29.59300
C  42.23100 43.35400 30.43500
C  42.24400 42.90600 31.92800
C  42.93300 41.54300 31.83300
C  43.02300 41.22600 30.31500
C  44.29400 41.32200 32.50400
C  40.81400 42.92100 32.39800
C  40.59300 43.75700 33.70000
H  39.91100 42.96100 34.86900
N  43.44800 40.40000 27.32400
C  43.64000 39.64200 28.39500
C  43.99900 38.31400 27.91800
C  43.87800 38.35400 26.45900
C  43.58000 39.73900 26.17100
C  44.42400 37.26900 28.82700
C  44.07100 37.27000 25.41800
O  44.05800 37.42300 24.15100
C  44.50800 35.88100 25.92200
N  42.94300 42.63400 25.24700
C  43.16000 41.55200 24.47400
C  42.95900 41.86400 22.96000
C  42.46300 43.32300 23.09100
C  42.65200 43.71500 24.50900
C  44.23400 41.65100 21.96700
C  40.95800 43.63900 22.59100
C  39.87100 44.05700 23.60200
N  42.23900 44.32900 27.36600
C  42.18400 45.28400 26.32700
C  41.67900 46.55600 26.90800
C  41.60900 46.36300 28.29900
C  41.93400 45.00300 28.52800
C  41.36600 47.86000 26.18100
C  41.31800 46.97300 29.53400
O  40.88800 48.11700 29.77400
C  41.53200 45.90400 30.68200
C  42.48800 46.45100 31.70600
O  43.74100 46.43900 31.53300
O  41.76500 46.89900 32.80600
C  42.45400 47.13600 34.05600
H  43.92700 39.41100 30.51600
H  43.30500 39.60300 24.09500
H  42.26700 45.79100 24.29800
H  42.86800 43.60000 32.49100
H  42.21900 40.79600 32.18200
H  45.07000 41.00200 31.80800
H  44.27000 40.63400 33.34800
H  44.61800 42.28700 32.89500
H  40.43100 41.95200 32.71700
H  40.12200 43.19300 31.60000
H  40.03000 44.65700 33.45000
H  41.56300 44.14600 34.01000
H  43.55900 36.60800 28.88700
H  44.67700 37.65400 29.81500
H  45.29500 36.71200 28.48300
H  43.84800 35.46400 26.68300
H  45.51700 35.98400 26.32200
H  44.44600 35.18500 25.08600
H  42.12700 41.26600 22.58800
H  42.96200 43.85000 22.27700
H  43.93500 41.12200 21.06200
H  45.08100 41.24200 22.51800
H  44.50300 42.65000 21.62200
H  40.63700 42.88000 21.87700
H  41.19200 44.52100 21.99500
H  39.02400 43.69900 23.01600
H  39.70000 45.13200 23.65500
H  39.83400 43.60800 24.59400
H  40.44800 47.68200 25.62000
H  42.16000 48.11200 25.47800
H  41.27900 48.66400 26.91200
H  40.55200 45.77600 31.14200
H  42.51800 46.24300 34.67800
H  41.87200 47.87600 34.60500
H  43.45500 47.51100 33.84500

