158

Mg 49.98300 45.71700 42.97100
C  46.69300 46.11700 41.61200
C  50.27300 42.83800 41.06500
C  53.32900 45.82700 43.17200
C  49.88100 49.18000 43.85300
N  48.61300 44.63300 41.51100
C  47.34300 44.96400 41.13500
C  46.77300 44.02600 40.10600
C  47.90200 42.88700 40.03100
C  49.00900 43.49900 40.94700
C  47.38400 41.44600 40.51200
C  46.66200 44.80900 38.72900
C  45.24800 44.87800 38.20300
H  45.00000 44.10100 36.94900
N  51.49900 44.31400 42.62200
C  51.41500 43.21800 41.81700
C  52.71100 42.51200 41.91600
C  53.53000 43.26600 42.74400
C  52.83400 44.54600 42.89100
C  52.94500 41.16700 41.19900
C  54.89800 42.86500 43.20200
O  55.40500 41.83900 42.81700
C  55.81200 43.85400 43.92900
N  51.31000 47.32300 43.30400
C  52.66900 46.99200 43.50500
C  53.45500 48.19900 43.97100
C  52.43000 49.26300 44.37200
C  51.14200 48.56900 43.77600
C  54.69900 48.01900 44.98600
C  52.68000 50.60000 43.72900
C  52.74400 51.79700 44.65100
N  48.55000 47.20400 43.10200
C  48.66300 48.58300 43.43500
C  47.28700 49.17600 43.39500
C  46.50000 48.20600 42.69500
C  47.34100 47.05800 42.44400
C  46.83400 50.61300 43.77300
C  45.15700 47.96100 42.19500
O  44.12500 48.63500 42.22200
C  45.19700 46.56100 41.61100
C  44.27000 45.64300 42.29800
O  44.51600 44.92200 43.29000
O  42.97500 45.70600 41.71200
C  41.97800 44.73900 42.26800
H  50.41400 41.97400 40.41300
H  54.42000 45.86300 43.20300
H  49.87700 50.18200 44.28600
H  45.75200 43.75900 40.37900
H  48.34600 42.73300 39.04700
H  47.74100 40.61000 39.91100
H  46.30400 41.44600 40.65800
H  47.91600 41.26000 41.44500
H  47.26000 44.23300 38.02300
H  47.00900 45.83500 38.85400
H  45.03000 45.92300 37.98000
H  44.46900 44.53900 38.88600
H  52.12800 40.88100 40.53600
H  53.14600 40.33300 41.87200
H  53.87500 41.14500 40.63200
H  56.57000 43.40900 44.57300
H  55.17000 44.54600 44.47500
H  56.21000 44.40900 43.08000
H  53.88500 48.42600 42.99600
H  52.26800 49.41800 45.43900
H  54.90600 46.97300 45.21200
H  54.32000 48.49300 45.89100
H  55.64400 48.45800 44.66500
H  51.87900 50.81200 43.01900
H  53.59300 50.55400 43.13500
H  53.70200 52.24300 44.38400
H  52.71300 51.47500 45.69200
H  51.97300 52.51700 44.37800
H  45.77500 50.77400 43.97500
H  47.23100 51.22700 42.96500
H  47.38400 50.83100 44.68800
H  44.77300 46.63900 40.61000
H  42.39300 43.77000 42.54600
H  41.15900 44.65400 41.55500
H  41.48100 45.15500 43.14400
Mg -6.18700 25.09100 25.95900
C  -4.46200 25.99500 28.88000
C  -8.14200 22.95100 27.72800
C  -7.24300 23.95700 23.06600
C  -3.59600 26.75400 24.22900
N  -6.15900 24.48800 28.03700
C  -5.53600 25.20300 29.05900
C  -6.04900 24.68700 30.38300
C  -7.02400 23.51800 30.02800
C  -7.11500 23.59400 28.50400
C  -6.50800 22.17200 30.56400
C  -6.71200 25.86800 31.16600
C  -6.49500 26.05400 32.73100
H  -5.97500 24.91900 33.57200
N  -7.55900 23.64800 25.44300
C  -8.37200 22.92400 26.32400
C  -9.28200 22.08800 25.54100
C  -8.97300 22.42100 24.14700
C  -7.88200 23.40800 24.16200
C  -10.24400 21.14800 26.18500
C  -9.72800 21.95300 22.95700
O  -9.46800 22.35200 21.83700
C  -10.88300 21.02200 23.13200
N  -5.37300 25.24400 23.93700
C  -6.09600 24.69600 22.90500
C  -5.51100 24.98100 21.57500
C  -4.44100 26.04900 21.99200
C  -4.44400 26.00400 23.50200
C  -4.79200 23.71700 20.94400
C  -4.74000 27.51000 21.47200
C  -4.24500 27.74000 20.00800
N  -4.50200 26.31100 26.40400
C  -3.56900 26.94700 25.60400
C  -2.48300 27.60800 26.34900
C  -2.81500 27.30900 27.66900
C  -4.04100 26.53800 27.65400
C  -1.26500 28.39200 25.81000
C  -2.40300 27.36200 29.07200
O  -1.50100 27.87700 29.65700
C  -3.55200 26.67600 29.85900
C  -2.90800 25.84500 30.92400
O  -2.53500 24.71600 30.83000
O  -2.79100 26.44600 32.12700
C  -1.77800 26.01100 33.01300
H  -8.78400 22.25100 28.26700
H  -7.56100 23.73600 22.04500
H  -2.77600 27.24400 23.70000
H  -5.23400 24.32100 31.00700
H  -8.03400 23.71000 30.38800
H  -5.85400 22.24500 31.43300
H  -5.87300 21.90700 29.71800
H  -7.37800 21.52200 30.65400
H  -7.79700 25.90600 31.07400
H  -6.35400 26.72500 30.59700
H  -7.41600 26.50500 33.09900
H  -5.76900 26.84300 32.92700
H  -11.17500 21.69100 26.02300
H  -10.19200 20.97900 27.26000
H  -10.23700 20.16000 25.72300
H  -11.64700 21.40700 23.80600
H  -10.40200 20.14800 23.57100
H  -11.23900 20.72900 22.14400
H  -6.29100 25.45400 20.97800
H  -3.43300 25.75500 21.69800
H  -3.78600 24.05000 20.68900
H  -5.45100 23.39300 20.13900
H  -4.77100 22.98700 21.75300
H  -4.37400 28.30500 22.12100
H  -5.82100 27.65000 21.49200
H  -3.23600 28.15400 20.02900
H  -5.01300 28.34400 19.52600
H  -4.16500 26.76400 19.52800
H  -1.66600 29.32000 25.40200
H  -0.84100 27.76700 25.02400
H  -0.57000 28.57500 26.63100
H  -4.08700 27.46100 30.39300
H  -2.19000 25.15400 33.54500
H  -1.31600 26.76100 33.65600
H  -0.95600 25.79800 32.32900

