158

Mg 0.77700 -2.51000 44.60700
C  4.04000 -1.59400 43.81600
C  -0.33100 0.30100 42.97600
C  -2.43000 -3.62800 44.97300
C  2.00600 -5.55800 45.95100
N  1.77100 -0.88000 43.49000
C  3.10600 -0.76000 43.25100
C  3.38000 0.44000 42.28200
C  2.02200 1.20900 42.26500
C  1.09500 0.17800 42.97600
C  1.93700 2.60500 42.92800
C  3.98200 0.02200 40.91900
C  5.31500 0.61600 40.44900
H  5.17700 1.56300 39.17200
N  -1.14400 -1.87400 43.99900
C  -1.34800 -0.62500 43.45200
C  -2.73500 -0.35500 43.28400
C  -3.41300 -1.47400 43.89100
C  -2.31700 -2.40300 44.32900
C  -3.27700 0.89800 42.68400
C  -4.92700 -1.73100 43.99400
O  -5.77500 -0.92900 43.53400
C  -5.46300 -2.93500 44.68600
N  -0.12800 -4.33800 45.33800
C  -1.45700 -4.57500 45.34800
C  -1.75600 -5.98300 46.05600
C  -0.34300 -6.52800 46.25900
C  0.58400 -5.41400 45.77500
C  -2.68400 -5.90300 47.27900
C  -0.07500 -7.89600 45.57500
C  0.68900 -8.94200 46.39300
N  2.64300 -3.36200 45.01700
C  2.98900 -4.62800 45.59000
C  4.48300 -4.73200 45.56800
C  4.89600 -3.51800 44.98800
C  3.75600 -2.76000 44.57600
C  5.27100 -5.93500 46.01800
C  6.05100 -2.77600 44.59800
O  7.27300 -3.01600 44.77300
C  5.53500 -1.53900 43.76400
C  6.10200 -0.23700 44.21200
O  6.92100 0.36600 43.52100
O  5.57900 0.24600 45.39600
C  6.07700 1.46500 45.96600
H  -0.74000 1.21300 42.53700
H  -3.35000 -4.13600 45.26800
H  2.27400 -6.58700 46.19700
H  4.11100 1.11700 42.72400
H  1.74800 1.35200 41.22000
H  1.59000 3.37700 42.24000
H  2.94900 2.80900 43.27900
H  1.16300 2.47500 43.68400
H  3.26400 0.23800 40.12800
H  4.08200 -1.06300 40.92400
H  5.99300 -0.15400 40.07800
H  5.76800 1.20500 41.24600
H  -4.34000 0.83400 42.45000
H  -2.73800 1.00800 41.74300
H  -3.03800 1.67300 43.41200
H  -5.00200 -2.85500 45.67000
H  -5.31000 -3.90400 44.21000
H  -6.54700 -2.83500 44.73800
H  -2.28100 -6.54700 45.28500
H  -0.17600 -6.75600 47.31100
H  -2.83700 -4.85800 47.55200
H  -2.18200 -6.24500 48.18400
H  -3.59300 -6.50000 47.20500
H  0.60700 -7.72400 44.74200
H  -0.99000 -8.45400 45.37500
H  1.69100 -9.04900 45.97700
H  0.25400 -9.94100 46.39400
H  0.68600 -8.75400 47.46700
H  4.83500 -6.31900 46.94100
H  6.27200 -5.55600 46.22500
H  5.29300 -6.72200 45.26500
H  5.85400 -1.59800 42.72400
H  6.91900 1.91000 45.43500
H  6.40800 1.16900 46.96200
H  5.22700 2.14700 46.00800
Mg -0.66400 6.94400 26.39000
C  0.43400 9.05300 28.88500
C  -0.63200 4.35000 28.60300
C  -1.68100 4.94600 23.88500
C  -0.11600 9.50000 24.02600
N  -0.22100 6.76500 28.49500
C  0.16300 7.79500 29.38200
C  0.12800 7.29800 30.82600
C  0.08000 5.73300 30.70200
C  -0.25400 5.57300 29.18200
C  1.41700 5.06400 31.08500
C  -1.17200 7.99400 31.51100
C  -1.36900 7.81700 32.99400
H  -0.22200 7.16100 33.68400
N  -1.09300 4.89700 26.23100
C  -1.02100 3.98000 27.26100
C  -1.46200 2.69200 26.77400
C  -1.90800 2.88600 25.44000
C  -1.62100 4.31000 25.15900
C  -1.27300 1.54000 27.54200
C  -2.42700 1.89200 24.36700
O  -2.80700 2.22100 23.23700
C  -2.41900 0.43800 24.68600
N  -0.64400 7.13000 24.20400
C  -1.23100 6.20900 23.48900
C  -1.33300 6.64200 21.95600
C  -0.72000 8.13900 22.02300
C  -0.48800 8.29900 23.55400
C  -0.64100 5.73700 20.88000
C  -1.66000 9.24400 21.38600
C  -2.85900 9.66900 22.26800
N  0.07300 8.81200 26.40700
C  0.18300 9.78000 25.41000
C  0.61900 11.02000 25.92100
C  0.76000 10.77000 27.33400
C  0.41500 9.46700 27.51800
C  0.68500 12.30800 25.12700
C  1.15800 11.42300 28.55200
O  1.67800 12.55000 28.68400
C  0.84700 10.33400 29.68100
C  2.00100 10.19700 30.52300
O  3.11500 9.73500 30.28500
O  1.71000 10.62700 31.75200
C  2.84000 11.11600 32.53500
H  -0.67000 3.54200 29.33700
H  -1.94600 4.31000 23.03800
H  -0.10200 10.32500 23.31200
H  0.95500 7.71700 31.40100
H  -0.65700 5.22800 31.32600
H  2.24000 5.77200 30.98300
H  1.72000 4.47100 30.22300
H  1.37400 4.62200 32.08100
H  -2.06600 7.58500 31.04100
H  -1.10800 9.03700 31.19900
H  -2.23800 7.17000 33.10700
H  -1.53700 8.83700 33.34000
H  -0.33300 1.43700 28.08500
H  -1.26200 0.70300 26.84300
H  -2.01200 1.40600 28.33200
H  -3.19800 0.38100 25.44700
H  -1.41900 0.16000 25.01700
H  -2.63100 -0.21000 23.83500
H  -2.39700 6.64100 21.71700
H  0.16400 8.29100 21.40300
H  -0.39900 4.70600 21.13600
H  0.27300 6.18700 20.49300
H  -1.33200 5.63800 20.04300
H  -2.16800 8.87900 20.49400
H  -1.14700 10.18200 21.17700
H  -2.54400 10.54400 22.83800
H  -3.14600 8.86200 22.94200
H  -3.74200 9.86000 21.65900
H  1.18000 13.05700 25.74500
H  -0.22600 12.82000 24.81800
H  1.35100 12.10300 24.28900
H  0.00100 10.71200 30.25500
H  3.45000 10.24500 32.77300
H  2.43700 11.56400 33.44400
H  3.38900 11.84900 31.94400

