158

Mg 2.13000 -2.05600 43.80900
C  5.57000 -0.91100 43.20600
C  1.09200 0.65400 42.01400
C  -0.81800 -3.49300 43.54500
C  3.48600 -4.95300 45.17200
N  3.31400 -0.44600 42.53400
C  4.64700 -0.02000 42.65600
C  4.88300 1.38600 42.04000
C  3.38600 1.88400 41.90900
C  2.51300 0.63700 42.17300
C  3.05900 2.95800 42.99600
C  5.64000 1.31300 40.64900
C  6.37000 2.63500 40.35900
H  6.38700 3.19100 38.94300
N  0.37400 -1.46100 42.91200
C  0.09900 -0.28000 42.31600
C  -1.34900 -0.15300 42.11700
C  -1.94000 -1.34000 42.62100
C  -0.74100 -2.17100 43.01100
C  -2.02600 0.92000 41.22000
C  -3.43200 -1.65000 42.56300
O  -4.15000 -0.85800 42.01000
C  -4.05500 -2.85100 43.11200
N  1.47000 -3.96600 44.25300
C  0.14100 -4.29600 44.20700
C  -0.16100 -5.70400 44.71600
C  1.17600 -6.11000 45.38200
C  2.12000 -4.94300 44.91600
C  -1.38000 -6.07100 45.54800
C  1.78700 -7.50700 44.96500
C  2.51200 -8.15100 46.21200
N  4.14200 -2.83400 44.17500
C  4.47400 -4.00400 44.79400
C  5.89700 -4.10400 44.75600
C  6.39400 -2.91700 44.25700
C  5.24100 -2.19900 43.79700
C  6.73800 -5.16100 45.30400
C  7.60600 -2.13200 44.04800
O  8.76300 -2.33800 44.39800
C  7.12400 -0.81200 43.29900
C  7.51200 0.36900 44.12900
O  7.23800 0.57300 45.27200
O  8.19600 1.30300 43.33800
C  8.47700 2.65900 43.82000
H  0.77400 1.64000 41.66900
H  -1.72100 -4.08300 43.37600
H  3.89000 -5.90600 45.51800
H  5.47900 2.02900 42.68800
H  3.31300 2.34100 40.92200
H  2.51000 2.53400 43.83700
H  2.40400 3.73200 42.59700
H  3.93500 3.32700 43.53000
H  4.96400 1.12000 39.81600
H  6.27600 0.43000 40.59700
H  7.39300 2.62500 40.73700
H  5.92700 3.37500 41.02500
H  -2.42700 0.46500 40.31400
H  -1.23900 1.64400 41.01000
H  -2.80900 1.51400 41.69300
H  -5.13900 -2.86700 43.22300
H  -3.72700 -3.11400 44.11800
H  -3.78800 -3.74600 42.55000
H  -0.29000 -6.35600 43.85200
H  1.06000 -5.98100 46.45800
H  -2.09400 -6.68700 45.00100
H  -1.91400 -5.18300 45.88600
H  -1.25100 -6.66300 46.45400
H  2.42800 -7.37100 44.09500
H  1.04200 -8.21000 44.59200
H  1.97800 -9.04900 46.52300
H  2.69100 -7.44700 47.02500
H  3.47500 -8.53900 45.88100
H  7.65400 -4.83300 45.79400
H  7.08400 -5.68500 44.41300
H  6.20400 -5.94500 45.84100
H  7.63700 -0.71100 42.34300
H  7.77400 3.02000 44.57100
H  8.49900 3.43800 43.05800
H  9.47600 2.48700 44.22000
Mg 30.36900 58.07900 39.26100
C  27.47700 56.37700 38.15400
C  32.15900 55.14000 38.63800
C  33.22500 59.78900 39.55700
C  28.43500 60.89600 39.83900
N  29.91300 56.09600 38.21600
C  28.67300 55.61000 38.02100
C  28.69300 54.10200 37.68100
C  30.07400 53.66700 38.14400
C  30.79100 55.05400 38.44000
C  30.06000 52.77500 39.41200
C  28.45900 53.67000 36.19100
C  29.27000 54.49200 35.06200
H  28.36100 55.41800 34.27500
N  32.39800 57.54400 39.12700
C  32.95300 56.31700 38.85100
C  34.41300 56.35500 38.92700
C  34.76300 57.65800 39.22800
C  33.44800 58.41900 39.36800
C  35.25500 55.11500 38.60200
C  36.11200 58.13700 39.36500
O  37.07500 57.50200 38.89900
C  36.37600 59.44100 40.08600
N  30.70300 60.06400 39.68900
C  32.01300 60.50700 39.84100
C  32.00400 61.96900 40.05600
C  30.56600 62.27000 40.43400
C  29.82400 61.03100 39.93800
C  33.15900 62.51600 40.97200
C  29.83700 63.57400 39.89300
C  28.88900 64.11000 40.97600
N  28.36700 58.58200 39.12900
C  27.73300 59.74600 39.40900
C  26.30200 59.66900 38.96600
C  26.15300 58.36400 38.54700
C  27.41000 57.73800 38.63000
C  25.30700 60.82500 38.92500
C  25.25600 57.31900 37.99600
O  24.08200 57.46900 37.85400
C  26.00200 56.04200 37.82600
C  25.45800 54.90300 38.67000
O  25.64100 54.81100 39.83400
O  24.66700 54.00900 37.92800
C  24.18300 52.84400 38.55400
H  32.61300 54.14700 38.66400
H  34.11300 60.41900 39.46800
H  27.80300 61.74400 40.11200
H  27.88900 53.76200 38.33400
H  30.71800 53.16200 37.42300
H  30.89900 52.86800 40.10100
H  30.14100 51.76900 39.00100
H  29.09500 52.73700 39.91800
H  27.37700 53.75100 36.09000
H  28.73200 52.62900 36.01700
H  29.56300 53.71500 34.35600
H  30.13800 55.01600 35.46200
H  35.58700 55.14400 37.56400
H  34.76700 54.14800 38.72000
H  36.12200 54.93700 39.23900
H  35.68200 59.68700 40.89000
H  36.43000 60.27900 39.39100
H  37.29100 59.34500 40.67000
H  32.16200 62.38800 39.06200
H  30.64900 62.25200 41.52000
H  34.02900 62.74700 40.35800
H  33.44800 61.75900 41.70200
H  32.86700 63.41300 41.51800
H  29.32200 63.21400 39.00200
H  30.46500 64.40800 39.58100
H  29.20900 65.11000 41.26700
H  28.81100 63.47600 41.85900
H  27.89300 64.09700 40.53300
H  24.99200 61.25300 39.87600
H  24.42400 60.65200 38.31000
H  25.86800 61.59600 38.39700
H  26.05100 55.67300 36.80100
H  23.49100 53.23900 39.29800
H  25.12500 52.37700 38.83900
H  23.66800 52.20300 37.83800

