158

Mg 1.64800 -1.99300 45.28200
C  5.12200 -1.02100 45.22600
C  1.01600 0.84100 43.41500
C  -1.50700 -2.95200 45.19100
C  2.63800 -4.98000 46.51900
N  2.97400 -0.23700 44.51300
C  4.31400 -0.12300 44.52200
C  4.79100 1.10300 43.69200
C  3.44600 1.94500 43.55200
C  2.41200 0.80400 43.78000
C  3.23100 3.25800 44.42600
C  5.41900 0.71200 42.34800
C  6.38300 1.74600 41.80200
H  6.24500 2.04800 40.32500
N  -0.04800 -1.13400 44.40400
C  -0.06800 -0.00400 43.60200
C  -1.38300 0.22000 43.18400
C  -2.19500 -0.76400 43.84600
C  -1.24100 -1.68300 44.58400
C  -1.80100 1.34900 42.27300
C  -3.72000 -0.90300 43.70200
O  -4.31100 -0.13600 42.95700
C  -4.62000 -1.82400 44.57900
N  0.73400 -3.76000 45.80800
C  -0.63200 -3.91300 45.67500
C  -1.05700 -5.34400 46.09900
C  0.27300 -5.93500 46.58900
C  1.27800 -4.83700 46.27200
C  -2.30900 -5.40400 47.06500
C  0.66200 -7.35300 45.93300
C  0.93100 -8.50700 46.93800
N  3.51200 -2.92500 45.79900
C  3.72200 -4.08300 46.40100
C  5.16300 -4.21100 46.65700
C  5.80600 -3.05300 46.24300
C  4.69000 -2.27700 45.66800
C  5.81600 -5.41800 47.30000
C  7.02600 -2.28100 46.06400
O  8.18700 -2.57300 46.30100
C  6.63600 -0.95900 45.44200
C  6.93400 0.08800 46.49300
O  6.80300 -0.04700 47.69800
O  7.31200 1.25100 45.90100
C  7.80600 2.29000 46.80700
H  0.79900 1.79000 42.91900
H  -2.54300 -3.23400 45.38800
H  2.95000 -5.96000 46.88400
H  5.50400 1.64900 44.31000
H  3.30200 2.31700 42.53800
H  4.20200 3.56500 44.81500
H  2.46900 3.13700 45.19600
H  2.98200 4.11500 43.80100
H  4.55900 0.38700 41.76200
H  5.96200 -0.22100 42.49600
H  7.42800 1.59100 42.07300
H  6.14500 2.66300 42.34100
H  -0.98100 2.02500 42.03100
H  -2.53900 1.89900 42.85800
H  -2.36300 1.00600 41.40400
H  -4.14800 -1.87500 45.56000
H  -4.72000 -2.74400 44.00200
H  -5.67400 -1.55200 44.52900
H  -1.40500 -5.85000 45.19800
H  0.27300 -6.08000 47.66900
H  -1.99000 -5.83100 48.01600
H  -3.02600 -6.12200 46.66500
H  -2.88700 -4.49800 47.24900
H  1.50700 -7.23200 45.25400
H  -0.31500 -7.62800 45.53500
H  0.61000 -8.26800 47.95200
H  1.99200 -8.74000 47.02400
H  0.31800 -9.38300 46.72300
H  5.32700 -6.35900 47.04600
H  6.08700 -5.30500 48.35000
H  6.70400 -5.49400 46.67400
H  7.20400 -0.97500 44.51100
H  8.85800 2.55200 46.69700
H  7.65700 2.22400 47.88500
H  7.33900 3.20600 46.44500
Mg 6.66600 53.91400 41.00100
C  5.77200 50.56400 40.43700
C  9.79600 53.10900 39.83700
C  7.46300 57.19300 41.22100
C  3.44500 54.55200 42.11800
N  7.66400 52.12900 40.13700
C  7.10500 50.84000 40.00200
C  8.02400 49.84300 39.39900
C  9.41200 50.59400 39.59500
C  8.96000 52.04000 39.91000
C  10.32100 50.02600 40.77300
C  7.77700 49.32700 37.92900
C  7.07900 50.41400 36.94200
H  6.68500 50.06900 35.50600
N  8.41900 55.06500 40.49800
C  9.58200 54.51900 40.10100
C  10.61700 55.56900 39.95900
C  9.91100 56.79600 40.39200
C  8.54900 56.39400 40.69800
C  11.92300 55.36300 39.41500
C  10.60400 58.22100 40.58100
O  11.78900 58.30900 40.30600
C  9.87800 59.50800 40.73800
N  5.42100 55.73500 41.35100
C  6.10000 56.85100 41.66600
C  5.08000 57.88300 42.22500
C  3.84400 56.99100 42.61000
C  4.24400 55.68700 41.98200
C  5.52700 58.89900 43.28800
C  2.40500 57.56300 42.25600
C  1.48800 58.00200 43.41800
N  4.89800 52.87700 41.20200
C  3.67000 53.19200 41.76900
C  2.88100 52.00700 42.01500
C  3.63800 50.96700 41.43600
C  4.87200 51.54700 41.01000
C  1.52200 51.97700 42.72200
C  3.61100 49.60300 41.03500
O  2.76200 48.74000 41.13500
C  4.96700 49.26900 40.48500
C  4.69900 48.68400 39.05900
O  4.28800 49.25200 38.06400
O  4.98500 47.38500 39.12400
C  4.56700 46.52500 38.05800
H  10.77800 52.85700 39.43100
H  7.74100 58.22400 41.45100
H  2.49300 54.56800 42.65200
H  8.06900 48.98100 40.06400
H  9.98600 50.60700 38.66800
H  9.90300 49.15200 41.27200
H  10.58500 50.77800 41.51600
H  11.25700 49.69100 40.32500
H  7.16900 48.42400 37.98100
H  8.73500 49.11400 37.45500
H  7.58600 51.37000 36.80900
H  6.22000 50.79000 37.49700
H  12.26400 54.33300 39.31100
H  12.65500 55.89200 40.02600
H  11.97600 55.69900 38.37900
H  10.44700 60.37300 40.39900
H  9.71100 59.61200 41.81000
H  8.91000 59.49700 40.23600
H  4.76700 58.43800 41.34100
H  3.93600 56.78500 43.67700
H  6.59700 59.00000 43.47100
H  5.11000 58.60000 44.25000
H  5.24700 59.92100 43.03300
H  1.84500 56.67900 41.95100
H  2.45200 58.27900 41.43600
H  1.30700 59.07500 43.48000
H  1.89400 57.68000 44.37700
H  0.49100 57.57600 43.30500
H  0.81800 52.75000 42.41600
H  1.61600 51.83500 43.79900
H  1.01200 51.05400 42.44700
H  5.52200 48.54600 41.08200
H  4.61400 45.48600 38.38300
H  5.26600 46.59300 37.22500
H  3.54100 46.65800 37.71400

