158

Mg 34.37800 3.21600 29.10000
C  32.25800 4.33900 31.60800
C  36.82900 2.73800 31.31200
C  36.38100 2.26900 26.60700
C  31.73600 3.44600 26.83600
N  34.50700 3.54100 31.25300
C  33.49100 3.89200 32.08900
C  33.91900 3.83900 33.55500
C  35.46300 3.63900 33.37500
C  35.60500 3.27000 31.88200
C  36.34500 4.85400 33.65900
C  33.20700 2.79000 34.32300
C  32.86800 3.03100 35.79800
H  33.70400 4.07500 36.54000
N  36.38800 2.59400 29.01000
C  37.24200 2.47800 30.00300
C  38.50100 1.97000 29.50500
C  38.35100 1.76300 28.15000
C  36.95700 2.22700 27.86100
C  39.61900 1.69100 30.37400
C  39.33300 1.15300 27.14500
O  39.07700 1.02700 25.94700
C  40.68600 0.60700 27.60200
N  34.06700 2.73700 27.06300
C  35.08400 2.55000 26.22000
C  34.59600 2.35800 24.77300
C  32.99400 2.42900 24.89100
C  32.90600 2.90100 26.32000
C  35.18800 3.18300 23.71200
C  32.33100 1.01200 24.78200
C  31.01300 1.10200 23.87900
N  32.40600 3.82800 29.10900
C  31.46300 3.86000 28.13300
C  30.19400 4.36200 28.72300
C  30.46100 4.56500 30.08200
C  31.82400 4.23200 30.21400
C  28.87100 4.38100 27.99800
C  29.85200 4.87200 31.34500
O  28.70200 5.21000 31.58500
C  30.99900 4.79400 32.35800
C  31.19200 6.14900 32.88700
O  31.19800 7.20900 32.18100
O  31.10400 6.04400 34.29400
C  30.92700 7.32800 34.98100
H  37.58400 2.70200 32.10000
H  37.06800 1.97800 25.80900
H  30.94500 3.49200 26.08400
H  33.75300 4.82600 33.98700
H  35.80100 2.79700 33.97800
H  35.75900 5.52500 34.28700
H  36.67000 5.25800 32.70000
H  37.23700 4.44900 34.13700
H  33.83300 1.90200 34.40100
H  32.45700 2.37300 33.65000
H  33.07000 2.17000 36.43600
H  31.81200 3.27600 35.90700
H  39.34300 1.96300 31.39300
H  40.45100 2.29700 30.01400
H  39.80400 0.61700 30.37600
H  41.51600 0.34900 26.94400
H  40.40400 -0.20500 28.27300
H  41.24700 1.37800 28.12900
H  35.02500 1.37700 24.56600
H  32.62400 3.17000 24.18300
H  36.11900 3.61900 24.07500
H  34.45100 3.93500 23.43200
H  35.36200 2.60000 22.80700
H  32.18700 0.53500 25.75200
H  33.10800 0.37100 24.36400
H  30.55000 2.08900 23.88600
H  30.24500 0.42500 24.25100
H  31.18300 0.91000 22.81900
H  28.82700 3.59700 27.24100
H  28.82200 5.41400 27.65500
H  28.05200 4.13400 28.67400
H  30.82700 4.14200 33.21400
H  31.76300 7.94600 34.65500
H  30.96200 7.19200 36.06200
H  30.04300 7.85200 34.61700
Mg -13.06700 38.29000 42.08200
C  -11.19300 35.41900 40.90600
C  -11.01300 40.32000 40.11400
C  -15.18000 40.90000 42.82100
C  -15.31300 36.06900 43.55600
N  -11.39300 37.84400 40.57500
C  -10.65500 36.64800 40.45500
C  -9.34900 36.80800 39.67900
C  -9.30700 38.43700 39.52500
C  -10.62700 38.92300 40.12900
C  -8.11100 39.09100 40.27800
C  -9.22200 36.00800 38.35800
C  -8.01400 34.95000 38.39100
H  -7.20200 34.77400 37.02500
N  -13.13300 40.28000 41.55800
C  -12.16400 40.89800 40.79700
C  -12.47600 42.28900 40.76000
C  -13.61200 42.56300 41.59100
C  -14.04900 41.23400 42.00800
C  -11.71000 43.33600 39.93000
C  -14.09600 43.99300 41.86500
O  -13.65000 44.99500 41.27400
C  -15.23300 44.17800 42.85100
N  -15.07500 38.46800 43.02300
C  -15.70400 39.65700 43.19300
C  -17.03000 39.38900 43.87600
C  -17.05600 37.85500 44.09000
C  -15.73900 37.42100 43.50800
C  -17.26400 40.09600 45.21500
C  -18.30800 37.11600 43.49800
C  -19.42800 36.91600 44.58000
N  -13.36600 36.13800 42.17600
C  -14.26700 35.39600 42.86700
C  -13.92200 33.96600 42.75000
C  -12.77100 33.97200 42.00000
C  -12.42800 35.31900 41.70800
C  -14.65400 32.87100 43.44500
C  -11.76700 33.14500 41.44500
O  -11.76700 31.92700 41.44000
C  -10.61800 34.01600 40.83600
C  -9.25700 33.72900 41.46400
O  -8.50000 32.75900 41.13600
O  -9.00700 34.59700 42.44300
C  -7.76600 34.34900 43.20500
H  -10.34800 40.99300 39.56900
H  -15.87900 41.71600 43.01400
H  -16.05900 35.36000 43.92100
H  -8.51400 36.50500 40.31100
H  -9.31900 38.86100 38.52100
H  -7.32600 39.09200 39.52200
H  -7.85400 38.41900 41.09700
H  -8.38400 40.04900 40.72000
H  -9.11000 36.52000 37.40200
H  -10.14400 35.42700 38.33600
H  -8.36300 33.94200 38.61600
H  -7.27900 35.29000 39.12100
H  -11.21200 44.10100 40.52400
H  -12.51800 43.77400 39.34400
H  -11.04600 42.81100 39.24300
H  -16.23000 44.27400 42.42200
H  -15.00300 45.13900 43.31100
H  -15.06200 43.41400 43.61000
H  -17.90300 39.67400 43.28800
H  -16.94500 37.59300 45.14200
H  -16.38500 40.65400 45.53600
H  -17.65100 39.43900 45.99400
H  -18.04200 40.85600 45.13100
H  -18.06200 36.09600 43.20400
H  -18.71500 37.50400 42.56500
H  -19.15300 37.60500 45.37900
H  -19.42600 35.95000 45.08500
H  -20.42400 37.10300 44.18000
H  -14.27300 31.94400 43.01700
H  -15.71000 32.91100 43.17800
H  -14.55400 32.92600 44.52900
H  -10.69000 33.57400 39.84300
H  -7.76800 33.34200 43.62400
H  -7.79000 35.07100 44.02100
H  -6.83000 34.61600 42.71300

