158

Mg 41.68900 41.50500 26.98500
C  41.12200 43.80600 29.65800
C  42.37500 39.19500 29.52200
C  42.31700 39.29600 24.59700
C  40.87000 43.97500 24.73500
N  41.73200 41.56500 29.37700
C  41.34700 42.58000 30.17500
C  41.34700 42.19000 31.63100
C  41.98100 40.70500 31.58800
C  42.02500 40.45900 30.00900
C  43.45500 40.54300 32.17900
C  39.91500 42.23200 32.27000
C  39.69300 43.02800 33.57900
H  39.03200 42.41100 34.79800
N  42.41300 39.56400 27.09300
C  42.63000 38.77000 28.13700
C  43.22900 37.59000 27.71000
C  43.15500 37.53200 26.28100
C  42.58900 38.82600 25.92800
C  43.63500 36.48300 28.63400
C  43.53600 36.37400 25.33600
O  43.43500 36.41200 24.12200
C  44.36700 35.20900 25.84800
N  41.59000 41.58200 24.98000
C  41.89800 40.52900 24.18800
C  41.78900 40.96200 22.66900
C  41.12500 42.36000 22.71000
C  41.14000 42.69100 24.20300
C  43.20300 40.94100 22.00900
C  39.68300 42.38100 22.08700
C  38.54000 41.49700 22.81300
N  41.27300 43.43500 27.06200
C  41.01100 44.38400 26.06200
C  40.83200 45.68800 26.60700
C  40.82100 45.47600 28.00800
C  41.15000 44.14000 28.23800
C  40.66600 46.91000 25.86300
C  40.57600 46.18000 29.24400
O  40.20200 47.31900 29.41000
C  40.73500 45.09400 30.37400
C  41.69500 45.61300 31.47500
O  42.93100 45.63200 31.33400
O  41.01800 46.15600 32.55100
C  41.84800 46.62100 33.60600
H  42.60300 38.41900 30.25600
H  42.51400 38.47200 23.90900
H  40.70500 44.82400 24.06900
H  41.90900 43.01800 32.06500
H  41.36200 39.96400 32.09500
H  43.59300 41.33000 32.92000
H  44.25700 40.64800 31.44800
H  43.53000 39.56200 32.64900
H  39.70000 41.21700 32.60600
H  39.21500 42.44400 31.46200
H  39.07700 43.86200 33.24100
H  40.67500 43.39300 33.88100
H  44.54800 35.94900 28.36900
H  42.92000 35.66900 28.75800
H  43.92100 36.88900 29.60400
H  45.30500 35.61800 26.22100
H  44.54000 34.45900 25.07500
H  43.80800 34.81700 26.69800
H  41.10800 40.23100 22.23400
H  41.78700 42.98600 22.11200
H  43.65300 41.91700 21.82500
H  43.06800 40.49900 21.02200
H  43.95900 40.36000 22.53700
H  39.72300 42.07500 21.04200
H  39.37900 43.42800 22.07100
H  38.03700 40.88800 22.06200
H  37.79100 42.20100 23.17500
H  38.90600 40.80900 23.57500
H  41.31100 46.76000 24.99700
H  40.82400 47.83800 26.41200
H  39.60200 46.82400 25.64300
H  39.78100 45.10100 30.90200
H  42.86800 46.85800 33.30100
H  41.85200 46.06800 34.54500
H  41.38100 47.59600 33.74200
Mg -12.44900 37.25900 42.03700
C  -10.08300 34.92500 41.04000
C  -10.52300 39.77100 40.60800
C  -15.08300 39.27400 42.30700
C  -14.54300 34.54900 42.97400
N  -10.72800 37.29900 40.65400
C  -9.81400 36.24800 40.61600
C  -8.56000 36.69400 39.75900
C  -8.60400 38.23400 39.91000
C  -10.06700 38.45200 40.47900
C  -7.50100 38.76300 40.82200
C  -8.63500 36.17300 38.22700
C  -7.34800 35.58900 37.67900
H  -6.58500 36.47300 36.65200
N  -12.78500 39.31400 41.52600
C  -11.84700 40.21200 41.01600
C  -12.43000 41.51100 40.95100
C  -13.73900 41.38200 41.47600
C  -13.95900 39.96100 41.80700
C  -11.67600 42.69400 40.39100
C  -14.82700 42.51900 41.48200
O  -14.55400 43.65100 41.09500
C  -16.16400 42.24500 42.04900
N  -14.57200 36.92500 42.46600
C  -15.42600 37.95900 42.56200
C  -16.79800 37.51500 43.11400
C  -16.65800 36.01200 43.35400
C  -15.13800 35.81600 43.00300
C  -17.25200 38.34100 44.31500
C  -17.63700 35.09000 42.46900
C  -18.44000 34.10000 43.34900
N  -12.32200 35.14900 42.12300
C  -13.19900 34.18800 42.62100
C  -12.52100 32.92100 42.72900
C  -11.30900 33.11600 42.07100
C  -11.24500 34.47000 41.65200
C  -13.03600 31.65900 43.31100
C  -10.10400 32.55600 41.48400
O  -9.71300 31.39700 41.65300
C  -9.29400 33.66400 40.78800
C  -7.99700 33.64000 41.47300
O  -7.67400 34.46000 42.31400
O  -7.27000 32.60300 40.99900
C  -5.96100 32.58300 41.60500
H  -9.82400 40.54200 40.27800
H  -15.99500 39.87000 42.37300
H  -15.28000 33.84900 43.37400
H  -7.66700 36.32200 40.26100
H  -8.53300 38.72400 38.94000
H  -7.12900 37.86200 41.31000
H  -7.84500 39.41800 41.62300
H  -6.71600 39.29100 40.28100
H  -8.99000 36.97100 37.57500
H  -9.39300 35.39000 38.20800
H  -7.54700 34.66300 37.14000
H  -6.72000 35.31700 38.52800
H  -11.88600 42.75100 39.32300
H  -10.60200 42.73000 40.57500
H  -11.98000 43.54700 40.99800
H  -16.62500 41.49100 41.41000
H  -16.72700 43.17800 42.07600
H  -15.92500 41.94100 43.06800
H  -17.45300 37.75300 42.27600
H  -16.73600 35.64400 44.37700
H  -17.69900 37.66000 45.04000
H  -18.01500 39.08700 44.09200
H  -16.34400 38.82000 44.68100
H  -17.03200 34.62500 41.69000
H  -18.41200 35.69100 41.99300
H  -18.28000 34.24100 44.41700
H  -17.96200 33.15500 43.09000
H  -19.42500 34.05600 42.88400
H  -14.07400 31.49300 43.02200
H  -13.02800 31.56700 44.39700
H  -12.44500 30.91100 42.78200
H  -9.17800 33.52000 39.71400
H  -6.01800 32.06300 42.56100
H  -5.41000 33.52000 41.68800
H  -5.40900 31.92600 40.93300

