158

Mg 41.12400 8.44600 29.89100
C  42.23200 9.92700 32.82000
C  38.44600 7.13200 31.75100
C  40.20100 6.77000 27.25900
C  44.00600 9.72000 28.25700
N  40.45300 8.46000 32.10800
C  41.01500 9.24400 33.00900
C  40.16000 9.40800 34.27700
C  39.04400 8.29000 34.04400
C  39.30600 7.89400 32.53600
C  39.21600 7.07300 35.11100
C  39.64500 10.84800 34.58100
C  39.36900 11.08100 36.07000
H  40.34800 11.87300 36.84600
N  39.48900 7.18800 29.53800
C  38.52500 6.78000 30.36700
C  37.63600 5.83300 29.64300
C  38.09200 5.80900 28.28600
C  39.29800 6.56700 28.28200
C  36.42700 5.19100 30.34700
C  37.55600 5.02700 27.10400
O  38.05400 5.11200 26.01500
C  36.32100 4.17000 27.27200
N  42.04300 8.18800 28.06100
C  41.43200 7.44100 27.08600
C  42.39900 7.32900 25.87600
C  43.50400 8.37800 26.17000
C  43.11800 8.88900 27.54700
C  42.88500 5.85000 25.66300
C  43.62700 9.40100 25.08200
C  42.63500 10.54200 25.05600
N  42.77700 9.54200 30.39800
C  43.81500 10.03800 29.59300
C  44.67600 10.97900 30.37900
C  44.12100 10.85900 31.64300
C  42.94100 10.03500 31.63100
C  45.88300 11.78500 29.90600
C  44.29600 11.29800 33.05500
O  45.11400 12.01800 33.52700
C  43.07700 10.70300 33.85300
C  43.60400 9.85900 34.93100
O  43.83900 8.66400 34.72600
O  43.63800 10.44400 36.16100
C  43.76800 9.44200 37.23200
H  37.51100 6.78500 32.19300
H  39.97400 6.18400 26.36600
H  44.74000 10.29300 27.68700
H  40.80300 9.06100 35.08600
H  38.02700 8.67900 34.02000
H  38.24200 6.76700 35.49400
H  39.87500 7.19800 35.97000
H  39.49700 6.13700 34.62700
H  38.67800 10.97300 34.09400
H  40.24800 11.55800 34.01500
H  39.21600 10.10700 36.53500
H  38.39200 11.54600 36.20500
H  36.76400 4.99400 31.36500
H  36.09100 4.24500 29.92300
H  35.52400 5.78800 30.46700
H  36.01900 3.93600 26.25100
H  35.57000 4.70300 27.85500
H  36.65000 3.23800 27.73100
H  41.87500 7.64200 24.97300
H  44.49800 7.95800 26.32300
H  42.50100 5.26600 26.50000
H  43.95900 5.72700 25.53100
H  42.38100 5.48200 24.76900
H  43.69300 8.83600 24.15200
H  44.59300 9.90300 25.12600
H  42.22200 10.71700 26.04900
H  41.83300 10.50500 24.31900
H  43.06600 11.50400 24.77800
H  45.63600 12.49200 29.11400
H  46.66900 11.17400 29.46200
H  46.35400 12.23700 30.77900
H  42.46400 11.49300 34.28500
H  42.96000 8.71700 37.33000
H  43.80500 10.04500 38.14000
H  44.76700 9.02000 37.12500
Mg 8.64400 47.69500 25.40000
C  6.82600 47.58000 28.31900
C  11.29800 48.99500 27.03200
C  10.34900 47.55900 22.45000
C  5.76800 46.97300 23.58600
N  9.03300 48.14700 27.52800
C  8.14700 48.00600 28.51500
C  8.76700 48.54300 29.84300
C  10.08300 49.22700 29.34000
C  10.14900 48.81300 27.87100
C  10.03800 50.77500 29.45700
C  8.98200 47.39000 30.86000
C  8.50500 47.52400 32.32500
H  8.81200 46.39100 33.29200
N  10.59600 48.01300 24.94200
C  11.54000 48.59000 25.70500
C  12.87500 48.42100 25.09500
C  12.61900 48.01800 23.71300
C  11.14600 47.84600 23.65800
C  14.20900 48.83700 25.75400
C  13.57600 47.72100 22.56900
O  13.23000 47.29700 21.43100
C  15.00700 47.93800 22.75600
N  8.12000 47.57500 23.29500
C  8.97500 47.43400 22.28600
C  8.29700 47.17600 20.93700
C  6.93000 46.73000 21.37000
C  6.88900 47.21200 22.80100
C  8.30000 48.49900 20.05800
C  6.68800 45.17200 21.13200
C  5.41600 44.81500 20.34400
N  6.67100 47.48800 25.76500
C  5.62100 47.16100 24.96800
C  4.48900 46.94700 25.72900
C  4.90600 47.01000 27.06900
C  6.26800 47.34200 27.04600
C  3.16600 46.53200 25.25700
C  4.46600 47.00800 28.41600
O  3.31600 46.86500 28.80700
C  5.74300 47.32300 29.30500
C  5.92300 46.15400 30.12800
O  6.62600 45.19700 29.81500
O  5.35500 46.34100 31.36000
C  5.51600 45.19300 32.29400
H  12.22000 49.22100 27.57100
H  10.93400 47.46900 21.53200
H  4.92700 46.72500 22.93600
H  8.14800 49.31300 30.30200
H  10.92900 48.81500 29.89000
H  10.35500 51.07200 30.45700
H  8.97600 50.98000 29.32000
H  10.65500 51.23300 28.68400
H  10.04700 47.16000 30.83400
H  8.52400 46.48600 30.45800
H  7.42900 47.36200 32.25300
H  8.67100 48.55100 32.65000
H  14.85300 47.96100 25.67700
H  14.09200 49.08800 26.80800
H  14.71000 49.65000 25.23000
H  15.20200 48.98500 22.98800
H  15.59600 47.77700 21.85400
H  15.43200 47.28900 23.52100
H  8.85200 46.45700 20.33400
H  6.16000 47.25000 20.80000
H  9.05800 48.40000 19.28100
H  8.69500 49.31100 20.66900
H  7.32900 48.84900 19.70800
H  6.54200 44.86200 22.16600
H  7.55300 44.60000 20.79700
H  5.74600 44.33900 19.42000
H  4.87000 45.69100 19.99300
H  4.81200 44.16200 20.97400
H  3.11800 45.49700 25.59500
H  3.14900 46.44000 24.17100
H  2.37000 47.20000 25.58600
H  5.49900 48.19300 29.91400
H  4.56900 44.75300 32.60800
H  5.99900 45.58800 33.18800
H  6.32300 44.51100 32.02300

