158

Mg 26.41200 50.91500 26.76700
C  24.49900 52.20100 29.44800
C  28.62100 49.81600 28.99100
C  28.48400 50.47900 24.09600
C  24.16700 52.73100 24.60300
N  26.50900 50.98600 28.96300
C  25.62600 51.49000 29.86200
C  25.90500 51.14300 31.31100
C  27.28900 50.53800 31.20600
C  27.48100 50.38700 29.66600
C  28.37100 51.44500 31.82500
C  24.83800 50.09200 31.91600
C  24.33500 50.35400 33.32500
H  25.18900 51.17800 34.35000
N  28.28300 50.17800 26.54600
C  29.02900 49.63200 27.53900
C  30.24300 48.97600 27.03100
C  30.29000 49.37500 25.66400
C  28.99000 49.99300 25.33500
C  31.35500 48.39300 27.90200
C  31.37800 49.13700 24.67100
O  31.34700 49.57900 23.56100
C  32.52200 48.38500 25.02000
N  26.40400 51.71400 24.68500
C  27.34400 51.25000 23.84600
C  27.12100 51.73100 22.40900
C  25.63600 52.24200 22.44000
C  25.38500 52.28400 24.04300
C  28.14400 52.85400 22.02900
C  24.66900 51.34100 21.65000
C  23.24800 51.69400 21.29200
N  24.63300 52.18000 26.93000
C  23.90800 52.80400 26.02400
C  22.77400 53.54500 26.64800
C  23.07300 53.34300 28.01400
C  24.12300 52.55800 28.11300
C  21.62800 54.31200 25.92700
C  22.49300 53.57400 29.35100
O  21.49000 54.16700 29.74700
C  23.48300 52.84100 30.30200
C  24.05300 53.83500 31.19300
O  24.99400 54.55800 30.85100
O  23.18300 54.01500 32.24300
C  23.53500 55.04900 33.27700
H  29.23200 49.25300 29.70000
H  29.13400 50.22200 23.25700
H  23.41600 53.17100 23.94300
H  25.89800 52.06900 31.88500
H  27.22400 49.57400 31.71200
H  28.01900 52.13600 32.59200
H  28.94800 52.01500 31.09700
H  28.94900 50.69000 32.35800
H  25.19400 49.06300 31.95300
H  23.98300 50.18400 31.24500
H  24.08400 49.44500 33.87200
H  23.39300 50.89200 33.21500
H  31.77000 47.44300 27.56700
H  30.99600 48.23800 28.92000
H  32.24700 49.01300 27.98300
H  32.34300 47.31100 25.05600
H  33.08300 48.78900 25.86300
H  33.27100 48.45200 24.23000
H  27.29400 50.85700 21.78200
H  25.52400 53.29300 22.17400
H  28.52900 53.40600 22.88600
H  27.74800 53.59600 21.33600
H  28.95700 52.32600 21.53100
H  24.49400 50.43300 22.22700
H  25.12700 51.00300 20.72100
H  22.46000 51.12400 21.78400
H  23.02200 51.41900 20.26200
H  22.98800 52.73100 21.50500
H  21.11100 54.87100 26.70800
H  20.89100 53.77300 25.33200
H  22.12000 54.97700 25.21700
H  22.91800 52.12800 30.90200
H  22.65300 55.37000 33.83100
H  23.88400 55.92800 32.73700
H  24.32100 54.66200 33.92500
Mg -4.83900 25.22600 25.30800
C  -3.28900 26.73200 28.01000
C  -6.44000 23.07000 27.44400
C  -5.99300 23.64400 22.59600
C  -2.93200 27.34700 23.19600
N  -4.84700 24.86700 27.41800
C  -4.16700 25.68600 28.37200
C  -4.57800 25.34300 29.75900
C  -5.40900 24.02500 29.57600
C  -5.58300 23.97300 28.07900
C  -4.78000 22.76700 30.18300
C  -5.23300 26.52600 30.51700
C  -4.89100 26.75900 32.01200
H  -4.80700 25.36800 32.75800
N  -6.08300 23.61400 25.05600
C  -6.67500 22.89800 26.03800
C  -7.55300 21.93100 25.46600
C  -7.41300 21.97400 24.03400
C  -6.50700 23.15700 23.83300
C  -8.42700 21.04400 26.29000
C  -8.08500 21.19600 22.89600
O  -7.90000 21.43500 21.70200
C  -8.95800 20.05800 23.22900
N  -4.54500 25.53200 23.13600
C  -5.11000 24.68200 22.26500
C  -4.53300 24.91900 20.83500
C  -3.79000 26.33200 20.95700
C  -3.71800 26.42400 22.50900
C  -3.65600 23.74700 20.32800
C  -4.63100 27.50100 20.33400
C  -4.15500 28.03400 18.98700
N  -3.53700 26.88900 25.51400
C  -2.77200 27.51100 24.58300
C  -1.90000 28.45100 25.24400
C  -2.04400 28.19000 26.62500
C  -3.02500 27.19100 26.71600
C  -1.02200 29.46300 24.52700
C  -1.54800 28.53100 27.93300
O  -0.67100 29.30800 28.36000
C  -2.36300 27.61600 28.86700
C  -1.49400 26.87900 29.94100
O  -1.05400 25.75800 29.81800
O  -1.51000 27.61700 31.08800
C  -0.88700 26.95600 32.23300
H  -7.02900 22.38200 28.05300
H  -6.18600 23.11900 21.65800
H  -2.41400 28.13700 22.65000
H  -3.68100 25.16100 30.35000
H  -6.41700 24.08900 29.98600
H  -5.53200 22.13400 30.65400
H  -4.12800 23.02000 31.01900
H  -4.32100 22.15700 29.40400
H  -6.31700 26.41400 30.54300
H  -5.11100 27.46300 29.97400
H  -5.61400 27.34900 32.57600
H  -3.94200 27.28700 32.10100
H  -8.12300 19.99700 26.30300
H  -9.34600 21.10400 25.70700
H  -8.59700 21.38600 27.31100
H  -8.40600 19.39200 23.89200
H  -9.28300 19.60400 22.29300
H  -9.90600 20.33200 23.69300
H  -5.41700 24.94100 20.19700
H  -2.80300 26.31800 20.49400
H  -4.27600 22.85400 20.40600
H  -2.75100 23.67600 20.93100
H  -3.39400 23.82700 19.27300
H  -4.60700 28.39500 20.95700
H  -5.64300 27.10500 20.24000
H  -4.02600 29.11600 19.03000
H  -5.03400 27.87400 18.36300
H  -3.28500 27.50600 18.59600
H  -1.41600 30.47600 24.61500
H  -0.96300 29.34000 23.44500
H  -0.08100 29.46300 25.07700
H  -3.12400 28.17200 29.41500
H  -0.79800 25.87300 32.14700
H  -1.41000 27.08800 33.18000
H  0.07900 27.45400 32.31200

