158

Mg 40.27500 9.39100 29.28100
C  42.25200 10.28800 32.09100
C  37.91000 8.15800 31.39000
C  38.87300 7.83100 26.55300
C  42.98700 10.25500 27.31300
N  40.13700 9.11000 31.52200
C  41.05200 9.64600 32.40500
C  40.43400 9.58200 33.82400
C  39.12400 8.74300 33.62500
C  38.99500 8.73700 32.11500
C  39.06800 7.32300 34.23000
C  40.16500 10.95800 34.49100
C  39.62900 10.86300 35.95200
H  40.49800 11.52000 37.06600
N  38.70300 8.16700 29.02600
C  37.76600 7.88200 30.01400
C  36.75400 7.00300 29.45500
C  37.01900 6.92800 28.04400
C  38.21400 7.68600 27.80800
C  35.67200 6.39300 30.35200
C  36.26700 6.11700 27.01800
O  36.69300 5.80000 25.92900
C  35.04300 5.47000 27.51500
N  40.94200 8.92000 27.25700
C  40.08900 8.50100 26.29300
C  40.66600 8.73500 24.91500
C  41.84900 9.76600 25.14900
C  41.98800 9.60500 26.68200
C  41.19700 7.36100 24.24500
C  41.58700 11.17600 24.59300
C  40.96800 12.25100 25.43300
N  42.12600 10.26900 29.56900
C  43.13600 10.54800 28.64700
C  44.23300 11.18100 29.36800
C  43.86100 11.19800 30.68000
C  42.64000 10.51300 30.78300
C  45.40900 11.83200 28.68000
C  44.27000 11.60900 32.01600
O  45.24400 12.21600 32.34600
C  43.22900 11.01800 32.98300
C  43.91600 10.10700 33.94500
O  44.12200 8.88900 33.91100
O  44.34600 10.82500 35.04600
C  44.74800 9.96300 36.20000
H  37.18800 7.74200 32.09600
H  38.26300 7.72600 25.65300
H  43.79700 10.59700 26.66600
H  41.13800 9.05100 34.46500
H  38.27300 9.23600 34.09400
H  40.00400 7.25200 34.78400
H  39.02400 6.63900 33.38300
H  38.15900 7.26700 34.83000
H  39.46000 11.47400 33.84000
H  41.12200 11.47500 34.56500
H  39.26600 9.83900 36.03700
H  38.68900 11.39700 35.81500
H  34.79000 6.99500 30.13500
H  35.75600 6.40100 31.43900
H  35.73300 5.35000 30.04000
H  35.34400 4.56100 28.03600
H  34.47100 5.15200 26.64300
H  34.39700 6.11000 28.11500
H  39.85400 9.06400 24.26600
H  42.83400 9.38000 24.88300
H  40.83300 7.27600 23.22100
H  40.75500 6.58500 24.87100
H  42.28600 7.33100 24.24800
H  40.91400 11.10700 23.73900
H  42.54600 11.54100 24.22300
H  40.43700 11.88400 26.31100
H  40.27500 12.77300 24.77300
H  41.78400 12.93100 25.68000
H  45.92200 12.46900 29.40000
H  45.05300 12.43000 27.84100
H  46.15300 11.06600 28.45900
H  42.68000 11.88000 33.36000
H  45.53400 9.26300 35.91500
H  43.90800 9.41700 36.62900
H  45.17100 10.68800 36.89500
Mg 9.77500 48.40500 26.48000
C  7.93800 48.21500 29.43100
C  12.41500 49.63100 28.22200
C  11.22000 48.90000 23.55400
C  6.63000 47.59800 24.70800
N  10.10700 48.74400 28.57200
C  9.24100 48.56000 29.59700
C  9.81300 49.11100 30.94000
C  11.19300 49.60000 30.50700
C  11.26700 49.36700 28.96800
C  11.42200 51.09800 30.84000
C  9.79200 48.07500 32.15100
C  10.66600 48.31500 33.38300
H  10.23800 47.85400 34.77100
N  11.59200 49.17800 25.98500
C  12.61000 49.49400 26.83900
C  13.79800 49.70300 26.06900
C  13.46700 49.58700 24.72000
C  12.06100 49.27000 24.68300
C  15.14500 49.94800 26.63300
C  14.41700 49.48900 23.53300
O  13.99800 49.30900 22.39600
C  15.90000 49.49400 23.67300
N  8.97500 48.26900 24.43600
C  9.89200 48.47300 23.39100
C  9.32500 47.84600 22.14300
C  7.88300 47.52100 22.40400
C  7.77600 47.89900 23.92100
C  9.52400 48.61400 20.80500
C  7.53900 46.12000 21.99400
C  8.12600 45.00700 22.83000
N  7.66100 48.11300 26.88000
C  6.56500 47.79300 26.06700
C  5.39600 47.78100 26.87500
C  5.87000 47.76500 28.20200
C  7.23400 48.07500 28.17500
C  4.02500 47.55100 26.34100
C  5.46300 47.67600 29.61000
O  4.34000 47.55200 30.09200
C  6.77500 47.95000 30.45000
C  6.93000 46.74500 31.31200
O  7.52800 45.75100 30.91900
O  6.27200 46.81800 32.60500
C  6.53800 45.69700 33.52200
H  13.21300 49.95300 28.89500
H  11.82000 48.87000 22.64200
H  5.76200 47.21700 24.16600
H  9.08800 49.87100 31.23300
H  12.01600 49.07400 30.99000
H  12.07000 50.96200 31.70700
H  10.54400 51.66500 31.14800
H  11.95200 51.56300 30.00900
H  9.99500 47.09600 31.71500
H  8.74200 48.16700 32.43000
H  10.97800 49.34600 33.21700
H  11.57400 47.77000 33.12500
H  15.04800 50.12400 27.70400
H  15.70100 50.83900 26.34100
H  15.80000 49.08900 26.49100
H  16.34600 49.54700 22.67900
H  16.38700 48.62000 24.10700
H  16.12600 50.38300 24.26200
H  9.96100 46.96300 22.07900
H  7.26500 48.25900 21.89100
H  8.71300 49.11900 20.28000
H  10.06200 48.03100 20.05700
H  10.15200 49.46400 21.07100
H  7.83300 45.96300 20.95600
H  6.45600 46.01700 22.05500
H  8.54700 45.33000 23.78200
H  8.80200 44.39900 22.22900
H  7.33200 44.30500 23.08300
H  3.71300 48.19900 25.52200
H  3.34100 47.67600 27.18100
H  3.95800 46.56300 25.88700
H  6.71000 48.79300 31.13700
H  6.88100 46.06900 34.48800
H  7.14000 44.88100 33.12200
H  5.58400 45.21100 33.73000

