158

Mg 53.24800 23.54700 44.50700
C  50.67100 25.86000 43.66400
C  51.12900 20.95000 43.54100
C  55.99200 21.54700 44.39900
C  55.38300 26.30300 44.99900
N  51.19300 23.51100 43.44700
C  50.32500 24.50300 43.37600
C  48.98900 23.98500 42.84800
C  49.00100 22.47800 43.21800
C  50.57800 22.23200 43.43400
C  48.27100 21.99500 44.51500
C  48.58700 24.28400 41.33500
C  49.70300 24.00500 40.33500
H  49.43900 24.22000 38.82300
N  53.47800 21.44100 44.25700
C  52.49100 20.61600 43.85700
C  53.08500 19.25500 43.79600
C  54.48400 19.39100 44.06100
C  54.75500 20.81200 44.23500
C  52.13800 18.12200 43.54200
C  55.42200 18.18000 43.95500
O  55.05200 17.11200 43.37900
C  56.89800 18.37100 44.37600
N  55.43600 23.91800 44.55900
C  56.24100 22.87800 44.63900
C  57.72500 23.35300 44.93600
C  57.48600 24.86000 45.35700
C  56.06400 25.10000 44.87100
C  58.48400 22.50500 46.06200
C  58.49500 25.83400 44.65400
C  59.98500 25.49000 44.72500
N  53.13300 25.61100 44.33600
C  54.08700 26.63800 44.60200
C  53.46700 27.91600 44.50000
C  52.14200 27.68700 44.19100
C  51.95900 26.27700 44.04300
C  54.09900 29.19200 44.94100
C  50.91100 28.31600 43.88100
O  50.71000 29.51500 43.75700
C  49.81700 27.17800 43.52500
C  49.38300 27.41000 42.11000
O  50.12800 27.58300 41.16700
O  48.03400 27.49900 42.00400
C  47.45000 27.91000 40.70900
H  50.47800 20.12700 43.23600
H  56.87800 20.91000 44.37600
H  56.04200 27.14500 45.22000
H  48.28500 24.46500 43.52800
H  48.63400 21.83700 42.41700
H  48.91700 21.33800 45.09800
H  47.40300 21.42800 44.17900
H  48.11000 22.93200 45.04700
H  48.13100 25.26900 41.23200
H  47.73900 23.70800 40.96400
H  49.87700 22.92900 40.33800
H  50.66600 24.46300 40.55900
H  52.68100 17.21100 43.29200
H  51.39200 18.38000 42.79000
H  51.61500 17.93700 44.48100
H  57.41300 19.07900 43.72700
H  57.25800 17.34300 44.42600
H  56.88500 18.73500 45.40300
H  58.26000 23.23900 43.99300
H  57.61800 24.90600 46.43800
H  57.76700 21.71100 46.27000
H  58.80900 23.07500 46.93200
H  59.24000 21.94300 45.51200
H  58.27900 26.83500 45.02500
H  58.19100 25.70300 43.61500
H  60.19300 24.58800 45.30000
H  60.41400 26.38100 45.18500
H  60.48100 25.38600 43.76000
H  53.41300 30.03800 44.95800
H  54.95000 29.50600 44.33700
H  54.44400 29.09300 45.97000
H  49.00500 27.17300 44.25200
H  46.82100 28.77300 40.92900
H  46.90400 27.16500 40.13100
H  48.17500 28.20200 39.94900
Mg 47.26200 24.66500 27.62600
C  47.77500 26.90900 30.36000
C  46.25200 22.32900 29.81000
C  46.79300 22.82200 25.04300
C  48.28100 27.41000 25.48400
N  46.89600 24.60300 29.86000
C  47.24100 25.61300 30.73800
C  46.92100 25.24900 32.14000
C  46.53600 23.67800 32.00300
C  46.54300 23.48900 30.51300
C  47.39100 22.68300 32.90900
C  45.79200 26.25800 32.69000
C  45.99000 26.84000 34.11700
H  44.91200 26.78200 35.15700
N  46.60900 22.70700 27.40700
C  46.20700 21.92900 28.37700
C  45.63900 20.72900 27.79600
C  45.81200 20.79600 26.41500
C  46.48300 22.12000 26.22100
C  45.14000 19.57400 28.65300
C  45.37700 19.83600 25.30700
O  45.73100 20.10600 24.15100
C  44.66600 18.48000 25.58900
N  47.73500 25.03300 25.54000
C  47.37500 24.07200 24.72000
C  47.46800 24.52200 23.20900
C  47.75300 26.05900 23.30500
C  48.03100 26.17000 24.82400
C  48.44600 23.64700 22.28600
C  46.57600 26.93400 22.88600
C  45.38800 27.10300 23.78700
N  47.89700 26.68500 27.83800
C  48.33800 27.63700 26.89500
C  48.62000 28.94100 27.57400
C  48.49300 28.59300 28.96800
C  48.03200 27.28700 29.03500
C  49.16500 30.20500 27.01300
C  48.58100 29.17100 30.29100
O  48.91100 30.31200 30.61000
C  48.13900 28.04100 31.23600
C  49.26900 27.72100 32.12300
O  50.18200 27.01000 31.77300
O  49.08000 28.11500 33.45600
C  49.97600 27.42500 34.43100
H  45.83100 21.64500 30.54900
H  46.47500 22.29800 24.14000
H  48.61200 28.26500 24.89100
H  47.85200 25.40600 32.68500
H  45.52900 23.68600 32.42100
H  48.42000 23.00500 33.06600
H  47.44400 21.75100 32.34800
H  46.81900 22.57200 33.83000
H  44.86000 25.70400 32.80100
H  45.76500 27.15800 32.07600
H  46.33600 27.87000 34.20500
H  46.86900 26.40900 34.59500
H  45.64400 18.68200 28.27900
H  44.05700 19.53700 28.54000
H  45.35600 19.51100 29.72000
H  45.32600 17.79800 26.12600
H  44.29700 17.99800 24.68400
H  43.76100 18.64700 26.17300
H  46.48000 24.33200 22.78900
H  48.67300 26.25100 22.75300
H  47.82900 23.26500 21.47300
H  48.86100 22.76700 22.77700
H  49.18800 24.23200 21.74300
H  46.22900 26.42800 21.98500
H  46.90000 27.91100 22.52900
H  45.16500 28.12200 24.10000
H  45.59500 26.45100 24.63600
H  44.53200 26.71500 23.23500
H  49.56400 30.94700 27.70500
H  48.30100 30.69800 26.56800
H  49.80200 29.94900 26.16600
H  47.40900 28.59000 31.83200
H  49.94100 26.36100 34.19700
H  49.60600 27.54200 35.45000
H  51.02000 27.70100 34.27900

