158

Mg 27.95200 56.41300 40.73300
C  25.35600 54.07100 39.90400
C  30.28700 54.30700 39.56800
C  29.91900 59.02300 40.52400
C  25.20900 58.67100 41.39300
N  27.78300 54.50400 39.73100
C  26.70400 53.67400 39.57700
C  27.10100 52.46300 38.70600
C  28.65000 52.41700 38.91300
C  28.93200 53.84200 39.39500
C  29.28800 51.34200 39.85100
C  26.59100 52.26600 37.24600
C  26.36700 53.64800 36.55400
H  26.65600 53.72100 35.03400
N  29.91400 56.59200 40.27400
C  30.82300 55.56300 39.98500
C  32.17800 56.14500 39.77000
C  32.02100 57.62500 39.88800
C  30.59300 57.81900 40.23300
C  33.28600 55.26400 39.21500
C  33.13100 58.60400 39.75800
O  34.30800 58.25200 39.52200
C  32.94300 60.11300 39.94900
N  27.61100 58.51000 40.97100
C  28.64700 59.37700 40.90400
C  28.19100 60.82500 41.02100
C  26.76300 60.67800 41.41900
C  26.48100 59.14000 41.22400
C  29.04900 61.61800 42.00300
C  25.75700 61.69100 40.78700
C  24.67500 62.39100 41.74400
N  25.70500 56.35900 40.84600
C  24.79400 57.29400 41.17000
C  23.51200 56.67200 41.27300
C  23.70500 55.39500 40.75300
C  25.02600 55.23200 40.51400
C  22.25900 57.29600 41.80700
C  23.00100 54.17600 40.49900
O  21.82700 53.81700 40.58800
C  24.01100 53.30300 39.71000
C  23.97800 51.95200 40.26900
O  23.44900 50.97400 39.74600
O  24.68600 51.99200 41.46200
C  25.03400 50.69000 42.01800
H  31.11600 53.61700 39.39500
H  30.56300 59.87800 40.30900
H  24.42000 59.38600 41.63400
H  26.64400 51.64300 39.26100
H  29.23300 52.41300 37.99200
H  28.49400 50.73300 40.28200
H  29.71900 51.79400 40.74400
H  30.02800 50.65700 39.43500
H  25.70800 51.62900 37.29900
H  27.33100 51.74700 36.63600
H  26.88700 54.46200 37.05900
H  25.28100 53.69200 36.64600
H  33.97600 55.87600 38.63400
H  33.01400 54.44400 38.55000
H  33.73600 54.72200 40.04600
H  32.45200 60.22700 40.91600
H  32.23500 60.49500 39.21300
H  33.87800 60.65400 39.80800
H  28.25800 61.25300 40.02100
H  26.68400 60.84900 42.49300
H  28.43600 62.12300 42.74900
H  29.49700 62.44700 41.45400
H  29.77000 60.99500 42.53200
H  25.34100 61.14600 39.94000
H  26.28000 62.54000 40.34600
H  24.73500 63.47400 41.63800
H  24.94200 62.05500 42.74600
H  23.67400 62.04900 41.48300
H  21.66700 57.65700 40.96600
H  22.63500 58.21800 42.25000
H  21.59900 56.79500 42.51500
H  23.74600 53.19200 38.65800
H  26.11200 50.65800 42.17400
H  24.76800 49.88100 41.33800
H  24.51900 50.58300 42.97300
Mg -12.55500 15.90800 41.79500
C  -9.30200 14.52100 41.56300
C  -11.20100 18.85400 40.45900
C  -15.70000 16.99500 41.46300
C  -13.78700 12.68200 42.63500
N  -10.53600 16.48200 40.89000
C  -9.35500 15.79500 40.99700
C  -8.23800 16.58400 40.30500
C  -8.71600 18.02500 40.23600
C  -10.25000 17.81800 40.61400
C  -8.01800 18.98500 41.26800
C  -7.83300 16.06600 38.95700
C  -6.47000 15.38000 38.69900
H  -5.62000 15.94800 37.57300
N  -13.33300 17.66400 41.08400
C  -12.62300 18.76800 40.58500
C  -13.58100 19.82400 40.23100
C  -14.87000 19.34600 40.66900
C  -14.68300 17.95200 41.11100
C  -13.10200 21.10000 39.66200
C  -16.07500 20.27400 40.68600
O  -15.97800 21.45500 40.35600
C  -17.38400 19.88600 41.18100
N  -14.47100 15.02500 42.01800
C  -15.60000 15.63600 41.84700
C  -16.81500 14.73400 42.05400
C  -16.18700 13.37300 42.37200
C  -14.73100 13.69400 42.22300
C  -17.91000 15.24700 43.05300
C  -16.53200 12.14600 41.39400
C  -18.05600 11.66000 41.75300
N  -11.71800 13.99200 42.21100
C  -12.34200 12.78500 42.59300
C  -11.28000 11.72100 42.76500
C  -10.14900 12.36000 42.40500
C  -10.41200 13.72700 42.06100
C  -11.37700 10.27900 43.15200
C  -8.69500 12.16200 42.18800
O  -8.02300 11.15700 42.33800
C  -8.14600 13.54500 41.61300
C  -7.21600 13.99500 42.62100
O  -7.45900 14.49100 43.68200
O  -5.93300 13.79600 42.12100
C  -4.81000 14.31300 42.85500
H  -10.84000 19.84700 40.18300
H  -16.71600 17.32700 41.23900
H  -14.13900 11.68200 42.89900
H  -7.39400 16.53500 40.99200
H  -8.66800 18.55700 39.28600
H  -7.16500 18.40900 41.62800
H  -8.79200 19.12600 42.02200
H  -7.76700 20.01200 41.00500
H  -8.01400 16.83800 38.20900
H  -8.60700 15.33200 38.73400
H  -6.63100 14.31000 38.82300
H  -5.88000 15.57900 39.59400
H  -12.84900 21.80700 40.45300
H  -13.77700 21.56500 38.94300
H  -12.17300 20.99800 39.10200
H  -17.72800 19.05000 40.57300
H  -18.02500 20.76500 41.24700
H  -17.19200 19.55300 42.20100
H  -17.36300 14.66900 41.11400
H  -16.49000 13.07400 43.37500
H  -17.40700 16.10300 43.50200
H  -17.94000 14.43700 43.78200
H  -18.89500 15.40900 42.61400
H  -15.84200 11.33800 41.63700
H  -16.39300 12.26000 40.31900
H  -17.88000 10.64700 42.11400
H  -18.71900 11.70000 40.89000
H  -18.53500 12.24800 42.53600
H  -10.60200 9.79400 42.55900
H  -12.34700 9.79600 43.03100
H  -11.05700 10.27200 44.19400
H  -7.75200 13.27100 40.63400
H  -4.05300 13.65000 42.43700
H  -4.66600 14.13500 43.92100
H  -4.61200 15.36400 42.64000

