158

Mg 9.42400 47.25700 27.72800
C  7.35100 47.35700 30.45100
C  12.10400 47.97200 29.73800
C  11.42200 47.37700 24.88100
C  6.59800 47.52800 25.56400
N  9.63700 47.55900 29.78700
C  8.69600 47.56800 30.74600
C  9.35100 47.73800 32.14800
C  10.80700 48.23300 31.79100
C  10.86300 47.91400 30.33900
C  10.93900 49.82900 32.11400
C  9.35900 46.41700 32.90900
C  8.75700 46.41800 34.30700
H  8.66600 45.19800 35.30000
N  11.53400 47.49900 27.37400
C  12.49400 47.63700 28.38000
C  13.82600 47.68600 27.68500
C  13.58400 47.51500 26.29200
C  12.13800 47.49200 26.15400
C  15.13500 47.90600 28.41200
C  14.63900 47.40100 25.17800
O  14.43600 47.29700 23.93400
C  16.17700 47.27300 25.54000
N  9.03500 47.43500 25.52000
C  10.04900 47.42300 24.61600
C  9.47100 47.57300 23.16300
C  7.93000 47.54800 23.38200
C  7.81600 47.55600 24.90500
C  10.01000 48.85100 22.50800
C  7.07000 46.36600 22.80000
C  6.28300 46.81600 21.57600
N  7.34700 47.42500 27.88000
C  6.39900 47.47200 26.98200
C  5.09700 47.40700 27.65200
C  5.41500 47.32500 28.99500
C  6.80400 47.32300 29.09800
C  3.71200 47.60800 27.01300
C  4.80300 47.32500 30.39900
O  3.61700 47.55100 30.73700
C  6.09100 47.24500 31.35400
C  5.95400 45.98600 32.10200
O  6.24200 44.89200 31.68700
O  5.44200 46.24600 33.38500
C  5.40800 45.07700 34.23600
H  12.97600 48.23900 30.34000
H  11.99100 47.58300 23.97200
H  5.73000 47.52700 24.90300
H  8.71800 48.51300 32.58100
H  11.62200 47.71400 32.29600
H  11.94400 49.92000 32.52500
H  10.18100 50.22200 32.79200
H  11.05200 50.42300 31.20700
H  10.32900 45.94400 33.05900
H  8.68200 45.73700 32.39200
H  7.75900 46.83900 34.18700
H  9.37700 47.23100 34.68400
H  15.04800 47.80900 29.49400
H  15.51000 48.90100 28.17500
H  15.78900 47.06600 28.18000
H  16.79000 46.96400 24.69300
H  16.30600 46.37500 26.14300
H  16.56000 48.21800 25.92600
H  9.68500 46.65100 22.62300
H  7.64900 48.51100 22.95600
H  9.23500 49.23600 21.84600
H  10.84100 48.45000 21.92900
H  10.33600 49.61900 23.20900
H  6.34000 45.97100 23.50600
H  7.75800 45.58100 22.48600
H  5.24400 46.53600 21.74800
H  6.66200 46.35200 20.66500
H  6.30300 47.90100 21.48400
H  2.89500 47.51400 27.72800
H  3.44000 46.80600 26.32700
H  3.75600 48.60200 26.56700
H  6.13400 48.07200 32.06300
H  5.32700 45.35600 35.28600
H  6.25400 44.39900 34.12400
H  4.52100 44.57200 33.85300
Mg -3.12900 35.36300 26.51400
C  -4.65000 33.59000 29.09200
C  -1.76000 37.48600 28.88300
C  -1.83200 37.27000 24.00700
C  -4.88700 33.42800 24.17500
N  -3.32200 35.63000 28.75200
C  -3.81400 34.61600 29.58100
C  -3.52500 34.95800 31.09700
C  -2.72400 36.33000 30.93600
C  -2.63800 36.49400 29.42800
C  -3.53500 37.51500 31.55900
C  -2.65800 33.78000 31.78000
C  -3.37500 33.12200 32.99300
H  -2.55800 32.93000 34.25600
N  -2.00000 37.23200 26.44900
C  -1.53400 37.86300 27.54500
C  -0.50000 38.84000 27.10800
C  -0.36300 38.63400 25.67900
C  -1.40400 37.67500 25.31800
C  0.23400 39.76900 28.12800
C  0.55600 39.30500 24.71500
O  0.54300 39.11600 23.52800
C  1.63500 40.17200 25.25300
N  -3.48800 35.48400 24.40600
C  -2.72800 36.28300 23.58600
C  -2.88000 35.94500 22.08200
C  -3.70800 34.61300 22.15500
C  -4.05900 34.46700 23.67000
C  -3.49900 37.09600 21.32700
C  -3.06900 33.34000 21.50800
C  -1.97700 32.60300 22.33500
N  -4.44100 33.77500 26.59200
C  -5.14800 33.11600 25.49400
C  -5.83100 31.97200 26.03600
C  -5.66500 32.10800 27.46800
C  -4.89800 33.26000 27.71400
C  -6.54800 30.90600 25.20300
C  -6.09300 31.58600 28.75500
O  -6.85900 30.63300 29.09200
C  -5.48400 32.59500 29.87500
C  -6.53900 33.09200 30.76600
O  -7.45900 33.85600 30.46400
O  -6.51300 32.35000 31.92200
C  -7.32700 32.75700 33.06400
H  -1.09400 37.95100 29.61300
H  -1.25100 37.78900 23.24300
H  -5.30900 32.78600 23.39900
H  -4.42300 35.17200 31.67700
H  -1.74800 36.27300 31.41800
H  -2.81900 38.04800 32.18300
H  -4.39200 37.22600 32.16800
H  -3.83700 38.25300 30.81500
H  -1.76000 34.17200 32.25600
H  -2.35800 33.01500 31.06400
H  -3.70500 32.15600 32.61200
H  -4.24300 33.68300 33.33900
H  -0.34500 39.92000 29.03900
H  0.33000 40.81900 27.85300
H  1.20300 39.29700 28.29100
H  2.30200 40.49500 24.45400
H  2.14900 39.69000 26.08400
H  1.35300 41.14300 25.65900
H  -1.98400 35.61600 21.55500
H  -4.60500 34.79400 21.56400
H  -3.57900 37.95000 21.99900
H  -4.53100 36.89700 21.03600
H  -2.82100 37.34500 20.51100
H  -2.56800 33.62100 20.58200
H  -3.89100 32.64000 21.35900
H  -1.86200 31.55500 22.05900
H  -2.25500 32.51500 23.38500
H  -1.03800 33.13900 22.19700
H  -6.25700 29.94300 25.62300
H  -6.50000 30.88400 24.11400
H  -7.57700 31.15300 25.46600
H  -4.74000 32.01500 30.42100
H  -6.79300 33.49500 33.66300
H  -7.52100 31.84100 33.62200
H  -8.28000 33.17200 32.73400

