158

Mg 44.12400 3.42200 47.30000
C  41.57700 5.68700 46.48500
C  41.66500 0.83100 47.22400
C  46.62200 1.10600 47.26200
C  46.43900 5.99800 47.07300
N  41.92800 3.19500 46.65800
C  41.11900 4.32400 46.44300
C  39.67200 3.88400 46.33400
C  39.67700 2.45600 46.85000
C  41.16800 2.07200 46.91500
C  38.92200 2.17000 48.14200
C  39.13200 3.98000 44.86500
C  38.11300 5.08200 44.38500
H  38.53900 5.83100 43.16300
N  44.20200 1.26500 47.28000
C  43.03800 0.49000 47.41500
C  43.46500 -0.85900 47.67400
C  44.90400 -0.81900 47.70400
C  45.29300 0.53500 47.39900
C  42.57500 -2.08500 47.91300
C  45.78000 -1.98600 48.11900
O  45.25500 -3.05000 48.35300
C  47.25700 -2.00000 48.16500
N  46.20700 3.50300 46.97500
C  47.00800 2.40300 47.11600
C  48.53700 2.84700 47.10000
C  48.45700 4.39900 47.23600
C  46.94400 4.67200 47.09700
C  49.36600 2.08500 48.23700
C  49.42000 5.11600 46.16900
C  50.85900 5.48000 46.68500
N  44.06500 5.41000 46.89500
C  45.09800 6.34400 46.79900
C  44.54200 7.61300 46.53800
C  43.14300 7.46800 46.51900
C  42.89400 6.10400 46.65100
C  45.29400 8.91900 46.41100
C  41.83000 8.18100 46.36700
O  41.56000 9.33900 46.16600
C  40.81200 6.96900 46.33900
C  39.85800 7.13300 47.48500
O  40.00200 6.65600 48.61900
O  38.76200 7.83100 47.08000
C  37.68000 8.12700 48.05700
H  40.88600 0.07400 47.33100
H  47.38800 0.33300 47.35100
H  47.17400 6.80000 47.17000
H  39.01000 4.57100 46.86200
H  39.24900 1.68400 46.21100
H  38.58700 3.10300 48.59700
H  39.61500 1.64100 48.79600
H  38.01900 1.58800 47.95900
H  38.66600 3.02300 44.62900
H  39.88900 4.15900 44.10100
H  37.85200 5.72600 45.22500
H  37.18400 4.53200 44.23200
H  42.57700 -2.29400 48.98200
H  42.82700 -2.99300 47.36400
H  41.51900 -1.95800 47.67200
H  47.61000 -1.82000 47.14900
H  47.54800 -2.93900 48.63500
H  47.67300 -1.23000 48.81500
H  48.96200 2.51200 46.15400
H  48.62300 4.80800 48.23300
H  48.69500 1.66700 48.98800
H  50.08600 2.79700 48.64100
H  50.01400 1.32500 47.80200
H  48.82800 5.97000 45.83900
H  49.59400 4.45600 45.31800
H  51.57900 5.07900 45.97200
H  51.04900 4.98800 47.63900
H  50.98600 6.55900 46.78200
H  46.23800 8.67000 45.92700
H  45.55700 9.26100 47.41200
H  44.77000 9.63500 45.77800
H  40.35600 7.14100 45.36400
H  38.01500 8.11400 49.09400
H  36.80700 7.49900 47.88200
H  37.49800 9.19800 47.95900
Mg 16.14000 51.36900 24.82300
C  18.23100 50.60500 27.54100
C  13.54300 51.44000 26.86600
C  14.32700 51.68800 22.17900
C  19.11900 50.88100 22.74700
N  15.95600 51.08700 26.98200
C  16.92900 50.91100 27.92700
C  16.40600 51.18700 29.33400
C  14.82100 51.42100 29.14700
C  14.73300 51.33200 27.56600
C  13.91300 50.37500 29.90900
C  17.09600 52.39600 30.07800
C  16.99400 52.43700 31.63500
H  16.17100 51.42000 32.37600
N  14.18400 51.33000 24.51400
C  13.26600 51.40800 25.46700
C  11.99700 51.25900 24.85600
C  12.14900 51.45200 23.44400
C  13.56800 51.47200 23.29300
C  10.76500 51.28200 25.62200
C  11.02700 51.56900 22.37300
O  11.38300 51.70400 21.19100
C  9.56600 51.49300 22.72800
N  16.66900 51.23300 22.74400
C  15.67300 51.66500 21.90400
C  16.28300 52.09600 20.62200
C  17.83600 51.99300 20.83600
C  17.93000 51.33400 22.15700
C  15.71800 51.32900 19.38200
C  18.64400 53.29300 20.87100
C  18.93600 53.84800 19.47400
N  18.20800 50.84500 25.03200
C  19.26100 50.60300 24.12500
C  20.43600 50.12900 24.80200
C  20.07000 50.06000 26.09900
C  18.75300 50.55200 26.22200
C  21.69300 49.80400 24.19800
C  20.60700 49.79200 27.52000
O  21.64500 49.34200 27.98500
C  19.38200 50.19200 28.43000
C  19.00200 49.10300 29.37000
O  18.64600 48.00200 28.96900
O  19.38700 49.35300 30.69000
C  19.26000 48.29100 31.72300
H  12.70300 51.41100 27.56200
H  13.72300 51.90400 21.29600
H  19.96900 50.81400 22.06400
H  16.48800 50.25100 29.88700
H  14.42300 52.40000 29.41500
H  13.42000 50.92900 30.70800
H  14.48600 49.55400 30.34000
H  13.07200 49.95800 29.35400
H  16.80700 53.35200 29.64100
H  18.16600 52.34400 29.87500
H  16.58900 53.38400 31.99200
H  17.97900 52.25400 32.06300
H  10.11800 50.59000 25.08300
H  10.34200 52.27500 25.46300
H  10.86500 51.00300 26.67100
H  9.29600 50.57400 23.24800
H  9.03800 51.58000 21.77800
H  9.29100 52.32500 23.37600
H  16.07000 53.15600 20.48600
H  18.28200 51.26400 20.15800
H  15.28300 50.41500 19.78700
H  16.44400 51.08400 18.60700
H  14.96700 52.05900 19.08100
H  19.57600 53.14200 21.41500
H  18.09400 54.06400 21.40900
H  18.45300 54.82500 19.46300
H  18.47700 53.25500 18.68400
H  20.01900 53.87700 19.35200
H  22.56900 49.89400 24.84100
H  21.94400 50.40300 23.32200
H  21.60500 48.75900 23.89800
H  19.78300 51.00500 29.03500
H  18.34900 48.50500 32.28100
H  20.08000 48.45600 32.42200
H  19.32000 47.22300 31.51200

