158

Mg 1.64400 -2.39400 43.32200
C  4.90100 -1.77600 42.90700
C  0.57900 0.31800 41.65600
C  -1.75100 -3.54700 43.47300
C  2.54400 -5.53600 44.80900
N  2.66700 -0.91500 42.37200
C  4.04700 -0.81900 42.25200
C  4.40400 0.39100 41.42700
C  2.91300 1.13300 41.31200
C  1.94100 0.13200 41.85500
C  2.93600 2.43300 42.18800
C  5.07000 0.07400 40.03000
C  6.39200 0.76800 39.77100
H  6.39000 1.81000 38.69400
N  -0.32600 -1.63500 42.78500
C  -0.53400 -0.46100 42.06500
C  -1.96200 -0.26900 41.92300
C  -2.62500 -1.28300 42.63000
C  -1.58400 -2.27700 42.96900
C  -2.48700 1.05100 41.30800
C  -4.16700 -1.35500 42.83000
O  -4.90800 -0.45600 42.47300
C  -4.91200 -2.52100 43.45200
N  0.46700 -4.26900 44.17000
C  -0.83600 -4.43700 44.10100
C  -1.23500 -5.78200 44.75800
C  0.20900 -6.45000 45.06200
C  1.17000 -5.35300 44.64400
C  -2.27100 -5.85800 45.91300
C  0.47000 -7.83600 44.43100
C  0.75100 -8.97100 45.43700
N  3.34500 -3.50300 43.86000
C  3.58600 -4.65800 44.49700
C  5.07900 -4.85300 44.66700
C  5.67000 -3.68700 44.06700
C  4.54900 -2.95400 43.56300
C  5.88800 -5.96200 45.32200
C  6.92200 -2.94000 43.76600
O  8.08800 -3.12700 44.06000
C  6.42900 -1.67300 42.88900
C  6.96000 -0.62000 43.70300
O  6.70300 -0.40700 44.86300
O  7.93200 -0.02900 42.98200
C  8.50900 1.20400 43.66100
H  0.44500 1.26600 41.13000
H  -2.76800 -3.94600 43.46500
H  2.97100 -6.46500 45.19100
H  5.09200 0.98900 42.02400
H  2.89900 1.43600 40.26500
H  3.02900 3.27900 41.50700
H  3.73000 2.45900 42.93500
H  1.96600 2.51600 42.67900
H  4.40600 0.40000 39.23000
H  5.26800 -0.99800 40.03800
H  7.08200 -0.00700 39.43700
H  6.91000 1.25800 40.59600
H  -3.01300 0.77000 40.39500
H  -1.70900 1.81300 41.26000
H  -3.29300 1.45300 41.92200
H  -5.96500 -2.25200 43.52600
H  -4.48900 -2.83200 44.40700
H  -4.92700 -3.33900 42.73100
H  -1.66800 -6.29300 43.89700
H  0.09400 -6.67300 46.12300
H  -3.13800 -5.26900 45.61500
H  -1.82500 -5.51900 46.84800
H  -2.58700 -6.89200 46.05700
H  1.41000 -7.78900 43.88000
H  -0.36500 -8.14000 43.80000
H  1.79100 -9.27700 45.31900
H  0.07600 -9.82700 45.45500
H  0.82800 -8.54100 46.43600
H  5.30000 -6.57300 46.00700
H  6.73400 -5.53200 45.85900
H  6.30000 -6.62800 44.56400
H  6.94900 -1.71300 41.93200
H  8.84900 1.89800 42.89300
H  9.27200 0.97900 44.40700
H  7.75100 1.79800 44.17200
Mg 47.45300 24.84600 28.19100
C  48.10500 27.25000 30.78700
C  46.53300 22.60500 30.54800
C  46.84400 22.76000 25.66400
C  48.66100 27.29300 25.85700
N  47.30100 25.01700 30.37000
C  47.67700 26.02100 31.24500
C  47.38300 25.54400 32.67700
C  46.95600 24.08100 32.54000
C  46.98000 23.83700 31.03700
C  47.81000 23.07600 33.35000
C  46.47200 26.51000 33.40700
C  45.89300 25.87700 34.76400
H  46.35400 26.49700 36.12300
N  46.72800 23.00400 28.14900
C  46.35900 22.21200 29.17900
C  45.75600 21.03200 28.67400
C  45.88600 20.99500 27.28100
C  46.52100 22.29300 26.95400
C  45.28400 19.85300 29.60300
C  45.38800 19.98900 26.21700
O  45.68200 20.15000 25.04500
C  44.68200 18.77400 26.73700
N  47.96200 24.88700 26.00400
C  47.47200 23.93300 25.22000
C  47.59700 24.34500 23.78300
C  48.02000 25.82200 23.86300
C  48.24600 26.03500 25.33800
C  48.43100 23.32100 22.94900
C  46.93700 26.71800 23.22200
C  47.40900 28.07900 22.67300
N  48.21700 26.77500 28.24600
C  48.66000 27.66700 27.20600
C  48.88900 28.95200 27.69400
C  48.73600 28.87100 29.10500
C  48.36600 27.51200 29.37500
C  49.37700 30.11300 26.88200
C  48.82400 29.55800 30.33500
O  49.17600 30.69100 30.54400
C  48.30600 28.51900 31.49600
C  49.35500 28.47800 32.59700
O  50.49900 28.05200 32.53800
O  48.88300 29.04400 33.69600
C  49.85900 29.45400 34.72600
H  46.20400 21.91200 31.32500
H  46.55900 22.17800 24.78500
H  48.84200 28.16900 25.23100
H  48.28900 25.56100 33.28300
H  45.96400 23.82200 32.91100
H  48.45900 23.58300 34.06400
H  48.42100 22.47900 32.67200
H  47.12800 22.42800 33.90000
H  45.80000 26.94000 32.66400
H  47.19100 27.26200 33.73100
H  45.94400 24.79400 34.87500
H  44.83100 26.11700 34.70200
H  45.39300 20.10900 30.65700
H  45.67400 18.90200 29.24000
H  44.19700 19.86200 29.51800
H  43.91100 19.00600 27.47100
H  45.48400 18.10300 27.04600
H  44.14400 18.33900 25.89500
H  46.58000 24.42300 23.39800
H  49.02400 25.87800 23.44300
H  48.73300 22.55000 23.65700
H  49.21600 23.80300 22.36700
H  47.68100 22.92500 22.26400
H  46.07800 26.79700 23.88800
H  46.54700 26.28400 22.30200
H  47.08200 28.71400 23.49600
H  46.93500 28.18100 21.69600
H  48.47300 28.18800 22.46100
H  50.25700 29.83200 26.30300
H  49.56600 30.96100 27.54000
H  48.61400 30.41200 26.16300
H  47.39000 28.89800 31.94900
H  50.91300 29.28000 34.51300
H  49.60700 28.89300 35.62700
H  49.73400 30.51400 34.94500

