158

Mg -9.68300 18.05900 42.85100
C  -6.32500 17.40600 42.46500
C  -9.08900 21.35700 41.89700
C  -13.09600 18.57900 42.40000
C  -10.30900 14.59800 43.06700
N  -7.86800 19.22000 42.40800
C  -6.63700 18.74200 42.22900
C  -5.55100 19.78700 41.98600
C  -6.45200 21.16800 42.01900
C  -7.88800 20.54400 42.05400
C  -6.26400 22.07600 43.27600
C  -4.78100 19.55500 40.61300
C  -5.72800 18.99000 39.48800
H  -5.42300 19.39100 38.03800
N  -10.94800 19.71000 42.42700
C  -10.46200 20.93000 42.08400
C  -11.59900 21.77600 41.75200
C  -12.81300 21.08100 42.00500
C  -12.32900 19.71700 42.24600
C  -11.48400 23.17000 41.25300
C  -14.16800 21.65200 41.88900
O  -14.32800 22.79900 41.61900
C  -15.42300 20.89200 42.18600
N  -11.39900 16.81400 42.66500
C  -12.65400 17.24900 42.54900
C  -13.70800 16.19300 42.65700
C  -12.84600 14.82800 42.81700
C  -11.39100 15.45500 42.81800
C  -14.67600 16.38600 43.80600
C  -13.18700 13.71800 41.66200
C  -13.49600 12.23600 42.09000
N  -8.55900 16.33100 42.97300
C  -8.93600 14.99400 43.10300
C  -7.78700 14.17700 43.10600
C  -6.75300 15.09200 42.87400
C  -7.24700 16.37800 42.87300
C  -7.76800 12.60600 43.12000
C  -5.29200 15.20800 42.61200
O  -4.41600 14.32600 42.48200
C  -4.98700 16.74000 42.49100
C  -4.13600 17.20800 43.57100
O  -2.94900 17.37900 43.41000
O  -4.79200 17.20200 44.76900
C  -3.84700 17.41800 45.91300
H  -8.85700 22.33600 41.47300
H  -14.17000 18.77400 42.36100
H  -10.57400 13.54300 43.16300
H  -4.96200 19.71100 42.90000
H  -6.31900 21.72500 41.09200
H  -5.46300 21.79100 43.95800
H  -7.18600 22.15500 43.85200
H  -6.03900 23.08500 42.93200
H  -3.92500 18.89400 40.75100
H  -4.35400 20.49900 40.27400
H  -6.65300 19.54300 39.65000
H  -5.79100 17.91700 39.66900
H  -12.27900 23.45000 40.56200
H  -10.54800 23.34200 40.72200
H  -11.42100 23.87600 42.08100
H  -15.35800 20.29200 43.09400
H  -15.50300 20.18600 41.35900
H  -16.22500 21.62000 42.30800
H  -14.12800 16.09800 41.65500
H  -12.90700 14.41800 43.82500
H  -14.38100 17.36500 44.18400
H  -14.55300 15.71000 44.65100
H  -15.74300 16.49200 43.61200
H  -12.27700 13.72300 41.06200
H  -13.99400 14.06500 41.01600
H  -13.52200 12.14200 43.17500
H  -12.76200 11.59700 41.60000
H  -14.42900 11.90500 41.63200
H  -7.82900 12.17100 44.11800
H  -6.88600 12.26400 42.57800
H  -8.66500 12.29900 42.58100
H  -4.48300 17.02000 41.56600
H  -3.24400 16.53800 46.13600
H  -4.51400 17.63700 46.74700
H  -3.15200 18.25100 45.81400
Mg -5.30100 24.38500 26.24900
C  -3.84200 26.60600 28.65400
C  -6.33100 22.41200 28.90600
C  -6.72800 22.48200 23.99300
C  -4.16600 26.64100 23.67100
N  -5.31200 24.62200 28.50700
C  -4.55100 25.53200 29.20100
C  -4.55700 25.20900 30.74500
C  -4.97200 23.66500 30.73500
C  -5.59400 23.58100 29.28900
C  -3.90800 22.53300 30.84700
C  -5.53200 26.12600 31.54300
C  -5.16600 26.20500 33.01400
H  -6.32700 26.21300 33.95300
N  -6.42100 22.68700 26.41500
C  -6.81700 22.00000 27.60800
C  -7.56900 20.87000 27.20500
C  -7.62000 20.85300 25.77600
C  -6.84300 21.99800 25.33200
C  -8.13600 19.86700 28.29100
C  -8.39400 19.89400 24.86000
O  -8.38000 19.96800 23.62700
C  -9.31100 18.80300 25.40900
N  -5.21200 24.52900 24.14300
C  -6.04600 23.62200 23.50500
C  -6.21800 24.06800 22.01300
C  -5.22300 25.26100 21.83600
C  -4.82100 25.50900 23.27300
C  -6.11800 22.96600 20.92500
C  -5.68800 26.57900 21.08000
C  -6.18100 26.51400 19.60300
N  -4.21700 26.21200 26.08400
C  -3.72400 26.93300 25.00400
C  -2.94200 28.08300 25.49200
C  -2.93400 27.94300 26.84000
C  -3.76200 26.82800 27.22600
C  -2.25400 29.13700 24.66300
C  -2.47700 28.60800 28.11400
O  -1.83100 29.61000 28.28500
C  -2.99300 27.69700 29.26400
C  -1.84500 27.20700 30.03200
O  -0.86900 26.51900 29.61000
O  -2.04800 27.53600 31.35400
C  -1.00400 27.02900 32.32800
H  -6.61200 21.70900 29.69300
H  -7.07800 21.76100 23.25000
H  -3.71000 27.28700 22.91800
H  -3.57400 25.34300 31.19700
H  -5.76000 23.51600 31.47300
H  -3.84000 22.04600 31.82000
H  -2.91600 22.96600 30.71600
H  -3.97700 21.81200 30.03200
H  -6.55100 25.74000 31.52100
H  -5.60400 27.15500 31.19100
H  -4.68300 27.14800 33.27300
H  -4.38500 25.48300 33.25000
H  -9.21400 19.73300 28.19600
H  -8.03900 20.17500 29.33200
H  -7.42300 19.04200 28.28700
H  -9.11000 17.92000 24.80100
H  -10.28200 19.29400 25.35200
H  -9.09500 18.55600 26.44800
H  -7.23300 24.46200 21.95200
H  -4.31700 25.02100 21.28000
H  -5.62500 22.12200 21.40700
H  -5.57100 23.31600 20.04900
H  -7.10700 22.68100 20.56700
H  -4.80800 27.21900 21.01600
H  -6.39600 27.14100 21.68800
H  -6.26700 25.48200 19.26400
H  -5.44400 26.89400 18.89500
H  -7.05800 27.14000 19.43800
H  -1.45500 29.52300 25.29500
H  -2.91100 29.98200 24.45900
H  -1.74200 28.75200 23.78000
H  -3.59700 28.33500 29.90900
H  -1.22100 26.01200 32.65600
H  -0.95700 27.77000 33.12600
H  -0.00200 26.98400 31.90000

