158

Mg 40.55000 8.83500 29.77700
C  42.25000 10.34700 32.57600
C  38.23700 7.67500 32.10900
C  38.90000 7.55800 27.23300
C  43.05400 9.96400 27.78100
N  40.38100 8.92500 32.14100
C  41.10900 9.61900 33.00800
C  40.53900 9.50800 34.40900
C  39.21900 8.66300 34.26700
C  39.26400 8.40700 32.72500
C  39.29600 7.46800 35.22800
C  40.36200 10.89200 35.15400
C  39.37400 10.82400 36.38600
H  39.60900 11.84800 37.57800
N  38.80600 7.79200 29.76000
C  37.96200 7.41300 30.73700
C  36.88000 6.74800 30.12700
C  36.98700 6.72000 28.68800
C  38.27000 7.32000 28.50000
C  35.82200 6.07300 31.08000
C  36.04000 6.29100 27.55700
O  36.31400 6.38500 26.38100
C  34.73100 5.82400 27.99700
N  41.04800 8.58600 27.92500
C  40.17800 8.02800 26.98700
C  40.82700 7.95000 25.62300
C  42.12100 8.69600 25.77400
C  42.09400 9.16800 27.28600
C  40.89300 6.58800 24.92400
C  42.34400 9.82000 24.60900
C  41.58100 11.04900 24.85300
N  42.28200 9.91300 30.03100
C  43.13200 10.37300 29.13500
C  44.14800 11.24200 29.73300
C  43.79200 11.29100 31.10100
C  42.70300 10.47800 31.22400
C  45.26600 11.83700 29.03100
C  44.21200 11.72400 32.37800
O  45.19200 12.39500 32.69400
C  43.11100 11.15700 33.33900
C  43.76100 10.50400 34.55200
O  44.33300 9.42900 34.54900
O  43.71600 11.40000 35.59700
C  44.33100 10.86900 36.75600
H  37.47400 7.30000 32.79300
H  38.47600 7.06300 26.35600
H  43.87700 10.09900 27.07500
H  41.26300 8.86500 34.91000
H  38.34600 9.22300 34.60500
H  39.99500 7.57500 36.05700
H  39.65900 6.57400 34.71900
H  38.34500 7.31600 35.73700
H  40.11400 11.76500 34.55100
H  41.32400 11.14500 35.59900
H  39.29700 9.81800 36.80000
H  38.47700 11.13000 35.84800
H  35.37900 5.18000 30.63800
H  35.00400 6.77100 31.25700
H  36.30200 5.65400 31.96400
H  34.69900 4.85600 28.49700
H  34.06700 5.87200 27.13400
H  34.35600 6.57300 28.69400
H  40.28000 8.59300 24.93400
H  43.00700 8.06300 25.72300
H  40.11000 6.45500 24.17800
H  40.75500 5.76900 25.63100
H  41.83500 6.33600 24.43800
H  41.92100 9.53500 23.64500
H  43.39800 10.00600 24.40400
H  41.01800 11.55100 24.06600
H  42.24100 11.83100 25.22800
H  40.74100 10.80600 25.50300
H  45.14700 11.80000 27.94800
H  46.11300 11.16700 29.17800
H  45.44800 12.79500 29.51800
H  42.58000 12.03500 33.70600
H  44.61400 9.81700 36.72200
H  43.65300 10.95400 37.60500
H  45.16900 11.48000 37.09100
Mg 48.60500 35.34200 26.30000
C  46.58200 34.11600 28.81300
C  48.84400 38.33600 27.97700
C  49.96000 36.71700 23.56200
C  47.53000 32.64500 24.31100
N  47.81100 36.16200 28.13600
C  47.16000 35.43700 29.11300
C  46.99600 36.25500 30.43900
C  47.30000 37.70500 29.93100
C  48.05900 37.41300 28.62900
C  46.08600 38.65100 29.80800
C  47.86400 35.67400 31.55200
C  47.32800 35.99800 33.01200
H  46.60600 37.35400 33.16000
N  49.42900 37.21300 25.92100
C  49.53600 38.26500 26.75200
C  50.22700 39.35900 26.05900
C  50.49900 38.92600 24.72100
C  49.93600 37.59200 24.67000
C  50.61300 40.63200 26.85400
C  51.22500 39.69700 23.63400
O  51.48300 39.15600 22.57400
C  51.65700 41.14600 23.77600
N  48.60000 34.83800 24.23700
C  49.40000 35.46300 23.42600
C  49.54700 34.77700 22.01800
C  48.81300 33.41600 22.28800
C  48.22200 33.62000 23.67700
C  48.89000 35.57500 20.83700
C  49.66800 32.03200 22.36800
C  49.17700 30.83700 21.51400
N  47.46700 33.64300 26.56300
C  47.14000 32.62200 25.63200
C  46.22600 31.71200 26.27900
C  45.93600 32.29200 27.56400
C  46.72100 33.44900 27.66700
C  45.60900 30.52400 25.75900
C  45.22000 32.07800 28.82200
O  44.48800 31.20600 29.19300
C  45.71200 33.24200 29.67400
C  46.38300 32.59200 30.80900
O  47.50000 32.02700 30.82900
O  45.62500 32.76900 31.96500
C  46.15100 31.99800 33.12600
H  48.96300 39.28400 28.50700
H  50.59600 36.94600 22.70400
H  47.27600 31.73800 23.75900
H  45.95300 36.14300 30.73400
H  48.01100 38.24000 30.56100
H  45.20500 38.10000 30.13700
H  45.74300 38.91800 28.80800
H  46.17200 39.47100 30.52000
H  48.78500 36.24700 31.44600
H  47.96800 34.59300 31.46500
H  48.19600 35.83100 33.64900
H  46.64700 35.23700 33.39300
H  51.46800 41.24200 26.56000
H  50.90800 40.29900 27.84900
H  49.78000 41.33000 26.93800
H  50.88300 41.78500 24.20200
H  51.72100 41.43300 22.72700
H  52.61500 41.48500 24.17000
H  50.60000 34.60500 21.79200
H  47.95300 33.25300 21.63900
H  48.08400 36.18900 21.24000
H  48.43600 34.85100 20.16100
H  49.56800 36.19800 20.25300
H  49.69500 31.66300 23.39300
H  50.63100 32.30400 21.93400
H  48.15700 31.06100 21.20000
H  49.24800 29.84100 21.95100
H  49.78800 30.86300 20.61200
H  45.43800 30.61100 24.68600
H  44.71200 30.19700 26.28400
H  46.41900 29.81300 25.92800
H  44.92500 33.82400 30.15500
H  46.15400 30.92000 32.96500
H  45.47900 32.16800 33.96600
H  47.18400 32.21700 33.39800

