158

Mg 25.18900 -5.52100 45.54100
C  27.24600 -3.08100 44.02400
C  22.57500 -4.45900 43.41400
C  23.52100 -8.37000 46.09700
C  27.96700 -6.71400 47.26400
N  24.92400 -3.88600 44.00900
C  25.95800 -3.07600 43.49100
C  25.44900 -1.97600 42.55400
C  23.90500 -2.44900 42.35000
C  23.72500 -3.64200 43.38100
C  22.77500 -1.31900 42.44500
C  26.34300 -1.73100 41.32600
C  26.61700 -2.97900 40.43400
H  26.29800 -2.77900 38.89200
N  23.26100 -6.31900 44.91500
C  22.34300 -5.64400 44.13500
C  21.11300 -6.49500 44.03700
C  21.40900 -7.65900 44.84000
C  22.76900 -7.45200 45.31300
C  19.82600 -6.14200 43.26600
C  20.41500 -8.76400 45.15700
O  19.23400 -8.74000 44.72000
C  20.73300 -9.89900 46.09700
N  25.72000 -7.28000 46.55500
C  24.83500 -8.27400 46.72200
C  25.48700 -9.47000 47.53200
C  26.89900 -8.89000 47.84100
C  26.86500 -7.54900 47.12700
C  24.53800 -10.05500 48.63700
C  28.08000 -9.85400 47.57900
C  28.97500 -10.16200 48.76100
N  27.19200 -4.91100 45.75000
C  28.18100 -5.54600 46.48000
C  29.40800 -4.79700 46.36600
C  29.07400 -3.79400 45.38100
C  27.74000 -3.91800 45.04700
C  30.72400 -4.98600 47.06200
C  29.69600 -2.80600 44.52800
O  30.77800 -2.36800 44.49800
C  28.50900 -2.25800 43.64800
C  28.47400 -0.87900 44.06700
O  28.05200 -0.49300 45.14500
O  28.84500 -0.01300 43.08000
C  29.08100 1.42000 43.34400
H  21.80600 -4.04800 42.75700
H  23.09800 -9.34200 46.36100
H  28.75200 -6.92500 47.99300
H  25.36100 -1.06100 43.14000
H  23.64500 -2.84600 41.36900
H  21.80500 -1.59600 42.85700
H  22.53900 -0.99300 41.43200
H  23.07900 -0.45100 43.03100
H  27.31700 -1.42500 41.70800
H  25.90300 -0.87600 40.81400
H  25.79400 -3.64800 40.68400
H  27.58300 -3.43300 40.65700
H  19.30400 -7.06400 43.01200
H  20.07600 -5.61400 42.34600
H  19.35400 -5.45300 43.96700
H  19.88400 -10.55900 46.27600
H  21.10100 -9.54900 47.06200
H  21.43200 -10.53000 45.54900
H  25.44600 -10.22900 46.75100
H  27.03100 -8.59100 48.88100
H  23.62400 -9.47100 48.73700
H  25.11100 -9.87800 49.54800
H  24.48200 -11.14300 48.58400
H  28.66300 -9.46800 46.74300
H  27.56200 -10.74500 47.22200
H  28.73600 -9.78400 49.75500
H  30.02500 -9.90000 48.62900
H  28.99100 -11.24700 48.86600
H  30.70700 -4.63800 48.09500
H  31.55800 -4.53500 46.52600
H  31.00000 -6.03900 47.00800
H  28.90800 -2.36100 42.63900
H  29.07000 1.65500 44.40900
H  28.33200 2.07700 42.90300
H  30.08000 1.72800 43.03500
Mg 17.13000 51.69800 26.36100
C  18.68200 50.02300 28.94900
C  14.73700 52.85200 28.60900
C  15.39100 52.91700 23.70700
C  19.55200 50.44300 24.08800
N  16.74800 51.40500 28.57100
C  17.51100 50.69200 29.37600
C  17.09100 50.76900 30.87700
C  15.58600 51.34100 30.55400
C  15.74800 52.04600 29.18900
C  14.37100 50.35600 30.63200
C  18.00500 51.67600 31.74100
C  18.08600 51.28700 33.19700
H  16.97200 51.88400 34.03700
N  15.35300 52.75500 26.17200
C  14.55200 53.17300 27.22600
C  13.42600 53.91600 26.67700
C  13.51500 53.92900 25.26600
C  14.71800 53.07700 24.93900
C  12.48900 54.57300 27.55300
C  12.57400 54.51100 24.27700
O  12.71600 54.41400 23.03500
C  11.34700 55.12800 24.70700
N  17.32400 51.61100 24.21700
C  16.47600 52.13300 23.37200
C  17.04400 52.02700 21.96500
C  18.44700 51.43100 22.09000
C  18.48500 51.22900 23.56000
C  16.03300 51.40000 20.98700
C  19.64000 52.26300 21.53200
C  20.83400 51.53100 20.93800
N  18.69500 50.44600 26.42400
C  19.66500 50.08400 25.46300
C  20.72000 49.30100 26.08700
C  20.37500 49.30100 27.42000
C  19.18200 50.04000 27.60900
C  21.92900 48.68000 25.39400
C  20.75300 48.77600 28.77600
O  21.71100 48.06300 29.10000
C  19.73700 49.30400 29.78600
C  19.24300 48.10700 30.64500
O  18.46300 47.25500 30.25800
O  19.91300 48.11100 31.85900
C  19.59100 47.16000 32.89500
H  14.08600 53.29800 29.36300
H  14.96700 53.48500 22.87600
H  20.35500 50.14800 23.40900
H  16.97500 49.79400 31.34900
H  15.33400 52.07700 31.31800
H  14.14000 50.17800 31.68200
H  14.56200 49.34900 30.26100
H  13.46400 50.81200 30.23500
H  17.51800 52.64700 31.83800
H  19.00400 51.79500 31.32300
H  19.07400 51.46800 33.62200
H  18.04400 50.20300 33.30300
H  11.49100 54.21800 27.29500
H  12.60100 55.60300 27.21200
H  12.73100 54.52500 28.61500
H  10.83700 54.46200 25.40400
H  10.65200 55.24400 23.87500
H  11.65100 56.05200 25.20000
H  17.15400 53.06200 21.64200
H  18.45100 50.45100 21.61200
H  15.76200 52.16900 20.26300
H  15.10000 51.18400 21.50800
H  16.35000 50.43500 20.59200
H  20.09300 52.97000 22.22600
H  19.24600 52.83200 20.69000
H  20.93700 51.85100 19.90100
H  20.69900 50.45100 20.87400
H  21.76900 51.66300 21.48200
H  21.63500 48.77000 24.34800
H  22.03300 47.61200 25.58000
H  22.90900 49.12300 25.57400
H  20.22500 49.98200 30.48600
H  19.10400 46.25900 32.52400
H  18.90800 47.74100 33.51500
H  20.54500 46.94700 33.37800

