158

Mg 43.65900 2.90900 47.59400
C  41.51200 5.57700 47.25800
C  40.97900 0.72100 47.71000
C  45.88300 0.31000 47.56400
C  46.36800 5.06600 46.79200
N  41.46800 3.11100 47.22800
C  40.84000 4.34700 47.14200
C  39.37100 4.13000 47.03600
C  39.19400 2.57100 47.45000
C  40.62800 2.05900 47.48000
C  38.46900 2.46400 48.84100
C  38.95200 4.43800 45.55900
C  37.94200 5.65000 45.24300
H  38.24300 6.53100 43.95800
N  43.41600 0.72400 47.66200
C  42.28300 0.04200 47.80700
C  42.54100 -1.25500 47.97900
C  43.93900 -1.42300 47.79300
C  44.49400 -0.08600 47.66800
C  41.43700 -2.24600 48.20000
C  44.64400 -2.79300 47.78800
O  43.92500 -3.80000 47.71100
C  46.17200 -2.86800 47.91800
N  45.74400 2.69200 47.05100
C  46.47600 1.52900 47.10300
C  47.99400 1.82300 47.08800
C  48.10100 3.30900 46.61500
C  46.62500 3.68500 46.74000
C  48.76300 1.57400 48.43600
C  48.64000 3.45500 45.17300
C  50.10300 3.77700 45.14000
N  43.94600 4.92100 47.28000
C  45.09700 5.63700 47.04300
C  44.70700 7.11500 46.92200
C  43.29200 7.12400 47.18200
C  42.92000 5.75500 47.26800
C  45.55900 8.22400 46.64000
C  42.11600 7.93600 47.32900
O  41.97800 9.19300 47.17400
C  40.95200 6.97100 47.45800
C  40.41400 7.05800 48.85000
O  40.99000 6.62600 49.86700
O  39.19700 7.68600 48.85300
C  38.62000 8.11000 50.14800
H  40.04800 0.19900 47.94100
H  46.70400 -0.41000 47.56100
H  47.24100 5.72100 46.74900
H  38.82900 4.71800 47.77600
H  38.73600 1.86000 46.76200
H  38.21700 3.43200 49.27300
H  38.98800 1.87400 49.59700
H  37.53700 1.91500 48.70700
H  38.42700 3.57800 45.14200
H  39.85600 4.40100 44.95200
H  38.04100 6.39700 46.03100
H  36.88200 5.39300 45.25200
H  40.43500 -1.82300 48.13500
H  41.52900 -2.65700 49.20500
H  41.51300 -3.15800 47.60800
H  46.37500 -2.61100 48.95700
H  46.65800 -2.27000 47.14700
H  46.56600 -3.88400 47.93000
H  48.49800 1.11900 46.42600
H  48.67100 3.89500 47.33600
H  49.20000 0.57900 48.35900
H  48.07600 1.73900 49.26700
H  49.54500 2.32800 48.52400
H  48.15100 4.28600 44.66300
H  48.60800 2.50700 44.63700
H  50.67400 2.86000 44.99500
H  50.43000 4.28400 46.04800
H  50.38000 4.50800 44.38100
H  46.18800 8.02300 45.77300
H  46.29900 8.35400 47.43000
H  45.01300 9.16300 46.55500
H  40.20600 7.06900 46.67000
H  39.08500 7.67600 51.03400
H  37.56700 7.83200 50.10300
H  38.69700 9.19700 50.14300
Mg 30.20400 60.20900 41.03100
C  27.18300 58.66900 39.92300
C  31.82700 57.38800 40.30600
C  33.07300 62.02700 41.22700
C  28.38600 63.27200 41.24700
N  29.60700 58.35300 39.91700
C  28.31000 57.88200 39.66500
C  28.32200 56.46700 39.23600
C  29.80000 55.97600 39.56100
C  30.48200 57.29000 39.99700
C  30.01200 54.79600 40.55900
C  27.90200 56.44700 37.75500
C  26.94600 55.32500 37.31200
H  27.02500 54.70200 35.90800
N  32.20200 59.70300 40.76000
C  32.71000 58.51300 40.51100
C  34.14300 58.51900 40.63900
C  34.52100 59.91500 40.92400
C  33.24400 60.62500 40.98300
C  34.98500 57.37600 40.59300
C  36.01300 60.37900 41.03900
O  36.96200 59.63000 40.86900
C  36.32600 61.79000 41.47900
N  30.68100 62.33000 41.14300
C  31.91800 62.77900 41.37600
C  31.93600 64.30600 41.67800
C  30.45300 64.70300 41.69700
C  29.77700 63.35200 41.26700
C  32.71700 64.57700 43.05400
C  30.06300 65.95300 40.84600
C  29.58600 67.18200 41.61700
N  28.22900 60.81100 40.87800
C  27.66500 62.05600 41.00100
C  26.21700 62.00400 40.77600
C  26.00500 60.61500 40.48800
C  27.24200 59.98500 40.45000
C  25.13600 63.11100 40.78100
C  24.96700 59.64500 40.12900
O  23.68300 59.66800 40.05300
C  25.72300 58.32300 39.69600
C  25.21100 57.26100 40.65300
O  25.37100 57.25900 41.87500
O  24.33700 56.44800 39.94900
C  23.41200 55.68600 40.79300
H  32.33100 56.42000 40.25700
H  33.97600 62.63100 41.34100
H  27.86000 64.19300 41.50300
H  27.60000 55.86000 39.78400
H  30.27800 55.65500 38.63500
H  29.26100 54.01900 40.69800
H  30.23800 55.27000 41.51500
H  30.85300 54.15100 40.30400
H  28.76000 56.36600 37.08700
H  27.33600 57.33700 37.47900
H  25.89700 55.57500 37.46800
H  27.17200 54.53500 38.02800
H  35.45500 57.44300 39.61200
H  34.42600 56.44000 40.60600
H  35.64400 57.46700 41.45600
H  36.20600 62.38900 40.57700
H  37.32400 61.84000 41.91300
H  35.69600 62.09600 42.31500
H  32.47400 64.71700 40.82400
H  30.09300 64.86800 42.71200
H  33.42700 65.37000 42.81900
H  33.21600 63.72300 43.51100
H  32.10900 65.03200 43.83600
H  29.32000 65.79900 40.06400
H  30.92700 66.27400 40.26500
H  28.56900 67.43300 41.31600
H  30.11000 68.13800 41.58000
H  29.84800 66.96000 42.65200
H  24.98300 63.50100 41.78700
H  24.27300 62.58300 40.37300
H  25.43500 63.91000 40.10300
H  25.55400 57.96700 38.67900
H  22.61200 56.32200 41.17200
H  23.90000 55.16000 41.61300
H  22.89200 54.89200 40.25700

