158

Mg 2.22300 -1.78900 43.01000
C  5.69900 -1.42100 42.51500
C  1.70900 1.08700 41.16600
C  -1.15300 -2.49500 42.77600
C  2.75000 -4.98800 44.07500
N  3.56700 -0.29000 41.93800
C  4.98900 -0.34500 41.92500
C  5.50100 0.86200 41.17200
C  4.17700 1.64900 40.80800
C  3.04900 0.79000 41.35800
C  4.19300 3.12400 41.28700
C  6.40800 0.54900 39.99700
C  5.90900 -0.62700 39.06900
H  5.65200 -0.43500 37.63400
N  0.46000 -0.74900 42.26300
C  0.51900 0.41500 41.55500
C  -0.77900 0.93100 41.35200
C  -1.68600 -0.08100 41.76300
C  -0.83800 -1.14500 42.29300
C  -1.13700 2.30100 40.80400
C  -3.17200 0.04200 41.66500
O  -3.78600 1.07700 41.29000
C  -3.95600 -1.15600 42.07600
N  0.99300 -3.52800 43.25800
C  -0.37500 -3.56200 43.14200
C  -0.87100 -5.01700 43.40500
C  0.28900 -5.71700 44.09500
C  1.44100 -4.67700 43.80600
C  -2.30900 -5.32800 43.94700
C  0.51700 -7.19800 43.67400
C  0.55800 -8.31600 44.80400
N  3.86900 -3.05300 43.26000
C  3.96000 -4.26900 43.87700
C  5.38900 -4.62000 44.01800
C  6.07700 -3.54400 43.50800
C  5.10100 -2.61400 43.01800
C  5.90100 -5.82400 44.68200
C  7.38500 -2.91800 43.30300
O  8.46300 -3.43200 43.66700
C  7.20300 -1.61400 42.44800
C  8.00800 -0.52400 43.09400
O  8.94900 0.08000 42.57900
O  7.51100 -0.24700 44.38100
C  8.36600 0.59100 45.26700
H  1.47700 1.96500 40.56000
H  -2.16900 -2.85800 42.94600
H  2.89200 -5.90900 44.64400
H  6.12100 1.43600 41.86000
H  4.18400 1.65400 39.71800
H  4.31300 3.85000 40.48300
H  4.97000 3.22400 42.04400
H  3.22700 3.40700 41.70500
H  7.44900 0.30300 40.20900
H  6.62700 1.49000 39.49300
H  4.91200 -0.94900 39.36800
H  6.65900 -1.41700 39.12200
H  -1.25500 2.97900 41.65000
H  -2.12000 2.26200 40.33500
H  -0.37800 2.58600 40.07600
H  -5.02400 -1.01600 41.90600
H  -3.63900 -1.21600 43.11700
H  -3.60200 -1.98300 41.46000
H  -0.81600 -5.43900 42.40100
H  0.13000 -5.74000 45.17300
H  -2.92900 -4.49800 44.28600
H  -2.33400 -5.90400 44.87200
H  -2.97500 -5.78100 43.21400
H  1.45900 -7.29400 43.13500
H  -0.24900 -7.54700 42.98100
H  0.35200 -9.29900 44.38100
H  -0.07600 -8.04400 45.64900
H  1.59100 -8.36300 45.14800
H  6.81700 -5.58000 45.22100
H  6.18200 -6.62600 43.99900
H  5.13200 -6.32500 45.27000
H  7.59800 -1.90000 41.47300
H  7.79500 1.49600 45.47800
H  9.39800 0.74000 44.94900
H  8.43800 0.04200 46.20600
Mg 44.60400 3.76700 46.62200
C  42.37200 6.45100 46.19300
C  41.82000 1.60000 46.44200
C  46.80800 1.25700 46.27800
C  47.21900 6.12300 46.15700
N  42.29100 3.95800 46.29300
C  41.68800 5.22000 46.14500
C  40.15100 4.95800 45.94200
C  39.96500 3.43900 46.29800
C  41.39200 2.95100 46.40200
C  39.20500 3.13800 47.64400
C  39.44600 5.24300 44.51100
C  38.57700 6.55300 44.45900
H  38.87200 7.55800 43.32800
N  44.33600 1.65300 46.42100
C  43.09900 0.99000 46.35200
C  43.38300 -0.41500 46.18500
C  44.83200 -0.55500 46.07000
C  45.42800 0.80200 46.24200
C  42.36400 -1.53100 46.09600
C  45.55400 -1.90200 45.90600
O  44.99000 -2.99200 45.83400
C  47.06200 -1.96300 45.75000
N  46.72400 3.74600 46.22100
C  47.34800 2.53600 46.34900
C  48.87700 2.70900 46.30400
C  49.00200 4.27000 46.34800
C  47.53600 4.73300 46.24900
C  49.45900 1.87100 47.50100
C  49.81300 4.80800 45.05200
C  51.07500 5.59200 45.46100
N  44.83100 5.87300 46.40200
C  45.91900 6.69100 46.27500
C  45.53000 8.11500 46.20100
C  44.16300 8.05100 46.25900
C  43.77600 6.65400 46.34800
C  46.40400 9.34400 45.85800
C  42.95300 8.82000 46.20000
O  42.86300 10.05800 46.29600
C  41.77400 7.84500 46.22000
C  40.79500 8.17300 47.21800
O  40.61900 7.55900 48.22900
O  40.04900 9.22900 46.83300
C  38.87100 9.62400 47.54400
H  41.01100 0.87100 46.36500
H  47.62300 0.56200 46.06200
H  48.09900 6.76900 46.12700
H  39.79400 5.59200 46.75300
H  39.42400 2.91500 45.51100
H  39.00300 4.06300 48.18400
H  39.68700 2.43400 48.32300
H  38.24600 2.66300 47.43900
H  38.78100 4.42100 44.24800
H  40.15100 5.15100 43.68400
H  38.67100 7.01300 45.44300
H  37.54300 6.26000 44.27600
H  42.37500 -1.75900 45.03000
H  41.40400 -1.24400 46.52500
H  42.60300 -2.45100 46.63000
H  47.29100 -1.62600 44.73900
H  47.43800 -2.98500 45.78900
H  47.47600 -1.37700 46.57000
H  49.33300 2.28600 45.40900
H  49.50600 4.58000 47.26400
H  48.90000 0.96600 47.73700
H  49.45700 2.58600 48.32400
H  50.49400 1.61800 47.27300
H  49.04300 5.46600 44.64800
H  50.11400 3.98400 44.40500
H  51.07000 6.30300 44.63500
H  52.00400 5.02400 45.43700
H  51.03200 6.14600 46.39900
H  45.78700 10.23300 45.98400
H  46.77700 9.31500 44.83400
H  47.17300 9.50300 46.61300
H  41.20500 8.06400 45.31700
H  38.69700 9.11200 48.49000
H  38.03500 9.40400 46.88000
H  38.85800 10.68800 47.77800

