158

Mg 45.34200 4.15700 47.36000
C  43.44600 6.96100 46.85400
C  42.59900 2.21100 46.58100
C  47.34900 1.29000 47.26000
C  48.22600 6.13000 47.20200
N  43.28700 4.57300 46.73000
C  42.71600 5.81500 46.65900
C  41.25200 5.74000 46.37900
C  40.95000 4.24200 46.58700
C  42.34400 3.63000 46.59800
C  40.13100 3.93100 47.81000
C  40.97600 6.21700 44.89900
C  40.19000 7.48200 44.76200
H  40.42300 8.28800 43.53800
N  44.94600 2.05800 47.07800
C  43.76000 1.47700 46.77200
C  43.90000 0.03400 46.70500
C  45.25700 -0.22100 46.91100
C  45.97300 1.08100 47.04100
C  42.77200 -0.93900 46.52000
C  45.86000 -1.63700 46.92400
O  45.11600 -2.60300 46.82200
C  47.36700 -1.86100 46.90900
N  47.48500 3.78200 47.21600
C  48.03400 2.55700 47.36000
C  49.52900 2.61600 47.36200
C  49.82400 4.16000 47.35600
C  48.43300 4.74800 47.22900
C  50.14000 1.81800 48.58000
C  50.83800 4.69700 46.17200
C  52.35700 4.88600 46.61900
N  45.77900 6.23800 47.05200
C  47.01100 6.86800 47.12800
C  46.77000 8.27000 47.21400
C  45.35700 8.35800 47.14100
C  44.84200 7.08500 47.07100
C  47.72600 9.37000 47.19400
C  44.21900 9.26500 47.08900
O  44.26200 10.50700 47.13400
C  42.97300 8.44800 46.82200
C  41.98200 8.69400 47.88600
O  41.75800 7.93600 48.80500
O  41.24400 9.78200 47.55700
C  39.98400 9.99600 48.28900
H  41.74300 1.58400 46.32300
H  47.95500 0.39600 47.41700
H  49.15700 6.69800 47.25200
H  40.72700 6.38000 47.08700
H  40.48000 3.73500 45.74500
H  39.33100 4.65700 47.95300
H  40.72000 3.80700 48.71900
H  39.47400 3.07800 47.63800
H  40.55700 5.44100 44.25900
H  41.94500 6.43400 44.44900
H  40.31000 8.14300 45.62000
H  39.16900 7.11300 44.66400
H  43.01200 -1.75300 45.83600
H  41.94400 -0.55700 45.92100
H  42.33800 -1.23200 47.47500
H  47.64900 -2.89000 46.68600
H  47.71100 -1.90400 47.94300
H  48.06900 -1.23900 46.35300
H  49.81000 2.23500 46.38100
H  50.26300 4.44400 48.31300
H  49.37000 1.72400 49.34500
H  50.95600 2.39100 49.02100
H  50.54600 0.87700 48.20800
H  50.33900 5.53900 45.69100
H  50.75600 3.94300 45.38800
H  52.76800 5.81700 46.22900
H  52.89500 4.09000 46.10500
H  52.53300 4.77200 47.68900
H  48.29200 9.35200 46.26300
H  48.47700 9.15200 47.95400
H  47.17700 10.27400 47.45600
H  42.53400 8.64800 45.84500
H  40.14200 10.74300 49.06600
H  39.45600 9.16100 48.75100
H  39.39500 10.51000 47.53000
Mg 41.77200 40.49400 26.90800
C  41.02200 42.77300 29.56400
C  42.96700 38.39200 29.34600
C  42.68700 38.47100 24.39600
C  41.32400 43.06800 24.60700
N  42.05400 40.64400 29.16300
C  41.53900 41.57200 30.07500
C  41.56000 41.15400 31.56100
C  42.19300 39.73400 31.30400
C  42.54000 39.60500 29.86800
C  43.33200 39.38000 32.28000
C  40.22400 41.22000 32.33000
C  40.27000 41.71600 33.81200
H  39.65000 40.84200 34.95600
N  42.73000 38.69400 26.84600
C  43.08100 37.92200 27.98300
C  43.64500 36.69000 27.48900
C  43.63000 36.69200 26.13500
C  43.01500 37.99400 25.71000
C  44.15200 35.56000 28.44200
C  43.97900 35.58100 25.09300
O  43.79800 35.64400 23.90600
C  44.51700 34.26000 25.57500
N  42.19000 40.83600 24.84100
C  42.31800 39.79500 24.02900
C  42.12000 40.06200 22.54800
C  41.73000 41.57500 22.57300
C  41.78700 41.86300 24.11500
C  43.31400 39.66400 21.53900
C  40.37200 41.90400 21.82300
C  39.00600 41.66200 22.44900
N  41.19200 42.51200 26.95900
C  41.01300 43.39800 25.94500
C  40.44100 44.61900 26.55900
C  40.44400 44.41700 27.91100
C  40.96200 43.11300 28.17500
C  40.13100 45.89800 25.83800
C  40.12400 45.04200 29.13600
O  39.73800 46.19600 29.35000
C  40.42200 43.99100 30.22700
C  41.28500 44.66000 31.16100
O  42.35000 45.25400 30.90600
O  40.87100 44.49300 32.44300
C  41.68200 45.11900 33.52300
H  43.23300 37.61200 30.06300
H  42.69900 37.81200 23.52500
H  41.06300 43.84700 23.88800
H  42.30000 41.83400 31.98300
H  41.47200 38.97200 31.60200
H  43.33700 40.00700 33.17100
H  44.31000 39.40300 31.79800
H  43.23100 38.36400 32.66100
H  39.92400 40.18000 32.45200
H  39.41700 41.63500 31.72700
H  39.68600 42.63100 33.70900
H  41.24400 42.13200 34.07100
H  45.21000 35.49500 28.19100
H  43.61300 34.63800 28.22400
H  44.14700 35.83000 29.49800
H  45.36500 34.22600 26.26000
H  44.68400 33.78300 24.60900
H  43.64900 33.75200 25.99500
H  41.21000 39.57500 22.19700
H  42.56200 42.15300 22.17000
H  43.71200 40.47900 20.93400
H  42.88000 38.87900 20.91900
H  44.04200 39.37200 22.29600
H  40.29200 41.18700 21.00600
H  40.46000 42.92300 21.44900
H  38.68700 42.63800 22.81700
H  39.15000 40.89800 23.21200
H  38.27300 41.21900 21.77500
H  39.44700 45.54000 25.06900
H  41.02500 46.27700 25.34400
H  39.72200 46.67100 26.49000
H  39.51100 43.62200 30.69700
H  41.01800 45.62400 34.22400
H  42.36900 45.91600 33.23800
H  42.13300 44.26200 34.02400

