158

Mg 7.17200 2.80200 28.10800
C  8.72600 1.82900 31.13400
C  4.90300 4.55900 29.77300
C  5.97300 3.84000 25.16800
C  9.28500 0.63700 26.47000
N  6.84700 3.17400 30.29100
C  7.61100 2.68100 31.37800
C  7.18900 3.34600 32.67900
C  5.78100 3.93000 32.29400
C  5.86100 3.95300 30.66000
C  4.49200 3.15100 32.82900
C  8.19300 4.33100 33.26500
C  8.97000 3.90800 34.50600
H  8.23800 3.29300 35.72400
N  5.70300 4.15500 27.51200
C  4.78400 4.77900 28.37400
C  3.85500 5.66200 27.64900
C  4.18400 5.41700 26.26000
C  5.31900 4.46300 26.24400
C  2.76300 6.51900 28.30800
C  3.60500 5.97500 24.95200
O  3.89200 5.56200 23.82700
C  2.53700 7.04400 25.11200
N  7.49200 2.24300 26.04100
C  6.85500 2.80600 25.03300
C  7.19000 2.13700 23.72400
C  8.38400 1.22400 24.12800
C  8.43600 1.34500 25.64000
C  5.89600 1.49000 23.14600
C  9.70600 1.40700 23.47000
C  10.71500 2.38900 24.14600
N  8.69600 1.49200 28.63600
C  9.46500 0.71500 27.83600
C  10.40100 -0.01700 28.63900
C  10.18900 0.39800 29.96300
C  9.09300 1.29500 29.89800
C  11.45000 -0.93900 28.06000
C  10.65700 0.31500 31.31200
O  11.56900 -0.36400 31.82300
C  9.78300 1.25200 32.08800
C  9.17300 0.38700 33.16600
O  7.99000 -0.01000 33.19700
O  10.04000 0.34700 34.27800
C  9.56600 -0.40500 35.39500
H  4.20000 5.19000 30.32100
H  5.69700 4.20300 24.17600
H  9.94600 -0.04300 25.92800
H  6.90100 2.53100 33.34300
H  5.59900 4.98000 32.52300
H  4.67900 2.61300 33.75800
H  4.15100 2.45900 32.05800
H  3.74300 3.92400 32.99800
H  7.74200 5.29700 33.49400
H  8.97400 4.53900 32.53300
H  9.50900 4.75600 34.92700
H  9.79400 3.33500 34.08200
H  2.73700 6.25900 29.36600
H  1.85400 6.03500 27.95100
H  2.70900 7.60500 28.23100
H  2.99800 7.93400 25.54200
H  1.67500 6.68400 25.67300
H  2.10400 7.27600 24.13900
H  7.48700 2.91200 23.01700
H  8.15000 0.17700 23.93200
H  5.01700 1.81700 23.70200
H  6.06200 0.41600 23.06700
H  5.78700 1.89100 22.13900
H  9.39500 1.89200 22.54500
H  10.14100 0.42000 23.31000
H  10.25000 2.99600 24.92300
H  11.05700 3.06200 23.35900
H  11.49300 1.80100 24.63300
H  12.20300 -0.41200 27.47300
H  10.99700 -1.75600 27.50000
H  11.93100 -1.33500 28.95400
H  10.53800 1.93200 32.48200
H  8.76000 0.10100 35.92700
H  10.37600 -0.61600 36.09300
H  9.15200 -1.37800 35.13100
Mg 6.78100 55.10300 41.83400
C  4.05700 52.78200 41.67200
C  8.65400 52.64900 40.40000
C  9.08400 57.42000 41.24800
C  4.43100 57.54600 42.82000
N  6.31000 52.93300 40.88300
C  5.14900 52.30400 40.87900
C  5.25200 51.01600 40.01000
C  6.78000 50.85600 39.88500
C  7.33900 52.17200 40.44100
C  7.43500 49.54300 40.58500
C  4.58600 51.12400 38.64500
C  4.00000 49.72100 38.12800
H  4.60100 49.20500 36.78400
N  8.72800 55.02900 41.04900
C  9.34400 53.91500 40.59400
C  10.67100 54.27000 40.14700
C  10.81300 55.64900 40.45300
C  9.51600 56.10200 40.93200
C  11.59500 53.38400 39.45900
C  12.02200 56.43800 40.12700
O  13.11300 55.93800 39.77300
C  12.09600 57.91700 40.36800
N  6.69300 57.27300 41.79900
C  7.81500 57.92900 41.61800
C  7.69200 59.38700 42.15800
C  6.20900 59.55300 42.47500
C  5.75200 58.05300 42.42200
C  8.71000 59.78200 43.25600
C  5.47400 60.48000 41.51800
C  5.87600 61.92100 41.63300
N  4.70100 55.16600 42.21400
C  3.95300 56.24700 42.68200
C  2.69600 55.78100 43.17500
C  2.69200 54.44100 42.78800
C  3.93300 54.09600 42.18300
C  1.58200 56.54700 43.78700
C  1.91300 53.20100 42.89500
O  0.83000 52.99200 43.48300
C  2.68500 52.10300 42.04800
C  1.78700 51.65400 40.87700
O  1.30200 52.37500 40.02600
O  1.65600 50.25600 40.90300
C  0.69800 49.70100 39.96000
H  9.16400 51.85400 39.85300
H  9.73900 58.28900 41.16100
H  3.80300 58.25500 43.36200
H  4.86200 50.22500 40.64900
H  7.05200 50.79500 38.83100
H  6.67200 48.86100 40.95900
H  8.08000 49.97800 41.34900
H  8.13200 49.02000 39.92900
H  5.30700 51.59700 37.97800
H  3.84100 51.91900 38.61100
H  2.92800 49.68900 37.93600
H  4.17400 48.87200 38.79000
H  11.09600 52.64600 38.83100
H  12.08900 52.86800 40.28200
H  12.27300 53.87500 38.76200
H  13.02200 58.37400 40.01900
H  11.89500 58.05100 41.43100
H  11.35900 58.57900 39.91400
H  7.90400 60.13900 41.39800
H  6.00300 59.87600 43.49600
H  8.25300 60.28100 44.11000
H  9.48800 60.41700 42.83400
H  9.23000 58.93400 43.70100
H  4.39400 60.45300 41.66600
H  5.49500 60.20300 40.46400
H  6.63900 62.01000 42.40700
H  5.04200 62.54400 41.95500
H  6.14100 62.22400 40.62000
H  1.90100 57.17700 44.61800
H  0.93800 55.82000 44.28200
H  0.90400 57.09200 43.13100
H  2.95600 51.31600 42.75200
H  -0.30300 49.88000 40.35100
H  0.80000 48.61700 39.90200
H  0.81600 50.18400 38.99000

