158

Mg 26.19300 0.02700 29.34200
C  28.09900 -0.33600 32.22200
C  23.39400 0.65800 31.36900
C  24.24000 0.20800 26.66200
C  28.86000 -1.28100 27.45800
N  25.80100 0.10300 31.54500
C  26.72900 -0.01600 32.57300
C  26.15900 0.12100 33.95200
C  24.59400 0.12000 33.58200
C  24.57100 0.29700 32.10000
C  23.79200 -1.14800 34.12600
C  26.78900 1.35700 34.59300
C  26.01000 1.85900 35.88900
H  26.79700 2.06800 37.15400
N  24.19900 0.46300 29.05600
C  23.20300 0.69400 29.96400
C  21.92000 0.90200 29.31800
C  22.10200 0.86300 27.96100
C  23.56100 0.53900 27.83300
C  20.65300 1.19700 30.07100
C  21.20000 1.11200 26.75900
O  21.54100 1.02000 25.59800
C  19.86000 1.61100 27.01800
N  26.56700 -0.41200 27.36400
C  25.56400 -0.22200 26.44300
C  26.14000 -0.69300 25.07900
C  27.69200 -0.73400 25.28700
C  27.72800 -0.87300 26.80400
C  25.53300 -2.02300 24.47100
C  28.55900 0.49300 24.82800
C  30.03000 0.19900 24.50700
N  28.06600 -0.62900 29.68300
C  29.10000 -1.11400 28.85300
C  30.26900 -1.35500 29.53900
C  30.00000 -1.06200 30.85800
C  28.61400 -0.59900 30.91300
C  31.44800 -2.05600 28.86500
C  30.48900 -1.04500 32.24000
O  31.57800 -1.26700 32.69700
C  29.28300 -0.63200 33.14000
C  29.03000 -1.84200 34.04300
O  28.54800 -2.88600 33.68800
O  29.29900 -1.52800 35.35500
C  29.17200 -2.60800 36.33000
H  22.46300 0.80300 31.92100
H  23.79700 0.29300 25.66800
H  29.66400 -1.60300 26.79300
H  26.34000 -0.78200 34.53400
H  24.19800 1.03500 34.02100
H  24.46500 -1.84000 34.63300
H  23.38700 -1.73300 33.30100
H  23.02600 -0.81000 34.82300
H  26.79100 2.26200 33.98500
H  27.80800 1.15100 34.92000
H  25.07700 1.32000 36.05600
H  25.60500 2.85700 35.72500
H  20.08800 1.99900 29.59700
H  20.69800 1.48900 31.12100
H  19.93300 0.39400 29.91000
H  19.96600 2.56000 27.54500
H  19.29700 0.84300 27.54900
H  19.31800 1.81800 26.09600
H  25.94700 0.11300 24.37100
H  28.07900 -1.63200 24.80500
H  26.22200 -2.86300 24.55700
H  25.17200 -1.80900 23.46500
H  24.66600 -2.30000 25.07100
H  28.58000 1.10700 25.72800
H  28.22400 1.06300 23.96200
H  30.27100 0.72100 23.58100
H  30.17400 -0.88100 24.47700
H  30.68500 0.60600 25.27700
H  32.24000 -2.33600 29.55900
H  31.90100 -1.38600 28.13400
H  31.07100 -2.97800 28.42200
H  29.47000 0.19300 33.82700
H  29.95800 -3.36300 36.34300
H  28.19400 -3.02400 36.08800
H  29.00000 -2.15700 37.30700
Mg 40.75500 7.78900 29.49000
C  42.64600 9.22000 31.96800
C  38.53600 6.66400 31.80900
C  38.91300 6.61000 26.92600
C  43.21300 8.68300 27.11600
N  40.59900 7.96100 31.62000
C  41.42200 8.64200 32.46900
C  41.00100 8.60900 33.97300
C  39.96600 7.43700 33.85300
C  39.60700 7.38900 32.34800
C  40.24600 6.13700 34.56800
C  40.47900 10.00700 34.52700
C  39.75500 10.02400 35.90000
H  40.56800 10.63200 37.05500
N  39.08400 6.73800 29.40200
C  38.27300 6.41900 30.46200
C  37.21700 5.58200 29.94600
C  37.15900 5.72000 28.50800
C  38.42200 6.41900 28.24300
C  36.31300 4.87500 30.99500
C  36.11500 5.28100 27.56700
O  36.30600 5.26400 26.34700
C  34.76800 4.93600 28.15900
N  41.03600 7.64000 27.37900
C  40.20000 7.03800 26.59900
C  40.56900 7.16700 25.04800
C  41.82100 8.02900 25.17200
C  42.04300 8.07300 26.62000
C  40.86900 5.74700 24.46600
C  41.91100 9.42600 24.30500
C  40.90400 10.44200 24.73600
N  42.57400 8.74100 29.53200
C  43.47400 9.00900 28.46100
C  44.58000 9.70900 28.98700
C  44.27000 9.89800 30.34300
C  43.05100 9.23300 30.62500
C  45.79900 10.24300 28.16200
C  44.72000 10.39900 31.61600
O  45.77800 11.00300 31.77000
C  43.72100 10.07500 32.69100
C  44.31900 9.45500 33.93900
O  44.88700 8.38700 33.99100
O  44.20500 10.29400 34.96400
C  44.64800 9.73600 36.30900
H  37.76900 6.24100 32.46100
H  38.30700 6.32600 26.06300
H  43.89100 9.09400 26.36500
H  41.81000 8.36200 34.66000
H  39.02400 7.83900 34.22500
H  39.46900 5.97300 35.31500
H  41.24200 6.10100 35.00700
H  40.23700 5.36700 33.79600
H  39.90600 10.45500 33.71600
H  41.28400 10.74100 34.54100
H  39.52800 9.00000 36.20000
H  38.77000 10.42400 35.66200
H  35.46100 5.55200 31.05700
H  36.76400 4.52600 31.92400
H  35.77200 3.99300 30.65400
H  34.60800 5.44900 29.10700
H  34.94200 3.89100 28.41600
H  33.98900 5.04600 27.40600
H  39.75600 7.55000 24.43100
H  42.66100 7.44600 24.79600
H  41.83000 5.66000 23.95900
H  40.15800 5.53100 23.66900
H  40.63000 4.99600 25.21900
H  41.56400 9.14000 23.31200
H  42.91900 9.83500 24.37800
H  39.92400 9.96700 24.69200
H  40.88100 11.25100 24.00600
H  41.19300 10.77200 25.73300
H  45.47900 10.93700 27.38400
H  46.38000 9.43200 27.72300
H  46.48000 10.76700 28.83200
H  43.38600 11.05500 33.03100
H  45.71600 9.95700 36.33700
H  44.27700 8.73700 36.53300
H  44.24600 10.37600 37.09400

