158

Mg 24.71000 -6.72600 47.32300
C  27.15900 -4.59500 46.19500
C  22.69900 -5.92100 44.75100
C  22.47500 -9.34800 48.24700
C  27.17700 -8.24800 49.42700
N  25.02500 -5.58600 45.41200
C  25.97800 -4.57200 45.31800
C  25.80200 -3.77500 44.01600
C  24.26900 -4.16600 43.61200
C  23.96500 -5.31600 44.64300
C  23.16100 -3.11800 43.53800
C  26.78700 -3.94400 42.85400
C  27.58900 -2.64600 42.53500
H  27.49400 -2.20300 41.10400
N  22.74600 -7.50200 46.70800
C  22.10500 -6.98900 45.60600
C  20.87900 -7.64500 45.45900
C  20.72000 -8.55300 46.51400
C  21.98900 -8.48700 47.29100
C  19.92400 -7.42300 44.39300
C  19.42600 -9.48300 46.76800
O  18.46500 -9.53100 46.02400
C  19.38000 -10.25100 48.06300
N  24.81600 -8.44700 48.59600
C  23.81900 -9.38300 48.83200
C  24.37400 -10.65400 49.44700
C  25.78100 -10.27500 49.84900
C  25.94700 -8.82500 49.33200
C  23.47100 -11.17700 50.58600
C  26.84300 -11.23800 49.20800
C  27.78400 -11.88200 50.31600
N  26.63400 -6.35600 47.92500
C  27.48900 -6.97600 48.77800
C  28.67800 -6.21600 48.91100
C  28.62100 -5.24700 47.94700
C  27.34900 -5.41500 47.33800
C  29.83800 -6.50800 49.82500
C  29.23200 -4.12900 47.20800
O  30.35300 -3.67300 47.35200
C  28.38500 -3.64900 46.08400
C  28.06200 -2.21300 46.17500
O  28.78100 -1.36400 45.62300
O  27.01600 -1.92600 46.97700
C  26.91100 -0.47700 47.13800
H  21.94200 -5.50700 44.08200
H  21.82900 -10.15600 48.59700
H  27.96500 -8.69900 50.03400
H  25.80100 -2.74700 44.38000
H  24.20000 -4.72300 42.67700
H  23.60000 -2.12100 43.50900
H  22.46100 -3.20200 44.36900
H  22.58100 -3.26900 42.62700
H  26.33800 -4.36500 41.95300
H  27.51100 -4.71100 43.12800
H  28.60600 -2.57400 42.91900
H  27.11800 -1.81800 43.06500
H  19.88500 -6.43000 43.94700
H  18.91200 -7.50500 44.78900
H  20.04900 -8.17100 43.60900
H  19.95400 -11.16200 48.23400
H  18.33000 -10.50400 48.20500
H  19.63800 -9.44600 48.75000
H  24.39100 -11.40900 48.66200
H  25.76900 -10.14100 50.93100
H  22.70000 -11.87600 50.26200
H  23.01400 -10.41200 51.21400
H  24.00800 -11.76400 51.33100
H  27.47300 -10.66300 48.52900
H  26.39500 -11.99400 48.56200
H  27.87800 -12.95000 50.12400
H  27.46200 -11.69900 51.34100
H  28.81500 -11.53000 50.30100
H  30.18700 -7.47900 49.47500
H  29.46900 -6.58000 50.84800
H  30.57100 -5.70200 49.78100
H  28.96300 -3.95200 45.21100
H  26.16500 -0.29600 47.91200
H  26.47600 0.07100 46.30200
H  27.89400 -0.08800 47.40600
Mg 27.01700 51.32900 26.74800
C  24.92000 52.29300 29.62700
C  29.35300 50.39100 28.99900
C  28.93300 50.55700 24.15700
C  24.58500 52.73700 24.67200
N  27.10600 51.50600 29.14200
C  26.11200 51.67200 30.08400
C  26.56300 51.31200 31.51300
C  28.04200 50.68000 31.26100
C  28.21400 50.87500 29.72600
C  29.15000 51.28500 32.03600
C  25.65700 50.24100 32.09800
C  26.16500 49.39100 33.32700
H  25.33600 49.24600 34.61700
N  28.90300 50.67500 26.62000
C  29.74500 50.33500 27.66400
C  31.02600 49.74500 27.19500
C  30.96400 49.84000 25.70600
C  29.54700 50.33800 25.40400
C  32.18300 49.32900 28.06600
C  32.07900 49.59200 24.69600
O  31.89600 49.86100 23.51500
C  33.33200 48.88200 25.06000
N  26.75300 51.65700 24.68500
C  27.69500 51.18100 23.74800
C  27.22500 51.46100 22.30600
C  25.70200 51.87500 22.48700
C  25.66900 52.05700 24.07300
C  28.00400 52.42900 21.40900
C  24.68800 50.84600 22.02100
C  23.28300 51.48200 21.83500
N  25.11100 52.38400 27.05700
C  24.28800 52.89800 26.03400
C  23.14300 53.48400 26.73700
C  23.28500 53.21600 28.13000
C  24.54400 52.55000 28.26900
C  21.84100 53.96500 26.04900
C  22.71400 53.35100 29.48600
O  21.72500 54.00400 29.80900
C  23.73100 52.72100 30.49600
C  24.04300 53.66900 31.57200
O  25.03200 54.40000 31.55700
O  23.13300 53.62400 32.61700
C  23.37600 54.48500 33.75900
H  30.12100 49.96600 29.64900
H  29.54800 50.43300 23.26400
H  23.65500 52.98100 24.15500
H  26.63900 52.25100 32.06200
H  27.95300 49.60100 31.38300
H  29.70900 50.57000 32.63900
H  28.63500 51.92800 32.75100
H  29.75500 51.93300 31.40200
H  25.42900 49.46300 31.36900
H  24.75700 50.80000 32.35200
H  27.16200 49.71000 33.63000
H  26.32700 48.32900 33.14300
H  32.38100 48.28000 27.84400
H  32.06300 49.59400 29.11600
H  33.00300 49.91600 27.65300
H  33.82900 48.55800 24.14500
H  32.99900 48.02700 25.64900
H  33.88200 49.61600 25.64700
H  27.28900 50.49300 21.80800
H  25.49200 52.80200 21.95400
H  29.04900 52.39700 21.71500
H  27.52400 53.40800 21.41900
H  28.00700 51.95500 20.42700
H  24.53700 50.19000 22.87900
H  24.98200 50.38700 21.07700
H  22.97100 51.69200 20.81200
H  23.29900 52.51100 22.19500
H  22.55600 50.97100 22.46800
H  21.77100 53.54000 25.04800
H  21.82800 55.05300 25.99100
H  21.07900 53.62500 26.75000
H  23.29700 51.76200 30.77900
H  23.56400 55.51600 33.46100
H  24.22900 54.24100 34.39300
H  22.56900 54.50400 34.49100

