158

Mg 16.93200 52.81600 26.62300
C  18.75900 51.32200 29.22600
C  14.51700 53.62400 28.89600
C  14.82300 53.73800 24.12100
C  19.27900 51.76100 24.34900
N  16.76900 52.64500 28.84400
C  17.63400 52.04700 29.67300
C  17.07300 51.91300 31.12400
C  15.67700 52.66400 31.00900
C  15.58900 52.96700 29.47200
C  14.43300 51.84200 31.61200
C  17.83700 52.62800 32.22000
C  17.60900 51.69800 33.47800
H  17.21100 52.52400 34.71500
N  15.03000 53.56300 26.53200
C  14.17200 53.87400 27.55300
C  12.89600 54.41900 27.11500
C  13.06800 54.68000 25.71400
C  14.36100 53.94100 25.41300
C  11.91800 54.83700 28.04600
C  12.20300 55.30800 24.71400
O  12.52100 55.44900 23.54400
C  10.93400 55.95500 25.11800
N  17.19000 52.94100 24.55000
C  16.12700 53.19500 23.72100
C  16.49200 53.05600 22.19800
C  18.07800 52.75800 22.35800
C  18.24700 52.50800 23.81400
C  15.87400 51.93400 21.38600
C  19.04500 53.98100 21.96200
C  20.36000 53.76100 21.08000
N  18.73100 51.80600 26.74100
C  19.51700 51.39900 25.66800
C  20.55100 50.58200 26.18700
C  20.35400 50.53700 27.57300
C  19.19400 51.29500 27.87600
C  21.53300 49.86700 25.26400
C  20.72300 49.92200 28.83500
O  21.65200 49.15200 29.05900
C  19.74600 50.50600 29.96400
C  19.09000 49.31000 30.65600
O  18.45600 48.38100 30.11500
O  19.60700 49.18800 31.94200
C  19.15400 48.03200 32.63100
H  13.68200 53.87800 29.55200
H  14.22900 53.99800 23.24200
H  20.00200 51.46000 23.58700
H  16.76800 50.88100 31.29600
H  15.64500 53.62100 31.53000
H  13.89200 52.35500 32.40700
H  14.90400 50.96100 32.04800
H  13.79400 51.65400 30.74900
H  17.52600 53.64800 32.44600
H  18.89100 52.63900 31.94600
H  18.52000 51.22000 33.83900
H  16.92600 50.86600 33.31000
H  12.25400 55.78300 28.47000
H  11.70900 54.11300 28.83400
H  10.95300 54.97400 27.55800
H  11.13000 56.62000 25.95900
H  10.31100 55.20100 25.60000
H  10.40600 56.35400 24.25200
H  16.35100 54.03700 21.74500
H  18.41400 51.90200 21.77200
H  15.10700 51.45400 21.99500
H  16.56200 51.21900 20.93400
H  15.36600 52.27100 20.48300
H  19.29600 54.55500 22.85400
H  18.45900 54.64200 21.32400
H  20.65400 54.63100 20.49200
H  20.16900 52.92600 20.40500
H  21.27500 53.43500 21.57400
H  22.23900 50.62700 24.92900
H  21.16900 49.40500 24.34500
H  21.92100 49.00000 25.79800
H  20.31600 51.12400 30.65700
H  19.74100 48.11600 33.54600
H  19.34500 47.12800 32.05300
H  18.09200 48.12100 32.85800
Mg -9.99100 39.80400 41.43100
C  -8.81300 36.46700 40.74000
C  -7.03700 40.91800 40.17100
C  -11.27100 42.77100 41.71800
C  -13.19000 38.26800 41.96700
N  -8.20800 38.72500 40.36900
C  -7.92800 37.42600 40.28600
C  -6.53600 37.25500 39.60200
C  -5.91900 38.71000 39.40800
C  -7.08400 39.51100 40.14900
C  -4.53300 38.90700 40.12500
C  -6.74200 36.60800 38.18400
C  -5.99300 35.26100 37.89900
H  -5.18500 35.25800 36.59400
N  -9.30700 41.67300 41.04400
C  -8.02900 41.92600 40.54900
C  -7.80900 43.35700 40.42400
C  -8.97600 44.00600 40.91000
C  -9.95700 42.80400 41.27700
C  -6.50500 44.02200 39.86100
C  -9.27000 45.48300 41.11100
O  -8.48000 46.32000 40.75400
C  -10.50500 45.95700 41.69000
N  -11.94400 40.42500 41.65200
C  -12.19000 41.76000 41.88600
C  -13.65000 42.00700 42.24300
C  -14.35900 40.59900 42.26400
C  -13.10200 39.68800 41.90800
C  -13.91500 42.69800 43.55700
C  -15.58800 40.40000 41.38500
C  -16.79300 39.51300 41.89200
N  -10.80000 37.69700 41.62900
C  -12.10900 37.29300 41.85800
C  -12.20200 35.81500 41.88300
C  -10.85200 35.44800 41.49600
C  -10.12100 36.65700 41.27300
C  -13.42700 35.07500 42.24800
C  -9.91900 34.36700 41.24900
O  -10.02800 33.16500 41.52100
C  -8.64600 34.98000 40.65300
C  -7.43700 34.47600 41.42100
O  -7.09100 34.88400 42.55000
O  -6.79200 33.47200 40.71300
C  -5.58400 32.87500 41.41800
H  -6.07000 41.31600 39.85600
H  -11.76600 43.72900 41.89100
H  -14.16500 37.90000 42.29300
H  -5.99700 36.65500 40.33500
H  -5.93800 39.02300 38.36400
H  -4.16000 37.94700 40.48100
H  -4.68400 39.52300 41.01100
H  -3.72700 39.32900 39.52500
H  -6.58300 37.36300 37.41400
H  -7.78300 36.28800 38.14400
H  -6.74200 34.47500 37.79600
H  -5.35900 34.95200 38.72900
H  -6.58400 44.18600 38.78600
H  -5.64000 43.36100 39.90600
H  -6.32700 45.04800 40.18300
H  -11.24200 45.72500 40.92100
H  -10.55700 47.03500 41.84000
H  -10.66800 45.45000 42.64100
H  -14.17700 42.55400 41.46100
H  -14.74800 40.22400 43.21000
H  -13.88700 43.78400 43.46400
H  -13.27900 42.27500 44.33400
H  -14.91900 42.48300 43.92400
H  -15.30000 39.78800 40.53000
H  -16.02400 41.36500 41.12800
H  -17.76900 39.97400 41.73800
H  -16.63700 39.06800 42.87500
H  -16.79300 38.65600 41.21900
H  -14.13700 35.74700 42.73000
H  -13.00200 34.37500 42.96700
H  -13.84100 34.65600 41.33100
H  -8.54200 34.73500 39.59600
H  -4.87500 33.46700 41.99700
H  -4.96700 32.34600 40.69100
H  -6.07100 32.24600 42.16400

