158

Mg 47.90900 34.00800 25.91200
C  46.00900 32.91300 28.60200
C  48.45900 36.87400 27.47400
C  49.58800 34.84600 23.15200
C  46.87800 31.04300 24.18700
N  47.33300 34.85700 27.84300
C  46.66300 34.17300 28.82900
C  46.85600 34.99700 30.21100
C  47.07300 36.44300 29.63100
C  47.57700 36.07200 28.20000
C  45.91800 37.48300 29.62500
C  48.01500 34.41700 30.92900
C  48.00800 34.41800 32.50000
H  47.29600 35.56400 33.22100
N  48.88400 35.69200 25.36700
C  49.04500 36.76800 26.15100
C  49.87000 37.75100 25.46400
C  49.97700 37.31000 24.12800
C  49.48000 35.88900 24.17500
C  50.40200 39.01500 26.19200
C  50.62300 37.94400 22.87200
O  50.55000 37.41500 21.76900
C  51.41900 39.25800 23.00800
N  48.00900 33.11600 23.85300
C  48.87700 33.71400 22.93700
C  48.95000 32.84200 21.66100
C  48.46900 31.42500 22.15400
C  47.72800 31.86000 23.45500
C  48.29000 33.30800 20.29500
C  49.41400 30.33300 22.51900
C  50.47900 30.02900 21.42400
N  46.69900 32.33100 26.29100
C  46.35200 31.23900 25.50700
C  45.47500 30.42900 26.23300
C  45.26500 31.02700 27.47900
C  46.02000 32.20500 27.45100
C  44.89500 29.05500 25.76700
C  44.48400 30.98500 28.71300
O  43.80300 30.08900 29.09300
C  44.92300 32.31600 29.47400
C  45.25700 32.04100 30.89600
O  45.89400 31.14800 31.33800
O  44.50100 32.92200 31.69900
C  44.35100 32.41700 33.07500
H  48.74400 37.82000 27.94000
H  50.31900 35.18900 22.41500
H  46.57200 30.16300 23.61600
H  45.92500 35.07000 30.77400
H  47.94000 36.97500 30.02300
H  45.39200 37.68400 28.69200
H  46.29000 38.46200 29.92800
H  45.30900 37.07700 30.43400
H  48.90800 34.95300 30.60700
H  48.07700 33.36500 30.64900
H  49.06600 34.32100 32.74500
H  47.48700 33.52200 32.83900
H  51.48100 39.03500 26.04400
H  50.18800 39.13100 27.25500
H  49.98400 39.91300 25.73600
H  52.06400 39.15000 23.88000
H  50.73800 40.10500 23.08900
H  51.92100 39.34500 22.04500
H  50.00300 32.59800 21.51800
H  47.62000 30.93900 21.67300
H  47.27900 32.94900 20.10600
H  48.98500 32.84900 19.59200
H  48.24800 34.38300 20.11900
H  48.73000 29.49900 22.67800
H  49.84300 30.58000 23.49000
H  51.43300 30.27500 21.89100
H  50.32100 30.70300 20.58200
H  50.53400 28.96700 21.18500
H  45.02200 28.32600 26.56800
H  45.54700 28.73100 24.95600
H  43.85200 29.15900 25.46700
H  43.98000 32.85500 29.37400
H  44.25500 31.33500 33.16600
H  43.43100 32.84700 33.47200
H  45.16100 32.79600 33.69800
Mg 26.41400 50.11400 27.27600
C  24.42300 51.49500 29.55300
C  28.62900 49.06500 29.71200
C  28.52900 49.02600 24.83200
C  24.31800 51.31600 24.79300
N  26.56800 50.39400 29.44400
C  25.48500 50.89500 30.17200
C  25.65900 50.57600 31.65100
C  27.16000 49.99100 31.68600
C  27.55300 49.80200 30.21400
C  28.15500 50.80900 32.48900
C  24.55200 49.56700 32.25700
C  24.03800 49.96600 33.64700
H  24.96300 50.65100 34.66500
N  28.40300 49.25300 27.27200
C  29.05100 48.84700 28.33200
C  30.35700 48.30700 27.96300
C  30.30900 48.22100 26.54700
C  29.07400 48.88000 26.13700
C  31.36900 47.88800 29.03600
C  31.33800 47.61700 25.61500
O  31.19400 47.63000 24.37200
C  32.47700 46.89600 26.27400
N  26.49300 50.32600 25.13300
C  27.38900 49.60200 24.35000
C  27.04400 49.81100 22.88200
C  25.54500 50.15900 22.90600
C  25.45600 50.72000 24.31200
C  27.89600 50.83800 22.13300
C  24.51000 49.01500 22.55400
C  23.70800 49.13500 21.20600
N  24.72900 51.19700 27.14000
C  23.96300 51.65500 26.09100
C  22.84200 52.52400 26.57500
C  22.95700 52.42800 27.94300
C  24.09900 51.60700 28.24600
C  21.79900 53.21500 25.66200
C  22.30300 52.73200 29.16300
O  21.24100 53.31800 29.37300
C  23.19900 52.13900 30.25900
C  23.51700 53.21900 31.23800
O  24.39600 54.07200 31.15400
O  22.65900 53.16100 32.33200
C  22.64600 54.19700 33.40300
H  29.27400 48.69500 30.51200
H  29.02200 48.66000 23.93000
H  23.69900 51.62100 23.94600
H  25.57500 51.48800 32.24200
H  27.12400 48.99500 32.12800
H  28.84400 50.07300 32.90300
H  27.61000 51.33900 33.27100
H  28.67400 51.57000 31.90800
H  25.05200 48.60200 32.17900
H  23.68100 49.52000 31.60400
H  23.53600 49.11900 34.11300
H  23.26200 50.71600 33.49700
H  32.34600 48.34000 28.86400
H  31.43900 46.80100 29.00000
H  31.21300 48.03000 30.10500
H  33.04300 46.44300 25.46000
H  32.08100 46.06000 26.84900
H  33.10400 47.57300 26.85400
H  27.27500 48.89100 22.34400
H  25.29600 50.98400 22.23900
H  28.40500 50.31500 21.32400
H  28.60300 51.24600 22.85600
H  27.31500 51.67600 21.74900
H  23.85500 48.81500 23.40200
H  25.14400 48.14700 22.36900
H  24.27100 49.79500 20.54600
H  22.74200 49.63200 21.29800
H  23.47800 48.16400 20.76600
H  21.37400 52.52500 24.93400
H  22.19200 54.03600 25.06200
H  20.95100 53.38500 26.32500
H  22.61100 51.44900 30.86400
H  23.03500 55.17500 33.12000
H  23.26800 53.82600 34.21700
H  21.64000 54.32500 33.80500

