158

Mg 55.96200 23.16600 43.32700
C  53.90700 26.11000 42.68100
C  53.15600 21.22100 42.73200
C  57.99500 20.65500 42.83400
C  58.69000 25.42300 43.33800
N  53.78600 23.63600 42.63100
C  53.16200 24.91600 42.50300
C  51.64300 24.63500 42.18300
C  51.37800 23.18400 42.68800
C  52.84600 22.59700 42.73100
C  50.74900 23.11600 44.09800
C  51.19100 24.92400 40.67100
C  52.26500 25.20200 39.56200
H  51.92500 24.83500 38.13200
N  55.65100 21.18600 42.85300
C  54.44000 20.57300 42.76200
C  54.69700 19.17600 42.62700
C  56.06200 18.90500 42.68200
C  56.68300 20.23800 42.87000
C  53.54400 18.13000 42.38800
C  56.78000 17.59400 42.55200
O  56.17300 16.54800 42.34900
C  58.21500 17.43100 42.79700
N  58.02300 23.11400 43.06700
C  58.60700 21.90800 42.85000
C  60.14800 22.08600 42.77200
C  60.39600 23.66000 42.89900
C  58.96100 24.08600 43.13400
C  60.89900 21.09400 43.68400
C  61.19700 24.39700 41.69600
C  60.37600 24.80100 40.53800
N  56.23400 25.23200 43.31700
C  57.38200 26.00400 43.33000
C  57.06700 27.41800 43.46900
C  55.67000 27.51000 43.40400
C  55.24900 26.12600 43.14800
C  58.07200 28.50100 43.75600
C  54.51800 28.33800 43.40900
O  54.40900 29.52600 43.65600
C  53.33500 27.48500 43.02800
C  52.47800 28.21200 42.07300
O  52.79100 28.52600 40.93000
O  51.30900 28.49600 42.67000
C  50.19700 29.04200 41.86900
H  52.30900 20.54900 42.88600
H  58.64200 19.79000 42.67300
H  59.57900 26.01100 43.57700
H  50.97300 25.30200 42.72500
H  50.77700 22.53000 42.05600
H  51.42700 22.61700 44.79000
H  49.72400 22.74900 44.16800
H  50.76000 24.10700 44.55100
H  50.58200 25.82700 40.68400
H  50.72000 24.04400 40.23200
H  53.24200 24.80500 39.83800
H  52.48000 26.27000 39.55100
H  52.56700 18.58200 42.55400
H  53.65400 17.22900 42.99200
H  53.48700 17.71800 41.38100
H  58.51700 16.38800 42.70900
H  58.46800 17.89300 43.75100
H  58.84300 17.82400 41.99800
H  60.48000 21.85900 41.75900
H  60.90000 23.89500 43.83700
H  60.28600 20.70700 44.49800
H  61.75800 21.64600 44.06500
H  61.29100 20.25600 43.10800
H  62.06100 23.81900 41.36900
H  61.47000 25.35300 42.14200
H  60.24800 25.88300 40.51200
H  59.35700 24.47700 40.74700
H  60.77900 24.39800 39.60800
H  58.39000 28.81400 42.76200
H  58.87700 28.03900 44.32800
H  57.54700 29.22300 44.38200
H  52.73300 27.46600 43.93600
H  49.25700 28.76400 42.34600
H  50.34000 28.65100 40.86200
H  50.31900 30.12200 41.79300
Mg 6.54600 53.77300 40.99500
C  5.62900 50.28100 40.76200
C  9.50800 52.92800 39.70900
C  7.03500 57.01700 40.87600
C  3.19800 54.33600 41.91000
N  7.33600 51.83200 40.06800
C  6.85300 50.53000 40.07400
C  7.92400 49.57300 39.56200
C  9.21800 50.40400 39.57800
C  8.68000 51.84500 39.86200
C  10.28000 50.00900 40.54600
C  7.60400 48.83300 38.22400
C  6.89600 49.49400 37.01900
H  7.81800 49.92400 35.96400
N  8.06700 54.92900 40.40200
C  9.23000 54.34500 39.88100
C  10.15800 55.35700 39.61900
C  9.54500 56.63200 40.00200
C  8.18400 56.27300 40.45500
C  11.49500 55.16600 39.03700
C  10.18400 57.92900 39.97500
O  11.32800 58.05400 39.65300
C  9.47400 59.22000 40.35700
N  5.22300 55.43900 41.17500
C  5.78000 56.68100 41.24400
C  4.67700 57.72800 41.55200
C  3.43200 56.86200 41.90800
C  3.93100 55.43300 41.65200
C  5.17800 58.69500 42.74800
C  2.01500 57.22600 41.36000
C  1.04500 57.70500 42.32900
N  4.78000 52.57600 41.32900
C  3.53900 52.95900 41.81600
C  2.70800 51.80000 42.07800
C  3.55800 50.74300 41.79600
C  4.74000 51.26000 41.22600
C  1.31300 51.73300 42.45300
C  3.69600 49.30300 41.73000
O  2.88300 48.46700 42.16500
C  5.08900 48.94600 41.13300
C  4.90100 47.98700 40.01500
O  4.47500 48.21600 38.87200
O  5.50100 46.82100 40.42400
C  5.51600 45.80900 39.35200
H  10.54400 52.62300 39.54800
H  7.22700 58.09100 40.93100
H  2.19700 54.54300 42.29700
H  7.95500 48.79900 40.32900
H  9.55900 50.29500 38.54800
H  10.00000 49.06500 41.01300
H  10.46900 50.73200 41.33900
H  11.28900 49.97200 40.13400
H  7.12800 47.88100 38.46000
H  8.57800 48.44900 37.92000
H  6.29300 50.35000 37.32300
H  6.14900 48.82600 36.59100
H  11.74300 54.10800 39.12300
H  12.32400 55.67300 39.53200
H  11.43200 55.44000 37.98400
H  10.12700 60.01800 40.00400
H  9.45800 59.24700 41.44700
H  8.54200 59.37000 39.81200
H  4.52800 58.36300 40.67900
H  3.28100 56.91400 42.98600
H  5.21300 59.71500 42.36400
H  6.17000 58.37900 43.07100
H  4.61200 58.76300 43.67800
H  1.55800 56.44700 40.74900
H  2.15000 58.15800 40.81100
H  1.54800 58.05000 43.23200
H  0.25100 57.02400 42.63600
H  0.50300 58.55100 41.90600
H  1.29000 51.74800 43.54300
H  0.76000 50.86500 42.09400
H  0.87300 52.66800 42.10600
H  5.51900 48.33700 41.92800
H  4.55400 45.76500 38.84100
H  5.60200 44.83500 39.83400
H  6.39400 46.03800 38.74800

