158

Mg 35.46800 1.42000 29.67400
C  33.12900 2.79500 31.96300
C  37.80000 1.55900 32.31000
C  37.80400 0.90000 27.48000
C  33.14500 2.03300 27.09000
N  35.48300 2.23100 31.83800
C  34.37000 2.55700 32.59000
C  34.64200 2.55100 34.08300
C  36.17000 2.37500 34.07800
C  36.49300 2.02400 32.68600
C  37.07600 3.60500 34.39800
C  33.79900 1.29900 34.69400
C  33.33400 1.41200 36.11600
H  34.05200 2.45400 37.05000
N  37.53600 1.23000 29.85700
C  38.32200 1.17300 30.93900
C  39.70700 0.83400 30.59800
C  39.68900 0.56600 29.23200
C  38.32500 0.92900 28.78100
C  40.76300 0.60700 31.63800
C  40.75700 -0.01900 28.34800
O  40.63900 -0.04100 27.11900
C  41.94700 -0.66000 28.89900
N  35.43500 1.34700 27.60000
C  36.51700 1.06100 26.94100
C  36.22200 1.00300 25.39000
C  34.64900 0.97300 25.35400
C  34.33900 1.49400 26.76800
C  36.94200 1.94400 24.41300
C  33.86900 -0.36500 24.95900
C  33.58900 -0.52300 23.44300
N  33.52600 2.02200 29.52300
C  32.71500 2.36400 28.40000
C  31.38400 2.76000 28.79700
C  31.55000 2.86100 30.22300
C  32.82900 2.54600 30.57100
C  30.23200 3.13000 27.89400
C  30.79700 3.32400 31.32300
O  29.66300 3.74900 31.40900
C  31.75600 3.22700 32.52800
C  31.61600 4.45500 33.33600
O  31.97000 5.60200 33.06900
O  31.03000 4.04900 34.49700
C  30.97800 5.06800 35.62400
H  38.51200 1.77000 33.11200
H  38.53000 0.71700 26.68400
H  32.44800 2.13500 26.25500
H  34.24900 3.47300 34.51100
H  36.41600 1.59200 34.79600
H  38.07900 3.24400 34.62400
H  36.59200 4.11900 35.22800
H  37.09900 4.29100 33.55100
H  34.53200 0.49300 34.65000
H  32.90100 1.15700 34.09400
H  33.35300 0.42800 36.58300
H  32.33100 1.83100 36.04100
H  40.86900 -0.47600 31.69800
H  40.45700 1.11900 32.55000
H  41.74300 0.99000 31.35300
H  42.51900 -1.15800 28.11600
H  41.65100 -1.42200 29.62000
H  42.61400 0.05300 29.38300
H  36.43200 -0.01400 25.05900
H  34.26800 1.73700 24.67700
H  37.93900 1.51900 24.29600
H  37.03400 2.96500 24.78400
H  36.40800 1.91700 23.46300
H  32.91800 -0.27000 25.48100
H  34.35200 -1.26700 25.33600
H  32.74700 0.10400 23.15300
H  33.13700 -1.49700 23.25400
H  34.52100 -0.28900 22.92800
H  30.63500 3.21800 26.88500
H  29.76800 4.01900 28.32200
H  29.43800 2.38400 27.90300
H  31.41300 2.32800 33.04000
H  31.18200 6.11700 35.40800
H  31.74400 4.78300 36.34600
H  30.01800 4.81000 36.07000
Mg 47.24500 33.64300 26.58300
C  45.63900 32.76100 29.45500
C  47.64200 37.01200 27.99000
C  48.50900 34.86100 23.61300
C  46.54900 30.71900 25.10000
N  46.87800 34.76900 28.55300
C  46.17100 34.11500 29.53800
C  46.14700 34.98600 30.74600
C  46.60000 36.34700 30.20800
C  47.10400 36.07800 28.82500
C  45.46000 37.38400 30.41600
C  47.01300 34.33700 31.96200
C  46.32300 34.57900 33.36000
H  45.10600 35.56800 33.45000
N  47.95900 35.63000 25.90300
C  48.07900 36.82900 26.60400
C  48.74200 37.81600 25.79500
C  49.15700 37.22400 24.57900
C  48.54200 35.87500 24.68100
C  49.03800 39.26300 26.31900
C  49.90400 37.73900 23.34200
O  50.32300 37.00200 22.41200
C  50.22100 39.14400 23.19200
N  47.54200 32.92800 24.58500
C  48.08600 33.57400 23.57900
C  48.20700 32.68800 22.32900
C  47.51900 31.40400 22.77600
C  47.19200 31.65100 24.29000
C  47.66400 33.30200 21.04700
C  48.32100 30.08300 22.62000
C  49.69300 29.96300 23.37000
N  46.42600 31.90600 27.19700
C  46.07900 30.83500 26.43200
C  45.19400 30.00300 27.22900
C  44.93700 30.69000 28.40600
C  45.74600 31.81100 28.38000
C  44.53800 28.81200 26.72300
C  44.17700 30.71900 29.63100
O  43.38500 29.94800 30.07000
C  44.67500 32.02200 30.38000
C  45.01800 31.49800 31.80300
O  46.15200 31.11200 32.18000
O  43.97100 31.68100 32.68700
C  44.19600 31.04800 33.99600
H  47.68900 38.01700 28.41400
H  49.04200 35.08600 22.68700
H  46.33200 29.70600 24.75400
H  45.10700 34.95400 31.07100
H  47.48700 36.72600 30.71600
H  45.66700 38.15400 31.15900
H  44.49900 36.97900 30.73400
H  45.22100 37.96800 29.52800
H  47.91900 34.93200 32.08100
H  47.39300 33.32500 31.81800
H  47.11900 35.02300 33.95600
H  46.11500 33.56100 33.69000
H  48.71400 40.08300 25.67800
H  50.12200 39.36400 26.37700
H  48.59500 39.50600 27.28500
H  49.26700 39.66600 23.11200
H  50.89800 39.28300 22.35000
H  50.83000 39.46300 24.03700
H  49.24400 32.39200 22.17300
H  46.58000 31.20600 22.26000
H  46.85600 32.69200 20.64400
H  48.50300 33.42600 20.36200
H  47.25900 34.30600 21.17100
H  48.58500 30.10900 21.56300
H  47.64500 29.24500 22.78900
H  50.01500 28.94100 23.57300
H  49.60700 30.38300 24.37100
H  50.59200 30.38100 22.91600
H  44.13900 29.02900 25.73300
H  43.84000 28.44500 27.47600
H  45.26400 28.01700 26.54900
H  43.84600 32.70800 30.55600
H  44.96400 31.61000 34.52800
H  44.53800 30.01300 33.98900
H  43.32900 31.01500 34.65600

