158

Mg 0.35100 43.63000 25.60300
C  2.25200 43.71100 28.43400
C  -2.37600 42.80900 27.68000
C  -1.40200 43.08400 22.93600
C  3.24300 44.29700 23.67700
N  -0.05300 43.45700 27.82100
C  0.87300 43.61900 28.76800
C  0.27000 43.54900 30.19100
C  -1.20800 43.13600 29.90100
C  -1.21000 43.12400 28.36200
C  -1.61200 41.76800 30.61700
C  0.38100 44.81100 31.07500
C  0.66400 44.71300 32.59400
H  0.22500 43.32300 33.33400
N  -1.65800 43.08600 25.35600
C  -2.65900 42.87100 26.30000
C  -3.88900 42.45900 25.58400
C  -3.56900 42.44400 24.13700
C  -2.13700 42.82500 24.08900
C  -5.13000 41.87000 26.23300
C  -4.53400 42.04700 23.03500
O  -4.18000 42.11600 21.85000
C  -5.92700 41.52400 23.29100
N  0.85400 43.84200 23.58800
C  -0.09000 43.44800 22.67400
C  0.43500 43.53400 21.23000
C  1.84100 44.18100 21.51900
C  2.02500 44.12500 22.98900
C  0.59000 42.20200 20.54900
C  2.02700 45.65100 20.99000
C  1.53800 45.93200 19.54800
N  2.34700 43.84300 25.92600
C  3.39200 44.05600 25.04900
C  4.60600 44.08200 25.76600
C  4.24300 43.93000 27.11600
C  2.86200 43.76200 27.13400
C  5.99400 44.40900 25.18700
C  4.69800 43.88900 28.49800
O  5.86200 43.83000 28.86700
C  3.43500 43.74300 29.39700
C  3.62800 42.54400 30.25200
O  3.48900 41.34700 29.94400
O  4.02900 42.92900 31.45700
C  4.09900 41.94200 32.50200
H  -3.25700 42.44500 28.21400
H  -1.94700 42.94300 22.00000
H  4.17300 44.31400 23.10500
H  0.74900 42.72200 30.71600
H  -1.91400 43.91400 30.19200
H  -0.86200 41.38200 31.30700
H  -1.75700 41.12600 29.74800
H  -2.54400 41.84400 31.17600
H  -0.56100 45.35900 31.04500
H  1.08600 45.48900 30.59400
H  0.29100 45.57200 33.15100
H  1.74200 44.86800 32.58000
H  -5.92900 42.57600 26.00700
H  -5.06600 41.99600 27.31400
H  -5.18500 40.80000 26.03600
H  -5.73300 40.58800 23.81500
H  -6.50300 41.34100 22.38400
H  -6.55200 42.13600 23.94100
H  -0.10900 44.12300 20.49200
H  2.58600 43.46500 21.17200
H  0.14900 41.39900 21.13900
H  1.58400 41.93200 20.19000
H  -0.08900 42.33300 19.70600
H  3.09400 45.85700 20.90500
H  1.70100 46.41000 21.70100
H  1.26000 45.04100 18.98300
H  2.44700 46.33200 19.10000
H  0.72100 46.65400 19.54500
H  6.40900 45.19200 25.82200
H  5.88200 44.86100 24.20200
H  6.68200 43.56800 25.09400
H  3.39700 44.65600 29.99100
H  5.02200 41.44000 32.21200
H  3.25000 41.26400 32.40800
H  4.11900 42.49400 33.44200
Mg -6.25700 25.86200 26.17600
C  -4.92800 27.35300 29.00300
C  -7.69300 23.45000 28.17600
C  -7.04100 24.13900 23.49000
C  -4.55300 28.18000 24.21900
N  -6.36300 25.49200 28.35800
C  -5.79000 26.31900 29.34000
C  -6.10300 25.72600 30.74400
C  -6.74100 24.34100 30.35400
C  -6.90000 24.40800 28.83500
C  -5.88600 23.01100 30.71800
C  -6.91000 26.76600 31.56700
C  -7.81800 26.31100 32.74600
H  -7.32200 25.32200 33.80800
N  -7.45100 24.22300 25.83600
C  -7.98700 23.32700 26.80500
C  -8.91700 22.46300 26.16200
C  -8.78300 22.55000 24.72700
C  -7.70100 23.62000 24.66200
C  -9.75300 21.57200 26.99100
C  -9.28000 21.70900 23.56000
O  -9.15200 22.00100 22.40800
C  -10.12000 20.50800 23.93400
N  -5.69700 25.99900 24.16500
C  -6.22200 25.22200 23.20400
C  -5.86700 25.63700 21.76600
C  -5.28900 27.10800 22.05000
C  -5.26500 27.17100 23.56100
C  -4.86500 24.60000 21.23200
C  -6.23500 28.14600 21.48400
C  -5.72100 28.77000 20.13400
N  -5.03900 27.46400 26.48500
C  -4.45800 28.31300 25.61000
C  -3.76600 29.38200 26.34900
C  -3.81300 28.95300 27.69500
C  -4.65800 27.81500 27.68500
C  -3.04100 30.52400 25.76500
C  -3.22700 29.14300 28.98900
O  -2.32300 29.82100 29.39400
C  -4.00400 28.09000 29.92000
C  -3.09900 27.14900 30.67400
O  -2.47900 26.16000 30.27400
O  -3.32600 27.44600 31.99600
C  -2.65500 26.49700 32.91500
H  -8.16000 22.59500 28.66800
H  -7.48300 23.78900 22.55500
H  -4.11900 28.98600 23.62200
H  -5.16200 25.43900 31.21200
H  -7.75400 24.36100 30.75500
H  -5.36400 23.12100 31.66800
H  -5.21100 22.63700 29.94700
H  -6.71700 22.33300 30.91200
H  -7.74000 26.90500 30.87400
H  -6.50000 27.76500 31.71200
H  -8.66100 25.83400 32.24600
H  -7.99400 27.23200 33.30200
H  -10.77100 21.59300 26.60300
H  -9.95100 21.93500 28.00000
H  -9.34500 20.56200 26.96500
H  -10.42400 20.01400 23.01100
H  -11.03700 20.94300 24.33400
H  -9.53400 19.78700 24.50500
H  -6.73800 25.56800 21.11400
H  -4.28500 27.06900 21.62900
H  -4.10700 24.33900 21.97100
H  -4.34100 25.11200 20.42500
H  -5.38500 23.76800 20.75800
H  -6.42900 28.90000 22.24700
H  -7.23500 27.77200 21.26700
H  -5.62600 29.85500 20.08100
H  -6.33100 28.43600 19.29500
H  -4.69500 28.43600 19.97500
H  -3.27300 31.36400 26.42000
H  -3.39100 30.77800 24.76500
H  -1.95600 30.47100 25.86200
H  -4.57000 28.74700 30.58000
H  -1.61200 26.69500 33.16400
H  -2.71800 25.48800 32.50800
H  -3.33700 26.46700 33.76500

