158

Mg 8.63700 3.49400 27.78700
C  10.18500 2.06200 30.68800
C  6.83500 5.52000 29.75500
C  6.92200 4.52100 25.02000
C  10.02400 0.92600 25.82300
N  8.53300 3.65700 30.04000
C  9.22100 3.02100 31.00100
C  8.92300 3.64100 32.38700
C  7.84100 4.73600 32.02200
C  7.72700 4.62800 30.51800
C  6.46900 4.67400 32.78300
C  10.21900 4.22900 33.12000
C  9.98000 4.90600 34.51500
H  10.91400 4.48700 35.59800
N  7.14700 4.77500 27.44700
C  6.59400 5.60600 28.41500
C  5.64300 6.53300 27.81600
C  5.75900 6.33300 26.42500
C  6.59300 5.17400 26.19800
C  4.65800 7.38900 28.60500
C  5.02400 7.03700 25.25900
O  5.16000 6.74100 24.10100
C  4.08100 8.25200 25.41700
N  8.54200 2.86600 25.68600
C  7.84400 3.47700 24.73000
C  7.90500 2.68200 23.37100
C  9.11000 1.72100 23.56700
C  9.30600 1.87500 25.05600
C  6.61400 2.10400 22.99700
C  10.38500 2.16700 22.71200
C  11.34300 1.10800 22.17200
N  9.77200 1.76300 28.13000
C  10.27200 0.87900 27.25500
C  11.10800 -0.06700 27.93600
C  11.13800 0.41000 29.26000
C  10.33800 1.51000 29.35500
C  11.78600 -1.29400 27.30900
C  11.68600 0.18500 30.63300
O  12.42600 -0.69000 31.01900
C  11.05500 1.21700 31.57700
C  10.22500 0.41700 32.52600
O  9.38600 -0.47500 32.34300
O  10.63100 0.84000 33.83400
C  10.01000 0.03600 34.86700
H  6.28500 6.27800 30.31700
H  6.42500 4.83000 24.09800
H  10.47000 0.08800 25.28400
H  8.37500 2.85800 32.91200
H  8.12400 5.77700 32.18300
H  6.16800 5.67500 33.09200
H  6.67300 4.05600 33.65800
H  5.68000 4.26300 32.15400
H  10.71900 4.92000 32.44100
H  10.99800 3.46900 33.18700
H  8.93300 4.79600 34.80000
H  10.08900 5.97400 34.32500
H  3.71800 7.39800 28.05400
H  4.95200 8.43600 28.68600
H  4.40600 7.05500 29.61100
H  4.66200 8.99000 25.97000
H  3.24200 7.96400 26.05000
H  3.82500 8.78300 24.49900
H  8.20400 3.40300 22.61000
H  8.76900 0.73400 23.25500
H  5.79600 2.37900 23.66200
H  6.65400 1.01700 23.06800
H  6.28300 2.41900 22.00700
H  10.95200 2.90000 23.28500
H  9.96900 2.63000 21.81700
H  10.92700 0.16400 22.52400
H  12.29700 1.32200 22.65500
H  11.35600 0.99800 21.08800
H  11.00100 -2.00100 27.03900
H  12.56200 -1.78800 27.89300
H  12.14700 -0.88300 26.36700
H  11.84700 1.86500 31.95200
H  9.22400 0.75000 35.11300
H  10.72500 -0.21300 35.65100
H  9.54500 -0.90800 34.58100
Mg 40.68700 10.01900 30.24900
C  42.58100 11.39200 32.98500
C  38.68300 8.50600 32.50000
C  39.09400 8.74900 27.65800
C  43.33700 11.03400 28.13700
N  40.56600 10.07400 32.49900
C  41.40000 10.64900 33.39300
C  40.96300 10.37900 34.83900
C  39.76200 9.38500 34.65200
C  39.73600 9.25200 33.13100
C  39.84900 8.03900 35.43200
C  40.62400 11.62100 35.74000
C  41.62200 11.88000 36.88500
H  41.15300 12.34800 38.26400
N  39.13800 8.70200 30.03700
C  38.40600 8.25300 31.10100
C  37.25700 7.51700 30.54500
C  37.36900 7.56400 29.12800
C  38.56700 8.42600 28.88700
C  36.28500 6.68100 31.35700
C  36.39300 7.06900 28.02100
O  36.65400 7.17900 26.78800
C  35.04800 6.29600 28.41200
N  41.21800 9.83300 28.14400
C  40.36100 9.25500 27.31500
C  40.81400 9.33700 25.83300
C  42.26600 9.99700 25.98400
C  42.24900 10.38000 27.49500
C  40.76700 7.95800 25.11200
C  42.46400 11.29700 25.17100
C  43.90100 11.40200 24.62800
N  42.44000 11.22400 30.40500
C  43.43500 11.46700 29.47700
C  44.55800 12.15900 30.15200
C  44.19300 12.23500 31.52200
C  42.94700 11.52900 31.61000
C  45.82800 12.72600 29.57400
C  44.69100 12.66400 32.79900
O  45.73800 13.27700 32.99700
C  43.57800 12.16800 33.81300
C  44.36700 11.25000 34.73300
O  44.68400 10.09400 34.47300
O  44.66700 11.94100 35.94700
C  45.37600 11.15900 36.95300
H  38.04100 7.97900 33.20900
H  38.53000 8.48800 26.76000
H  44.17500 11.27900 27.48100
H  41.79100 9.83700 35.29500
H  38.88500 9.92700 35.00800
H  40.76100 7.94900 36.02200
H  39.62500 7.10700 34.91200
H  39.05300 8.24900 36.14600
H  39.66400 11.45300 36.22900
H  40.71400 12.44800 35.03500
H  42.35800 12.58900 36.50700
H  42.17100 10.94800 37.02300
H  36.46500 6.67300 32.43200
H  36.26400 5.70300 30.87600
H  35.28000 7.07800 31.21800
H  34.57200 6.76600 29.27300
H  35.36600 5.28700 28.67400
H  34.42600 6.11700 27.53400
H  40.05000 9.94200 25.34400
H  43.09300 9.28800 25.97100
H  39.90900 7.86700 24.44600
H  40.49200 7.20100 25.84700
H  41.73600 7.66900 24.70400
H  42.50100 12.19400 25.78900
H  41.81200 11.43700 24.30900
H  44.57000 10.54500 24.54300
H  44.44500 12.07700 25.28800
H  44.00300 11.91700 23.67300
H  46.02700 12.49400 28.52800
H  46.67600 12.45900 30.20400
H  45.78100 13.81500 29.57100
H  43.09800 13.03200 34.27200
H  46.03000 10.41600 36.49600
H  44.72900 10.68700 37.69200
H  46.01200 11.90000 37.43700

