158

Mg 25.34800 0.51400 29.39600
C  27.42200 0.86000 32.26800
C  22.63100 1.15300 31.61300
C  23.38300 0.73700 26.84000
C  28.20600 0.00600 27.42300
N  25.03700 1.13700 31.68300
C  26.06000 1.06700 32.63300
C  25.48600 1.33000 34.00500
C  23.94900 1.20600 33.78700
C  23.85900 1.11600 32.25400
C  23.16500 0.11900 34.49100
C  26.02700 2.64000 34.63500
C  26.74900 2.41600 36.04100
H  26.36600 3.41000 37.20700
N  23.21200 0.97200 29.20200
C  22.32500 1.19500 30.23100
C  21.08200 1.42400 29.62200
C  21.19200 1.18400 28.18300
C  22.64100 0.96700 28.00300
C  19.73400 1.62600 30.34700
C  20.14200 1.17400 27.11300
O  20.48500 1.03500 25.96700
C  18.71000 1.35600 27.39100
N  25.77200 0.29700 27.30700
C  24.74200 0.39300 26.48400
C  25.20800 0.15800 25.07300
C  26.84700 0.07900 25.22200
C  26.95600 0.14000 26.68100
C  24.47300 -0.93000 24.28400
C  27.58800 1.28800 24.55700
C  28.98400 1.02100 24.02200
N  27.39300 0.28100 29.74600
C  28.43500 0.08700 28.84200
C  29.67000 -0.07000 29.58700
C  29.28600 0.26500 30.93300
C  27.93900 0.46700 30.96800
C  30.98300 -0.23800 28.96300
C  29.79000 0.46100 32.25800
O  30.94600 0.38400 32.64100
C  28.55400 0.80300 33.17400
C  28.48700 -0.24700 34.14900
O  27.67600 -1.18800 34.05800
O  29.43300 -0.01000 35.16500
C  29.15200 -0.83500 36.35400
H  21.75000 1.11000 32.25800
H  22.72300 0.79200 25.97100
H  29.03000 -0.25600 26.75700
H  25.86500 0.50500 34.60900
H  23.40600 2.08400 34.13600
H  22.21900 0.60400 34.73200
H  23.65500 -0.41700 35.30400
H  22.94100 -0.68400 33.79000
H  25.18200 3.32100 34.72400
H  26.73500 3.12000 33.95900
H  27.77100 2.71100 35.80100
H  26.81500 1.38900 36.39900
H  19.86200 1.73600 31.42300
H  19.03500 0.85100 30.03100
H  19.36400 2.53000 29.86400
H  18.35000 0.53500 28.01100
H  18.16000 1.19500 26.46400
H  18.53600 2.28900 27.92800
H  25.03900 1.08200 24.51900
H  27.21700 -0.88900 24.88200
H  23.71800 -1.24100 25.00600
H  25.18600 -1.65400 23.89000
H  23.81900 -0.46600 23.54600
H  27.52300 2.12100 25.25700
H  26.99200 1.46000 23.66100
H  28.88400 1.23900 22.95900
H  29.26400 -0.01700 24.19900
H  29.76900 1.63700 24.45900
H  30.93500 0.15500 27.94800
H  31.19100 -1.30700 28.91600
H  31.63900 0.33700 29.61600
H  28.76100 1.73900 33.69300
H  29.45100 -1.83500 36.04000
H  28.17300 -0.61900 36.78100
H  29.76500 -0.43400 37.16200
Mg 36.00800 49.67200 25.27800
C  36.27100 47.55300 28.06000
C  34.66200 51.96700 27.32900
C  35.00300 51.36900 22.59300
C  36.98300 46.93500 23.33700
N  35.42900 49.72700 27.41500
C  35.70500 48.78900 28.32700
C  35.34900 49.23500 29.76700
C  34.66900 50.59800 29.55900
C  34.94600 50.80000 28.03500
C  33.12500 50.66400 29.86300
C  36.60700 49.46400 30.72800
C  36.35700 49.15600 32.20200
H  34.90000 48.96900 32.68500
N  35.19300 51.58900 24.98700
C  34.71900 52.34600 25.99600
C  34.33600 53.60000 25.40100
C  34.32600 53.39600 23.95500
C  34.80700 52.06700 23.81000
C  33.92000 54.78100 26.21600
C  33.71100 54.24600 22.84200
O  33.50600 53.90100 21.67500
C  33.44400 55.72300 23.14300
N  35.84700 49.17000 23.27500
C  35.46500 50.06700 22.32500
C  35.83400 49.58500 20.91900
C  36.38500 48.19400 21.19600
C  36.45000 48.06500 22.66800
C  34.71600 49.74700 19.81800
C  37.72200 47.79100 20.30200
C  39.00600 48.46800 20.63800
N  36.48800 47.55900 25.58600
C  36.94200 46.62800 24.65800
C  37.35000 45.44500 25.33000
C  37.07500 45.72600 26.70000
C  36.56700 47.00900 26.76300
C  37.99500 44.25200 24.70700
C  37.09500 45.25500 28.08100
O  37.59400 44.16600 28.52400
C  36.64100 46.45800 28.98900
C  35.44000 45.88500 29.64500
O  34.32300 45.98500 29.21900
O  35.76700 45.22300 30.83000
C  34.69800 44.79900 31.75600
H  34.30600 52.76700 27.98200
H  34.95000 52.06500 21.75400
H  37.26200 46.09800 22.69200
H  34.66800 48.52600 30.24000
H  35.21300 51.37200 30.10000
H  32.50700 50.67500 28.96500
H  32.70400 51.52600 30.38000
H  32.89300 49.76300 30.43000
H  37.01400 50.47400 30.67100
H  37.45100 48.84200 30.43000
H  36.70300 50.00700 32.78900
H  36.96500 48.28100 32.43200
H  32.87300 55.06600 26.12000
H  34.44000 55.67100 25.86100
H  34.20400 54.69100 27.26500
H  32.48600 55.85800 23.64500
H  33.56900 56.19100 22.16700
H  34.24300 56.14800 23.75200
H  36.66900 50.15500 20.51100
H  35.71600 47.38200 20.91200
H  34.22900 50.67100 20.13100
H  34.04000 48.90100 19.69200
H  35.28700 50.01200 18.92800
H  37.61600 48.16200 19.28300
H  37.74700 46.70300 20.36500
H  39.82100 47.74800 20.70000
H  38.90500 48.83400 21.66000
H  39.18000 49.38600 20.07600
H  38.35500 43.60000 25.50200
H  38.86500 44.38500 24.06500
H  37.20000 43.68900 24.21700
H  37.40000 46.65000 29.74800
H  34.34400 43.81000 31.46600
H  33.86000 45.49500 31.77900
H  35.13900 44.73600 32.75100

