158

Mg 26.47200 51.17500 26.88800
C  24.20100 52.22800 29.37700
C  28.55800 50.11400 29.45200
C  28.69400 49.91700 24.63400
C  24.35100 52.19700 24.42700
N  26.33400 51.19700 29.19100
C  25.26600 51.55800 29.96200
C  25.50100 51.32500 31.46700
C  26.99300 50.74900 31.43200
C  27.37400 50.77600 29.96500
C  27.90500 51.35800 32.49300
C  24.46400 50.43000 32.24300
C  23.94200 51.01900 33.62500
H  25.02000 51.55900 34.67200
N  28.39300 50.18100 27.01800
C  29.05100 49.89000 28.18500
C  30.34000 49.31700 27.86500
C  30.42900 49.21600 26.39100
C  29.07800 49.69100 25.92300
C  31.40600 49.04500 28.89500
C  31.56700 48.73900 25.43400
O  31.58400 48.83800 24.21500
C  32.82400 48.08300 26.12600
N  26.49500 50.99700 24.76900
C  27.57300 50.48000 24.11900
C  27.27300 50.49900 22.59300
C  25.79700 51.07600 22.57800
C  25.49500 51.48300 24.00200
C  28.27900 51.49600 21.79900
C  24.65000 50.07300 22.00200
C  24.11800 50.55700 20.67600
N  24.79000 52.15700 26.86500
C  24.01300 52.55300 25.80300
C  22.79400 53.29600 26.23100
C  22.88600 53.18000 27.64600
C  24.05800 52.43100 28.00000
C  21.74500 54.04600 25.46800
C  22.28700 53.59300 28.90800
O  21.34200 54.35100 29.14900
C  23.08400 52.97800 30.09800
C  23.49200 54.04800 31.09000
O  24.17600 55.03100 30.88600
O  22.86100 53.81900 32.30500
C  23.01000 54.77800 33.41600
H  29.23500 49.71700 30.21100
H  29.27500 49.37200 23.88700
H  23.62300 52.45300 23.65400
H  25.43300 52.30900 31.93100
H  26.97600 49.66100 31.50000
H  28.72800 51.80700 31.93800
H  28.31700 50.69500 33.25300
H  27.41600 52.18100 33.01400
H  24.89600 49.44300 32.40800
H  23.59900 50.30200 31.59200
H  23.26000 50.33800 34.13400
H  23.31900 51.81900 33.22600
H  31.04300 49.42600 29.85000
H  32.36000 49.45000 28.55800
H  31.49400 47.96400 29.00800
H  33.39900 47.52800 25.38300
H  32.57600 47.43500 26.96700
H  33.59600 48.78500 26.44200
H  27.32000 49.41900 22.45000
H  25.72700 52.03100 22.05700
H  28.58000 51.00600 20.87200
H  29.07500 51.87100 22.44200
H  27.79900 52.46000 21.63300
H  23.83700 49.93400 22.71500
H  25.13400 49.09900 21.92100
H  24.50000 51.51400 20.32100
H  23.05200 50.68900 20.86300
H  24.26300 49.84400 19.86500
H  22.13200 54.14500 24.45400
H  21.45600 54.97200 25.96500
H  20.95700 53.29400 25.42700
H  22.40300 52.32600 30.64400
H  21.94200 54.97600 33.51500
H  23.56400 55.70100 33.24800
H  23.31400 54.44600 34.40900
Mg 9.09800 48.29200 27.40800
C  6.84800 48.21000 30.12600
C  11.74000 49.08100 29.44600
C  11.00200 48.42900 24.71400
C  6.17400 47.91600 25.35600
N  9.24200 48.60000 29.55800
C  8.23100 48.40400 30.48000
C  8.79800 48.41800 31.90200
C  10.25600 48.96000 31.62700
C  10.44000 48.92300 30.11000
C  10.30200 50.32000 32.33900
C  8.78700 47.05900 32.75800
C  9.81300 46.82000 33.89200
H  9.19900 46.36900 35.28000
N  11.03400 48.67700 27.14200
C  11.97400 48.97000 28.07000
C  13.30400 48.97400 27.52400
C  13.13600 49.00000 26.13600
C  11.66900 48.62700 25.90900
C  14.57800 49.14700 28.48400
C  14.12700 49.27000 25.00100
O  13.82500 49.13700 23.83500
C  15.60200 49.59700 25.35200
N  8.52600 48.24300 25.30900
C  9.60600 48.35900 24.43600
C  9.13800 48.23000 22.94700
C  7.58300 48.17200 23.13700
C  7.42200 48.06200 24.67200
C  9.65500 49.20700 21.84500
C  6.81700 47.01000 22.36600
C  6.76200 47.12700 20.85800
N  6.86800 48.14100 27.66100
C  5.87700 48.01100 26.71600
C  4.55900 47.90900 27.38400
C  4.89500 48.00600 28.76200
C  6.29400 48.11100 28.82400
C  3.13800 47.77100 26.71800
C  4.33900 47.95100 30.08300
O  3.18300 47.87200 30.41700
C  5.63700 47.98300 31.04900
C  5.62800 46.64600 31.64800
O  5.92600 45.58500 31.09300
O  5.21100 46.73000 32.96100
C  5.20000 45.45700 33.70200
H  12.58100 49.14100 30.14000
H  11.59400 48.44700 23.79700
H  5.26000 47.86200 24.76100
H  8.11400 49.09200 32.41700
H  10.98000 48.26200 32.04700
H  11.29200 50.38800 32.79200
H  9.53600 50.37900 33.11200
H  10.13900 51.11500 31.61200
H  8.83700 46.24800 32.03100
H  7.77000 47.04200 33.15000
H  10.24200 47.77300 34.19900
H  10.42700 45.98700 33.55000
H  15.43200 48.62800 28.05000
H  14.46400 48.70400 29.47300
H  14.85000 50.20000 28.55400
H  16.08600 48.62900 25.22400
H  15.72300 50.17400 26.26900
H  16.00000 50.24900 24.57400
H  9.40200 47.21400 22.65400
H  7.15100 49.12900 22.84600
H  10.27000 48.72100 21.08800
H  10.31600 49.97000 22.25600
H  9.03200 49.79400 21.17000
H  5.84700 47.07200 22.86000
H  7.33300 46.07600 22.58500
H  7.18500 46.17600 20.53400
H  7.23200 47.91900 20.27500
H  5.72000 47.16100 20.53800
H  3.03500 46.83500 26.17000
H  3.03000 48.53500 25.94900
H  2.37800 47.76400 27.50000
H  5.61500 48.70100 31.86900
H  4.71200 45.61300 34.66400
H  6.24500 45.27700 33.95700
H  4.75300 44.59200 33.21200

