158

Mg 24.37000 -4.66200 45.73000
C  26.56900 -2.36700 44.12200
C  21.91300 -3.54700 43.65100
C  22.47400 -7.29500 46.57600
C  27.01500 -5.84500 47.43000
N  24.23100 -2.99500 44.21400
C  25.16700 -2.21900 43.67200
C  24.71900 -1.42800 42.45900
C  23.18000 -1.66500 42.54000
C  23.04500 -2.80900 43.57300
C  22.36100 -0.33700 42.83900
C  25.38700 -1.88200 41.12800
C  26.10000 -0.83700 40.28300
H  25.84300 -0.81000 38.80000
N  22.44700 -5.30600 45.23500
C  21.60900 -4.66900 44.39300
C  20.35200 -5.41500 44.35200
C  20.53700 -6.59300 45.09800
C  21.86200 -6.39500 45.67800
C  19.17400 -5.10800 43.55400
C  19.51400 -7.69700 45.25700
O  18.35200 -7.61600 44.87500
C  19.80100 -8.92000 46.00500
N  24.65000 -6.34000 46.81300
C  23.72700 -7.28800 47.11000
C  24.25300 -8.36600 48.03100
C  25.61700 -7.79000 48.46200
C  25.79600 -6.58900 47.50300
C  23.35700 -8.79800 49.17200
C  26.74600 -8.86100 48.39200
C  27.49800 -8.96000 49.68200
N  26.37500 -4.19800 45.80700
C  27.37000 -4.77800 46.57900
C  28.53000 -3.97800 46.54900
C  28.26600 -3.15600 45.45200
C  26.94600 -3.25500 45.06600
C  29.81600 -4.08500 47.35100
C  28.87600 -2.18700 44.58400
O  30.00600 -1.75000 44.60500
C  27.80800 -1.66200 43.65000
C  27.66200 -0.16000 43.72000
O  26.94000 0.44600 44.50600
O  28.50600 0.39500 42.83000
C  28.80500 1.77800 43.23900
H  21.00100 -3.21400 43.15200
H  21.90700 -8.13000 46.99300
H  27.79300 -6.21600 48.10000
H  24.94900 -0.38400 42.67300
H  22.60700 -2.09800 41.72000
H  22.92400 0.57600 42.64600
H  21.94100 -0.25800 43.84200
H  21.70000 -0.31100 41.97300
H  24.67800 -2.45900 40.53600
H  26.14700 -2.59500 41.44800
H  27.17400 -1.02500 40.29700
H  26.03600 0.17300 40.68600
H  19.05200 -5.77900 42.70400
H  19.17800 -4.07900 43.19300
H  18.30300 -5.24300 44.19500
H  19.78600 -8.52000 47.01900
H  20.79100 -9.27000 45.71100
H  18.98700 -9.63500 45.88500
H  24.38100 -9.22600 47.37400
H  25.57300 -7.46600 49.50200
H  23.95600 -9.01400 50.05700
H  22.86000 -9.72400 48.88000
H  22.70200 -7.95100 49.37400
H  27.46100 -8.66100 47.59300
H  26.36900 -9.87400 48.25400
H  26.84000 -9.05600 50.54500
H  28.11900 -8.08400 49.87400
H  28.15600 -9.82900 49.66300
H  30.49100 -3.32300 46.96100
H  30.23800 -5.08400 47.24400
H  29.60700 -3.84900 48.39500
H  28.14900 -1.90900 42.64500
H  29.74700 1.97300 42.72700
H  28.87800 1.96500 44.31100
H  28.00200 2.40400 42.85200
Mg 40.82900 8.79700 29.51100
C  42.89900 9.85300 31.97500
C  38.73400 7.23600 31.75200
C  39.00500 7.47500 26.91400
C  43.43900 9.47000 27.23700
N  40.75900 8.64500 31.61200
C  41.69600 9.25600 32.40200
C  41.09400 9.32100 33.81400
C  40.01900 8.15000 33.88200
C  39.85300 7.93900 32.30500
C  40.67800 6.90900 34.56000
C  40.56500 10.70600 34.23600
C  40.09300 10.89200 35.63100
H  40.67300 11.95800 36.55700
N  39.10600 7.49600 29.35000
C  38.37500 7.02900 30.39600
C  37.34800 6.20000 29.86800
C  37.29500 6.48800 28.50100
C  38.47800 7.21600 28.19900
C  36.35300 5.39900 30.72900
C  36.10800 6.30200 27.54300
O  36.13800 6.64900 26.33400
C  34.79500 5.75100 28.05000
N  41.29400 8.35600 27.43000
C  40.24100 7.99800 26.55600
C  40.74600 8.04700 25.07200
C  42.17000 8.56300 25.15500
C  42.35800 8.86200 26.66900
C  40.71500 6.67900 24.29700
C  42.53400 9.73700 24.18100
C  41.84800 11.08700 24.49800
N  42.64600 9.61400 29.51400
C  43.56500 9.89800 28.57300
C  44.71200 10.61900 29.11700
C  44.42000 10.65400 30.43400
C  43.23100 10.05400 30.69000
C  45.96400 11.07500 28.35100
C  44.90600 11.09600 31.66200
O  45.90900 11.73100 31.97900
C  43.86500 10.62600 32.79400
C  44.63300 9.88300 33.85000
O  45.44400 9.05500 33.70300
O  44.18000 10.33500 35.04600
C  44.80200 9.61900 36.17600
H  38.04600 6.90900 32.53500
H  38.51700 7.17500 25.98400
H  44.26400 9.72900 26.57000
H  41.94700 9.04300 34.43200
H  39.08900 8.42300 34.38100
H  41.73900 7.09600 34.72600
H  40.57100 6.03500 33.91700
H  40.04800 6.66600 35.41600
H  39.68400 10.98700 33.65900
H  41.19900 11.54700 33.95500
H  40.26500 9.98400 36.20900
H  39.00300 10.89300 35.60700
H  36.62200 5.38200 31.78500
H  36.34200 4.37300 30.35900
H  35.34600 5.81300 30.76900
H  34.31400 6.33600 28.83500
H  34.95100 4.77900 28.51800
H  34.16600 5.66500 27.16400
H  40.05200 8.68800 24.52900
H  42.89100 7.79300 24.88000
H  40.10400 6.01200 24.90500
H  41.70100 6.23800 24.15400
H  40.22400 6.80000 23.33100
H  42.35700 9.48900 23.13400
H  43.61500 9.80700 24.30300
H  41.08500 11.48600 23.83000
H  42.68000 11.79200 24.49500
H  41.42900 10.94400 25.49400
H  45.73100 12.03600 27.89200
H  46.18900 10.35300 27.56600
H  46.85100 11.13100 28.98200
H  43.40000 11.55600 33.12000
H  45.82100 9.93200 36.40500
H  44.80400 8.53300 36.07900
H  44.21800 9.76500 37.08500

