158

Mg 17.64100 -1.20800 26.89100
C  16.63300 0.77100 29.59200
C  19.23700 -3.37900 29.07300
C  18.90300 -2.82900 24.24500
C  16.16100 1.06300 24.63300
N  17.90900 -1.23900 29.10600
C  17.31800 -0.37800 29.99900
C  17.65700 -0.70900 31.41400
C  18.51100 -2.07500 31.28600
C  18.52300 -2.30900 29.75400
C  19.93300 -2.07300 31.90500
C  16.43900 -0.98800 32.43000
C  16.66300 -0.50400 33.85100
H  18.00200 0.04100 34.32100
N  18.89300 -2.89700 26.65900
C  19.36900 -3.66600 27.69700
C  20.24600 -4.65700 27.05300
C  20.07100 -4.61700 25.63800
C  19.23700 -3.44200 25.45000
C  20.99600 -5.77200 27.90800
C  20.66400 -5.54000 24.60300
O  20.51200 -5.35600 23.38400
C  21.66600 -6.60700 25.02100
N  17.67200 -0.81600 24.77700
C  18.28200 -1.63700 23.96900
C  18.27000 -1.22700 22.52600
C  17.20200 -0.00900 22.59200
C  17.05200 0.11600 24.06700
C  19.63400 -0.84800 21.89400
C  15.87000 -0.14800 21.76300
C  14.86600 -1.11200 22.46700
N  16.66400 0.58700 27.09900
C  15.98400 1.30400 26.06100
C  15.05000 2.19700 26.71400
C  15.42900 2.10600 28.12100
C  16.37500 1.11400 28.27300
C  14.04400 3.06700 26.01500
C  15.11900 2.60600 29.34700
O  14.35600 3.54900 29.59400
C  15.91100 1.83800 30.41000
C  16.76300 2.80200 31.13700
O  17.79300 3.31700 30.73700
O  16.11200 3.15500 32.28300
C  16.73100 4.13300 33.23400
H  19.64300 -4.10200 29.78300
H  19.19800 -3.35900 23.33700
H  15.56600 1.56000 23.86300
H  18.23900 0.12200 31.81200
H  18.02900 -2.95700 31.70800
H  20.64800 -2.14100 31.08500
H  19.98400 -2.94400 32.55900
H  20.16300 -1.16300 32.45900
H  16.31800 -2.06700 32.52400
H  15.56700 -0.54400 31.94900
H  16.46100 -1.35100 34.50700
H  15.93700 0.28400 34.04900
H  20.21200 -6.51100 28.07000
H  21.10700 -5.25700 28.86200
H  22.01000 -5.97600 27.56300
H  21.10800 -7.27600 25.67600
H  22.53700 -6.07900 25.41100
H  21.88200 -7.18500 24.12200
H  17.87300 -2.00200 21.86900
H  17.74500 0.85900 22.21600
H  20.04600 -1.70800 21.36700
H  20.42800 -0.43800 22.51800
H  19.46300 -0.05000 21.17200
H  16.03600 -0.66000 20.81500
H  15.59900 0.90100 21.64000
H  15.35500 -1.63100 23.29100
H  14.49600 -1.90800 21.82000
H  13.92600 -0.61200 22.70100
H  13.25600 2.44700 25.58500
H  14.50000 3.75200 25.30100
H  13.55900 3.71300 26.74700
H  15.11300 1.32200 30.94500
H  16.11100 5.02900 33.24900
H  17.74700 4.43700 32.98500
H  16.75900 3.61100 34.19100
Mg 6.22500 54.00100 42.10000
C  5.29600 50.57100 41.68800
C  9.31200 53.27400 40.60600
C  6.78800 57.28500 41.75300
C  2.81800 54.63700 42.71200
N  7.08400 52.20800 41.22400
C  6.56500 50.92600 41.14600
C  7.58300 49.95900 40.45500
C  8.90800 50.73700 40.46100
C  8.42900 52.18600 40.78200
C  9.98400 50.17900 41.45200
C  7.21800 49.34300 39.04900
C  6.20800 50.21000 38.22200
H  6.48100 50.36400 36.70400
N  7.87400 55.15300 41.42100
C  9.09600 54.65000 40.92400
C  10.01900 55.73400 40.67900
C  9.32500 56.94100 41.13300
C  7.92900 56.54200 41.46800
C  11.36600 55.63500 40.06700
C  9.88700 58.34200 41.13300
O  11.11300 58.51600 40.95300
C  9.04100 59.52500 41.44900
N  4.96500 55.67700 41.94900
C  5.47900 56.93800 42.03500
C  4.39500 57.90700 42.52400
C  3.07300 57.08300 42.43800
C  3.65800 55.72600 42.40100
C  4.65500 58.43100 43.92900
C  2.21600 57.43200 41.19400
C  0.73100 57.81800 41.53200
N  4.39000 52.87100 42.34600
C  3.15100 53.28100 42.78000
C  2.30700 52.12000 42.99300
C  3.20300 51.04100 42.66600
C  4.35700 51.56800 42.17200
C  0.98700 52.06300 43.54600
C  3.33900 49.59900 42.66200
O  2.62700 48.73300 43.09500
C  4.71800 49.24900 42.00200
C  4.33600 48.42700 40.81200
O  3.67700 48.79800 39.85100
O  4.74900 47.16400 41.03200
C  4.30900 46.14200 40.06500
H  10.30000 53.04100 40.20300
H  6.95800 58.35400 41.89300
H  1.74900 54.77500 42.88700
H  7.69500 49.15700 41.18500
H  9.33000 50.84500 39.46200
H  9.57700 50.04300 42.45400
H  10.81100 50.88300 41.54600
H  10.30300 49.23100 41.01900
H  6.77300 48.35600 39.17700
H  8.11700 49.19600 38.45000
H  6.34100 51.25600 38.49800
H  5.22600 49.77900 38.41700
H  11.28500 55.28600 39.03700
H  11.91700 54.83500 40.56100
H  12.10300 56.43800 40.07800
H  8.26700 59.56600 40.68200
H  9.66400 60.40600 41.29700
H  8.61500 59.55700 42.45100
H  4.31800 58.79900 41.90200
H  2.55700 57.17800 43.39300
H  3.99200 57.99900 44.67900
H  4.52700 59.51000 44.01800
H  5.65700 58.10700 44.20900
H  2.05200 56.58600 40.52600
H  2.71100 58.16900 40.56200
H  0.47500 57.80800 42.59100
H  0.12700 57.09800 40.98100
H  0.47900 58.78100 41.08700
H  0.42200 51.20400 43.18400
H  0.44300 52.96800 43.27500
H  1.12700 52.00400 44.62500
H  5.27300 48.60700 42.68600
H  4.58300 45.21800 40.57300
H  4.89900 46.21400 39.15200
H  3.27200 46.21600 39.73700

