158

Mg 40.72800 8.28100 29.34000
C  42.53700 9.85600 32.25100
C  38.88700 6.76700 31.76400
C  39.37500 6.77100 26.94200
C  43.50700 9.38300 27.46800
N  40.83900 8.12800 31.78500
C  41.48500 8.97000 32.75800
C  40.93800 8.81600 34.21700
C  39.88200 7.69400 33.97100
C  39.88800 7.46800 32.42200
C  40.11300 6.47700 34.84700
C  40.31500 10.12600 34.57900
C  40.90000 10.97800 35.78600
H  41.39300 10.29300 37.10800
N  39.25900 7.00100 29.34700
C  38.57400 6.54200 30.39000
C  37.39700 5.89700 29.91500
C  37.46800 5.87100 28.50300
C  38.79500 6.54000 28.21600
C  36.39900 5.18100 30.82600
C  36.39300 5.40000 27.47700
O  36.73700 5.21700 26.31600
C  34.96800 5.13300 27.93500
N  41.57700 7.91600 27.52300
C  40.67300 7.29200 26.63500
C  41.22100 7.29200 25.14700
C  42.39600 8.28200 25.26600
C  42.55000 8.53800 26.84900
C  41.68400 5.88800 24.67600
C  42.19000 9.63000 24.47500
C  40.99100 10.46200 24.97000
N  42.63300 9.38300 29.72200
C  43.57500 9.77400 28.82700
C  44.54800 10.59200 29.43800
C  44.12100 10.71700 30.77000
C  42.96900 9.94100 30.90200
C  45.72400 11.26100 28.66300
C  44.59300 11.16900 32.08800
O  45.55200 11.81900 32.54900
C  43.55400 10.66900 33.02800
C  44.27000 9.82000 34.06000
O  44.34500 8.60200 33.97000
O  44.78400 10.59100 35.13500
C  45.41400 9.94300 36.28000
H  38.19000 6.43500 32.53700
H  38.84300 6.36900 26.07700
H  44.19300 9.91600 26.80600
H  41.73000 8.61800 34.93900
H  38.86100 7.97600 34.22600
H  39.19400 6.00700 35.19800
H  40.54800 6.80300 35.79200
H  40.77800 5.74800 34.38400
H  39.27400 9.93600 34.84000
H  40.39000 10.88200 33.79700
H  40.12700 11.65800 36.14200
H  41.71100 11.56600 35.35600
H  36.67200 5.40100 31.85800
H  36.47900 4.10800 30.65500
H  35.37600 5.55200 30.76500
H  34.50300 6.04900 28.29700
H  35.09400 4.43900 28.76600
H  34.42100 4.76300 27.06900
H  40.37200 7.61300 24.54400
H  43.31100 7.83900 24.87300
H  41.25000 5.67900 23.69800
H  41.11600 5.26300 25.36400
H  42.73400 5.62100 24.56100
H  41.83400 9.27400 23.50800
H  43.07800 10.26100 24.42600
H  41.28400 11.40200 25.43900
H  40.49200 10.00600 25.82400
H  40.27200 10.70300 24.18700
H  46.10200 12.16600 29.13900
H  45.26500 11.62300 27.74300
H  46.48800 10.51900 28.43000
H  43.01300 11.45600 33.55400
H  44.83300 9.76900 37.18500
H  46.26500 10.57300 36.53900
H  45.84300 8.97100 36.03700
Mg 9.04300 47.84300 24.85500
C  6.90200 47.70200 27.76200
C  11.38800 49.11600 26.88700
C  11.01000 47.80100 22.31800
C  6.20200 47.72200 22.90700
N  9.15900 48.36800 27.05400
C  8.20000 48.18600 28.05400
C  8.74400 48.83100 29.37100
C  9.90100 49.67200 28.86900
C  10.22200 49.11500 27.52900
C  9.57800 51.16600 28.76900
C  9.06600 47.79100 30.46200
C  9.17900 48.44200 31.88100
H  8.35100 47.74900 33.06100
N  10.95400 48.29300 24.65600
C  11.81700 48.69500 25.64900
C  13.17000 48.66600 25.16000
C  13.05200 48.14300 23.84300
C  11.62900 48.10700 23.55700
C  14.43600 49.04300 25.96700
C  14.14400 47.65900 22.82100
O  13.91500 47.15600 21.76000
C  15.53500 47.74000 23.20900
N  8.57100 47.97700 22.80100
C  9.63000 47.68200 21.99800
C  9.13000 47.56000 20.51300
C  7.61500 47.93300 20.70300
C  7.39500 47.76300 22.19600
C  9.96000 48.37600 19.42200
C  6.77100 47.06400 19.68200
C  6.44700 47.76900 18.33600
N  6.98900 47.73000 25.13500
C  5.99500 47.65000 24.27900
C  4.72000 47.34400 24.95800
C  5.03700 47.27500 26.32400
C  6.44500 47.57200 26.41700
C  3.35200 47.41700 24.30600
C  4.41000 47.12800 27.65700
O  3.29200 46.89300 28.08900
C  5.67100 47.54500 28.59900
C  5.83300 46.44500 29.55500
O  6.33100 45.39000 29.35100
O  5.11400 46.78600 30.65700
C  4.75900 45.73900 31.59900
H  12.20800 49.60700 27.41600
H  11.70000 47.71700 21.47600
H  5.36800 47.80300 22.20600
H  7.95100 49.50500 29.69400
H  10.77100 49.61000 29.52400
H  9.67600 51.52400 27.74400
H  10.17800 51.71900 29.49200
H  8.59900 51.46700 29.14300
H  9.99900 47.30400 30.18000
H  8.33900 46.98400 30.55700
H  9.05900 49.52400 31.83200
H  10.23900 48.31200 32.10100
H  14.12300 49.44800 26.92900
H  14.97800 49.86500 25.49800
H  15.16300 48.23600 26.05300
H  15.83700 46.84100 23.74700
H  15.84100 48.66700 23.69500
H  16.16700 47.70900 22.32200
H  9.26300 46.48900 20.35600
H  7.52200 49.00500 20.52900
H  10.65800 49.01600 19.96300
H  9.27700 48.94200 18.78800
H  10.60300 47.77800 18.77600
H  5.80800 46.81300 20.12800
H  7.15500 46.08100 19.41200
H  5.37000 47.93900 18.33000
H  6.60900 47.08400 17.50400
H  7.01900 48.69500 18.29400
H  2.57100 47.01500 24.95100
H  3.35000 46.89900 23.34700
H  3.10500 48.47100 24.17500
H  5.46600 48.45400 29.16300
H  5.63800 45.42300 32.16000
H  4.23600 44.88000 31.17800
H  4.05200 46.17200 32.30700

