158

Mg 49.81600 45.83200 41.56300
C  46.58400 46.00800 40.34300
C  49.97400 42.54300 40.73100
C  53.10700 45.80500 42.44400
C  49.66200 49.22700 42.11200
N  48.44200 44.48300 40.45100
C  47.13600 44.73800 40.16700
C  46.44900 43.38300 39.75700
C  47.40800 42.29800 40.34000
C  48.70000 43.16400 40.51800
C  47.03900 41.75900 41.72500
C  46.28800 43.24900 38.16800
C  44.83800 43.07500 37.66600
H  44.43400 43.88500 36.41800
N  51.41400 44.35100 41.56100
C  51.27600 43.07600 41.12100
C  52.55600 42.37600 41.14600
C  53.47600 43.35700 41.58700
C  52.65300 44.55400 41.90700
C  52.79500 40.88600 40.65900
C  54.96500 43.15300 41.68100
O  55.46300 42.12400 41.20600
C  55.88700 44.05800 42.33200
N  51.20300 47.31000 42.25700
C  52.52800 47.09300 42.61200
C  53.22600 48.35700 43.06300
C  52.05800 49.46600 42.89500
C  50.90600 48.57800 42.42000
C  53.72200 48.21800 44.55000
C  52.40400 50.61600 41.90000
C  52.02200 52.04500 42.43300
N  48.45000 47.37900 41.34700
C  48.50400 48.71100 41.60400
C  47.19600 49.34700 41.36800
C  46.38600 48.32700 40.86800
C  47.22100 47.18700 40.83300
C  46.73100 50.80400 41.66500
C  45.04600 47.96900 40.38700
O  43.99900 48.62600 40.31100
C  45.12400 46.37600 39.97800
C  44.03300 45.72200 40.75900
O  44.10200 45.14400 41.82800
O  42.84200 45.84700 40.08900
C  41.72100 45.14600 40.71600
H  49.94400 41.45400 40.66300
H  54.15400 45.80100 42.75400
H  49.65700 50.31600 42.19000
H  45.46100 43.40000 40.21700
H  47.51600 41.40700 39.72100
H  46.50600 40.82000 41.57400
H  46.54800 42.55300 42.28800
H  47.94300 41.53200 42.29000
H  46.85500 42.39600 37.79400
H  46.61900 44.16800 37.68400
H  44.08400 43.21800 38.44000
H  44.64600 42.03200 37.41500
H  53.43200 40.92300 39.77500
H  51.79500 40.51900 40.42900
H  53.25500 40.34200 41.48400
H  55.63900 44.23900 43.37800
H  55.78800 45.00300 41.79700
H  56.88200 43.61600 42.36600
H  54.04600 48.47100 42.35400
H  51.81800 49.95100 43.84100
H  54.29200 47.29100 44.62700
H  52.87500 48.15200 45.23200
H  54.38300 49.00800 44.90700
H  52.01900 50.51400 40.88500
H  53.48200 50.66100 41.74600
H  51.89500 52.77900 41.63700
H  52.82600 52.41100 43.07200
H  51.12900 51.97300 43.05300
H  46.13400 50.82100 42.57700
H  46.10000 51.25000 40.89500
H  47.62800 51.41800 41.58900
H  45.04000 46.31500 38.89300
H  41.63300 45.27700 41.79500
H  41.76100 44.08200 40.48400
H  40.79200 45.48200 40.25500
Mg 41.97600 40.60800 27.00400
C  41.28000 42.93400 29.32300
C  43.17300 38.40700 29.38900
C  42.17000 38.32300 24.57000
C  41.46200 43.03400 24.51300
N  42.13000 40.61000 29.10400
C  41.71600 41.68900 29.85900
C  41.85800 41.30800 31.35200
C  42.66500 39.93900 31.38300
C  42.73500 39.64000 29.87600
C  44.03100 39.92200 32.21800
C  40.50800 41.22200 32.10900
C  40.18000 42.15300 33.22800
H  39.74000 41.71500 34.61900
N  42.53900 38.62000 26.94700
C  42.98800 37.86600 28.05500
C  43.18600 36.51700 27.62100
C  42.92900 36.44500 26.26500
C  42.52100 37.82500 25.85800
C  43.62800 35.46100 28.52500
C  43.10500 35.26300 25.18300
O  42.81500 35.36700 23.95300
C  43.49500 33.90500 25.61600
N  41.98600 40.73000 24.79300
C  41.90200 39.62600 24.05200
C  41.55100 39.92500 22.60000
C  41.34700 41.39100 22.58400
C  41.63800 41.77200 24.01400
C  42.57500 39.38600 21.60400
C  40.02800 41.99500 21.96000
C  40.27600 43.11600 20.89800
N  41.52700 42.56700 26.87900
C  41.30300 43.41400 25.80900
C  40.96400 44.72800 26.30500
C  40.87200 44.58300 27.71700
C  41.27700 43.32600 27.99700
C  40.72500 45.95900 25.54500
C  40.49500 45.27600 28.95400
O  40.09200 46.42200 29.18000
C  40.83800 44.24300 30.04300
C  41.81400 44.71200 31.05700
O  42.99300 44.76800 30.89700
O  41.12600 45.24400 32.09400
C  41.80600 45.55500 33.35100
H  43.39600 37.76200 30.24200
H  42.12000 37.65500 23.70800
H  41.17300 43.68800 23.68700
H  42.40200 42.16000 31.75900
H  42.01000 39.15700 31.76700
H  43.74400 39.20400 32.98700
H  44.30400 40.86900 32.68500
H  44.86300 39.62400 31.57900
H  40.29000 40.19200 32.38800
H  39.83100 41.42800 31.28000
H  39.22000 42.54800 32.89400
H  40.82800 43.02800 33.27100
H  42.96000 34.61700 28.35300
H  43.65800 35.65900 29.59600
H  44.63500 35.17200 28.22500
H  42.70200 33.60300 26.30000
H  44.51100 33.87900 26.00800
H  43.43600 33.25900 24.74000
H  40.57500 39.49300 22.37900
H  42.12700 41.82800 21.96000
H  43.27600 38.71300 22.09900
H  43.08500 40.21900 21.11900
H  41.97000 38.89200 20.84400
H  39.42800 42.32900 22.80700
H  39.46100 41.22200 21.44300
H  39.94100 42.81800 19.90400
H  41.34100 43.32300 20.78800
H  39.53400 43.85700 21.19300
H  39.70000 45.92200 25.17600
H  41.47900 45.96800 24.75900
H  40.80500 46.87200 26.13600
H  39.92500 44.08000 30.61700
H  42.32900 46.51100 33.36800
H  42.45000 44.71800 33.62300
H  40.94000 45.53900 34.01200

