158

Mg 25.22300 0.38000 29.42700
C  27.10200 -0.33000 32.44500
C  22.41300 0.56100 31.32600
C  23.39200 0.38000 26.64000
C  28.12200 -0.40200 27.59100
N  24.87800 0.16500 31.66100
C  25.78100 0.00100 32.66700
C  25.11800 0.26800 34.04300
C  23.58000 0.39300 33.74300
C  23.60600 0.39100 32.15700
C  22.63600 -0.77000 34.35000
C  25.73800 1.46700 34.75800
C  26.54700 1.04200 36.01400
H  26.29700 1.89100 37.27100
N  23.15500 0.54200 29.08000
C  22.16100 0.61900 29.94900
C  20.88800 0.69200 29.27400
C  21.15100 0.62300 27.88200
C  22.67200 0.56200 27.82800
C  19.54300 0.66500 29.98500
C  20.21000 0.77000 26.77900
O  20.46600 0.64500 25.60500
C  18.79700 1.14400 27.12100
N  25.67000 -0.00400 27.45200
C  24.79000 0.16100 26.45200
C  25.45100 0.04200 25.04400
C  26.92600 0.05000 25.42800
C  26.87700 -0.10000 26.94800
C  24.89800 -1.24000 24.33700
C  27.76000 1.27700 24.87800
C  27.91900 2.47100 25.86000
N  27.26600 -0.12200 29.91400
C  28.30700 -0.44800 29.06400
C  29.47900 -0.90400 29.87300
C  29.08600 -0.77500 31.20200
C  27.72000 -0.31100 31.18200
C  30.91000 -1.20300 29.38300
C  29.47800 -1.02600 32.57400
O  30.57600 -1.43600 33.01300
C  28.30900 -0.61700 33.44000
C  28.08000 -1.77800 34.40700
O  27.14000 -2.58700 34.38900
O  28.96400 -1.60600 35.46500
C  28.80100 -2.51100 36.67500
H  21.57600 0.68100 32.01700
H  22.81800 0.58100 25.73300
H  28.96500 -0.61700 26.93100
H  25.15800 -0.60800 34.69100
H  23.37300 1.41400 34.06500
H  22.02000 -0.98400 33.47600
H  21.97200 -0.34700 35.10400
H  23.15700 -1.60600 34.81500
H  24.92200 2.09900 35.10900
H  26.38600 2.11300 34.16700
H  27.52500 1.43600 35.73800
H  26.59300 -0.03400 36.18200
H  18.96800 1.57000 29.79100
H  19.73100 0.54500 31.05200
H  19.01400 -0.21800 29.62600
H  18.16900 1.40000 26.26800
H  18.86400 2.02500 27.76000
H  18.35500 0.27600 27.60900
H  25.15900 0.98700 24.58500
H  27.34700 -0.89900 25.09700
H  24.24700 -1.74500 25.05100
H  25.68200 -1.95600 24.09000
H  24.32800 -0.84600 23.49600
H  27.34100 1.73800 23.98400
H  28.70800 0.91400 24.48100
H  27.38700 2.48400 26.81100
H  27.63700 3.40500 25.37300
H  29.00500 2.49900 25.94500
H  31.11300 -0.53600 28.54500
H  31.10100 -2.21600 29.02800
H  31.63000 -1.10700 30.19600
H  28.62500 0.20900 34.07700
H  28.15800 -2.00700 37.39500
H  29.72200 -2.75500 37.20500
H  28.26600 -3.41900 36.39500
Mg 46.74900 15.36000 27.93800
C  44.96100 15.22500 30.99400
C  48.84500 17.59500 29.52100
C  48.35600 15.69900 25.13300
C  44.33500 13.49400 26.55900
N  46.91700 16.17000 30.07700
C  46.15100 15.93400 31.16000
C  46.61900 16.65900 32.39200
C  47.65500 17.68600 31.86900
C  47.85400 17.17700 30.38600
C  47.30000 19.15900 31.87100
C  47.18900 15.60500 33.38800
C  47.12700 16.02600 34.85700
H  48.43100 15.88500 35.65500
N  48.44400 16.35800 27.46100
C  49.20900 17.14000 28.24500
C  50.34200 17.59100 27.47700
C  50.25200 17.05000 26.19600
C  48.93700 16.40300 26.23200
C  51.38000 18.61300 28.01800
C  51.19800 17.04700 25.01300
O  51.12800 16.23300 24.08500
C  52.37300 17.92200 25.01800
N  46.21300 14.91200 26.04500
C  47.19000 14.95900 25.08100
C  46.79500 14.09400 23.82200
C  45.70900 13.18800 24.41900
C  45.35200 13.87500 25.79800
C  46.50300 14.95400 22.53400
C  46.12400 11.70600 24.53800
C  46.01000 10.97000 23.22300
N  44.90200 14.62700 28.52200
C  43.97200 13.92500 27.80600
C  42.90400 13.60200 28.60800
C  43.19100 14.23300 29.84800
C  44.44600 14.77700 29.82600
C  41.74400 12.73000 28.30300
C  42.65100 14.37300 31.12800
O  41.56200 14.03100 31.61500
C  43.86800 15.01300 31.99600
C  43.18100 16.22000 32.66500
O  42.90800 17.23700 32.03600
O  42.94000 16.07100 34.02300
C  42.53700 17.26900 34.79200
H  49.56700 18.22800 30.04100
H  48.88100 15.82900 24.18500
H  43.67200 12.76300 26.09300
H  45.78400 17.17100 32.87000
H  48.61500 17.54500 32.36600
H  46.75500 19.45800 30.97600
H  48.21400 19.70300 32.11100
H  46.59100 19.32200 32.68200
H  48.20300 15.30500 33.12600
H  46.46900 14.80200 33.22800
H  46.35700 15.44400 35.36300
H  46.76000 17.04400 34.98700
H  52.42500 18.32200 27.90800
H  51.24900 18.78500 29.08600
H  51.13900 19.54600 27.50900
H  52.01600 18.94100 24.86800
H  52.89100 17.52300 24.14600
H  53.11000 17.89000 25.82100
H  47.65000 13.53800 23.43600
H  44.83000 13.25100 23.77800
H  46.94800 14.41800 21.69500
H  46.95600 15.93800 22.65600
H  45.44600 15.14500 22.35400
H  45.56500 11.16900 25.30500
H  47.17800 11.61400 24.80000
H  45.99700 11.69700 22.41000
H  45.02300 10.51100 23.15900
H  46.87300 10.31300 23.11600
H  41.44900 12.13900 29.17000
H  41.94500 12.00500 27.51400
H  40.84100 13.25900 28.00000
H  44.17400 14.30000 32.76200
H  42.61500 16.89500 35.81200
H  41.53500 17.67900 34.66200
H  43.33800 18.00800 34.81700

