158

Mg 41.05600 8.54400 28.92800
C  42.64300 10.01600 31.75500
C  38.79700 7.15600 31.03800
C  39.55500 7.09900 26.29500
C  43.59300 9.55800 26.89400
N  40.76800 8.63300 31.17500
C  41.47200 9.37800 32.10300
C  40.86400 9.19700 33.46200
C  39.62500 8.23500 33.23600
C  39.75400 7.97000 31.71500
C  39.42800 6.86400 34.06800
C  40.48300 10.61400 34.11300
C  39.69600 10.46700 35.40800
H  40.30800 11.35000 36.56300
N  39.31000 7.37400 28.72400
C  38.52400 6.94100 29.66200
C  37.38300 6.21300 29.13300
C  37.55400 6.16300 27.73400
C  38.82600 6.95200 27.48100
C  36.27000 5.87700 30.10500
C  36.60300 5.55200 26.75800
O  36.71000 5.83100 25.56600
C  35.43700 4.65200 27.15900
N  41.44700 8.44200 26.88200
C  40.73700 7.68900 26.03700
C  41.26500 7.70100 24.57800
C  42.53000 8.56100 24.74900
C  42.56700 8.84200 26.25400
C  41.60900 6.30900 23.97600
C  42.76100 9.71600 23.79100
C  42.27100 11.12300 24.26700
N  42.78000 9.52600 29.24000
C  43.73300 9.86500 28.27800
C  44.76400 10.59600 29.06300
C  44.37100 10.77700 30.38400
C  43.14500 10.01900 30.46100
C  46.00100 11.15600 28.53300
C  44.77600 11.29000 31.67800
O  45.71500 11.96200 32.04400
C  43.60100 10.79900 32.59800
C  44.13800 9.86400 33.65500
O  44.49200 8.77800 33.47400
O  44.31000 10.59800 34.83400
C  44.91500 9.78800 35.91900
H  38.03000 6.83000 31.74300
H  39.17700 6.59800 25.40100
H  44.40200 9.94700 26.27300
H  41.67500 8.68500 33.98100
H  38.72500 8.85000 33.21500
H  38.46900 6.96100 34.57600
H  40.25000 6.78300 34.77900
H  39.20600 6.00600 33.43300
H  39.82200 11.22100 33.49400
H  41.34500 11.21000 34.41200
H  39.59600 9.42300 35.70500
H  38.67400 10.83200 35.31100
H  35.45100 6.47800 29.71000
H  36.33500 6.21500 31.13900
H  35.98000 4.82700 30.15500
H  34.73800 5.30800 27.67800
H  35.66300 3.80100 27.80200
H  34.95500 4.23100 26.27700
H  40.60100 8.17000 23.85100
H  43.38200 7.88100 24.72700
H  41.49700 5.43700 24.62100
H  42.65300 6.31500 23.66300
H  40.94900 5.99400 23.16800
H  42.59400 9.41500 22.75700
H  43.85000 9.74200 23.73600
H  41.37700 10.98000 24.87400
H  42.03100 11.68200 23.36200
H  43.16800 11.45500 24.78900
H  46.31400 12.12500 28.92400
H  45.66300 11.46600 27.54400
H  46.84500 10.46800 28.56300
H  43.07500 11.57500 33.15400
H  44.14900 9.38100 36.57800
H  45.55500 10.44300 36.50900
H  45.53300 8.98400 35.51900
Mg 47.86000 35.39400 27.92200
C  45.99800 33.54800 30.24300
C  47.96700 38.03700 30.18500
C  49.10600 37.23900 25.43300
C  47.18900 32.79400 25.68300
N  47.00100 35.75400 29.91100
C  46.50000 34.74100 30.74200
C  46.59200 35.24600 32.22700
C  46.81600 36.75300 32.09900
C  47.26500 36.90400 30.66100
C  45.55800 37.66100 32.39500
C  47.71000 34.54300 33.01000
C  47.57600 34.46800 34.53100
H  46.47400 35.27800 35.21100
N  48.57400 37.27900 27.88100
C  48.46500 38.24700 28.92800
C  49.13600 39.43500 28.46800
C  49.54000 39.16600 27.12200
C  49.11700 37.83100 26.76200
C  49.43200 40.70000 29.32500
C  50.33700 40.08300 26.24200
O  50.76000 39.71500 25.13300
C  50.65500 41.49900 26.63300
N  48.01100 35.11300 25.84300
C  48.60500 35.96000 25.01700
C  48.89700 35.45700 23.63300
C  48.42400 33.99200 23.74100
C  47.82300 33.94600 25.18400
C  48.34000 36.27100 22.46900
C  49.48000 32.93100 23.38600
C  50.26500 32.37000 24.58400
N  46.83200 33.49400 27.91300
C  46.65500 32.59400 26.92200
C  45.79300 31.51500 27.38700
C  45.55400 31.83100 28.71100
C  46.16200 33.09000 28.96200
C  45.35300 30.29900 26.67000
C  44.85500 31.37900 29.88300
O  44.18000 30.36400 30.08200
C  45.00700 32.56200 30.88600
C  45.43500 32.01700 32.16600
O  46.44300 31.38200 32.43800
O  44.43500 32.25900 33.08900
C  44.36500 31.26700 34.13400
H  47.90100 38.90300 30.84700
H  49.58800 37.81700 24.64100
H  47.00900 32.01900 24.93500
H  45.64000 34.99200 32.69400
H  47.61800 37.12400 32.73700
H  45.48300 38.33200 31.53900
H  45.67100 38.18500 33.34400
H  44.67700 37.02300 32.32600
H  48.62400 35.09800 32.79800
H  47.85500 33.52700 32.64200
H  48.53700 34.79500 34.92700
H  47.49600 33.40700 34.76900
H  50.51800 40.75900 29.40700
H  49.02700 40.66500 30.33700
H  49.01200 41.57600 28.83000
H  49.80400 42.18100 26.65700
H  51.37900 41.82000 25.88400
H  51.23200 41.69400 27.53600
H  49.97800 35.51900 23.51600
H  47.63100 33.77700 23.02600
H  47.66400 37.05200 22.81500
H  47.80300 35.56800 21.83300
H  49.22900 36.60400 21.93300
H  50.15900 33.39900 22.67400
H  49.06700 32.12700 22.77800
H  51.22500 32.04500 24.18200
H  49.69800 31.61600 25.13000
H  50.38600 33.15500 25.33100
H  44.70500 29.74100 27.34600
H  46.24300 29.73900 26.38200
H  44.87700 30.57600 25.72900
H  44.05400 33.08900 30.86900
H  44.57100 31.81800 35.05200
H  44.92300 30.33100 34.15700
H  43.33700 30.91300 34.21000

