158

Mg 16.47900 52.63100 26.76000
C  18.05400 50.73000 29.35000
C  14.08000 53.60100 29.10800
C  14.82100 54.08200 24.27500
C  18.84800 51.28100 24.52000
N  16.12100 52.16300 29.01300
C  16.94500 51.48500 29.83500
C  16.57300 51.67700 31.33200
C  15.18700 52.36400 31.17300
C  15.11800 52.77300 29.62500
C  13.88700 51.49300 31.51700
C  17.68000 52.62600 32.03700
C  18.08500 52.12300 33.50700
H  17.21600 52.57600 34.73500
N  14.64900 53.69000 26.75000
C  13.82700 53.97500 27.74900
C  12.84100 55.02000 27.23800
C  13.06200 55.13700 25.81800
C  14.24000 54.28500 25.51600
C  11.81600 55.63300 28.21000
C  12.27700 56.01600 24.85300
O  12.53900 56.00000 23.65100
C  11.09800 56.84600 25.36500
N  16.81100 52.80800 24.66900
C  15.96400 53.37500 23.84400
C  16.47200 53.31900 22.37400
C  17.87500 52.64000 22.55400
C  17.83300 52.09500 24.01200
C  15.47600 52.57800 21.36500
C  19.13700 53.56900 22.33900
C  20.01300 53.37300 21.06400
N  18.13600 51.26100 26.82000
C  18.94900 50.81600 25.84700
C  19.88700 49.86700 26.38800
C  19.60900 49.84600 27.77800
C  18.50000 50.68500 27.96200
C  21.01100 49.11900 25.66000
C  20.01000 49.38400 29.10700
O  20.91200 48.61300 29.36300
C  19.07700 49.86900 30.17400
C  18.43100 48.82400 30.98600
O  17.50400 48.14900 30.57300
O  19.14700 48.54400 32.13500
C  18.64000 47.60400 33.05200
H  13.33900 53.82500 29.87900
H  14.20800 54.49600 23.47200
H  19.62700 50.94000 23.83400
H  16.35800 50.70800 31.78200
H  15.22500 53.30400 31.72400
H  13.14400 52.07900 32.05800
H  14.24400 50.66600 32.13100
H  13.55300 51.11600 30.55100
H  17.34600 53.66100 32.11000
H  18.64900 52.71000 31.54500
H  19.00900 52.63100 33.78300
H  18.10200 51.03500 33.43900
H  10.82300 55.20200 28.07900
H  11.71600 56.70500 28.03900
H  12.10300 55.43900 29.24400
H  10.46700 56.15800 25.92800
H  10.53300 57.22300 24.51300
H  11.55300 57.51800 26.09300
H  16.53100 54.36400 22.07000
H  17.80800 51.74600 21.93300
H  14.45800 52.50800 21.75000
H  15.96700 51.64000 21.11000
H  15.26800 53.13800 20.45300
H  19.66700 53.50200 23.28900
H  18.70200 54.56300 22.23600
H  19.61900 52.48800 20.56400
H  20.96100 53.05000 21.49600
H  19.92800 54.25300 20.42600
H  21.29500 48.21900 26.20500
H  21.81600 49.82200 25.44600
H  20.74000 48.78300 24.65900
H  19.45000 50.56100 30.93000
H  19.26200 46.70900 33.03600
H  17.65600 47.20600 32.80500
H  18.48800 48.15900 33.97800
Mg -5.28400 25.41700 25.83300
C  -3.80800 26.93300 28.62000
C  -6.88600 23.22700 28.12500
C  -6.60600 23.74800 23.25900
C  -3.49700 27.44100 23.78100
N  -5.50100 25.22400 28.08400
C  -4.70900 25.92700 28.97900
C  -5.01000 25.45100 30.42000
C  -5.84000 24.16300 30.23800
C  -6.16100 24.25400 28.73000
C  -5.10600 22.88400 30.60100
C  -5.71100 26.59800 31.22300
C  -6.50100 26.36000 32.53100
H  -6.19200 25.09600 33.34100
N  -6.59700 23.70700 25.70600
C  -7.14300 22.93400 26.76600
C  -7.99900 21.95000 26.19500
C  -8.01400 22.12500 24.76900
C  -7.11100 23.23900 24.49500
C  -8.61300 20.88600 27.06600
C  -8.82700 21.34000 23.75600
O  -8.84800 21.68600 22.59000
C  -9.52100 20.02700 24.17200
N  -5.04100 25.61900 23.75900
C  -5.68600 24.80100 22.88900
C  -5.41900 25.21800 21.47300
C  -4.42300 26.36600 21.63600
C  -4.31100 26.52500 23.14100
C  -4.77900 24.03500 20.66000
C  -4.92200 27.63500 20.96500
C  -4.32900 27.83900 19.58900
N  -3.86700 26.85400 26.06200
C  -3.24500 27.60700 25.14100
C  -2.36400 28.64500 25.76800
C  -2.50200 28.37300 27.09500
C  -3.43300 27.33100 27.25600
C  -1.59400 29.70000 24.98900
C  -2.09500 28.74700 28.42100
O  -1.33000 29.64000 28.74700
C  -2.77000 27.79500 29.43700
C  -1.82000 27.01800 30.33000
O  -1.12200 26.08400 29.91100
O  -1.94400 27.48000 31.59100
C  -1.23800 26.72000 32.60200
H  -7.37600 22.61600 28.88600
H  -7.12700 23.23700 22.44600
H  -2.84100 28.05900 23.16400
H  -4.05200 25.19600 30.87200
H  -6.77800 24.34900 30.76100
H  -5.86600 22.21200 30.99900
H  -4.28000 22.95200 31.30900
H  -4.62700 22.46100 29.71700
H  -6.37300 27.15400 30.55900
H  -4.91600 27.29500 31.48900
H  -7.56900 26.38400 32.31700
H  -6.46100 27.18500 33.24200
H  -8.53300 19.88900 26.63200
H  -9.67800 21.09500 27.17100
H  -8.18200 20.75400 28.05800
H  -8.89900 19.35700 24.76500
H  -9.76000 19.50900 23.24400
H  -10.47000 20.24500 24.66200
H  -6.35700 25.54500 21.02400
H  -3.44700 26.12900 21.21200
H  -5.53900 23.46000 20.13100
H  -4.11900 23.45700 21.30700
H  -4.11000 24.42200 19.89100
H  -4.77600 28.38000 21.74700
H  -5.98500 27.46700 20.78900
H  -3.63900 27.04600 19.30400
H  -3.64300 28.68500 19.56000
H  -5.03400 28.03200 18.77900
H  -2.05300 29.92100 24.02500
H  -0.53000 29.46300 25.00600
H  -1.66700 30.58800 25.61700
H  -3.30800 28.45900 30.11300
H  -0.18700 26.74500 32.31400
H  -1.53200 25.67100 32.63100
H  -1.15800 27.30000 33.52100

