158

Mg 34.74900 2.78400 29.11300
C  33.04200 3.87700 32.04100
C  37.61300 2.34200 31.02500
C  36.50200 2.03200 26.25900
C  31.95500 3.40200 27.24500
N  35.32000 3.22300 31.30400
C  34.40300 3.49500 32.36000
C  35.00700 3.42500 33.70000
C  36.49200 3.04500 33.36100
C  36.49100 2.84000 31.79100
C  37.57900 4.05100 33.77500
C  34.23600 2.48000 34.64600
C  34.30400 2.86600 36.13700
H  35.43800 3.67400 36.79700
N  36.71900 2.13400 28.72800
C  37.76100 2.06200 29.62600
C  39.02300 1.67000 28.95500
C  38.69600 1.47400 27.51400
C  37.23400 1.91000 27.47700
C  40.25700 1.43100 29.66000
C  39.56500 1.01300 26.30200
O  39.13000 0.84500 25.14200
C  41.04800 0.66300 26.51000
N  34.34300 2.86200 27.03400
C  35.17700 2.40100 26.00000
C  34.41100 2.26200 24.68700
C  32.92100 2.49400 25.14200
C  33.11400 2.93900 26.56600
C  34.92300 3.29500 23.58000
C  31.92100 1.37400 24.85800
C  30.94900 1.48700 23.65200
N  32.94500 3.60200 29.46700
C  31.87200 3.69800 28.64400
C  30.68200 4.08400 29.34500
C  31.11100 4.25800 30.70800
C  32.51200 3.93100 30.73300
C  29.36900 4.24600 28.71500
C  30.67800 4.59200 32.06800
O  29.63200 4.85600 32.53500
C  31.92100 4.36300 32.93400
C  32.24500 5.63700 33.66400
O  32.87100 6.56400 33.22400
O  31.59200 5.50000 34.91800
C  31.79500 6.59600 35.84200
H  38.54200 2.24300 31.59100
H  37.06900 1.65400 25.40600
H  31.01700 3.45700 26.68900
H  34.77900 4.44600 34.00800
H  36.75000 2.08500 33.80800
H  38.32900 3.48700 34.32900
H  37.21900 4.87900 34.38600
H  38.04000 4.60400 32.95700
H  34.82500 1.56600 34.57900
H  33.21100 2.34000 34.30300
H  34.14100 1.88400 36.58100
H  33.40400 3.43500 36.36800
H  41.13800 1.44900 29.01800
H  40.30100 0.51400 30.24800
H  40.36800 2.24000 30.38200
H  41.51100 1.58900 26.85100
H  41.53100 0.23400 25.63200
H  41.03300 -0.07100 27.31600
H  34.60500 1.27600 24.26400
H  32.55000 3.41100 24.68400
H  35.54900 2.72200 22.89600
H  35.71000 3.91900 24.00200
H  34.04100 3.78000 23.16100
H  31.31000 1.15900 25.73500
H  32.51800 0.50900 24.56900
H  31.01100 0.52600 23.14200
H  31.37500 2.24600 22.99600
H  29.89600 1.76200 23.70700
H  29.53000 4.47600 27.66200
H  28.88500 5.15500 29.07200
H  28.70100 3.38900 28.80300
H  31.68400 3.49900 33.55500
H  32.50300 6.34800 36.63300
H  30.83300 6.82900 36.29700
H  31.97700 7.55000 35.34700
Mg -2.09200 34.31700 26.63000
C  -3.98800 32.50800 28.88500
C  -0.94000 36.25300 29.26000
C  -0.56500 36.41700 24.42400
C  -3.57300 32.56600 23.98200
N  -2.61600 34.52200 28.73900
C  -3.25800 33.55300 29.45600
C  -3.12100 33.84000 30.97800
C  -2.36800 35.18600 31.04800
C  -1.95400 35.37700 29.58100
C  -3.16900 36.40700 31.46800
C  -2.21800 32.69900 31.61000
C  -2.93800 31.68700 32.65100
H  -2.45400 31.80900 34.17300
N  -0.89900 36.11000 26.83400
C  -0.39700 36.63200 28.03300
C  0.37700 37.76500 27.67500
C  0.31100 38.04100 26.28900
C  -0.40300 36.81600 25.77600
C  0.97600 38.69600 28.60400
C  0.90400 39.14500 25.42400
O  0.59500 39.22900 24.21900
C  1.81900 40.26500 25.95900
N  -2.29400 34.61100 24.41700
C  -1.37800 35.44500 23.80000
C  -1.49800 35.18700 22.26400
C  -2.36300 33.86800 22.16500
C  -2.75600 33.62300 23.59000
C  -2.02000 36.48800 21.49700
C  -1.69000 32.65000 21.61100
C  -0.51200 32.12300 22.40300
N  -3.50200 32.88700 26.42500
C  -3.95600 32.20600 25.28800
C  -4.77600 31.11800 25.67100
C  -4.84000 31.23800 27.08100
C  -4.03800 32.28300 27.48200
C  -5.45000 30.09000 24.82600
C  -5.42400 30.65900 28.26500
O  -6.30400 29.75100 28.46800
C  -4.72000 31.38100 29.50800
C  -5.86400 31.75700 30.47000
O  -6.41600 32.85700 30.47400
O  -5.91400 30.91100 31.48400
C  -6.97700 31.10700 32.48900
H  -0.47800 36.79000 30.09100
H  -0.01700 37.00100 23.68200
H  -4.04600 32.01500 23.16700
H  -4.11800 33.85300 31.41900
H  -1.55000 35.11600 31.76500
H  -3.03300 36.62900 32.52600
H  -4.19000 36.45200 31.08800
H  -2.61100 37.20800 30.98300
H  -1.39500 33.13800 32.17500
H  -1.75000 32.12500 30.81000
H  -2.87600 30.65100 32.31700
H  -4.00600 31.89900 32.61800
H  2.05300 38.79900 28.47200
H  0.90600 38.28600 29.61200
H  0.28000 39.52900 28.50500
H  1.07800 40.93500 26.39600
H  2.32700 40.75700 25.13000
H  2.58200 39.94700 26.66900
H  -0.58600 35.10000 21.67400
H  -3.20300 33.93900 21.47400
H  -1.25900 37.11500 21.03300
H  -2.45400 37.08400 22.29900
H  -2.76200 36.21500 20.74600
H  -1.21100 32.92200 20.67000
H  -2.46100 31.89400 21.46500
H  0.35600 31.93000 21.77200
H  -0.80400 31.17800 22.86000
H  -0.07500 32.75900 23.17300
H  -4.71400 29.75100 24.09700
H  -6.25300 30.49300 24.20900
H  -5.83200 29.28500 25.45400
H  -4.09800 30.68700 30.07300
H  -7.78000 31.74000 32.11100
H  -6.46400 31.62900 33.29700
H  -7.30400 30.10400 32.76100

