158

Mg 17.80400 -2.04200 28.04700
C  16.93600 -0.08500 30.83200
C  19.97600 -3.77300 29.94100
C  19.25900 -3.09700 25.25000
C  15.81200 0.26000 26.26800
N  18.31600 -1.87600 30.13400
C  17.87800 -1.06400 31.15600
C  18.31500 -1.54800 32.50500
C  19.36700 -2.62300 32.13700
C  19.19500 -2.87600 30.66200
C  20.84600 -2.33900 32.60200
C  17.00600 -2.10100 33.33300
C  17.06900 -1.71600 34.87200
H  18.49200 -1.92200 35.44000
N  19.29400 -3.44000 27.64200
C  20.03400 -4.04600 28.54000
C  20.75700 -5.08800 27.89900
C  20.52200 -5.05200 26.50100
C  19.70100 -3.79700 26.41400
C  21.63000 -6.11600 28.60500
C  20.89000 -5.97900 25.38400
O  20.60100 -5.68200 24.24900
C  21.76100 -7.16900 25.64400
N  17.56600 -1.51500 26.08500
C  18.35100 -2.00200 25.08100
C  17.87800 -1.45900 23.69200
C  16.70200 -0.53500 24.05100
C  16.68100 -0.63100 25.55400
C  18.95300 -0.64900 22.90600
C  15.35900 -0.92400 23.34700
C  14.56400 0.22200 22.79000
N  16.43800 -0.33500 28.42900
C  15.67700 0.44200 27.61700
C  14.87700 1.42900 28.33900
C  15.40300 1.35700 29.62800
C  16.27800 0.24900 29.62800
C  13.92500 2.37300 27.71100
C  15.36200 1.92000 30.97400
O  14.81400 2.90100 31.45900
C  16.44400 0.98000 31.78300
C  17.58000 1.90900 32.30500
O  18.62200 2.15500 31.79400
O  17.03500 2.49200 33.42700
C  17.88900 3.38900 34.15900
H  20.66200 -4.47400 30.42100
H  19.78300 -3.46900 24.36700
H  15.24500 0.95000 25.63800
H  18.85400 -0.71900 32.96400
H  19.16800 -3.54400 32.68500
H  20.86700 -1.86600 33.58400
H  21.44900 -1.76600 31.89900
H  21.41900 -3.24700 32.79100
H  16.88500 -3.14800 33.05300
H  16.14800 -1.56900 32.92400
H  16.41500 -2.33500 35.48600
H  16.71300 -0.70400 35.06500
H  22.53200 -6.41200 28.07000
H  21.07000 -7.04100 28.74700
H  21.98500 -5.67900 29.53800
H  22.71800 -6.85100 26.05800
H  21.83200 -7.57700 24.63600
H  21.28900 -7.87000 26.33100
H  17.53700 -2.32800 23.12900
H  16.82600 0.49600 23.71700
H  19.90100 -0.82600 23.41600
H  18.76000 0.41800 22.79900
H  19.07100 -1.13900 21.94000
H  14.73900 -1.31100 24.15600
H  15.50400 -1.75100 22.65100
H  14.96500 1.18900 23.09300
H  13.56000 0.24700 23.21300
H  14.40200 0.08100 21.72100
H  14.49200 3.26900 27.45500
H  13.12300 2.54400 28.42800
H  13.59900 1.85700 26.80700
H  15.86900 0.57500 32.61600
H  18.92600 3.35800 33.82400
H  17.80500 3.08300 35.20200
H  17.30400 4.28100 33.93500
Mg 48.56100 35.02900 28.09900
C  46.49900 33.72500 30.71200
C  48.39700 38.05300 29.87600
C  49.85000 36.43500 25.40300
C  47.70400 32.16100 26.29100
N  47.49600 35.73900 30.01500
C  46.94300 34.96400 30.97800
C  46.92400 35.64100 32.35000
C  46.95100 37.11100 31.88100
C  47.71300 36.98000 30.55200
C  45.57200 37.84900 32.02600
C  48.21600 35.19700 33.18300
C  47.96500 34.87400 34.65600
H  47.50500 36.00000 35.60300
N  49.13800 37.00400 27.68500
C  49.00800 38.07600 28.59100
C  49.77600 39.10200 28.08500
C  50.15200 38.76900 26.73600
C  49.69600 37.38100 26.49200
C  50.23200 40.38700 28.90800
C  50.97600 39.45400 25.60900
O  51.16100 38.87800 24.54400
C  51.29300 40.95400 25.75000
N  48.75500 34.41600 26.12800
C  49.51600 35.06600 25.24300
C  49.74400 34.22600 23.95600
C  49.04500 32.88000 24.25400
C  48.41300 33.14800 25.62300
C  49.44300 34.94500 22.66700
C  49.91600 31.67300 24.25500
C  51.05400 31.76900 25.33900
N  47.27100 33.26500 28.40700
C  47.08100 32.18800 27.57100
C  46.31200 31.25600 28.26000
C  45.99900 31.79200 29.54100
C  46.62500 33.06300 29.51400
C  45.89500 29.95600 27.67800
C  45.33200 31.57000 30.74400
O  44.72100 30.58800 31.09900
C  45.63800 32.85900 31.57400
C  46.11700 32.31600 32.85600
O  47.21200 31.86900 33.10000
O  45.06100 32.30400 33.77400
C  45.21300 31.30700 34.86100
H  48.33800 39.01700 30.38400
H  50.26100 36.88600 24.49700
H  47.50900 31.26600 25.69600
H  45.99500 35.44000 32.88400
H  47.54700 37.65000 32.61700
H  45.43200 38.52100 31.18000
H  45.45200 38.32200 33.00100
H  44.68300 37.23400 31.88600
H  49.04700 35.89200 33.06700
H  48.51700 34.24300 32.75100
H  48.82600 34.29800 34.99500
H  47.13800 34.17000 34.75500
H  49.98100 40.43300 29.96700
H  49.98300 41.31900 28.40000
H  51.31900 40.40900 28.82800
H  51.84400 41.17100 26.66500
H  50.30000 41.39500 25.84000
H  51.95200 41.28400 24.94700
H  50.82200 34.16400 23.80900
H  48.31300 32.70800 23.46500
H  49.16500 35.96200 22.94700
H  48.55400 34.54800 22.17900
H  50.29300 34.94000 21.98500
H  50.39900 31.57700 23.28300
H  49.41400 30.75400 24.55500
H  50.85100 32.46000 26.15800
H  52.01500 31.94400 24.85500
H  51.14400 30.83500 25.89300
H  46.68800 29.49600 27.08800
H  44.97700 30.19700 27.14000
H  45.79300 29.31300 28.55100
H  44.70800 33.40300 31.73900
H  45.43400 30.35500 34.38000
H  44.24600 31.27800 35.36300
H  45.96900 31.40600 35.64000

