158

Mg 54.22400 24.66100 45.18400
C  51.74000 26.80300 43.86900
C  52.37900 21.98000 44.28100
C  57.02100 22.80000 45.38300
C  56.09900 27.51200 45.91600
N  52.29600 24.51700 44.14800
C  51.39500 25.45500 43.77300
C  50.10500 24.83000 43.27500
C  50.25500 23.40800 43.83300
C  51.73100 23.23900 44.14100
C  49.29900 22.97700 45.10200
C  49.94400 24.90500 41.74500
C  48.53600 24.83300 41.11800
H  48.34200 24.61300 39.61100
N  54.70600 22.64000 44.73700
C  53.75400 21.71800 44.48300
C  54.39200 20.38600 44.44300
C  55.72000 20.55000 44.90500
C  55.91600 22.02100 45.00300
C  53.68900 19.16300 43.99500
C  56.75800 19.46600 45.24800
O  56.31800 18.32400 45.43400
C  58.13700 19.61700 45.56300
N  56.19800 25.09400 45.51900
C  57.19900 24.13200 45.63500
C  58.59700 24.73500 45.94000
C  58.27200 26.16500 46.26800
C  56.79600 26.30100 45.77600
C  59.45700 23.96500 46.99000
C  59.28500 27.23700 45.78500
C  59.35600 27.46000 44.21500
N  53.96200 26.81100 45.12500
C  54.77300 27.82300 45.54300
C  54.05800 29.13500 45.49100
C  52.86700 28.71500 44.85700
C  52.89500 27.32500 44.53900
C  54.48600 30.44400 45.96100
C  51.63200 29.24700 44.35400
O  51.12700 30.35900 44.40600
C  50.82400 27.98900 43.73100
C  50.39200 28.31900 42.41500
O  51.11500 28.47500 41.44400
O  49.03000 28.39600 42.41700
C  48.37900 28.89000 41.24600
H  51.71100 21.11700 44.23500
H  57.86100 22.11800 45.53100
H  56.62400 28.44600 46.12600
H  49.23000 25.26800 43.75600
H  50.01600 22.73600 43.01000
H  50.00700 23.05900 45.92600
H  48.86200 21.98300 45.00400
H  48.52100 23.72400 45.25700
H  50.39200 24.02000 41.29300
H  50.30000 25.84900 41.33100
H  48.20000 25.83800 41.37400
H  48.01100 24.03500 41.64400
H  54.22800 18.30500 43.59500
H  52.91700 19.35300 43.24900
H  53.02400 18.83800 44.79500
H  58.71300 18.70500 45.40300
H  58.19000 19.97800 46.59000
H  58.67500 20.22500 44.83500
H  59.03800 24.70900 44.94400
H  58.18600 26.25600 47.35100
H  60.36900 23.65900 46.47600
H  59.05800 23.03500 47.39400
H  59.80400 24.62800 47.78300
H  60.29900 26.87000 45.94200
H  59.26000 28.12700 46.41300
H  60.26000 27.03300 43.78100
H  59.39600 28.49500 43.87300
H  58.56500 26.94100 43.67400
H  54.83500 30.32300 46.98700
H  53.72100 31.21500 45.86900
H  55.33900 30.76600 45.36500
H  49.91400 27.86300 44.31800
H  48.20100 29.96100 41.34200
H  47.36300 28.55500 41.45500
H  48.70700 28.52700 40.27200
Mg 30.05500 57.09500 39.25400
C  27.53900 54.76900 38.51600
C  32.43000 54.72100 38.17400
C  32.35200 59.51900 39.18000
C  27.56700 59.50600 39.62500
N  29.92100 54.89000 38.59600
C  28.79600 54.18800 38.25700
C  29.25000 52.77000 37.81100
C  30.82700 52.71300 37.94600
C  31.11600 54.22000 38.19600
C  31.33600 51.84300 39.14000
C  28.79400 52.37100 36.39200
C  29.15900 53.46000 35.31400
H  28.05800 53.83700 34.29700
N  32.11400 57.13400 38.76500
C  32.85800 56.08500 38.41400
C  34.23700 56.55700 38.14700
C  34.30700 57.92400 38.55800
C  32.90600 58.24400 38.93500
C  35.28600 55.68300 37.51900
C  35.56100 58.78400 38.84100
O  36.66400 58.25800 38.60600
C  35.59000 60.17500 39.46500
N  29.99000 59.14400 39.61200
C  31.07500 59.94600 39.44000
C  30.71900 61.44700 39.71400
C  29.15800 61.33500 39.60500
C  28.88100 59.88100 39.72000
C  31.31600 61.92200 41.10000
C  28.74700 62.08600 38.25300
C  27.79700 63.22200 38.50600
N  27.90800 57.07600 39.34600
C  27.05900 58.18600 39.44400
C  25.68200 57.74800 39.34800
C  25.82400 56.39500 38.98100
C  27.16300 56.04300 38.95300
C  24.33300 58.52600 39.43200
C  25.12900 55.24800 38.60300
O  23.90400 55.05900 38.53000
C  26.20900 54.22100 38.21600
C  25.88900 52.96100 39.01300
O  26.18100 52.86400 40.20100
O  25.21700 52.01500 38.22800
C  24.64400 50.92700 38.99900
H  33.18200 54.00300 37.84000
H  33.11200 60.28900 39.02900
H  26.79600 60.27900 39.63900
H  28.76000 52.09900 38.51700
H  31.34600 52.43400 37.02900
H  32.34000 51.42000 39.13300
H  30.65600 50.99500 39.22400
H  31.12600 52.40000 40.05300
H  27.72800 52.15300 36.45700
H  29.27400 51.46400 36.02500
H  30.02800 53.16200 34.72700
H  29.39200 54.33300 35.92400
H  34.84900 55.06900 36.73200
H  35.74800 55.19400 38.37700
H  35.95500 56.37300 37.00300
H  36.57100 60.42900 39.86600
H  34.77500 60.10400 40.18500
H  35.29800 60.79900 38.62000
H  31.13500 62.06300 38.91700
H  28.66800 61.80700 40.45700
H  31.43600 63.00600 41.11200
H  32.25800 61.41600 41.31100
H  30.60500 61.71100 41.89900
H  28.26400 61.33600 37.62700
H  29.55700 62.27600 37.54800
H  26.72500 63.03300 38.43900
H  27.90000 63.89800 37.65700
H  28.08500 63.75500 39.41200
H  24.44000 59.40900 38.80200
H  24.25000 58.95000 40.43300
H  23.49200 57.99900 38.98300
H  26.14500 53.97400 37.15600
H  25.27400 50.03700 38.99800
H  23.67800 50.64000 38.58200
H  24.46900 51.29400 40.01100

