158

Mg 48.18100 23.96700 28.06200
C  49.09800 26.39600 30.60000
C  47.46300 21.88100 30.64200
C  47.57400 21.75200 25.78500
C  49.29300 26.28900 25.65300
N  48.29900 24.20600 30.41600
C  48.58900 25.24100 31.19400
C  48.47400 24.95300 32.69200
C  48.10000 23.39900 32.62500
C  47.93300 23.11600 31.16600
C  49.12700 22.42800 33.27000
C  47.43700 25.90900 33.39000
C  46.56800 25.47600 34.59100
H  46.54200 26.38100 35.82700
N  47.54500 22.01100 28.18000
C  47.30600 21.30000 29.32300
C  46.82900 20.01900 28.93400
C  46.74500 20.02700 27.52200
C  47.29100 21.27000 27.08600
C  46.47900 18.94900 29.94500
C  46.29700 19.01700 26.53100
O  46.39000 19.06700 25.32100
C  45.61200 17.80000 27.06300
N  48.68900 23.84500 26.08200
C  48.18600 22.85700 25.28900
C  48.35500 23.14300 23.78900
C  49.07300 24.52400 23.77100
C  48.98700 24.94100 25.27900
C  49.20500 22.03600 23.09200
C  48.37000 25.50300 22.83900
C  49.21600 25.59800 21.45800
N  48.90700 25.98600 28.05600
C  49.31100 26.80000 26.94600
C  49.67000 28.14100 27.44000
C  49.69400 27.96700 28.84600
C  49.14000 26.67000 29.19400
C  50.18200 29.23700 26.66600
C  50.00200 28.70100 30.04700
O  50.43600 29.78800 30.14700
C  49.49200 27.76200 31.19900
C  50.57200 27.77200 32.25000
O  51.67000 27.27900 32.18600
O  50.16200 28.68900 33.17900
C  50.86100 28.66500 34.46500
H  47.20500 21.18300 31.44200
H  47.30900 21.08900 24.95800
H  49.65800 26.86700 24.80200
H  49.48400 25.07600 33.08100
H  47.11600 23.19200 33.04500
H  49.57800 21.72800 32.56700
H  48.53100 21.82500 33.95500
H  49.80300 23.04500 33.86100
H  46.83600 26.49100 32.69300
H  47.93500 26.78600 33.80300
H  46.91700 24.55200 35.05200
H  45.53100 25.27900 34.31800
H  45.47200 18.55700 29.80800
H  46.59200 19.29800 30.97100
H  47.08600 18.05300 29.81800
H  46.23800 17.18600 27.71100
H  45.26000 17.07300 26.33100
H  44.79000 18.20400 27.65400
H  47.35800 23.04100 23.35900
H  50.10600 24.30500 23.50100
H  49.77300 21.40900 23.77900
H  49.87500 22.44200 22.33400
H  48.51000 21.36600 22.58500
H  48.35900 26.47900 23.32300
H  47.34900 25.17900 22.63500
H  48.66900 25.01300 20.71900
H  50.25700 25.28100 21.51100
H  49.22400 26.66300 21.22400
H  49.48900 30.06000 26.84400
H  50.27200 28.97500 25.61200
H  51.11600 29.50000 27.16300
H  48.66800 28.32600 31.63800
H  51.90900 28.36500 34.45800
H  50.23300 28.25400 35.25600
H  50.84600 29.73900 34.65000
Mg 7.21200 55.59300 40.57100
C  6.05600 52.25500 40.27400
C  10.39000 54.46800 39.78000
C  8.28600 58.86400 40.25100
C  3.95300 56.59600 40.96200
N  8.01700 53.58800 39.83200
C  7.38000 52.34800 39.96300
C  8.43100 51.27700 39.67900
C  9.80000 52.03100 39.81600
C  9.40500 53.47400 39.77200
C  10.66100 51.64000 41.02400
C  8.32200 50.62500 38.26500
C  7.89500 51.55900 37.07200
H  6.43400 51.44000 36.52100
N  9.05500 56.53400 40.07500
C  10.25000 55.89300 39.80100
C  11.27200 56.87600 39.50600
C  10.72000 58.12900 39.69400
C  9.32800 57.87000 40.13200
C  12.70500 56.54800 39.19200
C  11.46100 59.43500 39.50000
O  12.65700 59.49800 39.36000
C  10.76800 60.72500 39.64700
N  6.17600 57.43900 40.46700
C  6.88400 58.61700 40.48100
C  5.83000 59.76800 40.53600
C  4.44700 59.06500 40.94900
C  4.87200 57.59400 40.84300
C  6.17300 60.93200 41.52000
C  3.29200 59.54600 40.03900
C  2.08300 60.15700 40.80000
N  5.41600 54.63000 40.62300
C  4.19900 55.22500 40.90700
C  3.19200 54.20800 41.12400
C  3.91400 52.99300 40.92200
C  5.22800 53.33700 40.63600
C  1.67200 54.33700 41.35200
C  3.91200 51.54000 40.92100
O  2.96000 50.86100 41.18200
C  5.30000 51.00400 40.45300
C  5.11300 50.09100 39.33000
O  4.41900 50.42400 38.38500
O  5.59500 48.79400 39.54500
C  5.33000 47.81500 38.53700
H  11.40300 54.06000 39.75400
H  8.53000 59.91800 40.10300
H  2.90400 56.82300 41.16100
H  8.40900 50.48800 40.43100
H  10.46300 51.69600 39.01800
H  11.55300 51.12000 40.67500
H  10.11500 51.02100 41.73600
H  11.03900 52.49900 41.57800
H  7.64100 49.77500 38.31500
H  9.30900 50.27200 37.96600
H  8.49900 51.29600 36.20300
H  8.05700 52.62400 37.24200
H  12.83100 55.48800 38.97000
H  13.33900 56.91900 39.99800
H  12.94600 57.08200 38.27300
H  11.50000 61.51200 39.46400
H  10.34700 60.74100 40.65200
H  10.02500 60.61700 38.85700
H  5.82100 60.01800 39.47500
H  4.27000 59.19500 42.01700
H  6.44600 61.87000 41.03500
H  7.05500 60.61200 42.07400
H  5.32300 61.13800 42.17000
H  3.10600 58.71700 39.35600
H  3.60300 60.36300 39.38700
H  1.38900 59.32300 40.69800
H  1.73500 61.08700 40.35000
H  2.18500 60.23200 41.88200
H  1.15100 53.49700 41.81100
H  1.10400 54.44200 40.42800
H  1.40000 55.22600 41.92100
H  5.60300 50.45200 41.34200
H  6.05100 46.99800 38.49900
H  5.12600 48.16000 37.52300
H  4.37400 47.41500 38.87600

