158

Mg 35.29900 48.32400 25.82200
C  35.83400 46.45600 28.70600
C  34.06900 50.81000 27.76000
C  34.67800 49.99300 23.00800
C  36.25100 45.39800 23.90800
N  34.87400 48.50900 27.99200
C  35.38000 47.74800 29.01200
C  35.15400 48.38800 30.42000
C  34.29900 49.59000 30.05800
C  34.45300 49.65100 28.48400
C  32.85800 49.54100 30.62200
C  36.47800 48.63100 31.10200
C  36.41100 48.46700 32.69400
H  35.06200 48.59100 33.37000
N  34.62100 50.24500 25.44500
C  34.15100 51.13000 26.32400
C  33.94700 52.37000 25.68900
C  34.07300 52.13900 24.28200
C  34.38100 50.70800 24.19400
C  33.72100 53.62200 26.45000
C  33.90200 53.14900 23.09400
O  33.97000 52.82700 21.90400
C  33.59600 54.57000 23.40400
N  35.39200 47.75100 23.85700
C  35.16400 48.68300 22.82700
C  35.16000 48.01500 21.44600
C  35.99200 46.71900 21.77600
C  35.81300 46.57000 23.26500
C  33.75800 47.70700 20.84500
C  37.52000 46.89300 21.42700
C  38.08700 45.72400 20.62400
N  35.88200 46.33000 26.20900
C  36.30300 45.30400 25.33300
C  36.79200 44.23400 26.13800
C  36.62300 44.56300 27.47200
C  36.02300 45.87600 27.47200
C  37.40300 42.93800 25.69700
C  36.84100 44.14000 28.83500
O  37.20100 43.05800 29.28800
C  36.28500 45.30300 29.72200
C  35.26600 44.75700 30.60000
O  34.06800 44.75300 30.31100
O  35.72200 44.57100 31.84400
C  34.80200 44.42500 32.95500
H  33.67700 51.62200 28.37700
H  34.35100 50.49400 22.09400
H  36.80000 44.60600 23.39500
H  34.59800 47.67800 31.03100
H  34.67500 50.53100 30.46000
H  32.04800 49.45600 29.89800
H  32.57500 50.43500 31.17800
H  32.74800 48.73300 31.34600
H  36.89200 49.53500 30.65400
H  37.13200 47.84600 30.72400
H  36.96400 49.29000 33.14700
H  36.84600 47.51400 32.99200
H  34.48600 54.31400 26.09800
H  33.81300 53.42700 27.51800
H  32.76200 54.05600 26.17000
H  33.62900 55.21400 22.52600
H  34.32500 54.88200 24.15200
H  32.57900 54.45000 23.78000
H  35.64400 48.68000 20.73000
H  35.53700 45.81800 21.36500
H  33.72000 46.61900 20.80500
H  33.53400 48.15600 19.87700
H  32.93600 48.02000 21.48800
H  38.09100 46.85900 22.35500
H  37.64600 47.90100 21.03200
H  37.59100 45.71800 19.65300
H  37.81800 44.75800 21.05000
H  39.14400 45.97400 20.52800
H  36.71100 42.09600 25.69300
H  38.30500 42.67600 26.25000
H  37.73800 43.03800 24.66500
H  37.13300 45.55000 30.36100
H  35.24800 45.08000 33.70400
H  34.91700 43.39000 33.27500
H  33.73800 44.63200 32.83900
Mg 5.87100 54.07000 42.04300
C  4.87700 50.63100 41.85600
C  8.87500 53.12200 40.76700
C  6.41900 57.22200 41.31600
C  2.43600 54.73900 42.92200
N  6.69100 52.11900 41.35000
C  6.15200 50.85200 41.34400
C  7.14800 49.77800 40.83400
C  8.51700 50.49300 41.10100
C  8.03700 52.00800 41.07700
C  9.30000 50.18500 42.37700
C  7.02500 49.40500 39.32600
C  6.11300 50.25200 38.32500
H  6.80400 51.04600 37.27300
N  7.50700 55.06100 41.15600
C  8.68600 54.52000 40.82300
C  9.62900 55.60000 40.49500
C  8.93600 56.80100 40.76800
C  7.56000 56.42400 41.09900
C  11.07500 55.47000 39.87100
C  9.52000 58.22800 40.74100
O  10.75100 58.40800 40.51800
C  8.71500 59.45300 41.04500
N  4.58700 55.70100 41.90300
C  5.13400 56.95800 41.79700
C  4.12200 58.05400 42.16600
C  2.86900 57.18800 42.54400
C  3.38500 55.74400 42.60900
C  4.59000 59.03900 43.33200
C  1.62400 57.34200 41.54800
C  0.20800 57.55100 42.14900
N  3.96500 52.92600 42.38200
C  2.71200 53.36700 42.69100
C  1.91100 52.21500 43.05600
C  2.67600 51.10300 42.62300
C  3.93900 51.63000 42.23200
C  0.57100 52.03800 43.69800
C  2.65200 49.67800 42.49800
O  1.74200 48.88800 42.58200
C  4.10500 49.29800 42.03200
C  4.13500 48.38000 40.89200
O  3.70800 48.56000 39.78800
O  4.74000 47.21000 41.24600
C  4.58000 46.08800 40.27800
H  9.93700 52.87100 40.78700
H  6.57500 58.25400 40.99400
H  1.43600 54.92000 43.32200
H  7.04700 48.85200 41.40000
H  9.21500 50.27200 40.29300
H  9.03100 49.29900 42.95100
H  9.19400 51.04100 43.04400
H  10.35600 50.34000 42.15400
H  6.60100 48.40100 39.30100
H  8.01900 49.30500 38.89100
H  5.53500 50.98700 38.88500
H  5.37600 49.52000 37.99400
H  11.13000 54.69500 39.10700
H  11.66000 55.07200 40.70000
H  11.50900 56.41800 39.55300
H  9.43300 60.26900 41.11300
H  8.22800 59.31200 42.01000
H  7.92500 59.57900 40.30400
H  3.90300 58.75100 41.35700
H  2.47900 57.54000 43.49900
H  4.14200 60.02400 43.20300
H  5.65400 59.24900 43.22500
H  4.20400 58.62300 44.26300
H  1.51700 56.39500 41.01800
H  1.71300 58.08900 40.75900
H  -0.16200 58.52900 41.84400
H  0.03900 57.58600 43.22500
H  -0.48700 56.82600 41.72600
H  0.01200 52.97000 43.77900
H  0.66800 51.52600 44.65500
H  -0.06600 51.31600 43.18600
H  4.55700 48.77100 42.87200
H  5.16300 46.25700 39.37200
H  3.58500 45.98000 39.84600
H  4.89500 45.11600 40.65700

