158

Mg 48.90700 34.49200 27.15200
C  46.90400 33.42000 29.87500
C  49.69800 37.22700 29.12000
C  50.79000 35.73400 24.66800
C  47.70700 31.89700 25.27000
N  48.44200 35.14100 29.35700
C  47.74700 34.46100 30.25600
C  47.84000 35.14400 31.60500
C  48.39900 36.58000 31.25100
C  48.84600 36.39000 29.79200
C  47.42400 37.78400 31.24300
C  48.86300 34.41500 32.56300
C  48.50600 34.27300 34.05300
H  48.99700 35.48000 34.95800
N  50.10900 36.29100 26.86200
C  50.37100 37.21500 27.84400
C  51.22400 38.19900 27.22000
C  51.53800 37.84200 25.91000
C  50.83600 36.58600 25.74800
C  51.71500 39.41100 27.88500
C  52.40400 38.57900 24.83100
O  52.63600 38.07900 23.75600
C  53.06000 39.87400 25.12200
N  49.06900 33.97200 25.14100
C  49.97500 34.59000 24.33600
C  50.14900 33.79200 22.99200
C  49.27800 32.48600 23.24200
C  48.58400 32.77900 24.60900
C  49.77500 34.66200 21.77700
C  50.14200 31.17400 23.18800
C  50.46100 30.65200 21.71000
N  47.52800 33.01300 27.40800
C  47.12200 31.99700 26.55800
C  46.15700 31.12600 27.26000
C  45.93500 31.73300 28.48600
C  46.87100 32.80700 28.59600
C  45.58400 29.82500 26.58500
C  45.21000 31.62300 29.79600
O  44.43800 30.82300 30.29900
C  45.76000 32.75700 30.70600
C  46.33300 32.04600 31.86800
O  47.22600 31.23100 31.79300
O  45.76600 32.40500 33.02500
C  46.25200 31.60400 34.14400
H  50.02800 38.06800 29.73400
H  51.53500 35.96100 23.90300
H  47.48300 31.04400 24.62600
H  46.91800 35.25300 32.17500
H  49.32000 36.81700 31.78500
H  46.98800 37.95700 30.26000
H  47.97300 38.69300 31.49000
H  46.68900 37.58700 32.02300
H  49.90200 34.72200 32.44600
H  48.82600 33.37100 32.25000
H  49.00200 33.37900 34.43200
H  47.42600 34.14800 33.98000
H  51.39000 40.29900 27.34200
H  52.80400 39.37300 27.91100
H  51.36600 39.53600 28.91000
H  53.78900 39.74100 25.92300
H  52.36000 40.68400 25.32300
H  53.52600 40.27500 24.22300
H  51.19400 33.50800 22.87300
H  48.50200 32.25000 22.51400
H  48.78500 34.36900 21.42800
H  50.47800 34.39800 20.98700
H  49.92700 35.74000 21.83700
H  49.83500 30.40600 23.89800
H  51.13600 31.54700 23.43600
H  49.74900 31.10500 21.02200
H  50.42700 29.56400 21.77100
H  51.49500 30.88500 21.45500
H  46.39000 29.15400 26.29100
H  44.98400 30.10900 25.72100
H  44.99600 29.26100 27.30900
H  44.89500 33.36000 30.98100
H  47.30000 31.78900 34.37700
H  46.02900 30.54300 34.02800
H  45.69100 31.96700 35.00500
Mg -1.95500 34.31100 27.74300
C  -3.83400 32.42800 29.91800
C  -0.47200 35.91900 30.48400
C  -0.51400 36.44900 25.57200
C  -3.77100 32.88300 25.05200
N  -2.20000 34.23100 29.94800
C  -3.03900 33.33200 30.62600
C  -2.65500 33.23300 32.09600
C  -1.73900 34.45700 32.25700
C  -1.39900 34.88400 30.82800
C  -2.22600 35.67200 33.12400
C  -2.06400 31.86100 32.52200
C  -2.54700 31.27300 33.89000
H  -1.88200 31.84300 35.21900
N  -0.54600 35.83600 27.94900
C  -0.06500 36.38200 29.13000
C  0.90100 37.37300 28.76500
C  0.88000 37.51900 27.34000
C  -0.10500 36.56700 26.88300
C  1.72500 38.19800 29.76700
C  1.80400 38.44300 26.44700
O  1.79300 38.47300 25.20800
C  2.92200 39.18800 27.07400
N  -2.15800 34.57500 25.53800
C  -1.35800 35.52200 24.96900
C  -1.60500 35.53800 23.50800
C  -2.58000 34.31100 23.30700
C  -2.81600 33.82800 24.69300
C  -2.20100 36.81600 22.83400
C  -2.09800 33.20800 22.25900
C  -3.11900 32.85700 21.16200
N  -3.43600 32.96300 27.43800
C  -4.00300 32.42400 26.32200
C  -5.06100 31.45800 26.73400
C  -4.90500 31.39900 28.06400
C  -3.98000 32.33100 28.50300
C  -5.89200 30.60300 25.82200
C  -5.43700 30.64200 29.22800
O  -6.23300 29.69500 29.19100
C  -4.77200 31.35100 30.51200
C  -5.96700 31.82500 31.27800
O  -6.86200 32.40100 30.74800
O  -5.94500 31.47300 32.56500
C  -6.94300 31.93500 33.53600
H  0.00400 36.39600 31.34400
H  -0.08800 37.23400 24.94400
H  -4.38800 32.49700 24.23800
H  -3.56800 33.39600 32.66900
H  -0.70600 34.35300 32.58800
H  -1.76600 35.55400 34.10500
H  -3.31200 35.65200 33.21500
H  -1.92700 36.63000 32.69900
H  -0.99400 32.06600 32.54100
H  -2.23700 31.05100 31.81300
H  -2.56700 30.19200 33.74700
H  -3.58800 31.54800 34.05800
H  1.46100 38.13600 30.82300
H  1.64500 39.23900 29.45400
H  2.78900 37.98400 29.66200
H  2.51500 39.98400 27.69800
H  3.42300 39.79100 26.31700
H  3.53300 38.49500 27.65100
H  -0.62900 35.32600 23.07000
H  -3.57000 34.60300 22.95800
H  -2.69600 37.50600 23.51700
H  -3.03900 36.45400 22.23800
H  -1.48200 37.21400 22.11700
H  -1.79000 32.30200 22.78100
H  -1.24500 33.57500 21.68900
H  -3.18100 31.78000 21.00300
H  -2.79700 33.48300 20.33000
H  -4.09300 33.28400 21.40200
H  -5.14700 30.04300 25.25700
H  -6.45100 31.25200 25.14800
H  -6.51900 29.96100 26.44100
H  -4.22900 30.63500 31.12800
H  -6.54000 32.61900 34.28300
H  -7.16200 31.01800 34.08300
H  -7.83600 32.26300 33.00400

