158

Mg -1.43000 17.81700 27.40900
C  -1.99800 15.85000 30.04700
C  -2.41800 20.48000 29.28700
C  -1.01000 19.74600 24.66700
C  -1.23700 14.99200 25.38800
N  -2.20100 18.14200 29.42300
C  -2.33100 17.17800 30.37900
C  -2.69700 17.75100 31.80900
C  -3.11600 19.22800 31.39600
C  -2.54100 19.29100 29.95300
C  -4.68300 19.47200 31.37400
C  -1.51300 17.63500 32.79500
C  -1.87800 16.88100 34.11000
H  -0.79600 16.73600 35.23800
N  -1.47900 19.88500 27.07400
C  -1.94700 20.84300 28.00800
C  -1.88700 22.17900 27.36300
C  -1.52800 21.91400 25.99300
C  -1.28800 20.48800 25.85500
C  -2.25200 23.50200 28.09200
C  -1.47000 22.98100 24.88700
O  -1.09100 22.73900 23.74800
C  -1.97100 24.34100 25.17200
N  -1.16100 17.47100 25.38300
C  -1.00700 18.42000 24.36400
C  -0.93600 17.84700 22.97800
C  -0.68800 16.34600 23.33900
C  -1.12800 16.23000 24.79700
C  -2.32800 18.08500 22.22400
C  0.80800 15.97900 23.19200
C  1.80900 16.52100 24.26000
N  -1.61000 15.82400 27.59000
C  -1.40200 14.75900 26.74800
C  -1.62900 13.54200 27.47100
C  -1.77100 13.91500 28.78500
C  -1.73700 15.31400 28.77900
C  -1.69500 12.18000 26.83400
C  -1.91500 13.33600 30.11400
O  -1.97900 12.14700 30.43700
C  -2.01900 14.57500 31.01300
C  -0.79800 14.50900 31.76400
O  0.25100 14.86800 31.30500
O  -0.97100 13.87100 32.97500
C  0.37300 13.75500 33.67600
H  -2.74300 21.38700 29.80100
H  -0.97300 20.48900 23.86700
H  -1.24200 14.12900 24.71800
H  -3.56800 17.21300 32.18400
H  -2.60200 20.01500 31.94800
H  -4.95500 19.74800 32.39300
H  -5.13700 18.50500 31.15700
H  -5.00400 20.17600 30.60600
H  -1.20400 18.63700 33.09200
H  -0.62300 17.26200 32.28700
H  -2.16100 15.91900 33.68400
H  -2.77900 17.28800 34.57000
H  -2.46100 23.23900 29.12800
H  -3.17700 23.95600 27.73400
H  -1.47400 24.24600 27.91700
H  -3.04100 24.28600 25.37100
H  -1.84800 24.84900 24.21600
H  -1.44100 24.91400 25.93300
H  -0.05300 18.10500 22.39200
H  -1.27200 15.59900 22.80100
H  -2.95000 18.64100 22.92500
H  -2.93800 17.19000 22.10500
H  -2.29200 18.65100 21.29300
H  1.16600 16.36100 22.23600
H  0.84700 14.89200 23.12700
H  1.31700 16.97700 25.11900
H  2.42200 17.27900 23.77200
H  2.38700 15.74300 24.75700
H  -2.71200 11.98600 26.49500
H  -1.36300 11.53200 27.64500
H  -1.00100 11.98500 26.01600
H  -2.92600 14.59200 31.61800
H  0.68600 14.72000 34.07400
H  1.09400 13.38500 32.94800
H  0.30200 12.99900 34.45800
Mg 24.54000 -5.48200 45.86600
C  27.00500 -3.71300 44.30300
C  22.18600 -4.20900 43.66700
C  22.50500 -8.01700 46.80600
C  27.06800 -6.83100 48.01400
N  24.58000 -4.03700 44.27300
C  25.73700 -3.52800 43.72800
C  25.51600 -2.61400 42.50100
C  23.91800 -2.60800 42.43400
C  23.51800 -3.73800 43.50400
C  23.26300 -1.20700 42.77900
C  26.14400 -3.00800 41.16500
C  26.87600 -1.93800 40.43700
H  27.27200 -2.06200 38.92300
N  22.58900 -5.98800 45.40600
C  21.76300 -5.24900 44.49100
C  20.47900 -5.95500 44.49700
C  20.41500 -6.95800 45.49700
C  21.89100 -7.02500 45.97800
C  19.50800 -5.51800 43.47800
C  19.30800 -7.65300 45.98600
O  18.20100 -7.52500 45.48700
C  19.27100 -8.53100 47.30500
N  24.86700 -7.28100 47.02300
C  23.77100 -8.11800 47.36500
C  24.15500 -9.14000 48.39800
C  25.55000 -8.60600 48.97900
C  25.86400 -7.45700 48.00700
C  23.05900 -9.42000 49.49400
C  26.74500 -9.64900 49.06500
C  27.20000 -10.01600 50.48800
N  26.59200 -5.23500 46.18300
C  27.48700 -5.87900 47.03500
C  28.75300 -5.25700 46.97100
C  28.68100 -4.38200 45.87900
C  27.35500 -4.48600 45.41300
C  30.02900 -5.67200 47.70400
C  29.42100 -3.46400 44.97000
O  30.57000 -3.15100 44.89100
C  28.26900 -2.82500 44.09200
C  28.18000 -1.39500 44.49300
O  28.18700 -0.95100 45.62700
O  28.43800 -0.70500 43.35200
C  28.90500 0.65100 43.46800
H  21.48000 -3.63600 43.06200
H  21.84900 -8.83400 47.11600
H  27.76700 -7.04800 48.82400
H  25.76400 -1.61300 42.85400
H  23.54200 -3.04500 41.51000
H  22.46500 -1.13200 42.04100
H  23.79000 -0.25500 42.70600
H  22.72100 -1.23600 43.72400
H  25.38600 -3.31300 40.44300
H  26.83300 -3.82500 41.37600
H  27.83000 -1.81100 40.94700
H  26.33500 -1.00100 40.57500
H  20.00900 -5.37600 42.52000
H  19.16000 -4.53300 43.79000
H  18.64000 -6.15800 43.32300
H  18.25000 -8.63800 47.67400
H  19.98200 -8.18300 48.05400
H  19.65700 -9.52300 47.07100
H  24.39900 -10.04300 47.83800
H  25.29700 -8.04600 49.87900
H  22.60900 -10.41200 49.48000
H  22.25900 -8.68100 49.44300
H  23.42800 -9.26600 50.50800
H  27.64400 -9.27200 48.57600
H  26.42200 -10.51100 48.48200
H  27.01300 -11.08900 50.53700
H  26.64600 -9.44300 51.23100
H  28.20800 -9.69200 50.74400
H  30.65300 -6.31100 47.07900
H  29.73500 -6.17700 48.62400
H  30.60200 -4.74700 47.77400
H  28.58100 -2.91300 43.05100
H  29.69100 0.66500 44.22300
H  28.18100 1.43000 43.71100
H  29.33700 0.83500 42.48400

