158

Mg 0.93200 -2.50700 43.57500
C  4.13400 -1.74900 42.93000
C  -0.04700 0.47000 42.16400
C  -2.29200 -3.55900 43.40200
C  1.86600 -5.82000 44.52000
N  1.95000 -0.94000 42.41600
C  3.28300 -0.78700 42.41700
C  3.65000 0.47600 41.66100
C  2.38200 1.40800 41.82400
C  1.30500 0.26900 42.14500
C  2.58300 2.42500 42.99500
C  3.89500 0.04300 40.12400
C  5.28900 0.30800 39.49600
H  5.99000 -0.79000 38.75200
N  -0.90200 -1.63400 43.08200
C  -1.02200 -0.39700 42.53300
C  -2.45600 -0.07600 42.32800
C  -3.14700 -1.22800 42.62900
C  -2.12800 -2.22400 43.05500
C  -2.83400 1.20900 41.68000
C  -4.57200 -1.43500 42.43300
O  -5.26200 -0.60100 41.94500
C  -5.31900 -2.61200 42.86500
N  -0.08400 -4.32700 44.01000
C  -1.37100 -4.55000 43.76700
C  -1.84200 -5.92000 44.39000
C  -0.50600 -6.58900 44.71600
C  0.50200 -5.50000 44.37600
C  -2.77900 -5.62200 45.56200
C  -0.26100 -7.94900 44.07800
C  -1.12400 -9.10400 44.60600
N  2.62300 -3.62700 43.68600
C  2.93600 -4.92200 44.16100
C  4.36100 -5.09800 44.21200
C  4.88800 -3.89600 43.69600
C  3.77300 -2.97400 43.43800
C  5.04700 -6.35100 44.75800
C  6.13900 -3.14800 43.48200
O  7.26900 -3.36400 43.74600
C  5.64500 -1.87300 42.76600
C  6.46500 -0.61700 43.23700
O  7.18000 0.10200 42.60200
O  5.89000 -0.19700 44.43500
C  6.57200 1.03700 44.97600
H  -0.26000 1.52000 41.95100
H  -3.27900 -4.01300 43.30000
H  2.24100 -6.79800 44.82800
H  4.49700 0.99600 42.10700
H  2.21200 1.92300 40.87900
H  3.61500 2.24400 43.29600
H  2.04500 2.12200 43.89300
H  2.36900 3.46400 42.74300
H  3.27200 0.65900 39.47600
H  3.64300 -1.01600 40.07400
H  5.98500 0.84300 40.14300
H  5.16900 1.08800 38.74400
H  -3.87400 1.53400 41.73000
H  -2.46300 1.27600 40.65700
H  -2.28100 2.04500 42.10800
H  -6.35000 -2.48500 42.53400
H  -5.19500 -2.79100 43.93300
H  -4.90800 -3.44900 42.30000
H  -2.29800 -6.60300 43.67400
H  -0.40400 -6.86400 45.76600
H  -2.45800 -5.98000 46.54100
H  -3.77400 -5.97500 45.28800
H  -3.03600 -4.57800 45.74100
H  0.76500 -8.30800 44.00300
H  -0.51600 -7.76900 43.03300
H  -1.69200 -8.88000 45.50900
H  -0.53200 -9.99600 44.80900
H  -1.91400 -9.40400 43.91700
H  5.99900 -6.08500 45.21900
H  5.20800 -7.09800 43.98100
H  4.50200 -6.74600 45.61600
H  5.96200 -1.94700 41.72600
H  7.65000 0.89900 45.06300
H  6.13900 1.35300 45.92500
H  6.43700 1.88700 44.30800
Mg 24.84800 0.79200 30.09200
C  27.02700 1.19900 32.72900
C  22.29000 1.08900 32.11100
C  22.91400 0.61600 27.34500
C  27.59400 0.16300 27.89200
N  24.71000 1.35900 32.18000
C  25.70200 1.49600 33.11500
C  25.15000 1.82800 34.51900
C  23.60700 1.64600 34.24200
C  23.48800 1.27600 32.75700
C  22.93400 0.68400 35.29000
C  25.63500 3.22400 35.02200
C  26.10100 3.18200 36.47300
H  25.55000 4.21100 37.42800
N  22.85900 0.80900 29.79700
C  21.95200 0.95300 30.76000
C  20.63000 0.85100 30.22800
C  20.82000 0.64400 28.86200
C  22.26000 0.70900 28.58100
C  19.34300 0.95100 30.99800
C  19.77500 0.24100 27.87000
O  19.98100 0.11800 26.66300
C  18.37000 -0.06900 28.28300
N  25.24500 0.30900 27.83800
C  24.22400 0.43500 26.95200
C  24.73600 0.27600 25.52700
C  26.27200 0.21000 25.67300
C  26.40900 0.28200 27.22800
C  24.10200 -0.83900 24.63400
C  26.99900 1.39500 24.91600
C  27.62500 0.98400 23.66500
N  26.89400 0.55600 30.23300
C  27.87300 0.27100 29.33600
C  29.14500 0.22700 30.05400
C  28.81900 0.65200 31.32400
C  27.48100 0.78200 31.43400
C  30.49900 0.03400 29.31100
C  29.42800 0.95700 32.58300
O  30.62000 0.84400 32.93100
C  28.31700 1.32300 33.55700
C  28.37900 0.41400 34.76700
O  27.92100 -0.69400 34.87800
O  29.07200 1.12200 35.79000
C  29.09000 0.52300 37.14100
H  21.50100 1.27200 32.84200
H  22.26400 0.71500 26.47300
H  28.44400 0.33600 27.23000
H  25.48300 1.01600 35.16600
H  23.12900 2.61700 34.37700
H  22.88200 -0.29900 34.82100
H  21.94100 1.10900 35.43500
H  23.45300 0.62700 36.24700
H  24.86700 3.99800 35.00600
H  26.51400 3.48100 34.43000
H  27.18900 3.20000 36.53400
H  25.94500 2.19800 36.91600
H  18.76700 0.04200 31.17300
H  18.77600 1.74600 30.51300
H  19.56200 1.38200 31.97500
H  17.78600 -0.32300 27.39800
H  17.75900 0.76200 28.63400
H  18.41900 -0.94500 28.93000
H  24.36200 1.19500 25.07600
H  26.72700 -0.76700 25.51400
H  23.27400 -1.31300 25.16000
H  24.67400 -1.62700 24.14300
H  23.61900 -0.32600 23.80300
H  27.71000 1.79100 25.64100
H  26.25900 2.18000 24.76400
H  27.24800 0.02200 23.31700
H  28.71100 0.98400 23.76300
H  27.47900 1.73100 22.88500
H  30.40100 0.24800 28.24700
H  30.76700 -1.02000 29.38000
H  31.24500 0.68300 29.77100
H  28.40000 2.33300 33.95800
H  28.10400 0.54100 37.60700
H  29.80500 1.04200 37.77900
H  29.56000 -0.44300 36.95600

