158

Mg 24.85500 1.00900 29.36700
C  26.82300 0.80600 32.12700
C  22.05100 1.41600 31.33400
C  22.87700 1.14400 26.68900
C  27.60900 0.46300 27.40000
N  24.44400 1.06600 31.46900
C  25.44600 0.96000 32.40800
C  24.90300 1.21600 33.78500
C  23.34400 1.19300 33.61300
C  23.26300 1.21300 32.03400
C  22.50200 -0.07000 34.09000
C  25.62500 2.30100 34.59200
C  24.90000 3.06000 35.69600
H  25.71500 3.66200 36.90800
N  22.72600 1.24500 29.01300
C  21.77100 1.36400 29.99500
C  20.44900 1.57900 29.43000
C  20.63500 1.53300 28.00300
C  22.14500 1.29600 27.84100
C  19.15600 1.80100 30.23700
C  19.68100 1.57700 26.86900
O  19.91900 1.40700 25.70900
C  18.26400 1.98300 27.23500
N  25.14000 0.62100 27.33700
C  24.22400 0.83100 26.37800
C  24.78600 0.81400 24.94500
C  26.27700 0.84900 25.22000
C  26.39200 0.65500 26.73300
C  24.21200 -0.43600 24.16000
C  27.11800 2.06400 24.66600
C  27.42300 3.34100 25.47500
N  26.80700 0.58000 29.65000
C  27.85200 0.39200 28.81000
C  29.14800 0.27000 29.49200
C  28.76500 0.40300 30.79800
C  27.35400 0.63000 30.85500
C  30.43200 0.04200 28.75800
C  29.31900 0.45500 32.17500
O  30.45800 0.33300 32.58100
C  28.06800 0.70000 33.07600
C  28.08600 -0.31600 34.14000
O  27.44600 -1.35200 33.97500
O  28.76900 0.05900 35.30900
C  28.68700 -0.99100 36.37300
H  21.27400 1.65100 32.06400
H  22.47200 1.41400 25.71100
H  28.42800 0.32600 26.69100
H  25.16000 0.29800 34.31500
H  23.01400 2.12700 34.06900
H  21.96400 -0.61000 33.31000
H  21.84300 0.31300 34.86900
H  23.07400 -0.85200 34.59000
H  26.18500 2.95900 33.92800
H  26.35900 1.82700 35.24400
H  24.19200 2.36800 36.15200
H  24.38100 3.95800 35.36200
H  18.32600 1.25700 29.78600
H  18.89600 2.85500 30.33100
H  19.24500 1.31700 31.20900
H  17.77300 2.02300 26.26200
H  18.29700 2.93200 27.77100
H  17.77700 1.21800 27.83700
H  24.62000 1.78900 24.48500
H  26.66500 -0.14400 24.99200
H  23.61900 -1.02600 24.85800
H  25.05600 -1.03700 23.82200
H  23.68800 -0.24600 23.22300
H  26.88000 2.27600 23.62300
H  28.13100 1.67300 24.57300
H  28.45700 3.38000 25.81700
H  26.82900 3.35000 26.38900
H  27.23300 4.17000 24.79400
H  30.48500 0.69600 27.88800
H  30.54600 -1.00100 28.46200
H  31.27800 0.31900 29.38700
H  28.27700 1.62600 33.61100
H  28.80200 -2.02600 36.05200
H  27.70100 -0.89500 36.82900
H  29.51100 -0.72800 37.03600
Mg 44.99100 4.60600 47.18700
C  43.25400 7.63900 46.72200
C  42.00800 3.00500 46.41900
C  46.78700 1.80300 46.85800
C  47.93400 6.54300 47.06400
N  42.85400 5.30000 46.55200
C  42.38600 6.55700 46.61400
C  40.88400 6.60700 46.32100
C  40.50400 5.09400 46.33600
C  41.84500 4.40100 46.43200
C  39.54900 4.58200 47.40900
C  40.41700 7.54900 45.18900
C  41.13500 7.70200 43.84800
H  40.30300 7.32800 42.60100
N  44.44200 2.68800 46.78500
C  43.15800 2.18000 46.55800
C  43.20800 0.78300 46.31400
C  44.61500 0.44500 46.47100
C  45.30900 1.69800 46.74400
C  42.07600 -0.04600 45.73300
C  45.15200 -0.97500 46.21900
O  44.39900 -1.89700 46.02700
C  46.67500 -1.29600 46.24700
N  47.09400 4.25700 46.85400
C  47.55300 2.94300 47.05500
C  49.10200 2.88600 47.09300
C  49.43100 4.35800 47.02700
C  48.06600 5.12100 46.93100
C  49.58400 2.08100 48.38500
C  50.38500 4.86800 45.86600
C  51.56800 5.89600 46.17300
N  45.53900 6.70300 47.08700
C  46.75200 7.31000 47.12300
C  46.59400 8.79400 47.21100
C  45.22100 8.95300 47.08000
C  44.62000 7.63400 46.91800
C  47.72900 9.84500 47.23600
C  44.16900 9.92200 46.91300
O  44.23900 11.15600 46.99800
C  42.92200 9.09900 46.67700
C  41.96400 9.39300 47.76600
O  41.72400 8.68200 48.75000
O  41.33700 10.51200 47.47800
C  39.94400 10.41100 47.96100
H  41.07800 2.47000 46.22200
H  47.41600 0.91500 46.94300
H  48.83400 7.14800 47.19100
H  40.43600 7.12000 47.17200
H  40.17500 4.80100 45.33900
H  38.81500 5.27500 47.81900
H  40.16900 4.30600 48.26200
H  38.92800 3.73000 47.13400
H  40.22400 8.56800 45.52200
H  39.44700 7.20700 44.82900
H  42.07200 7.14600 43.79900
H  41.29500 8.77400 43.73100
H  42.38300 -0.50900 44.79500
H  41.20300 0.58900 45.58700
H  41.96900 -0.89200 46.41200
H  46.72700 -2.37600 46.11100
H  47.02600 -1.01600 47.24000
H  47.30000 -0.75100 45.53900
H  49.31300 2.42300 46.12900
H  49.86300 4.74900 47.94800
H  49.37300 1.01200 48.39900
H  49.14200 2.57800 49.24900
H  50.65200 2.26100 48.50500
H  49.83600 5.22200 44.99400
H  50.90900 3.98100 45.51100
H  51.38800 6.75100 45.52200
H  52.52700 5.48700 45.85600
H  51.50400 6.30400 47.18200
H  48.12500 10.19500 46.28300
H  48.46000 9.16000 47.66700
H  47.70600 10.64700 47.97300
H  42.41300 9.41600 45.76700
H  39.37900 11.25300 47.56000
H  39.84100 10.32100 49.04300
H  39.40300 9.56100 47.54600

