158

Mg 36.41800 50.08800 25.24100
C  36.60300 48.37600 28.18600
C  34.61400 52.61100 26.98200
C  36.20400 51.80400 22.30200
C  37.73600 47.31100 23.55400
N  35.69900 50.40300 27.29600
C  36.05800 49.63500 28.38500
C  35.61800 50.23900 29.79800
C  34.80000 51.49000 29.25000
C  35.09300 51.55600 27.79000
C  33.28600 51.44700 29.53700
C  36.78000 50.51800 30.76200
C  36.72100 49.76700 32.10700
H  35.33100 49.55000 32.73900
N  35.55600 52.02300 24.78900
C  34.86000 52.90100 25.59600
C  34.40800 54.01800 24.78700
C  34.78900 53.72700 23.40700
C  35.57500 52.47800 23.44300
C  33.70600 55.26500 25.49700
C  34.29700 54.38800 22.11900
O  34.65900 53.97300 21.03000
C  33.44000 55.59200 22.09600
N  36.94700 49.69800 23.25100
C  36.86700 50.55100 22.24700
C  37.14600 49.82600 20.93400
C  37.84500 48.51800 21.30100
C  37.45600 48.46800 22.80100
C  35.85300 49.56900 19.97300
C  39.37200 48.71300 21.10000
C  40.17100 47.54600 20.47900
N  37.02400 48.22600 25.70200
C  37.57800 47.18500 24.92400
C  37.78000 46.00300 25.75800
C  37.50900 46.45400 27.03500
C  36.92200 47.77500 26.92500
C  38.19800 44.67300 25.20100
C  37.56900 46.12300 28.44300
O  38.01700 45.16100 29.04700
C  36.93000 47.25200 29.25400
C  35.71000 46.78200 30.00700
O  34.63100 47.24300 29.81700
O  36.01400 45.85900 30.94100
C  34.89600 45.28300 31.77500
H  34.03100 53.40400 27.45400
H  36.12900 52.26900 21.31600
H  38.08100 46.43300 23.00500
H  34.94900 49.47800 30.20100
H  35.17400 52.45600 29.58700
H  33.13200 50.60200 30.20700
H  32.71700 51.19000 28.64300
H  32.89600 52.29200 30.10500
H  36.90700 51.57400 30.99900
H  37.74800 50.19500 30.37700
H  37.33700 50.30000 32.83100
H  37.27700 48.84600 31.93400
H  34.44500 55.96900 25.88000
H  33.02200 55.02400 26.31000
H  33.15200 55.79900 24.72500
H  33.02400 55.90200 21.13700
H  34.05900 56.46200 22.31600
H  32.59100 55.41400 22.75600
H  37.87500 50.53100 20.53200
H  37.37100 47.68200 20.78600
H  34.97100 49.78800 20.57400
H  35.86600 48.52400 19.66400
H  36.06800 50.28100 19.17600
H  39.82800 48.93000 22.06600
H  39.62400 49.59700 20.51400
H  40.92300 47.23100 21.20300
H  40.71800 47.93200 19.61900
H  39.56500 46.68800 20.19000
H  37.51600 44.25900 24.45800
H  38.26400 43.99000 26.04800
H  39.21800 44.78300 24.83100
H  37.59200 47.60700 30.04400
H  34.64600 46.05900 32.49900
H  35.35900 44.44400 32.29500
H  34.04800 44.95300 31.17700
Mg -2.41000 33.90500 26.32000
C  -4.05700 32.42300 29.07000
C  -0.71700 35.95900 28.50200
C  -1.21200 35.40500 23.67200
C  -4.08300 31.64300 24.28400
N  -2.36700 34.07400 28.56300
C  -3.11200 33.42900 29.44100
C  -2.88700 33.85900 30.87100
C  -1.98200 35.18600 30.61000
C  -1.65400 35.13300 29.16000
C  -2.57500 36.59800 31.02900
C  -2.33700 32.79700 31.82000
C  -3.08200 32.52700 33.12400
H  -2.18600 32.57700 34.37400
N  -1.09000 35.45900 26.10500
C  -0.47200 36.10600 27.15300
C  0.46300 36.98100 26.53500
C  0.25200 36.92800 25.08000
C  -0.69600 35.89700 24.93600
C  1.24200 38.05700 27.35600
C  0.90800 37.76100 24.02800
O  0.69400 37.72900 22.86400
C  2.02300 38.69700 24.48900
N  -2.77700 33.69300 24.35800
C  -2.14200 34.42800 23.41700
C  -2.46900 34.05700 21.95400
C  -3.11500 32.65600 22.15500
C  -3.26700 32.59200 23.70900
C  -3.41400 35.11200 21.29300
C  -2.29700 31.54900 21.48500
C  -1.24700 30.83200 22.39800
N  -3.76000 32.32400 26.58800
C  -4.33800 31.49700 25.66100
C  -5.26500 30.59300 26.25700
C  -5.14300 30.88100 27.61700
C  -4.29100 32.00700 27.73800
C  -6.07600 29.41500 25.65400
C  -5.55900 30.44600 28.89600
O  -6.26400 29.51400 29.19500
C  -4.92200 31.52700 29.90600
C  -5.97500 32.28700 30.64600
O  -6.78000 32.93900 30.08800
O  -5.92000 32.03700 32.04900
C  -6.99600 32.77000 32.75800
H  -0.16300 36.60100 29.19100
H  -0.59300 35.72600 22.83200
H  -4.60000 31.07400 23.50800
H  -3.84500 34.19700 31.26700
H  -1.15800 35.06900 31.31300
H  -2.52700 37.18100 30.10900
H  -2.03000 37.03800 31.86500
H  -3.63900 36.63200 31.26500
H  -1.42500 33.29300 32.15200
H  -2.10900 31.79900 31.44700
H  -3.60000 31.56900 33.14300
H  -3.75600 33.36700 33.29300
H  0.81000 39.01400 27.06400
H  2.28000 38.04800 27.02400
H  1.19600 38.03700 28.44500
H  2.37700 39.15700 23.56600
H  2.85100 38.18000 24.97400
H  1.53100 39.43800 25.11800
H  -1.47400 34.09000 21.50900
H  -4.09200 32.49700 21.69800
H  -3.13300 36.11000 21.62800
H  -4.42700 35.02900 21.68500
H  -3.27700 34.94600 20.22400
H  -1.70600 31.91800 20.64700
H  -2.96300 30.76500 21.12400
H  -0.22500 31.17900 22.24600
H  -1.27100 29.79100 22.07500
H  -1.45200 30.71200 23.46100
H  -7.04900 29.81000 25.36200
H  -6.11100 28.70000 26.47600
H  -5.48400 28.96900 24.85400
H  -4.32300 30.90100 30.56800
H  -6.46000 33.45400 33.41600
H  -7.53800 32.04100 33.36000
H  -7.72400 33.32900 32.17000

