158

Mg -1.63000 16.55200 26.55900
C  -2.31400 14.21400 29.18600
C  -2.06100 19.06700 28.72500
C  -1.55500 18.63800 23.98200
C  -1.87800 13.80200 24.27100
N  -2.24800 16.59200 28.74900
C  -2.23300 15.55500 29.62400
C  -2.22800 16.14900 31.12800
C  -2.13600 17.66500 30.88300
C  -2.13600 17.83900 29.37300
C  -3.31100 18.54200 31.49700
C  -1.05100 15.55800 32.00600
C  -0.54700 16.42700 33.15100
H  -0.58700 15.76000 34.59500
N  -1.63500 18.61000 26.37600
C  -1.80600 19.51100 27.39500
C  -1.72400 20.85800 26.91100
C  -1.34700 20.75000 25.56000
C  -1.55800 19.29200 25.23800
C  -1.84300 21.97700 27.90000
C  -0.89100 21.85800 24.64700
O  -0.47000 21.63000 23.53000
C  -0.72900 23.22900 25.12300
N  -1.86500 16.25200 24.39100
C  -1.76600 17.29400 23.55500
C  -1.66000 16.84500 22.05700
C  -1.75900 15.26300 22.18200
C  -1.74800 15.05600 23.69300
C  -2.63700 17.46000 21.01000
C  -0.58500 14.44300 21.56300
C  0.80500 14.87500 22.18100
N  -2.01800 14.48200 26.68600
C  -2.05200 13.51600 25.67100
C  -2.30900 12.21800 26.26600
C  -2.45500 12.41500 27.63900
C  -2.17200 13.83200 27.85100
C  -2.48500 10.87600 25.59300
C  -2.61200 11.69800 28.89900
O  -2.76000 10.50600 29.24300
C  -2.49800 12.89300 29.93500
C  -1.41800 12.52500 30.83900
O  -0.19300 12.77300 30.75400
O  -1.93200 11.75100 31.80200
C  -1.03200 11.26000 32.88400
H  -2.15700 19.96300 29.34200
H  -1.52200 19.30200 23.11600
H  -2.03800 12.93800 23.62400
H  -3.10500 15.83700 31.69500
H  -1.17500 18.09200 31.17000
H  -3.95500 19.01600 30.75600
H  -2.93900 19.35200 32.12500
H  -4.00600 17.98100 32.12200
H  -0.17500 15.49900 31.36100
H  -1.28900 14.55900 32.37300
H  -1.17300 17.31400 33.25600
H  0.41100 16.87700 32.89000
H  -2.48700 21.84400 28.76800
H  -2.24100 22.77400 27.27200
H  -0.86400 22.30500 28.24900
H  -1.67200 23.73100 25.33600
H  -0.20100 23.87200 24.41900
H  -0.09700 23.24300 26.01100
H  -0.67400 16.97500 21.61000
H  -2.63200 14.82100 21.70300
H  -3.22600 18.10500 21.66200
H  -3.25400 16.68200 20.56200
H  -2.08200 18.05400 20.28400
H  -0.62300 14.57000 20.48100
H  -0.75900 13.37600 21.70600
H  1.33000 15.45200 21.42000
H  1.24300 13.88100 22.27400
H  0.70900 15.46800 23.09000
H  -3.36900 10.76000 24.96600
H  -2.60400 10.17600 26.42000
H  -1.64200 10.35600 25.13900
H  -3.40500 12.84800 30.53900
H  -0.40200 12.06100 33.27100
H  -0.29200 10.62800 32.39400
H  -1.69600 10.88100 33.66000
Mg 1.19800 -1.73500 43.67900
C  4.35400 -0.09900 43.12800
C  -0.31100 0.95400 42.27800
C  -1.65200 -3.42100 43.65600
C  3.04500 -4.54100 44.83000
N  1.99800 0.16100 42.83800
C  3.29800 0.59400 42.64000
C  3.33700 1.95000 41.93300
C  1.80400 2.37400 41.99000
C  1.09900 1.10200 42.46200
C  1.45400 3.61100 42.91800
C  3.82800 1.77100 40.46000
C  5.15500 2.62900 40.08300
H  6.15200 1.93200 39.03600
N  -0.81100 -1.30700 42.99600
C  -1.21400 -0.10300 42.44500
C  -2.60900 -0.17500 42.16400
C  -3.05300 -1.48300 42.50500
C  -1.83700 -2.16200 43.12500
C  -3.40000 1.00400 41.60200
C  -4.44900 -2.05400 42.18000
O  -5.28700 -1.24400 41.76900
C  -4.64800 -3.58900 42.35300
N  0.80100 -3.83500 43.97600
C  -0.52500 -4.21000 44.03400
C  -0.57300 -5.71800 44.61900
C  0.96200 -6.06300 44.81400
C  1.66700 -4.72100 44.51800
C  -1.28900 -5.74100 46.02200
C  1.54900 -7.15000 43.92000
C  1.91500 -8.51900 44.62400
N  3.27000 -2.27100 44.04500
C  3.85700 -3.43000 44.51700
C  5.23200 -3.24600 44.60600
C  5.54000 -1.91900 44.12600
C  4.28100 -1.37600 43.79700
C  6.22400 -4.30100 45.16000
C  6.57300 -0.90200 43.82500
O  7.77000 -1.00900 43.99200
C  5.85800 0.35200 43.12100
C  6.01700 1.54200 44.00600
O  5.20000 1.94000 44.85100
O  7.16200 2.19000 43.65300
C  7.51500 3.49400 44.33200
H  -0.69800 1.94700 42.04200
H  -2.64100 -3.81700 43.89600
H  3.50500 -5.44500 45.23600
H  4.04400 2.54500 42.51100
H  1.44900 2.77600 41.04100
H  2.39500 3.87200 43.40100
H  0.70000 3.21900 43.60100
H  1.03700 4.48000 42.40900
H  3.17000 2.15300 39.67900
H  4.06300 0.72400 40.26900
H  5.71400 2.97700 40.95200
H  4.75100 3.50600 39.57800
H  -3.54300 0.93000 40.52400
H  -2.84000 1.93100 41.73400
H  -4.38700 1.19900 42.02000
H  -3.76800 -3.96100 41.82900
H  -5.59600 -3.83100 41.87200
H  -4.69100 -3.92300 43.39000
H  -1.06800 -6.45500 43.98700
H  1.12900 -6.29300 45.86700
H  -0.65000 -6.14100 46.81000
H  -2.24100 -6.27100 45.98600
H  -1.49900 -4.69200 46.22900
H  2.42900 -6.81900 43.36800
H  0.83500 -7.42600 43.14300
H  1.42800 -9.33200 44.08500
H  1.56100 -8.46100 45.65300
H  2.99400 -8.56000 44.47800
H  7.12100 -4.42100 44.55300
H  5.80800 -5.30100 45.28400
H  6.52300 -3.96200 46.15200
H  6.20800 0.43100 42.09100
H  6.57300 3.99600 44.55400
H  7.95200 4.21100 43.63700
H  8.12000 3.35400 45.22800

