158

Mg 35.89700 2.51900 29.86700
C  33.59600 3.31500 32.31200
C  38.30100 2.36400 32.25900
C  37.95500 1.68500 27.48800
C  33.21100 2.66000 27.50300
N  35.90300 2.79800 31.98300
C  34.86300 3.01500 32.82900
C  35.25500 3.03200 34.29500
C  36.79100 2.92500 34.29900
C  36.97100 2.62300 32.76100
C  37.55700 4.14900 34.85500
C  34.51500 1.97900 35.22100
C  33.90500 2.51500 36.47700
H  34.55800 3.62400 37.17100
N  37.92200 2.10500 29.85500
C  38.77200 2.07800 30.93800
C  40.18300 1.83700 30.46000
C  40.09900 1.58800 29.03100
C  38.62100 1.75700 28.73800
C  41.36400 1.74400 31.35200
C  41.17200 1.04600 28.01100
O  40.89600 0.71900 26.88800
C  42.57600 0.75600 28.53800
N  35.59100 2.09500 27.84500
C  36.62400 1.93200 27.04400
C  36.26100 1.82200 25.57800
C  34.78500 2.06100 25.58800
C  34.45200 2.30100 27.08600
C  36.97900 2.71200 24.55100
C  33.80400 1.13600 24.72800
C  33.20000 -0.04600 25.43100
N  33.80200 2.95800 29.88500
C  32.82600 2.93500 28.85200
C  31.49800 3.38700 29.40500
C  31.76600 3.61000 30.73000
C  33.14100 3.31100 30.98300
C  30.20400 3.56900 28.61000
C  31.14600 4.04500 31.98000
O  30.01500 4.37900 32.26500
C  32.32800 3.80000 33.07000
C  32.41800 5.00400 33.84200
O  32.99100 6.00400 33.52900
O  31.69900 4.87400 34.98100
C  31.68100 6.03000 35.92000
H  39.12200 2.38200 32.97800
H  38.53900 1.24300 26.67900
H  32.39400 2.70100 26.78000
H  34.96900 4.01900 34.66000
H  37.16000 2.02800 34.79700
H  37.18300 4.71200 35.71000
H  37.59800 4.87500 34.04300
H  38.55600 3.76800 35.06800
H  35.15800 1.13500 35.47100
H  33.73000 1.53900 34.60500
H  33.79700 1.65800 37.14100
H  32.85300 2.73400 36.29800
H  41.89700 0.80000 31.23600
H  41.19300 2.02000 32.39200
H  41.99800 2.47200 30.84600
H  43.16300 0.63000 27.62900
H  42.78700 -0.09000 29.19300
H  42.99600 1.50100 29.21400
H  36.54500 0.81800 25.26200
H  34.49800 3.00300 25.12100
H  36.32600 3.52700 24.24000
H  37.43000 2.07400 23.79000
H  37.84400 3.19100 25.00800
H  34.46300 0.73300 23.95900
H  33.00800 1.81600 24.42400
H  33.72700 -0.43200 26.30300
H  33.24900 -0.87900 24.72900
H  32.17200 0.15700 25.73300
H  29.39900 3.14900 29.21200
H  30.12400 3.11700 27.62200
H  29.98800 4.63000 28.47900
H  31.93900 3.02000 33.72400
H  30.91000 6.75800 35.66700
H  32.63600 6.55500 35.96600
H  31.35300 5.59100 36.86100
Mg 9.21200 48.49500 25.46000
C  6.91800 48.91200 28.08500
C  11.83100 49.22400 27.49500
C  11.22400 48.16100 22.69300
C  6.39800 47.88300 23.23500
N  9.32300 49.14800 27.49000
C  8.36000 49.03900 28.46500
C  8.93000 49.14400 29.90600
C  10.36700 49.63600 29.60500
C  10.56900 49.33800 28.09900
C  10.63100 51.17500 29.88700
C  8.70000 47.91600 30.77200
C  9.51300 47.76500 32.03600
H  8.75800 47.05900 33.19600
N  11.20000 48.67800 25.15900
C  12.15000 48.93100 26.14300
C  13.46000 48.71200 25.66800
C  13.34100 48.29300 24.26600
C  11.84900 48.39400 23.95800
C  14.65100 48.86100 26.56400
C  14.48700 47.86500 23.35600
O  14.28900 47.56500 22.20400
C  15.88700 47.89600 23.81100
N  8.81200 48.15800 23.17400
C  9.85100 47.99800 22.33400
C  9.33300 47.53900 20.94800
C  7.76100 47.47600 21.05300
C  7.60900 47.73600 22.58100
C  9.81300 48.37800 19.77500
C  7.04200 46.11800 20.55200
C  5.82900 46.31500 19.68000
N  7.15800 48.50700 25.58700
C  6.15900 48.27300 24.56600
C  4.90000 48.35200 25.20100
C  5.11800 48.65500 26.54300
C  6.49600 48.75200 26.71800
C  3.59900 48.20100 24.49800
C  4.50500 48.97600 27.81700
O  3.35300 49.22900 28.08100
C  5.70200 49.03000 28.90800
C  5.45800 47.86200 29.73200
O  5.67100 46.65700 29.46500
O  5.04200 48.30000 30.99200
C  4.81700 47.40600 32.17200
H  12.58900 49.46200 28.24500
H  11.93800 47.88100 21.91600
H  5.55300 47.56000 22.62400
H  8.31500 49.95000 30.30700
H  11.06800 49.03900 30.18900
H  9.78500 51.61300 30.41500
H  10.69900 51.65100 28.90900
H  11.48000 51.26200 30.56500
H  8.87100 47.04800 30.13500
H  7.64100 47.82900 31.01500
H  9.85700 48.72800 32.41500
H  10.39000 47.18400 31.75400
H  14.33400 48.97900 27.60000
H  15.21100 49.72400 26.20200
H  15.29400 47.98300 26.49500
H  16.06100 47.26400 24.68100
H  16.24700 48.90200 24.02300
H  16.55200 47.41400 23.09400
H  9.50900 46.46500 20.89300
H  7.33400 48.36800 20.59300
H  10.47700 49.13500 20.19100
H  9.00200 48.93900 19.31000
H  10.18200 47.83800 18.90300
H  6.72600 45.58500 21.44800
H  7.73000 45.44400 20.04100
H  5.82800 45.80700 18.71600
H  5.68200 47.34200 19.34500
H  4.93200 45.99600 20.21100
H  3.11600 47.30600 24.89100
H  3.60100 48.30400 23.41300
H  3.05000 49.06400 24.87500
H  5.81300 49.98300 29.42300
H  5.07600 46.36700 31.97200
H  3.78100 47.37400 32.51100
H  5.53800 47.64300 32.95400

