158

Mg 41.92200 41.11600 27.31600
C  41.05800 43.34300 29.61200
C  43.02600 38.92800 29.72700
C  42.64700 38.90900 24.82200
C  41.08300 43.53100 24.77700
N  41.88900 41.06200 29.36600
C  41.48000 42.13500 30.14100
C  41.56300 41.81200 31.67900
C  42.50200 40.57000 31.62500
C  42.49400 40.15400 30.18100
C  43.89900 40.67800 32.32300
C  40.18400 41.57900 32.38100
C  39.96700 42.57000 33.52500
H  39.15100 41.85800 34.72700
N  42.71800 39.14600 27.29800
C  43.08000 38.37800 28.40600
C  43.40400 37.11900 27.91400
C  43.25400 37.03700 26.50700
C  42.88000 38.39500 26.12300
C  43.74800 36.03900 28.88800
C  43.49700 35.89100 25.54300
O  43.40500 36.00500 24.30500
C  43.95700 34.52700 26.03700
N  42.16700 41.32400 25.07500
C  42.33700 40.16100 24.31900
C  42.40500 40.55700 22.85100
C  41.66300 41.86700 22.76000
C  41.62600 42.31200 24.29600
C  43.84000 40.48800 22.21800
C  40.25700 41.76400 22.06100
C  39.10900 41.23000 22.95300
N  41.14300 43.06500 27.15700
C  40.82800 43.91400 26.10900
C  40.36700 45.17300 26.67600
C  40.38300 44.98300 28.04700
C  40.85700 43.66700 28.27600
C  39.95000 46.40200 25.89400
C  40.18400 45.61800 29.26300
O  39.79700 46.76100 29.48000
C  40.59300 44.58700 30.33000
C  41.57300 45.10600 31.26300
O  42.75100 44.87700 31.28300
O  40.87300 45.75500 32.29600
C  41.64200 46.18200 33.47900
H  43.29400 38.22300 30.51800
H  42.80900 38.20000 24.00700
H  40.84600 44.31700 24.05700
H  42.10800 42.71200 31.96300
H  41.98300 39.82700 32.23000
H  43.90200 40.08300 33.23600
H  44.18700 41.68400 32.62900
H  44.69700 40.36200 31.65000
H  40.19000 40.55200 32.74700
H  39.35700 41.72800 31.68800
H  39.43000 43.48100 33.26300
H  40.96200 42.86100 33.86200
H  42.93200 35.32000 28.81900
H  43.65900 36.41400 29.90800
H  44.71000 35.59300 28.63600
H  44.15400 33.72600 25.32400
H  43.18700 34.18600 26.72900
H  44.82200 34.69800 26.67800
H  41.87200 39.76000 22.33300
H  42.24700 42.58500 22.18500
H  44.54800 40.70500 23.01700
H  43.96200 41.13500 21.34900
H  44.06900 39.47500 21.88800
H  40.35100 41.07300 21.22400
H  39.95000 42.70500 21.60500
H  39.41100 40.74400 23.88100
H  38.49900 40.53700 22.37400
H  38.37100 42.01400 23.12500
H  39.51200 45.94500 25.00600
H  40.76900 47.11200 25.77500
H  39.14400 46.89300 26.43900
H  39.69200 44.21500 30.81800
H  41.90100 45.31100 34.08100
H  41.14100 46.89200 34.13800
H  42.63000 46.58100 33.24900
Mg 0.54500 43.92000 25.71000
C  2.14900 43.79100 28.85600
C  -2.40400 42.81800 27.24800
C  -0.69800 43.68200 22.67700
C  3.83700 44.37400 24.22600
N  -0.03400 43.50400 27.79500
C  0.73200 43.62300 28.90900
C  -0.05600 43.50500 30.17600
C  -1.42700 42.94500 29.61300
C  -1.32700 43.09500 28.09800
C  -1.77000 41.45000 29.94500
C  -0.02000 44.77800 31.06400
C  0.31900 44.65100 32.60000
H  0.35800 43.20800 33.19000
N  -1.32400 43.42600 25.08100
C  -2.40000 42.96500 25.85200
C  -3.54000 42.87300 24.98200
C  -3.09500 43.12000 23.66200
C  -1.64800 43.36100 23.73100
C  -4.90500 42.44100 25.45300
C  -3.88900 43.14900 22.33200
O  -3.34200 43.47900 21.28200
C  -5.31700 42.82700 22.39100
N  1.45400 43.91200 23.63500
C  0.64100 43.95000 22.61100
C  1.44500 44.03200 21.38800
C  2.91000 44.44000 21.85200
C  2.74300 44.24700 23.35600
C  1.32000 42.74800 20.52200
C  3.33100 45.90200 21.46800
C  2.52800 47.02800 22.19700
N  2.53000 44.27500 26.36000
C  3.74600 44.32800 25.63500
C  4.84300 44.38900 26.60500
C  4.25800 44.19500 27.84300
C  2.88400 44.06600 27.67500
C  6.32800 44.48700 26.33000
C  4.56200 44.14900 29.25800
O  5.66400 44.20700 29.86700
C  3.18400 43.92900 29.95500
C  3.30500 42.62300 30.79200
O  2.95800 41.48500 30.54700
O  3.93000 43.01400 31.92400
C  4.50600 41.92000 32.79400
H  -3.35400 42.48400 27.67100
H  -1.14500 43.60500 21.68300
H  4.79200 44.64300 23.76900
H  0.46400 42.72400 30.73100
H  -2.26800 43.57400 29.90300
H  -1.74200 40.84300 29.04000
H  -2.78700 41.45100 30.33700
H  -1.06000 41.09100 30.69100
H  -1.04400 45.14200 31.14600
H  0.60000 45.53900 30.59100
H  -0.43000 45.19700 33.17400
H  1.27600 45.07300 32.90600
H  -5.64200 43.22500 25.28000
H  -5.10800 42.16400 26.48700
H  -5.20600 41.56200 24.88200
H  -5.82200 42.96600 21.43500
H  -5.71400 43.52400 23.13000
H  -5.51700 41.82600 22.77200
H  1.07900 44.89500 20.83200
H  3.69500 43.74100 21.56500
H  0.48500 42.17400 20.92300
H  2.23600 42.15700 20.48800
H  0.99700 43.00900 19.51500
H  3.23500 45.98600 20.38600
H  4.40700 45.99400 21.61300
H  1.81600 47.51800 21.53400
H  3.22400 47.83600 22.42100
H  2.05100 46.77200 23.14400
H  6.80500 45.23100 26.96800
H  6.62200 44.63000 25.29000
H  6.76900 43.54000 26.64100
H  3.02300 44.84900 30.51700
H  5.57600 41.84600 32.60000
H  4.03100 40.95500 32.61500
H  4.39500 42.17100 33.84800

