158

Mg 49.09600 34.87900 26.76800
C  47.25300 33.52900 29.53300
C  49.27800 37.84900 28.56200
C  50.35800 36.46800 23.96400
C  48.07800 32.25800 24.86300
N  48.63400 35.46100 28.96600
C  47.82400 34.75100 29.81500
C  47.78900 35.52300 31.12600
C  48.14800 37.00600 30.70900
C  48.76400 36.72900 29.33600
C  46.92900 38.00700 30.68000
C  48.66700 34.90500 32.29500
C  47.82800 34.84400 33.65300
H  47.26200 36.10500 34.26700
N  49.92000 36.79000 26.44000
C  49.88600 37.83000 27.31400
C  50.62300 38.94100 26.73500
C  51.00000 38.53000 25.42000
C  50.36300 37.18000 25.20800
C  51.13200 40.12100 27.59500
C  51.87400 39.20800 24.40000
O  52.17900 38.62700 23.35700
C  52.39500 40.61300 24.65700
N  49.17700 34.42600 24.71500
C  49.83300 35.18300 23.73800
C  49.85400 34.42600 22.36400
C  49.26100 32.98900 22.74700
C  48.81300 33.21800 24.16400
C  48.99500 35.24700 21.33700
C  50.26000 31.82900 22.76800
C  49.93900 30.58000 21.89900
N  47.93100 33.17700 27.07300
C  47.62300 32.18900 26.22700
C  46.79400 31.17500 26.79200
C  46.63400 31.65400 28.11900
C  47.30600 32.90000 28.22000
C  46.17600 29.91900 26.12100
C  46.01100 31.42800 29.45300
O  45.28700 30.50400 29.85900
C  46.36800 32.64300 30.35600
C  47.09100 32.05700 31.53800
O  48.27700 31.72900 31.60400
O  46.04200 31.66900 32.48400
C  46.44600 30.69100 33.47700
H  49.24500 38.86700 28.95500
H  50.77700 37.08300 23.16500
H  47.90500 31.32700 24.32000
H  46.77500 35.34200 31.48500
H  48.87200 37.40100 31.42200
H  46.05200 37.58900 31.17300
H  46.75000 38.28700 29.64200
H  47.12200 38.86600 31.32200
H  49.47000 35.62800 32.44200
H  49.13700 33.98400 31.95200
H  48.51800 34.42600 34.38500
H  47.00200 34.15100 33.49100
H  51.39600 39.79200 28.60000
H  50.47800 40.98000 27.44600
H  52.14400 40.34500 27.25700
H  52.61700 40.88700 23.62600
H  53.38200 40.49600 25.10500
H  51.71400 41.33300 25.11000
H  50.86500 34.37400 21.96000
H  48.34200 32.69400 22.24000
H  48.03100 34.81900 21.06300
H  49.65100 35.30000 20.46800
H  48.86500 36.25700 21.72700
H  50.46300 31.40500 23.75100
H  51.26900 32.10700 22.46200
H  49.43400 29.79600 22.46300
H  50.85700 30.13100 21.51900
H  49.40600 30.84000 20.98400
H  45.29700 29.65400 26.70900
H  46.89100 29.09800 26.07900
H  45.80600 30.06600 25.10600
H  45.49400 33.21300 30.67300
H  46.34300 29.72100 32.99000
H  45.68600 30.74600 34.25600
H  47.48300 30.87500 33.75500
Mg 16.96200 51.52200 25.48200
C  18.77800 50.27100 28.33800
C  14.44600 52.44500 27.64600
C  15.67400 52.98000 22.97800
C  19.54700 50.22600 23.56800
N  16.64500 51.26500 27.68800
C  17.46000 50.75500 28.66000
C  16.91500 51.21100 30.02800
C  15.41200 51.41000 29.78000
C  15.51000 51.74300 28.25400
C  14.57300 50.10600 30.04900
C  17.67100 52.47000 30.56400
C  17.98800 52.48700 32.10500
H  17.02100 51.84700 33.17100
N  15.18600 52.65100 25.29500
C  14.29300 52.91500 26.28500
C  13.25000 53.76900 25.67900
C  13.58000 53.93300 24.27300
C  14.86200 53.24700 24.12700
C  12.00000 54.07900 26.36000
C  12.85200 54.73700 23.14800
O  13.23400 54.82300 21.99600
C  11.70300 55.54700 23.51700
N  17.49500 51.45200 23.59300
C  16.82400 52.25000 22.74000
C  17.44700 52.29800 21.31800
C  18.69800 51.37100 21.54900
C  18.58800 50.97500 23.00900
C  16.52400 51.89200 20.16200
C  20.03100 52.03100 21.19800
C  20.48200 51.58300 19.87600
N  18.69900 50.26900 25.80500
C  19.70700 49.90100 24.91800
C  20.80500 49.26600 25.56700
C  20.53800 49.35700 26.90900
C  19.22800 50.01100 27.01500
C  22.06600 48.78000 24.82100
C  21.04600 49.07000 28.28000
O  22.09500 48.57500 28.75500
C  19.82600 49.66900 29.29300
C  19.35800 48.61000 30.06400
O  19.05000 47.44100 29.72100
O  19.42700 48.92800 31.42600
C  18.95800 47.93200 32.39200
H  13.66600 52.88300 28.27200
H  15.28300 53.49500 22.09800
H  20.32700 49.85700 22.89900
H  17.07800 50.32700 30.64500
H  15.00700 52.25500 30.33800
H  13.61900 50.30500 30.53700
H  15.09200 49.43600 30.73500
H  14.28900 49.72000 29.07000
H  17.08200 53.36600 30.36900
H  18.60000 52.52300 29.99500
H  18.01800 53.53900 32.39000
H  18.92700 51.96100 32.27900
H  11.19200 53.73600 25.71300
H  11.94500 55.16800 26.38900
H  11.86000 53.58700 27.32200
H  10.87400 54.90200 23.81000
H  11.40300 56.15600 22.66300
H  11.94300 56.14300 24.39800
H  17.62800 53.35100 21.10200
H  18.55500 50.40800 21.06100
H  15.48900 52.20400 20.30200
H  16.54300 50.81200 20.01900
H  16.79400 52.40900 19.24100
H  20.84500 51.73400 21.86000
H  19.83200 53.10100 21.15300
H  21.17200 50.77800 20.12900
H  21.12400 52.26200 19.31600
H  19.75600 51.13400 19.19700
H  22.27400 49.47600 24.00800
H  21.80400 47.78900 24.45000
H  22.92600 48.52400 25.43900
H  20.29300 50.43500 29.91300
H  18.21100 48.33700 33.07500
H  19.82500 47.63200 32.98100
H  18.63300 46.96500 32.00800

