158

Mg 25.55000 1.99900 29.18800
C  27.43500 1.55700 32.17400
C  22.82400 2.57600 31.08500
C  23.87200 2.24300 26.32200
C  28.41900 0.86000 27.39000
N  25.19900 2.00600 31.39500
C  26.10700 2.01500 32.35900
C  25.46800 2.32000 33.75500
C  23.96900 2.46200 33.40700
C  23.98100 2.34000 31.87400
C  23.10800 1.41200 34.15900
C  26.23300 3.51000 34.44100
C  26.48600 3.14500 35.92900
H  26.28700 4.13500 37.05600
N  23.64100 2.28000 28.74900
C  22.60000 2.51900 29.67200
C  21.33100 2.59400 29.05500
C  21.61500 2.40600 27.65500
C  23.08300 2.28300 27.53700
C  20.07400 2.52200 29.88900
C  20.62400 2.39100 26.48600
O  20.93300 2.31300 25.31500
C  19.21000 2.37900 26.81400
N  26.05600 1.73400 27.14500
C  25.21300 2.00300 26.15300
C  25.96900 2.28200 24.78400
C  27.34900 1.72100 25.20100
C  27.32600 1.42100 26.67000
C  25.37800 1.60800 23.54500
C  28.64600 2.57700 24.83200
C  28.75700 4.05100 25.40300
N  27.47700 1.16400 29.63400
C  28.50700 0.79100 28.80700
C  29.69200 0.63700 29.53400
C  29.29700 0.87800 30.86900
C  27.98300 1.23200 30.90400
C  31.07400 0.21000 28.97800
C  29.73800 0.90900 32.32200
O  30.82600 0.64300 32.78800
C  28.53900 1.30100 33.16800
C  28.25100 0.22300 34.14800
O  27.76300 -0.80700 33.78100
O  28.55100 0.45700 35.48600
C  28.28200 -0.64600 36.39800
H  21.95900 2.94400 31.64100
H  23.27100 2.22200 25.41000
H  29.30000 0.50500 26.85100
H  25.68600 1.39100 34.28100
H  23.64800 3.44100 33.76200
H  22.74500 0.66400 33.45400
H  22.23700 1.76300 34.71200
H  23.71300 0.93800 34.93300
H  25.49000 4.30600 34.40800
H  27.20300 3.84000 34.07000
H  27.50900 2.77300 35.88700
H  26.05300 2.17800 36.18700
H  20.02900 1.53400 30.34600
H  19.12800 2.69400 29.37600
H  20.09800 3.26200 30.69000
H  19.02600 3.38200 27.19700
H  18.94100 1.58200 27.50700
H  18.65000 2.26000 25.88600
H  25.91200 3.36500 24.67800
H  27.38400 0.69000 24.85000
H  24.83600 0.69000 23.76900
H  26.17400 1.43300 22.82100
H  24.63200 2.25900 23.08900
H  28.62500 2.66200 23.74600
H  29.56100 2.03400 25.06900
H  27.91600 4.28400 26.05500
H  28.89700 4.81000 24.63300
H  29.65500 4.03900 26.02100
H  31.81400 0.22900 29.77800
H  31.45400 0.83900 28.17200
H  30.99000 -0.80100 28.57900
H  28.96800 2.20700 33.59600
H  29.02500 -1.38200 36.09200
H  27.25200 -1.00200 36.37300
H  28.59600 -0.42700 37.41900
Mg -12.55500 15.90800 41.79500
C  -9.30200 14.52100 41.56300
C  -11.20100 18.85400 40.45900
C  -15.70000 16.99500 41.46300
C  -13.78700 12.68200 42.63500
N  -10.53600 16.48200 40.89000
C  -9.35500 15.79500 40.99700
C  -8.23800 16.58400 40.30500
C  -8.71600 18.02500 40.23600
C  -10.25000 17.81800 40.61400
C  -8.01800 18.98500 41.26800
C  -7.83300 16.06600 38.95700
C  -6.47000 15.38000 38.69900
H  -5.62000 15.94800 37.57300
N  -13.33300 17.66400 41.08400
C  -12.62300 18.76800 40.58500
C  -13.58100 19.82400 40.23100
C  -14.87000 19.34600 40.66900
C  -14.68300 17.95200 41.11100
C  -13.10200 21.10000 39.66200
C  -16.07500 20.27400 40.68600
O  -15.97800 21.45500 40.35600
C  -17.38400 19.88600 41.18100
N  -14.47100 15.02500 42.01800
C  -15.60000 15.63600 41.84700
C  -16.81500 14.73400 42.05400
C  -16.18700 13.37300 42.37200
C  -14.73100 13.69400 42.22300
C  -17.91000 15.24700 43.05300
C  -16.53200 12.14600 41.39400
C  -18.05600 11.66000 41.75300
N  -11.71800 13.99200 42.21100
C  -12.34200 12.78500 42.59300
C  -11.28000 11.72100 42.76500
C  -10.14900 12.36000 42.40500
C  -10.41200 13.72700 42.06100
C  -11.37700 10.27900 43.15200
C  -8.69500 12.16200 42.18800
O  -8.02300 11.15700 42.33800
C  -8.14600 13.54500 41.61300
C  -7.21600 13.99500 42.62100
O  -7.45900 14.49100 43.68200
O  -5.93300 13.79600 42.12100
C  -4.81000 14.31300 42.85500
H  -10.84000 19.84700 40.18300
H  -16.71600 17.32700 41.23900
H  -14.13900 11.68200 42.89900
H  -7.39400 16.53500 40.99200
H  -8.66800 18.55700 39.28600
H  -7.16500 18.40900 41.62800
H  -8.79200 19.12600 42.02200
H  -7.76700 20.01200 41.00500
H  -8.01400 16.83800 38.20900
H  -8.60700 15.33200 38.73400
H  -6.63100 14.31000 38.82300
H  -5.88000 15.57900 39.59400
H  -12.84900 21.80700 40.45300
H  -13.77700 21.56500 38.94300
H  -12.17300 20.99800 39.10200
H  -17.72800 19.05000 40.57300
H  -18.02500 20.76500 41.24700
H  -17.19200 19.55300 42.20100
H  -17.36300 14.66900 41.11400
H  -16.49000 13.07400 43.37500
H  -17.40700 16.10300 43.50200
H  -17.94000 14.43700 43.78200
H  -18.89500 15.40900 42.61400
H  -15.84200 11.33800 41.63700
H  -16.39300 12.26000 40.31900
H  -17.88000 10.64700 42.11400
H  -18.71900 11.70000 40.89000
H  -18.53500 12.24800 42.53600
H  -10.60200 9.79400 42.55900
H  -12.34700 9.79600 43.03100
H  -11.05700 10.27200 44.19400
H  -7.75200 13.27100 40.63400
H  -4.05300 13.65000 42.43700
H  -4.66600 14.13500 43.92100
H  -4.61200 15.36400 42.64000

