158

Mg 0.84900 -1.23000 43.53300
C  4.31300 -0.85800 42.75100
C  0.25300 1.60500 41.75500
C  -2.50000 -1.97200 43.68800
C  1.55300 -4.34500 44.81400
N  2.17400 0.18600 42.43000
C  3.53900 0.22800 42.29000
C  4.03500 1.46800 41.48100
C  2.69500 2.26600 41.34400
C  1.62700 1.27200 41.82400
C  2.73900 3.57300 42.12700
C  4.77000 1.00100 40.07200
C  5.88300 2.06000 39.68300
H  5.62600 2.77100 38.34200
N  -0.84700 -0.22400 42.90000
C  -0.87800 0.94700 42.25100
C  -2.23800 1.30800 42.05100
C  -3.07900 0.34300 42.59400
C  -2.15700 -0.71200 43.15000
C  -2.65700 2.56200 41.42100
C  -4.59200 0.37700 42.63600
O  -5.23200 1.25300 42.09800
C  -5.37800 -0.57300 43.45600
N  -0.29500 -2.85200 44.21200
C  -1.66800 -2.97800 44.11500
C  -2.16800 -4.40200 44.35000
C  -0.84400 -5.22100 44.61800
C  0.23000 -4.07900 44.52800
C  -3.25400 -4.49900 45.51700
C  -0.54900 -6.41300 43.56100
C  -0.83900 -7.76400 44.16400
N  2.53000 -2.37300 43.93800
C  2.63800 -3.60600 44.55400
C  4.00400 -3.97500 44.51000
C  4.65300 -2.87400 43.86300
C  3.74700 -1.96500 43.50400
C  4.57300 -5.33300 45.02700
C  6.03600 -2.33200 43.52400
O  7.16300 -2.89700 43.53900
C  5.81000 -0.99700 42.84700
C  6.60200 0.04800 43.57100
O  6.42000 0.36200 44.73400
O  7.55800 0.52900 42.79000
C  8.59600 1.41900 43.43400
H  0.13000 2.61600 41.36100
H  -3.52700 -2.34300 43.69300
H  1.82000 -5.29600 45.27900
H  4.68800 1.99100 42.17900
H  2.46800 2.34300 40.28100
H  2.10800 3.50600 43.01400
H  2.58300 4.44800 41.49500
H  3.75700 3.78300 42.45400
H  4.01000 0.83000 39.30900
H  5.27000 0.05200 40.26900
H  6.88700 1.63600 39.68700
H  5.92300 2.86700 40.41500
H  -2.86200 2.29600 40.38400
H  -1.90200 3.34600 41.47200
H  -3.54300 2.95300 41.92000
H  -6.39300 -0.17500 43.47100
H  -5.03600 -0.68800 44.48400
H  -5.35600 -1.47700 42.84700
H  -2.68400 -4.73000 43.44700
H  -0.72600 -5.51500 45.66100
H  -3.57300 -3.52600 45.89100
H  -2.82700 -5.18800 46.24500
H  -4.10100 -5.05500 45.11500
H  0.50900 -6.42600 43.29900
H  -1.14500 -6.29500 42.65500
H  0.12800 -8.26400 44.11300
H  -1.50300 -8.45900 43.64900
H  -1.25200 -7.69800 45.17100
H  4.85900 -6.13600 44.34800
H  3.91700 -5.73200 45.80100
H  5.50300 -4.94800 45.44500
H  6.31400 -1.11100 41.88800
H  9.55800 1.10500 43.03000
H  8.66000 1.38500 44.52200
H  8.27700 2.42200 43.15300
Mg 42.92300 3.86100 47.97800
C  41.02200 6.58800 47.04500
C  40.25000 1.84900 47.45800
C  45.02000 1.02500 48.08400
C  45.80800 5.83500 47.84400
N  40.89300 4.24500 47.15000
C  40.27300 5.44800 46.96900
C  38.76800 5.25200 46.64500
C  38.49300 3.71700 47.06400
C  39.95600 3.20600 47.21100
C  37.56900 3.52500 48.37500
C  38.51000 5.51900 45.12000
C  37.27000 6.48300 44.75600
H  37.44300 7.35600 43.44800
N  42.59200 1.69800 47.89600
C  41.44500 1.09300 47.71500
C  41.64400 -0.38100 47.62000
C  43.03700 -0.62400 47.81600
C  43.64400 0.75700 47.91900
C  40.51400 -1.36800 47.45900
C  43.76900 -1.96500 47.87400
O  43.16600 -3.01800 47.93100
C  45.28200 -2.10800 47.85000
N  45.08400 3.49300 48.10300
C  45.65800 2.27000 48.17700
C  47.13600 2.37100 48.37800
C  47.48600 3.87200 48.14200
C  46.02500 4.45700 48.02700
C  47.61400 1.69300 49.69900
C  48.48900 4.10600 46.95300
C  49.91100 4.37300 47.37900
N  43.38100 5.85400 47.67000
C  44.60100 6.42800 47.64100
C  44.30500 7.85900 47.34300
C  42.93100 7.98700 47.19700
C  42.41200 6.69000 47.27600
C  45.40700 8.88000 47.10600
C  41.90800 8.98100 46.89200
O  41.93100 10.15500 46.65800
C  40.60500 8.10600 46.84100
C  39.76800 8.63800 47.93500
O  39.86200 8.35600 49.11900
O  38.79000 9.42200 47.40500
C  37.87600 10.08800 48.28800
H  39.39800 1.17300 47.36300
H  45.71800 0.19700 48.22300
H  46.61600 6.56900 47.83600
H  38.13200 5.95200 47.18700
H  38.19000 3.01900 46.28300
H  37.43700 4.49700 48.85000
H  38.19800 2.84300 48.94700
H  36.57400 3.09200 48.27300
H  38.34800 4.57600 44.59800
H  39.44400 5.85300 44.67000
H  37.07300 7.19900 45.55400
H  36.31500 5.95900 44.72400
H  40.57600 -1.92800 46.52600
H  39.56700 -0.84400 47.59000
H  40.57100 -2.15800 48.20900
H  45.78500 -1.53700 47.07000
H  45.44300 -3.10200 47.43200
H  45.75400 -1.93000 48.81600
H  47.81000 2.00700 47.60200
H  48.05400 4.29600 48.96900
H  47.52900 0.61800 49.54200
H  46.96800 1.99000 50.52500
H  48.64400 1.93900 49.95700
H  48.08800 4.99200 46.46100
H  48.52400 3.24000 46.29200
H  50.55700 4.04000 46.56500
H  50.17700 3.90400 48.32600
H  49.98100 5.45800 47.45700
H  46.38200 8.42800 46.92300
H  45.41400 9.48900 48.01000
H  45.14800 9.60500 46.33400
H  40.00200 8.37100 45.97300
H  36.88800 9.63900 48.18600
H  37.74100 11.08400 47.86400
H  38.16100 10.12900 49.33900

