158

Mg -3.23300 17.26500 25.56500
C  -3.24600 14.82100 28.20100
C  -3.95500 19.57000 27.92100
C  -3.35700 19.41900 23.09200
C  -2.77800 14.68500 23.33000
N  -3.55300 17.13600 27.91500
C  -3.39300 16.11200 28.73000
C  -3.50500 16.53600 30.20100
C  -4.04400 18.00500 30.08100
C  -3.87200 18.30600 28.53100
C  -5.43500 18.42800 30.61200
C  -2.08500 16.32900 30.85500
C  -1.52600 17.08200 32.06300
H  -1.30600 16.17800 33.29500
N  -3.63900 19.21100 25.47100
C  -3.82700 19.99300 26.57000
C  -4.08300 21.29500 26.11600
C  -3.83300 21.38600 24.75000
C  -3.63000 19.96600 24.35700
C  -4.47400 22.45400 27.09700
C  -3.71600 22.66500 23.82500
O  -3.68500 22.56600 22.62200
C  -3.55400 24.03300 24.50500
N  -2.74600 17.11600 23.51200
C  -2.97700 18.16700 22.70800
C  -2.76700 17.82200 21.20600
C  -2.85700 16.28200 21.36800
C  -2.66600 15.98800 22.80200
C  -3.77100 18.36500 20.12400
C  -1.97000 15.43000 20.36900
C  -2.56900 14.24400 19.64100
N  -3.16400 15.23800 25.71000
C  -3.05200 14.31800 24.69100
C  -3.14700 12.97900 25.15000
C  -3.19500 13.17100 26.48800
C  -3.22400 14.56200 26.83800
C  -3.06000 11.67800 24.43800
C  -3.26200 12.39900 27.72400
O  -3.16600 11.19500 27.89300
C  -3.26100 13.49300 28.89100
C  -2.03900 13.12200 29.71500
O  -0.86100 13.31500 29.42900
O  -2.47800 12.56700 30.90900
C  -1.47700 12.48000 31.93200
H  -4.35400 20.26100 28.66700
H  -3.39400 20.10100 22.24000
H  -2.81000 13.91600 22.55600
H  -4.23500 15.84400 30.62100
H  -3.37400 18.65500 30.64300
H  -5.93700 17.59300 31.10100
H  -6.08900 18.70900 29.78700
H  -5.43500 19.23000 31.35000
H  -1.34000 16.51800 30.08200
H  -2.02100 15.24700 30.97500
H  -2.28500 17.83400 32.27900
H  -0.52100 17.43600 31.83400
H  -4.88100 22.04300 28.02100
H  -5.25900 22.96600 26.54200
H  -3.58700 23.06600 27.26300
H  -3.50800 24.80800 23.73900
H  -2.60300 24.07500 25.03700
H  -4.38600 24.22700 25.18200
H  -1.77000 18.08400 20.85000
H  -3.81800 15.80700 21.17300
H  -4.72300 18.60400 20.59700
H  -3.81500 17.66700 19.28700
H  -3.32500 19.31200 19.82100
H  -1.14900 15.05500 20.98000
H  -1.56400 16.13500 19.64400
H  -3.56800 14.09200 20.05000
H  -1.91100 13.37800 19.70700
H  -2.63600 14.54600 18.59600
H  -4.07300 11.37600 24.17000
H  -2.51500 10.87700 24.93600
H  -2.39000 11.71600 23.57900
H  -4.13100 13.29300 29.51600
H  -0.65300 13.19300 31.95100
H  -1.05500 11.48100 31.82900
H  -2.11300 12.65400 32.80100
Mg -2.84900 35.09300 27.05900
C  -4.67000 33.24200 29.47300
C  -1.42200 36.70200 29.57600
C  -1.64200 37.18500 24.76500
C  -4.62400 33.29700 24.54900
N  -2.98200 34.85700 29.23200
C  -3.72100 34.09700 30.05500
C  -3.44100 34.30700 31.56700
C  -2.41800 35.44100 31.58900
C  -2.23800 35.71100 30.04800
C  -2.78800 36.71500 32.49600
C  -3.01500 33.01900 32.25900
C  -3.76600 32.65700 33.61900
H  -2.94600 31.83200 34.59900
N  -1.70000 36.68100 27.12200
C  -1.07900 37.08600 28.26100
C  -0.07700 38.10400 27.91400
C  -0.19400 38.35000 26.52600
C  -1.23300 37.41400 26.07400
C  0.79500 38.85300 28.97300
C  0.63300 39.30000 25.65600
O  0.39200 39.34200 24.42200
C  1.80700 40.07300 26.28400
N  -3.22800 35.28500 25.00300
C  -2.45000 36.15700 24.27400
C  -2.63800 35.96600 22.78000
C  -3.38400 34.63500 22.77000
C  -3.77500 34.39800 24.17200
C  -3.49200 37.10700 22.09400
C  -2.53500 33.38700 22.31200
C  -2.34900 33.18300 20.83200
N  -4.43200 33.61900 26.98300
C  -4.94500 32.90400 25.90100
C  -5.78800 31.89200 26.32700
C  -5.76500 32.05000 27.73500
C  -4.88900 33.08400 28.09200
C  -6.58000 30.83700 25.59500
C  -6.30100 31.52800 28.93400
O  -7.12900 30.59600 29.07700
C  -5.63100 32.28500 30.14100
C  -6.74800 33.03700 30.85200
O  -7.53900 33.86500 30.31000
O  -6.81700 32.68600 32.18000
C  -7.84300 33.42900 32.96900
H  -0.91400 37.20900 30.39900
H  -1.17600 37.74200 23.94900
H  -4.89800 32.62700 23.73200
H  -4.32800 34.72100 32.04700
H  -1.52600 35.01800 32.05000
H  -3.36300 37.47300 31.96500
H  -1.85400 37.11500 32.89100
H  -3.30200 36.31600 33.37100
H  -1.96900 32.82900 32.50000
H  -3.41200 32.24800 31.59900
H  -4.61600 32.06800 33.27700
H  -4.02000 33.51600 34.23900
H  0.68200 39.93700 29.00700
H  1.78300 38.51400 28.66100
H  0.75700 38.44600 29.98300
H  1.37700 40.83000 26.93900
H  2.45900 40.53900 25.54400
H  2.44000 39.41700 26.88100
H  -1.64800 35.90600 22.33000
H  -4.33300 34.61600 22.23300
H  -2.80300 37.78500 21.59100
H  -3.86700 37.67300 22.94700
H  -4.37600 36.83700 21.51600
H  -3.15300 32.51500 22.52500
H  -1.61200 33.20400 22.86200
H  -3.02800 33.86400 20.32000
H  -2.53100 32.15600 20.51500
H  -1.32400 33.38800 20.52300
H  -6.28200 30.76400 24.55000
H  -7.64300 31.07800 25.57300
H  -6.41900 29.86000 26.05000
H  -5.31500 31.45500 30.77300
H  -7.64100 33.40200 34.04000
H  -8.59900 32.67600 32.74400
H  -8.06500 34.42900 32.59700

