158

Mg -3.35600 16.77800 27.36000
C  -3.12400 14.72100 30.32300
C  -3.32100 19.63100 29.34100
C  -3.49600 18.53700 24.66100
C  -3.44800 13.84500 25.52400
N  -3.23700 17.09600 29.55900
C  -3.11000 16.12700 30.57600
C  -3.12000 16.76400 31.94900
C  -3.28600 18.24300 31.56600
C  -3.20800 18.39600 30.05000
C  -4.59500 18.83500 32.18200
C  -1.87400 16.41300 32.81100
C  -1.51900 17.31800 34.07300
H  -0.84000 16.72000 35.29300
N  -3.36500 18.77300 27.00700
C  -3.35200 19.77800 27.95900
C  -3.23400 21.01200 27.34600
C  -3.31200 20.78900 25.92700
C  -3.45300 19.30400 25.79700
C  -3.18500 22.31800 28.06500
C  -3.09500 21.78400 24.64600
O  -3.15300 21.43400 23.48000
C  -2.57500 23.20000 24.93200
N  -3.41800 16.23000 25.33500
C  -3.48700 17.16500 24.37400
C  -3.43800 16.51400 22.96300
C  -3.28700 15.02500 23.29000
C  -3.40400 15.03900 24.78500
C  -4.68800 16.79800 22.05000
C  -1.96500 14.36700 22.84300
C  -1.88700 13.94300 21.39500
N  -3.43200 14.74600 27.76100
C  -3.40500 13.68300 26.89700
C  -3.36200 12.39200 27.59200
C  -3.23700 12.79600 28.93200
C  -3.32500 14.22300 28.98800
C  -3.43900 11.02700 27.06400
C  -3.23500 12.28500 30.28500
O  -3.12700 11.13400 30.74800
C  -3.02900 13.56600 31.25600
C  -1.66200 13.36400 31.80000
O  -0.72100 13.94600 31.34200
O  -1.68700 12.69900 32.97600
C  -0.43200 12.63800 33.73000
H  -3.38400 20.41600 30.09800
H  -3.50000 19.12400 23.74000
H  -3.49700 12.97900 24.86000
H  -4.02200 16.43600 32.46500
H  -2.49700 18.82200 32.04500
H  -4.58400 19.92400 32.13200
H  -4.53500 18.69100 33.26100
H  -5.44900 18.35900 31.70100
H  -1.01800 16.35600 32.13800
H  -1.93300 15.39600 33.19800
H  -2.45000 17.79300 34.38400
H  -0.86200 18.11900 33.73400
H  -2.23300 22.82700 27.91000
H  -3.33500 22.22500 29.14100
H  -3.93900 23.01400 27.69700
H  -1.67600 23.06900 25.53400
H  -3.26400 23.82900 25.49500
H  -2.36700 23.74400 24.01000
H  -2.56400 16.95300 22.48100
H  -4.16500 14.51600 22.89100
H  -5.34300 17.54300 22.50100
H  -5.37700 16.02500 21.70900
H  -4.31600 17.30600 21.16000
H  -1.73300 13.46200 23.40400
H  -1.16500 15.09600 22.97800
H  -2.76700 14.35800 20.90100
H  -1.86800 12.85700 21.30300
H  -0.98300 14.33500 20.93000
H  -4.45400 10.66000 27.21900
H  -2.67900 10.49900 27.63900
H  -3.05900 10.90200 26.05000
H  -3.77100 13.42600 32.04300
H  -0.31400 13.46100 34.43400
H  0.47900 12.48900 33.14900
H  -0.57900 11.68600 34.23900
Mg 17.97100 50.72800 26.09400
C  19.75800 49.08400 28.61800
C  15.75300 51.65900 28.43300
C  16.00300 51.84300 23.56800
C  20.14900 49.50600 23.70200
N  17.73200 50.19900 28.29700
C  18.67300 49.74300 29.14600
C  18.26500 50.02500 30.58000
C  16.79100 50.50900 30.46800
C  16.76400 50.87700 28.99800
C  15.77400 49.52700 30.91800
C  19.15200 51.07100 31.25500
C  19.43500 50.92700 32.80600
H  18.44000 51.71700 33.59700
N  16.10500 51.73300 25.99000
C  15.38800 52.00200 27.14300
C  14.22500 52.70400 26.74500
C  14.26400 52.77100 25.33400
C  15.48200 52.08100 24.89200
C  13.18300 53.17600 27.74900
C  13.30800 53.49000 24.39500
O  13.53100 53.65700 23.19300
C  11.99800 54.14300 24.85900
N  18.12400 50.67800 23.91100
C  17.18800 51.26500 23.11600
C  17.47800 51.10600 21.60000
C  18.88600 50.37100 21.62000
C  19.08300 50.13400 23.17200
C  16.44400 50.47000 20.68200
C  19.98800 51.15800 20.81900
C  20.91800 50.30200 19.86200
N  19.68900 49.56700 26.06200
C  20.44400 49.16100 25.10000
C  21.61800 48.47700 25.63400
C  21.36600 48.35400 26.95300
C  20.16100 49.04000 27.21200
C  22.83200 48.03200 24.81800
C  21.81300 47.88700 28.28200
O  22.85000 47.30200 28.56900
C  20.89300 48.47900 29.40700
C  20.56600 47.44400 30.39600
O  19.93600 46.48500 30.09900
O  20.95000 47.76700 31.64600
C  20.46800 46.84100 32.67300
H  15.00600 52.06400 29.11900
H  15.42900 52.34600 22.78700
H  20.87200 49.28300 22.91400
H  18.28400 49.15200 31.23300
H  16.65400 51.34000 31.16000
H  14.85500 49.98000 31.29000
H  16.17100 48.98400 31.77700
H  15.66800 48.69300 30.22400
H  18.68800 52.04500 31.10000
H  20.11000 51.27500 30.77500
H  20.43800 51.33000 32.94500
H  19.47700 49.88100 33.10700
H  12.26000 52.59800 27.70100
H  12.81300 54.13800 27.39700
H  13.59000 53.43500 28.72700
H  12.28400 55.10100 25.29300
H  11.52300 53.54100 25.63400
H  11.22800 54.37300 24.12300
H  17.68400 52.14300 21.33500
H  18.93500 49.35500 21.22800
H  15.60200 50.04800 21.23100
H  16.84900 49.57400 20.21400
H  15.99200 51.18400 19.99300
H  20.65700 51.58600 21.56500
H  19.61100 52.02800 20.28000
H  21.97600 50.19100 20.09800
H  20.80300 50.67200 18.84300
H  20.54400 49.28300 19.75700
H  23.68400 48.68700 25.00300
H  22.66500 48.03100 23.74100
H  23.23300 47.11600 25.25300
H  21.50300 49.20200 29.94900
H  20.83100 45.83600 32.45500
H  19.40100 46.92100 32.87600
H  20.91700 47.13700 33.62100

