158

Mg 26.73000 49.16700 27.37000
C  24.54500 50.62700 29.75500
C  28.76900 48.12900 29.93700
C  28.76700 48.03100 25.02600
C  24.66300 50.39300 24.85800
N  26.75500 49.47300 29.65100
C  25.62400 49.91300 30.35900
C  25.78800 49.56500 31.85200
C  27.27300 48.94900 31.89600
C  27.60900 48.79700 30.40400
C  28.41100 49.80900 32.50500
C  24.62800 48.59800 32.21500
C  23.78500 48.78200 33.51400
H  23.85600 47.74500 34.57200
N  28.47000 48.20100 27.46700
C  29.13900 47.86400 28.60000
C  30.43000 47.41100 28.13900
C  30.55500 47.43800 26.72500
C  29.18600 47.86200 26.35300
C  31.47400 46.98000 29.19200
C  31.71000 46.97800 25.73600
O  31.69700 47.14900 24.52600
C  33.02000 46.47000 26.39900
N  26.80200 49.40600 25.25000
C  27.67200 48.65600 24.51000
C  27.34100 48.77200 22.96600
C  26.17300 49.71600 22.90600
C  25.84400 49.78800 24.41200
C  28.63800 49.20600 22.12700
C  25.14500 49.38500 21.88400
C  24.20900 48.18600 22.28900
N  25.01100 50.34100 27.27700
C  24.28800 50.72200 26.16300
C  23.25700 51.63900 26.58000
C  23.26600 51.57400 27.97200
C  24.34900 50.80900 28.35600
C  22.24900 52.23100 25.64500
C  22.60100 52.01000 29.19000
O  21.63100 52.71800 29.37700
C  23.42500 51.29600 30.39600
C  23.85400 52.38600 31.35100
O  24.88700 53.04800 31.32400
O  23.03400 52.29800 32.48300
C  23.35500 52.96400 33.78600
H  29.36000 47.71700 30.75900
H  29.41700 47.49400 24.33100
H  23.98000 50.79100 24.10500
H  25.67700 50.44100 32.49200
H  27.30900 47.93100 32.28500
H  29.18300 50.08300 31.78600
H  28.98400 49.17100 33.17800
H  28.02100 50.69800 33.00200
H  24.98800 47.56900 32.23700
H  23.84400 48.59200 31.45900
H  22.72000 48.88400 33.30300
H  24.06200 49.73300 33.96800
H  31.97900 46.02400 29.05500
H  31.18600 46.92900 30.24200
H  32.26600 47.72900 29.17400
H  33.48600 47.26000 26.98800
H  33.63400 46.19900 25.54100
H  32.90700 45.54300 26.96100
H  26.98600 47.77400 22.70900
H  26.53200 50.73000 22.72900
H  29.49000 49.53900 22.72000
H  28.43900 50.02800 21.43900
H  28.93200 48.32900 21.55100
H  25.59500 49.22600 20.90400
H  24.45600 50.22800 21.82600
H  24.29800 47.98900 23.35700
H  24.55500 47.40200 21.61600
H  23.21500 48.59700 22.11100
H  21.99300 51.40900 24.97600
H  22.80900 53.08100 25.25600
H  21.34300 52.51900 26.17800
H  22.79900 50.59100 30.94300
H  22.36700 53.03900 34.23900
H  23.86600 53.91900 33.67000
H  23.87500 52.28200 34.46000
Mg -3.12900 35.36300 26.51400
C  -4.65000 33.59000 29.09200
C  -1.76000 37.48600 28.88300
C  -1.83200 37.27000 24.00700
C  -4.88700 33.42800 24.17500
N  -3.32200 35.63000 28.75200
C  -3.81400 34.61600 29.58100
C  -3.52500 34.95800 31.09700
C  -2.72400 36.33000 30.93600
C  -2.63800 36.49400 29.42800
C  -3.53500 37.51500 31.55900
C  -2.65800 33.78000 31.78000
C  -3.37500 33.12200 32.99300
H  -2.55800 32.93000 34.25600
N  -2.00000 37.23200 26.44900
C  -1.53400 37.86300 27.54500
C  -0.50000 38.84000 27.10800
C  -0.36300 38.63400 25.67900
C  -1.40400 37.67500 25.31800
C  0.23400 39.76900 28.12800
C  0.55600 39.30500 24.71500
O  0.54300 39.11600 23.52800
C  1.63500 40.17200 25.25300
N  -3.48800 35.48400 24.40600
C  -2.72800 36.28300 23.58600
C  -2.88000 35.94500 22.08200
C  -3.70800 34.61300 22.15500
C  -4.05900 34.46700 23.67000
C  -3.49900 37.09600 21.32700
C  -3.06900 33.34000 21.50800
C  -1.97700 32.60300 22.33500
N  -4.44100 33.77500 26.59200
C  -5.14800 33.11600 25.49400
C  -5.83100 31.97200 26.03600
C  -5.66500 32.10800 27.46800
C  -4.89800 33.26000 27.71400
C  -6.54800 30.90600 25.20300
C  -6.09300 31.58600 28.75500
O  -6.85900 30.63300 29.09200
C  -5.48400 32.59500 29.87500
C  -6.53900 33.09200 30.76600
O  -7.45900 33.85600 30.46400
O  -6.51300 32.35000 31.92200
C  -7.32700 32.75700 33.06400
H  -1.09400 37.95100 29.61300
H  -1.25100 37.78900 23.24300
H  -5.30900 32.78600 23.39900
H  -4.42300 35.17200 31.67700
H  -1.74800 36.27300 31.41800
H  -2.81900 38.04800 32.18300
H  -4.39200 37.22600 32.16800
H  -3.83700 38.25300 30.81500
H  -1.76000 34.17200 32.25600
H  -2.35800 33.01500 31.06400
H  -3.70500 32.15600 32.61200
H  -4.24300 33.68300 33.33900
H  -0.34500 39.92000 29.03900
H  0.33000 40.81900 27.85300
H  1.20300 39.29700 28.29100
H  2.30200 40.49500 24.45400
H  2.14900 39.69000 26.08400
H  1.35300 41.14300 25.65900
H  -1.98400 35.61600 21.55500
H  -4.60500 34.79400 21.56400
H  -3.57900 37.95000 21.99900
H  -4.53100 36.89700 21.03600
H  -2.82100 37.34500 20.51100
H  -2.56800 33.62100 20.58200
H  -3.89100 32.64000 21.35900
H  -1.86200 31.55500 22.05900
H  -2.25500 32.51500 23.38500
H  -1.03800 33.13900 22.19700
H  -6.25700 29.94300 25.62300
H  -6.50000 30.88400 24.11400
H  -7.57700 31.15300 25.46600
H  -4.74000 32.01500 30.42100
H  -6.79300 33.49500 33.66300
H  -7.52100 31.84100 33.62200
H  -8.28000 33.17200 32.73400

