158

Mg -1.08300 34.99400 27.34800
C  -3.08800 33.22900 29.55300
C  -0.41200 37.20800 29.88900
C  0.46200 36.83000 25.01600
C  -2.45500 33.00900 24.69700
N  -1.79900 35.22900 29.46300
C  -2.40000 34.23500 30.19400
C  -2.29800 34.53000 31.73700
C  -1.70200 35.97700 31.75700
C  -1.24400 36.18900 30.31100
C  -2.65600 37.13500 32.18600
C  -1.43600 33.51300 32.53600
C  -2.07200 32.71300 33.64600
H  -2.61600 33.58200 34.83100
N  0.08800 36.65400 27.53600
C  0.20900 37.42200 28.62400
C  1.14700 38.45200 28.31600
C  1.49100 38.42700 26.91000
C  0.65000 37.31600 26.41200
C  1.64100 39.42900 29.38000
C  2.54500 39.14400 26.08300
O  2.93700 38.78500 24.97800
C  3.06400 40.46300 26.58600
N  -1.08500 34.91600 25.19000
C  -0.34000 35.83700 24.48700
C  -0.25600 35.50700 22.94200
C  -1.25100 34.28300 22.90400
C  -1.62500 34.05400 24.37600
C  -0.63100 36.78400 22.09900
C  -0.50900 32.98200 22.36600
C  0.74000 32.52200 23.20400
N  -2.52400 33.49500 27.11300
C  -2.95100 32.82700 25.95700
C  -3.96100 31.87200 26.37600
C  -3.93800 31.85400 27.74100
C  -3.10100 32.95300 28.16900
C  -4.73200 30.96600 25.45700
C  -4.43000 31.18400 28.94000
O  -5.17200 30.23300 29.10400
C  -3.80600 31.92700 30.18700
C  -4.92800 32.20400 31.11900
O  -5.71700 33.14400 31.03300
O  -4.91200 31.29700 32.11700
C  -5.78200 31.59200 33.25400
H  -0.02300 37.76600 30.74300
H  1.19000 37.24500 24.31500
H  -2.78300 32.39400 23.85600
H  -3.32000 34.48000 32.11400
H  -0.81400 36.13500 32.36900
H  -3.06300 37.51900 31.25100
H  -2.11600 37.90800 32.73200
H  -3.48900 36.87200 32.83800
H  -0.57200 33.98100 33.00700
H  -1.09100 32.73700 31.85200
H  -1.21200 32.18600 34.06000
H  -2.86800 32.07200 33.26800
H  2.58900 39.02100 29.73200
H  0.91100 39.60000 30.17100
H  1.76100 40.45800 29.04300
H  2.32000 41.18900 26.91500
H  3.75300 40.95600 25.90000
H  3.67900 40.25500 27.46100
H  0.78900 35.21400 22.84100
H  -2.15700 34.58700 22.37900
H  -1.45900 36.61900 21.40900
H  0.28900 37.11700 21.61800
H  -0.99600 37.60000 22.72200
H  -0.07700 33.27300 21.40900
H  -1.10000 32.12500 22.04300
H  0.83200 32.99500 24.18100
H  1.64300 32.54600 22.59400
H  0.55800 31.46400 23.39700
H  -4.13100 30.39600 24.74900
H  -5.37500 31.67900 24.94100
H  -5.22000 30.26100 26.13000
H  -3.06300 31.39600 30.78200
H  -5.55700 32.46000 33.87400
H  -5.87600 30.64500 33.78500
H  -6.80500 31.77900 32.92900
Mg -4.19300 25.91900 25.86500
C  -3.13200 27.25400 28.92900
C  -6.03800 23.61800 27.54700
C  -4.97400 24.32700 22.95800
C  -1.96700 28.06900 24.26900
N  -4.49800 25.44700 27.94300
C  -4.09500 26.21800 29.01900
C  -4.73900 25.71400 30.30400
C  -5.54800 24.44400 29.79200
C  -5.31400 24.47800 28.31000
C  -5.14300 23.13800 30.42400
C  -5.67500 26.74000 31.00100
C  -5.44600 26.71700 32.51100
H  -5.08300 25.47400 33.26200
N  -5.34100 24.32800 25.31400
C  -6.14300 23.58700 26.17200
C  -7.02100 22.64500 25.50400
C  -6.68400 22.73500 24.13000
C  -5.60100 23.80400 24.06100
C  -7.98700 21.81800 26.20500
C  -7.03900 21.89800 22.94800
O  -6.32600 21.91600 21.95100
C  -8.35000 21.11100 23.03000
N  -3.63700 26.21100 23.90400
C  -3.98500 25.40800 22.87200
C  -3.20500 25.84400 21.54800
C  -2.61300 27.18800 21.93000
C  -2.75200 27.16600 23.50800
C  -2.11600 24.76700 21.13400
C  -3.21200 28.36200 21.17000
C  -3.45400 29.70900 21.85000
N  -2.81800 27.44800 26.47700
C  -1.97500 28.17900 25.68200
C  -1.19200 29.06000 26.56100
C  -1.64000 28.74800 27.88200
C  -2.61900 27.73700 27.71300
C  -0.24500 30.19300 26.13900
C  -1.49700 29.05200 29.29500
O  -0.89000 29.90000 29.87100
C  -2.47600 28.06300 30.04500
C  -1.73300 27.21700 30.99600
O  -1.11500 26.19500 30.64500
O  -1.76400 27.71400 32.32100
C  -0.67700 27.19100 33.16200
H  -6.61800 22.86400 28.08400
H  -5.05300 23.82800 21.99000
H  -1.26200 28.73100 23.76200
H  -3.93200 25.48400 30.99900
H  -6.62500 24.49900 29.94900
H  -6.09400 22.60800 30.48500
H  -4.72600 23.31300 31.41600
H  -4.32200 22.72900 29.83500
H  -6.76300 26.68000 30.99500
H  -5.37500 27.75400 30.73600
H  -6.27700 27.25600 32.96600
H  -4.53900 27.27800 32.73500
H  -8.46900 22.29400 27.05900
H  -7.52200 20.86300 26.45000
H  -8.77800 21.78600 25.45500
H  -9.18000 21.78500 23.24300
H  -8.20100 20.29300 23.73500
H  -8.60900 20.72200 22.04500
H  -3.88000 25.99300 20.70500
H  -1.53800 27.13800 21.75400
H  -2.16600 23.92900 21.82800
H  -1.09000 25.13600 21.15600
H  -2.36500 24.40600 20.13600
H  -4.19900 28.07200 20.80900
H  -2.52400 28.57400 20.35200
H  -2.85600 30.46200 21.33700
H  -3.21200 29.78100 22.91100
H  -4.49900 30.00200 21.75200
H  -0.70800 31.10300 25.75700
H  0.34300 29.67600 25.38100
H  0.48000 30.44900 26.91200
H  -3.15900 28.72800 30.57400
H  -0.93400 26.24500 33.63900
H  -0.39800 27.95300 33.88900
H  0.25500 27.10200 32.60400

