158

Mg 6.27300 54.43700 40.21100
C  5.44800 51.00600 39.94200
C  9.42200 53.68300 39.11000
C  7.00400 57.72200 39.75100
C  2.89200 55.14400 40.74800
N  7.32700 52.56200 39.39300
C  6.85600 51.26300 39.45400
C  7.77800 50.28400 38.75200
C  9.11800 51.04600 38.94500
C  8.62100 52.52900 39.12500
C  10.01500 50.70200 40.08900
C  7.30400 50.09500 37.23400
C  7.56200 48.71400 36.57000
H  6.51600 48.10500 35.67000
N  8.05600 55.53800 39.68100
C  9.30500 55.01800 39.40400
C  10.29900 56.10400 39.36800
C  9.58500 57.31800 39.52400
C  8.13800 56.86600 39.61600
C  11.81000 55.90100 39.25100
C  10.20200 58.76200 39.45600
O  11.42900 58.92500 39.28900
C  9.42200 60.00500 39.86300
N  5.07000 56.14100 40.20000
C  5.63900 57.40200 40.05200
C  4.54100 58.48500 40.23900
C  3.24000 57.63700 40.44600
C  3.70400 56.21300 40.50000
C  4.83000 59.60500 41.32300
C  2.10200 57.81500 39.30500
C  0.71600 57.93200 39.89800
N  4.57500 53.38700 40.37800
C  3.28800 53.73100 40.75500
C  2.46200 52.56000 40.99300
C  3.24100 51.45800 40.73000
C  4.51700 52.02800 40.37200
C  1.02900 52.64900 41.32300
C  3.26100 50.06100 40.58300
O  2.32400 49.24700 40.63800
C  4.76800 49.66200 40.14500
C  4.66200 48.70700 39.03600
O  4.16600 48.83100 37.91600
O  5.02400 47.47500 39.57800
C  4.85200 46.24000 38.80900
H  10.46200 53.47800 38.84600
H  7.21700 58.79300 39.77300
H  1.82200 55.28200 40.91700
H  7.84100 49.34100 39.29500
H  9.69200 50.92700 38.02600
H  9.49200 50.25000 40.93200
H  10.48600 51.61000 40.46500
H  10.84800 50.09600 39.73300
H  7.88700 50.69900 36.54000
H  6.31000 50.44900 36.96200
H  7.78000 48.04700 37.40400
H  8.52800 48.90200 36.10200
H  12.01800 54.98900 38.69200
H  12.31500 55.67500 40.19000
H  12.35600 56.73900 38.81900
H  8.63600 60.41900 39.23100
H  10.15700 60.80600 39.93200
H  9.11800 59.86100 40.90000
H  4.52500 59.00600 39.28100
H  2.78900 57.84000 41.41700
H  4.08200 59.63200 42.11500
H  4.86400 60.54800 40.77800
H  5.84000 59.41800 41.68700
H  2.15700 56.96400 38.62700
H  2.30100 58.65500 38.63900
H  0.07800 57.19200 39.41400
H  0.36700 58.96000 39.99300
H  0.81000 57.65300 40.94700
H  0.57500 53.03700 40.41100
H  0.78700 53.20700 42.22800
H  0.58500 51.67000 41.50500
H  5.08600 49.04200 40.98300
H  3.89200 45.74600 38.95800
H  5.65300 45.50800 38.92200
H  4.83300 46.47300 37.74400
Mg 17.23100 52.99700 26.39000
C  19.29800 51.48700 28.90800
C  14.77500 53.38500 28.72500
C  15.07500 53.36100 23.86300
C  19.59300 51.71700 24.02400
N  17.07400 52.37700 28.53300
C  18.08700 51.98200 29.41500
C  17.65700 52.00100 30.88200
C  16.10300 52.42200 30.71600
C  15.95500 52.80100 29.26500
C  14.99700 51.42200 31.24100
C  18.57900 52.99600 31.62400
C  18.73400 52.74800 33.13900
H  17.59100 52.06300 33.91500
N  15.27600 53.58400 26.32700
C  14.43700 53.68100 27.41700
C  13.20700 54.23900 26.94300
C  13.19500 54.07800 25.52800
C  14.49700 53.58400 25.13700
C  12.15300 54.77700 27.89200
C  12.11800 54.43300 24.54600
O  12.24800 54.16400 23.33000
C  10.86100 55.00700 24.98200
N  17.40800 52.80100 24.23500
C  16.41300 53.11600 23.44400
C  16.94200 53.18600 21.98100
C  18.34100 52.64900 22.06300
C  18.50700 52.39600 23.52800
C  16.09500 52.54600 20.84300
C  19.47600 53.50000 21.40100
C  19.93100 54.75000 22.24500
N  18.97500 51.82700 26.34900
C  19.82400 51.43600 25.34200
C  20.94800 50.65500 25.85200
C  20.77100 50.65100 27.25500
C  19.59300 51.39200 27.52100
C  22.11800 50.10100 25.14700
C  21.39800 50.26600 28.49200
O  22.38800 49.59100 28.68700
C  20.43700 50.78100 29.64900
C  19.85100 49.60700 30.40200
O  18.92200 48.88000 30.06500
O  20.50600 49.52800 31.61600
C  19.82500 48.75000 32.69400
H  14.08000 53.57400 29.54600
H  14.32600 53.37800 23.06900
H  20.24500 51.32700 23.23900
H  17.75900 51.01300 31.33100
H  16.04200 53.27100 31.39800
H  14.17500 51.92300 31.75300
H  15.48300 50.61700 31.79300
H  14.62600 50.94000 30.33700
H  18.13700 53.98300 31.48500
H  19.57300 53.05400 31.18000
H  18.94300 53.73900 33.54300
H  19.66400 52.18800 33.24100
H  12.05300 55.86000 27.82600
H  12.54400 54.57300 28.88900
H  11.16900 54.30800 27.87500
H  10.34400 54.22900 25.54200
H  10.34700 55.23400 24.04800
H  11.04400 55.76800 25.74100
H  17.06700 54.25700 21.82100
H  18.45800 51.69900 21.54100
H  15.36100 51.86100 21.26600
H  16.68800 51.85800 20.24100
H  15.60100 53.16000 20.09000
H  19.14200 53.69400 20.38200
H  20.37500 52.88400 21.41000
H  20.77800 54.51200 22.88900
H  19.13900 55.07600 22.91900
H  20.20500 55.55000 21.55700
H  22.30900 50.77500 24.31200
H  21.79700 49.19000 24.64200
H  22.84100 49.94300 25.94700
H  20.97200 51.45400 30.31900
H  19.83700 49.36600 33.59300
H  20.47000 47.87200 32.73900
H  18.85700 48.26400 32.56700

