158

Mg 1.69500 7.10200 25.23400
C  2.27800 9.23700 27.96900
C  2.02000 4.40300 27.37500
C  1.63600 5.23100 22.65300
C  1.84400 10.05500 23.18700
N  2.25900 6.86900 27.39900
C  2.24400 7.87100 28.34700
C  2.06100 7.32500 29.77200
C  2.17800 5.78100 29.60500
C  2.13800 5.68300 28.03600
C  3.45800 5.15600 30.29800
C  0.77200 7.84300 30.40400
C  0.83900 7.91100 31.96100
H  2.08200 7.35500 32.71700
N  1.59300 5.03100 25.09000
C  1.77400 4.08300 26.05200
C  1.82900 2.82200 25.47600
C  1.69200 3.00500 24.07100
C  1.62000 4.43900 23.82000
C  1.89000 1.51400 26.29800
C  1.48900 2.01700 22.92300
O  1.02400 2.29400 21.85600
C  1.56600 0.51200 23.27800
N  1.73600 7.57500 23.25600
C  1.60800 6.65400 22.36900
C  1.67500 7.16900 20.96700
C  1.49600 8.69400 21.16900
C  1.68000 8.78700 22.64300
C  2.96300 6.65900 20.09200
C  0.09500 9.22700 20.66500
C  -0.03700 9.36500 19.08400
N  1.99600 9.31500 25.44800
C  2.02000 10.31600 24.53100
C  2.17400 11.58400 25.23600
C  2.23000 11.26200 26.62700
C  2.20100 9.83700 26.63700
C  2.29000 12.93900 24.66600
C  2.43700 11.76800 27.95100
O  2.77800 12.86800 28.29300
C  2.24000 10.45800 28.97200
C  3.38400 10.56600 29.94600
O  4.53300 10.09600 29.80600
O  3.06400 11.36300 31.02000
C  4.12200 11.65900 32.01100
H  1.86500 3.52500 28.00500
H  1.76400 4.67400 21.72300
H  1.67900 10.91500 22.53600
H  2.88100 7.79600 30.31400
H  1.38200 5.19100 30.05900
H  3.91500 5.83100 31.02100
H  4.23300 4.88400 29.58100
H  3.12900 4.23400 30.77800
H  -0.15900 7.28800 30.28100
H  0.53000 8.82000 29.98600
H  -0.11900 7.62400 32.39500
H  0.73900 8.98100 32.13900
H  2.72100 0.91300 25.92700
H  0.98100 0.97500 26.03300
H  2.01600 1.63900 27.37400
H  0.69400 0.37300 23.91800
H  2.44000 0.31000 23.89700
H  1.56600 -0.13500 22.40100
H  0.87400 6.75000 20.35800
H  2.23100 9.24000 20.57700
H  3.79500 6.59600 20.79300
H  3.15600 7.44500 19.36100
H  2.92900 5.73000 19.52300
H  -0.00100 10.27700 20.94100
H  -0.69700 8.67200 21.16800
H  -0.53500 8.45900 18.74000
H  0.93000 9.35600 18.58000
H  -0.61200 10.22600 18.74200
H  1.52400 13.50000 25.20100
H  2.04100 12.92600 23.60500
H  3.31400 13.28600 24.80700
H  1.30400 10.69000 29.48000
H  3.62400 11.61500 32.98000
H  4.65800 12.60700 31.96900
H  4.85100 10.86900 32.19500
Mg 45.43600 25.02100 28.33100
C  46.16300 27.03300 31.09800
C  44.48600 22.53100 30.43500
C  45.38800 22.88800 25.67000
C  46.74000 27.45500 26.22200
N  45.46200 24.81600 30.56800
C  45.68200 25.77700 31.50600
C  45.41700 25.30000 32.97800
C  44.99400 23.79600 32.70700
C  44.99900 23.67900 31.11600
C  45.73600 22.75200 33.48100
C  44.53200 26.11300 34.01700
C  45.11500 26.62800 35.34200
H  44.15800 26.82700 36.49200
N  45.09800 22.97200 28.07100
C  44.61500 22.14000 29.03800
C  44.28700 20.86300 28.47800
C  44.66400 20.92300 27.12000
C  45.02000 22.28100 26.90900
C  43.55800 19.82200 29.33100
C  44.64400 19.81600 26.07900
O  45.19200 19.85900 24.98000
C  43.97700 18.49100 26.48900
N  46.04900 25.15900 26.22400
C  45.86600 24.15500 25.39300
C  46.15900 24.54600 23.98200
C  46.43600 26.07100 24.09600
C  46.44100 26.26000 25.58700
C  47.33000 23.78500 23.32000
C  45.36700 26.92200 23.32800
C  45.95400 27.62600 22.07500
N  46.30000 26.91200 28.49400
C  46.82200 27.79300 27.58700
C  47.37900 28.97000 28.22500
C  47.11400 28.82000 29.60800
C  46.50000 27.46300 29.70600
C  47.91300 30.08400 27.52300
C  47.40400 29.31000 30.94700
O  48.04300 30.29400 31.33600
C  46.68200 28.22000 31.97100
C  47.74600 27.87300 32.90700
O  48.68100 27.06300 32.78000
O  47.53600 28.60900 34.04800
C  48.45100 28.34900 35.15300
H  44.32500 21.75900 31.19000
H  45.35700 22.20100 24.82100
H  47.14100 28.23400 25.57000
H  46.41900 25.43700 33.38600
H  43.97100 23.51900 32.96400
H  46.21600 22.13200 32.72400
H  45.03400 22.23600 34.13500
H  46.51000 23.21400 34.09400
H  43.62400 25.57300 34.28400
H  44.19700 27.03800 33.54700
H  45.38000 27.68200 35.26300
H  45.99300 26.05900 35.64600
H  42.78500 19.25800 28.80800
H  43.25800 20.29200 30.26800
H  44.24700 19.10700 29.78000
H  44.51500 17.92600 27.24900
H  44.14600 17.88600 25.59800
H  42.90400 18.55100 26.67400
H  45.33200 24.25400 23.33600
H  47.42300 26.32600 23.71100
H  48.26700 24.34200 23.34800
H  47.09800 23.67400 22.26100
H  47.66600 22.84000 23.74700
H  45.10100 27.78600 23.93700
H  44.45400 26.42700 22.99600
H  45.41900 27.40600 21.15100
H  47.01400 27.44000 21.90100
H  45.89100 28.71100 22.16600
H  47.69200 30.98700 28.09000
H  47.49000 30.02600 26.52000
H  48.97600 29.85800 27.43600
H  45.78000 28.57700 32.46800
H  49.49600 28.12700 34.93600
H  48.06500 27.54500 35.77900
H  48.25600 29.21900 35.78100

