158

Mg 24.89600 -5.18000 45.83500
C  27.13900 -2.93200 44.27500
C  22.44000 -4.05800 43.63700
C  22.94700 -7.82800 46.68900
C  27.62300 -6.64700 47.47200
N  24.79200 -3.82900 43.98500
C  25.80000 -2.87600 43.76400
C  25.24100 -1.86500 42.69400
C  23.66300 -1.91000 42.96600
C  23.61000 -3.32100 43.59800
C  23.08300 -0.76400 43.82600
C  25.67100 -2.18400 41.15500
C  26.15800 -0.92300 40.40300
H  26.11400 -1.08500 38.88700
N  22.97900 -5.85200 45.27900
C  22.13800 -5.27700 44.33600
C  20.95300 -6.06900 44.18900
C  21.01100 -7.12600 45.12300
C  22.39500 -6.93600 45.77700
C  19.88500 -5.69500 43.17900
C  19.91900 -8.12800 45.34300
O  18.84200 -8.10500 44.71200
C  19.92300 -9.13900 46.48700
N  25.20600 -6.93900 46.91600
C  24.22800 -7.84100 47.25200
C  24.78700 -9.02400 48.14900
C  26.15300 -8.46100 48.48600
C  26.35500 -7.27200 47.56000
C  23.88100 -9.49000 49.30800
C  27.23300 -9.55400 48.26000
C  28.52800 -9.46800 49.07800
N  26.94900 -4.81800 45.97600
C  27.96000 -5.58700 46.59100
C  29.23300 -4.96300 46.28200
C  28.95000 -3.95200 45.31800
C  27.54000 -3.91300 45.16300
C  30.55700 -5.41100 46.74300
C  29.59200 -2.88500 44.58900
O  30.78500 -2.51800 44.55400
C  28.34400 -2.13100 43.81400
C  28.34800 -0.70700 44.28000
O  27.65700 -0.21000 45.18800
O  29.37200 -0.07800 43.66000
C  29.92900 1.02900 44.39300
H  21.73200 -3.54700 42.98100
H  22.31300 -8.67900 46.94800
H  28.38500 -6.89900 48.21200
H  25.64400 -0.88100 42.93400
H  23.04800 -1.89500 42.06600
H  22.67400 -1.11700 44.77300
H  22.23400 -0.35400 43.27900
H  23.87700 -0.04200 44.01400
H  24.77300 -2.53600 40.64600
H  26.38100 -3.00900 41.21800
H  27.12900 -0.57000 40.75200
H  25.41000 -0.23100 40.79000
H  20.27700 -4.95500 42.48200
H  19.15800 -5.07900 43.70900
H  19.60200 -6.65300 42.74300
H  20.69200 -9.85400 46.19700
H  18.98400 -9.66300 46.66100
H  20.12000 -8.51700 47.36100
H  25.00000 -9.86100 47.48400
H  26.28000 -8.08500 49.50100
H  23.56900 -10.53300 49.24300
H  23.01500 -8.83300 49.39100
H  24.50900 -9.37100 50.19100
H  27.47900 -9.60400 47.20000
H  26.88300 -10.51200 48.64600
H  28.72600 -10.29000 49.76500
H  28.45200 -8.66000 49.80600
H  29.42900 -9.33100 48.48000
H  30.69700 -4.92000 47.70600
H  31.43700 -5.11600 46.17100
H  30.60500 -6.49900 46.71700
H  28.44800 -2.05700 42.73200
H  30.41000 1.61100 43.60700
H  30.74000 0.52400 44.91700
H  29.19800 1.64100 44.92200
Mg 16.83700 51.45200 26.50300
C  19.14100 49.97600 28.74300
C  14.79700 52.19800 29.13500
C  14.88700 52.96300 24.34100
C  19.16600 50.91300 23.94200
N  16.99300 51.08500 28.59300
C  18.06200 50.63000 29.33000
C  17.78100 50.73000 30.82800
C  16.21200 51.00500 30.84600
C  15.94700 51.47800 29.44800
C  15.23700 49.75600 31.20700
C  18.67800 51.74400 31.56300
C  18.72300 51.64300 33.10100
H  17.60600 50.88100 33.80400
N  15.04000 52.41500 26.68100
C  14.27100 52.52200 27.82800
C  13.06600 53.15800 27.47000
C  13.07800 53.47800 26.04700
C  14.37300 52.91700 25.63300
C  12.00500 53.49700 28.46000
C  12.08300 54.20000 25.18100
O  12.20200 54.46200 24.04200
C  10.70300 54.43700 25.73100
N  16.86800 51.62300 24.36700
C  16.03500 52.49500 23.74800
C  16.25400 52.60000 22.30900
C  17.76000 52.19100 22.17300
C  17.96800 51.51200 23.54800
C  15.29900 51.70400 21.39800
C  18.68200 53.40700 21.92900
C  19.12200 53.72900 20.56400
N  18.67300 50.42100 26.26000
C  19.51000 50.34500 25.15300
C  20.72600 49.67700 25.54600
C  20.55700 49.47100 26.95000
C  19.37000 50.03100 27.33900
C  21.89500 49.44200 24.63700
C  21.30200 48.96300 28.10800
O  22.37600 48.39600 28.15600
C  20.34200 49.29000 29.35800
C  20.05700 48.10200 30.16100
O  19.49800 47.13400 29.66900
O  20.39100 48.21800 31.44400
C  20.12800 47.15000 32.39400
H  14.11500 52.46000 29.94600
H  14.18400 53.55100 23.74700
H  19.89300 50.78100 23.13800
H  18.06800 49.78500 31.28900
H  16.03200 51.80600 31.56400
H  14.56100 49.67800 30.35600
H  14.59000 49.83600 32.08000
H  15.74800 48.79800 31.30600
H  18.19400 52.71200 31.43100
H  19.65800 51.66700 31.09100
H  18.79100 52.64600 33.52400
H  19.64900 51.10200 33.29400
H  11.13000 52.85400 28.36200
H  11.65400 54.51000 28.26100
H  12.29500 53.43100 29.50900
H  10.33000 53.53700 26.22000
H  9.89500 54.60400 25.01900
H  10.62300 55.23800 26.46600
H  16.12000 53.65600 22.07500
H  17.95400 51.46400 21.38500
H  14.48700 51.25800 21.97200
H  15.92700 51.03800 20.80500
H  14.86100 52.42200 20.70500
H  19.63700 53.33600 22.44800
H  18.26800 54.30500 22.38800
H  19.15500 54.81700 20.49800
H  18.40000 53.33100 19.85100
H  20.10800 53.28300 20.44000
H  22.03000 50.31500 23.99900
H  21.78700 48.52900 24.05100
H  22.79400 49.28400 25.23100
H  20.86600 50.02800 29.96600
H  21.06200 46.82700 32.85400
H  19.47800 46.41200 31.92400
H  19.55400 47.49000 33.25600

