158

Mg 1.68300 7.83400 25.83400
C  2.39300 9.73400 28.68900
C  1.71600 4.97200 27.74200
C  1.10700 6.10800 23.04600
C  2.44700 10.72500 23.94100
N  2.14300 7.47600 27.96700
C  2.26700 8.38600 29.00300
C  2.36900 7.72300 30.38900
C  2.45800 6.14200 29.94100
C  2.02200 6.18100 28.48200
C  3.80400 5.32500 30.16100
C  1.24300 7.89900 31.47300
C  1.90100 8.05200 32.89200
H  2.95100 7.08200 33.35300
N  1.36000 5.78600 25.42000
C  1.30800 4.82400 26.35400
C  0.93900 3.57100 25.76200
C  0.80100 3.84100 24.38600
C  1.03200 5.30700 24.20100
C  0.79700 2.34300 26.58300
C  0.42700 2.93600 23.23800
O  0.04900 3.34100 22.13900
C  0.44800 1.51100 23.44300
N  1.79700 8.38600 23.80500
C  1.40800 7.50500 22.84500
C  1.43600 8.16500 21.46200
C  1.94400 9.59700 21.72400
C  2.04000 9.57700 23.28000
C  2.13700 7.39500 20.38900
C  1.12800 10.77200 21.08400
C  1.82700 11.66300 20.08100
N  2.28000 9.82300 26.18000
C  2.57300 10.88900 25.31300
C  2.74300 12.10300 26.12000
C  2.72000 11.64400 27.40300
C  2.50000 10.29000 27.42000
C  2.83600 13.53800 25.76900
C  2.78000 12.15700 28.75700
O  2.98000 13.31500 29.11000
C  2.56700 10.90600 29.64700
C  3.87600 10.83000 30.45600
O  4.97500 10.32500 30.12400
O  3.57700 11.39500 31.68100
C  4.67100 11.26100 32.64500
H  1.58700 4.09700 28.38400
H  0.82400 5.66800 22.08800
H  2.82200 11.61200 23.42500
H  3.26900 8.07500 30.89200
H  1.71200 5.51700 30.43200
H  4.35800 5.26400 29.22500
H  3.58900 4.35700 30.61300
H  4.39700 5.82800 30.92600
H  0.59000 7.03500 31.59400
H  0.67200 8.79100 31.21400
H  0.93300 8.03800 33.39300
H  2.25700 9.07900 32.96500
H  -0.08700 1.89400 26.12900
H  0.65100 2.53500 27.64600
H  1.71300 1.79900 26.35300
H  -0.46500 1.25100 23.98000
H  1.26500 1.32200 24.13900
H  0.59200 1.00200 22.49000
H  0.36700 8.17200 21.24700
H  2.99200 9.76300 21.47100
H  1.47300 6.58500 20.08600
H  3.09100 6.99700 20.73300
H  2.09000 8.11800 19.57400
H  0.76600 11.29800 21.96800
H  0.23000 10.35900 20.62500
H  2.83400 11.32900 19.83100
H  1.95700 12.68500 20.43600
H  1.12500 11.69800 19.24700
H  1.92900 13.95000 26.21100
H  2.70100 13.76100 24.71000
H  3.67000 13.99800 26.29800
H  1.74500 11.10000 30.33600
H  4.97900 10.21700 32.58300
H  4.33500 11.56600 33.63500
H  5.51100 11.94200 32.50400
Mg 24.84800 -6.95200 48.06500
C  27.47300 -4.90400 46.80500
C  22.79200 -5.65900 45.48700
C  22.53800 -9.30700 48.83100
C  27.20200 -8.60300 49.78400
N  25.14900 -5.53100 46.27000
C  26.29900 -4.85300 45.98300
C  26.07800 -3.98300 44.77300
C  24.55000 -4.11600 44.41500
C  24.11000 -5.11600 45.46400
C  23.74600 -2.76100 44.33000
C  27.11500 -4.40700 43.59100
C  27.88700 -3.31000 42.92700
H  27.70100 -2.99100 41.45600
N  22.92700 -7.32100 47.40500
C  22.20400 -6.65600 46.39800
C  20.90200 -7.21100 46.28300
C  20.80400 -8.33900 47.18400
C  22.09300 -8.34500 47.92000
C  19.89600 -6.66100 45.35000
C  19.69400 -9.31600 47.30900
O  18.81800 -9.31200 46.49100
C  19.55100 -10.33000 48.38300
N  24.91500 -8.71000 49.10000
C  23.76400 -9.46700 49.38300
C  24.08700 -10.61500 50.28500
C  25.56400 -10.43700 50.68900
C  25.96100 -9.19400 49.82800
C  23.07900 -10.84000 51.45400
C  26.35400 -11.72200 50.27000
C  27.23200 -12.33900 51.35800
N  26.88400 -6.72600 48.47600
C  27.70300 -7.49500 49.17800
C  28.96900 -6.87000 49.30300
C  28.92600 -5.82600 48.41800
C  27.65300 -5.90600 47.74600
C  30.21900 -7.34100 50.03200
C  29.60400 -4.68400 47.88200
O  30.67900 -4.28800 48.28000
C  28.79300 -4.03900 46.70200
C  28.54500 -2.63400 46.91100
O  28.10000 -2.15100 47.96900
O  28.93600 -1.91500 45.81800
C  28.94200 -0.47200 45.90100
H  22.22800 -5.33000 44.61200
H  21.79900 -10.06800 49.09300
H  27.81500 -9.21500 50.44800
H  26.24700 -2.99100 45.19200
H  24.51900 -4.61900 43.44900
H  24.40100 -1.89200 44.39100
H  22.99400 -2.79900 45.11900
H  23.30500 -2.70700 43.33500
H  26.47200 -4.87000 42.84300
H  27.77300 -5.19300 43.96100
H  28.92600 -3.61400 43.05600
H  27.78900 -2.36400 43.46000
H  19.95300 -7.07900 44.34500
H  20.03400 -5.58000 45.36500
H  18.86200 -6.77300 45.67400
H  20.19000 -11.16900 48.11000
H  18.59800 -10.80300 48.14800
H  19.68800 -9.94800 49.39500
H  23.88300 -11.54700 49.75800
H  25.63000 -10.29600 51.76800
H  22.36700 -11.65800 51.34400
H  22.42000 -9.98100 51.58700
H  23.60900 -10.95500 52.39900
H  27.01500 -11.60200 49.41100
H  25.64100 -12.50700 50.01900
H  28.17800 -12.60900 50.88800
H  26.75900 -13.14300 51.92100
H  27.51000 -11.54100 52.04700
H  30.93600 -7.77800 49.33800
H  30.23000 -8.12600 50.78800
H  30.69900 -6.41300 50.34200
H  29.31900 -4.26500 45.77400
H  29.46800 0.04000 45.09600
H  29.25700 -0.14800 46.89200
H  27.90200 -0.15300 45.83100

