158

Mg 26.18200 -0.90500 29.00500
C  28.29700 -1.13900 31.78900
C  23.55500 -0.37400 31.00900
C  24.16400 -1.25200 26.30500
C  29.01700 -1.55000 27.05100
N  26.04400 -0.80800 31.11800
C  26.96000 -0.81900 32.13200
C  26.47700 -0.34000 33.47600
C  24.95900 -0.24200 33.15100
C  24.77100 -0.52600 31.67200
C  24.06600 -0.99700 34.19700
C  27.17600 0.93200 34.09400
C  27.91800 0.84400 35.42600
H  27.66200 1.77200 36.58700
N  24.20900 -0.80900 28.67100
C  23.25500 -0.57700 29.64700
C  21.94500 -0.66700 29.09700
C  22.07600 -0.90400 27.67700
C  23.50000 -0.99700 27.46900
C  20.67800 -0.61100 29.98000
C  20.89000 -1.00800 26.60300
O  21.06400 -1.31500 25.41700
C  19.39200 -0.90400 27.02600
N  26.54700 -1.53800 26.98000
C  25.53300 -1.52700 26.09800
C  26.14000 -1.40500 24.70800
C  27.70900 -1.41300 24.88900
C  27.79100 -1.43300 26.37600
C  25.65600 -2.50900 23.72500
C  28.49400 -0.22100 24.19700
C  28.68200 1.09200 24.92300
N  28.16700 -1.45500 29.31800
C  29.19000 -1.63300 28.43300
C  30.37700 -1.95500 29.13600
C  30.10400 -1.75500 30.48800
C  28.69000 -1.43900 30.48900
C  31.69700 -2.34500 28.51700
C  30.66300 -1.72800 31.80600
O  31.82000 -1.84200 32.21600
C  29.49400 -1.25900 32.68000
C  29.46500 -2.09200 33.96700
O  28.87400 -3.13900 34.13800
O  30.33400 -1.50100 34.84000
C  30.41500 -2.04900 36.16200
H  22.75000 -0.16800 31.71800
H  23.62700 -1.25300 25.35400
H  29.97200 -1.48600 26.52700
H  26.68700 -1.11000 34.22000
H  24.69100 0.78800 33.38500
H  23.47700 -1.70000 33.60800
H  23.38100 -0.16400 34.35500
H  24.53800 -1.37200 35.10500
H  26.50400 1.77800 34.23600
H  27.95700 1.33900 33.45100
H  28.99000 0.97200 35.27900
H  27.90700 -0.16200 35.84500
H  19.99500 0.18500 29.68000
H  20.84700 -0.49900 31.05100
H  20.20800 -1.58700 29.86400
H  19.15800 -1.69700 27.73600
H  18.77600 -0.99200 26.13100
H  19.17500 0.03100 27.54300
H  25.83900 -0.49600 24.18700
H  28.13000 -2.39900 24.69500
H  25.74100 -3.37900 24.37600
H  26.36800 -2.67300 22.91600
H  24.67000 -2.36800 23.28000
H  27.94000 -0.01500 23.28100
H  29.46500 -0.60900 23.88700
H  28.09000 1.29100 25.81600
H  28.34200 1.80400 24.17100
H  29.75800 1.20300 25.06000
H  32.24900 -1.57200 27.98100
H  31.59900 -3.23500 27.89600
H  32.28600 -2.72800 29.35000
H  29.72200 -0.24400 33.00600
H  30.64600 -3.11000 36.06900
H  29.50200 -1.76400 36.68500
H  31.28000 -1.62100 36.66800
Mg 47.28200 44.88700 42.29500
C  43.78200 44.38300 42.32400
C  47.63200 41.44800 42.06400
C  50.50500 45.37700 41.86700
C  46.61000 48.23800 42.03100
N  45.84400 43.16500 42.14200
C  44.54800 43.19700 42.22300
C  43.89500 41.79700 42.13600
C  45.13200 40.79500 42.26600
C  46.29900 41.80300 42.12100
C  45.28500 39.93700 43.58500
C  42.97500 41.56400 40.86600
C  43.29000 42.26000 39.50000
H  43.29700 41.45200 38.27200
N  48.88600 43.61600 41.99400
C  48.77900 42.22300 42.00100
C  50.15500 41.74800 41.83600
C  50.99100 42.87900 41.62600
C  50.12800 44.02200 41.83700
C  50.56400 40.32100 41.77600
C  52.45500 42.83900 41.29400
O  53.06500 41.81300 41.27100
C  53.24100 44.10000 41.11800
N  48.43600 46.53000 41.93100
C  49.74100 46.50100 41.93900
C  50.36800 47.92600 41.87000
C  49.11500 48.87700 41.67000
C  47.97700 47.83000 41.86500
C  51.12100 48.22700 43.11600
C  48.93700 49.74000 40.44000
C  48.42700 51.18800 40.73400
N  45.61800 46.08300 42.28400
C  45.54100 47.45200 42.26700
C  44.19800 47.89900 42.48500
C  43.47400 46.68500 42.46400
C  44.37400 45.64500 42.33900
C  43.63100 49.30900 42.41100
C  42.13200 46.12700 42.62300
O  41.08000 46.71300 42.79200
C  42.26800 44.55000 42.72200
C  41.73200 44.17000 44.01700
O  42.06200 44.77700 45.03600
O  40.92300 43.04100 43.97600
C  40.65900 42.41300 45.27000
H  47.81800 40.37300 42.10800
H  51.56100 45.64600 41.79800
H  46.61000 49.32600 41.93000
H  43.28400 41.68900 43.03200
H  45.01100 40.10700 41.42900
H  45.79900 39.04300 43.23400
H  44.31100 39.79900 44.05600
H  45.90700 40.53200 44.25400
H  41.96700 41.82200 41.19000
H  42.87600 40.48500 40.74600
H  44.25700 42.75600 39.57300
H  42.55400 43.06400 39.48700
H  51.44600 40.05500 42.35800
H  50.64500 39.93300 40.76100
H  49.82000 39.76700 42.34900
H  52.72600 44.76200 40.42200
H  54.25000 43.96400 40.72700
H  53.42100 44.50700 42.11300
H  51.00400 47.89100 40.98500
H  49.18100 49.56500 42.51300
H  52.08600 47.79200 42.85800
H  50.84200 47.75900 44.06000
H  51.29300 49.27200 43.37700
H  48.19000 49.28900 39.78800
H  49.90600 49.65200 39.94800
H  49.25400 51.78000 40.34200
H  48.17900 51.36500 41.78100
H  47.54800 51.38400 40.12100
H  43.37800 49.63800 41.40400
H  44.42100 49.99400 42.72100
H  42.86400 49.33800 43.18500
H  41.64800 44.13700 41.92600
H  40.26600 43.15700 45.96400
H  41.59400 41.96300 45.60500
H  39.84300 41.70600 45.12300

