158

Mg 53.61600 24.44800 44.96400
C  50.68500 26.15200 44.18800
C  52.16400 21.65300 43.81500
C  56.62700 22.84600 45.04000
C  55.09500 27.37200 46.04300
N  51.68600 24.03700 43.69800
C  50.58000 24.79600 43.75900
C  49.33600 24.02000 43.22300
C  49.77300 22.54400 43.59900
C  51.31500 22.75000 43.72700
C  49.17100 21.94800 44.91200
C  49.19100 24.34700 41.73400
C  47.82000 24.33000 41.09900
H  47.46800 22.96200 40.49900
N  54.28400 22.51600 44.42300
C  53.49300 21.52900 43.98000
C  54.21900 20.28700 43.79800
C  55.56800 20.63000 44.11000
C  55.54100 22.03000 44.57600
C  53.53000 18.99400 43.56900
C  56.77100 19.77400 43.99700
O  56.63700 18.64600 43.67300
C  58.16900 20.14500 44.39100
N  55.71000 25.08800 45.17600
C  56.69300 24.19900 45.41700
C  57.93200 24.91800 45.97000
C  57.46800 26.42500 46.10600
C  55.97500 26.33100 45.73400
C  58.44400 24.30100 47.35800
C  58.35200 27.45400 45.31000
C  57.79100 28.29400 44.13800
N  53.05700 26.36900 45.17500
C  53.73300 27.44000 45.77100
C  52.73700 28.50400 45.94100
C  51.62300 28.09900 45.33300
C  51.85400 26.78200 44.87400
C  52.88600 29.81100 46.68300
C  50.22200 28.45500 44.88800
O  49.51000 29.43300 45.17700
C  49.64200 27.22200 44.18100
C  49.29400 27.74800 42.79200
O  50.06000 27.82300 41.80700
O  48.00800 28.01900 42.79100
C  47.24000 28.39800 41.59200
H  51.55700 20.78100 43.56400
H  57.60700 22.38400 45.17700
H  55.49900 28.27500 46.50600
H  48.42300 24.33600 43.72800
H  49.57000 21.85500 42.78000
H  49.95200 21.55400 45.56200
H  48.37800 21.24900 44.64400
H  48.73600 22.75300 45.50500
H  49.84400 23.57700 41.32500
H  49.57300 25.33900 41.49400
H  47.78200 25.09300 40.32200
H  47.06900 24.57300 41.85100
H  54.09000 18.10800 43.86700
H  53.30400 18.91800 42.50500
H  52.62800 18.96900 44.17900
H  58.57300 21.04300 43.92300
H  58.82000 19.27600 44.29700
H  58.12500 20.32900 45.46500
H  58.70200 24.85800 45.20000
H  57.47300 26.82600 47.11900
H  58.38100 25.09600 48.10100
H  59.42100 23.83100 47.24700
H  57.71400 23.59900 47.76300
H  59.03500 26.79200 44.78000
H  58.83900 28.09500 46.04500
H  56.75300 28.09900 43.86700
H  58.28500 28.00500 43.21000
H  57.73900 29.37200 44.29400
H  53.69600 29.72700 47.40900
H  51.90000 30.02800 47.09300
H  53.02000 30.45700 45.81600
H  48.80400 26.84000 44.76300
H  47.37500 29.47800 41.54000
H  46.18900 28.11500 41.65000
H  47.68900 27.84300 40.76900
Mg 6.33100 54.20700 40.86300
C  5.77200 50.59600 41.07100
C  9.59100 53.33400 39.95100
C  6.64400 57.25500 39.77500
C  3.06300 54.57600 41.77800
N  7.40500 52.24800 40.35500
C  7.00000 50.96800 40.40400
C  8.07800 49.95600 40.10300
C  9.41900 50.81400 40.37100
C  8.81200 52.25500 40.27000
C  10.23300 50.53100 41.66600
C  8.03300 49.25000 38.66000
C  7.17600 49.97500 37.60900
H  6.57800 49.19200 36.45900
N  7.96400 55.23900 40.01700
C  9.23300 54.72600 39.80300
C  10.01100 55.81500 39.46700
C  9.21400 56.92500 39.33400
C  7.85400 56.49500 39.64600
C  11.50300 55.73300 39.11400
C  9.76400 58.23900 38.88100
O  10.94000 58.52800 38.62400
C  8.83000 59.33600 38.75400
N  4.93900 55.68900 40.50100
C  5.33100 56.91300 40.19200
C  4.12600 57.90500 40.37500
C  2.93000 56.95200 40.78900
C  3.64600 55.64800 41.07200
C  4.32500 59.07400 41.35100
C  1.85100 56.79900 39.69400
C  0.54800 57.45900 39.87100
N  4.72700 53.00300 41.56600
C  3.51000 53.28500 41.99400
C  2.93300 52.08800 42.60000
C  3.69800 51.00600 42.15900
C  4.81400 51.61600 41.50400
C  1.62600 52.14700 43.34000
C  3.79200 49.57100 42.06400
O  3.05300 48.67400 42.47100
C  5.24000 49.22500 41.42000
C  4.92400 48.18700 40.44000
O  4.45000 48.46300 39.32100
O  5.30200 46.87600 40.77400
C  5.03400 45.78600 39.92000
H  10.64100 53.19800 39.68000
H  6.63600 58.30400 39.47300
H  2.07500 54.85300 42.15000
H  7.98600 49.14600 40.82600
H  10.15400 50.67700 39.57800
H  10.38100 51.52100 42.09700
H  11.15800 50.10500 41.27600
H  9.74300 49.94100 42.44000
H  7.75500 48.21000 38.83400
H  9.03600 49.05700 38.28000
H  7.77800 50.79900 37.22500
H  6.34800 50.54200 38.03400
H  11.44400 55.84100 38.03100
H  11.98700 54.76000 39.19300
H  12.02900 56.49800 39.68500
H  8.54200 59.65200 39.75600
H  8.00400 58.93300 38.16600
H  9.24300 60.16300 38.17500
H  3.87600 58.29600 39.38800
H  2.37100 57.22500 41.68400
H  5.38200 59.27900 41.52300
H  3.68900 58.86000 42.21000
H  3.94000 59.95100 40.83100
H  1.76000 55.75000 39.41200
H  2.26400 57.32200 38.83200
H  -0.24800 56.96600 39.31300
H  0.56400 58.41400 39.34700
H  0.24400 57.61600 40.90600
H  0.99800 51.25600 43.36700
H  1.04500 53.00300 43.00000
H  1.89900 52.42300 44.35900
H  5.88500 48.81800 42.19900
H  4.16600 45.22400 40.26600
H  5.85200 45.06700 39.97800
H  4.94100 46.07400 38.87300

