158

Mg 40.30900 9.77800 29.99000
C  42.24100 11.20500 32.43600
C  38.15300 8.52700 32.30500
C  38.45400 8.49500 27.47700
C  42.99700 10.31600 27.75100
N  40.26100 9.82300 32.09200
C  41.04700 10.57500 32.82900
C  40.54200 10.64500 34.30000
C  39.39800 9.48900 34.31000
C  39.22100 9.26200 32.83500
C  39.77700 8.20100 35.09000
C  40.07600 12.04300 34.85800
C  39.63900 12.08400 36.33900
H  40.27200 13.04500 37.35700
N  38.59800 8.62600 29.88300
C  37.78800 8.24000 30.93500
C  36.59100 7.48000 30.46500
C  36.59100 7.58400 29.00200
C  37.91100 8.32800 28.73000
C  35.50300 6.86300 31.36200
C  35.55000 7.03900 28.04000
O  35.67200 7.14700 26.80400
C  34.18400 6.53000 28.46600
N  40.59100 9.45800 27.88800
C  39.61900 8.95900 27.07300
C  40.14000 8.91000 25.55000
C  41.59300 9.44800 25.72000
C  41.78600 9.79200 27.17000
C  40.00600 7.66000 24.68800
C  41.87900 10.69900 24.76600
C  41.70600 12.10900 25.17900
N  42.22800 10.56500 29.98100
C  43.20200 10.73100 28.99400
C  44.37400 11.36000 29.61000
C  43.99400 11.67100 30.95100
C  42.71100 11.06500 31.14500
C  45.77800 11.58700 29.05100
C  44.44600 12.34000 32.21000
O  45.41500 13.07200 32.45500
C  43.29100 12.02500 33.20800
C  43.88700 11.44500 34.43800
O  44.34200 10.31700 34.48300
O  43.90900 12.36900 35.47200
C  44.44800 12.00400 36.77600
H  37.40300 8.17400 33.01500
H  37.87500 8.14200 26.62100
H  43.82200 10.41400 27.04200
H  41.38800 10.40500 34.94300
H  38.43500 9.83800 34.68400
H  40.86400 8.14200 35.03500
H  39.42100 7.32600 34.54800
H  39.38800 8.25300 36.10700
H  39.26300 12.46000 34.26400
H  40.90300 12.74100 34.72800
H  39.58400 11.06300 36.71800
H  38.61000 12.43400 36.26800
H  35.89000 6.93200 32.37800
H  35.31800 5.89300 30.90000
H  34.60500 7.47800 31.31800
H  34.38700 5.57700 28.95500
H  33.67800 6.28100 27.53300
H  33.63300 7.22000 29.10600
H  39.60900 9.76400 25.12700
H  42.31500 8.68700 25.42500
H  39.91500 6.81600 25.37200
H  40.91900 7.50500 24.11200
H  39.21200 7.66400 23.94100
H  41.22400 10.68200 23.89500
H  42.77700 10.59600 24.15700
H  41.39300 12.75300 24.35800
H  42.65400 12.51700 25.53100
H  40.94900 12.11400 25.96400
H  46.18500 10.58100 29.14900
H  46.40000 12.21500 29.68900
H  45.69400 12.00700 28.04800
H  42.81500 12.95800 33.50900
H  43.66400 11.86100 37.52000
H  45.23000 12.65700 37.16400
H  45.01700 11.07400 36.77300
Mg 6.89000 54.47500 41.18300
C  4.59200 51.83800 41.01100
C  9.15900 52.54600 39.82500
C  8.64600 57.26100 40.90000
C  4.02500 56.56200 41.94400
N  6.71100 52.49000 40.25100
C  5.75100 51.50500 40.35200
C  6.22700 50.19500 39.72200
C  7.75300 50.42000 39.58800
C  7.91000 51.93500 39.91200
C  8.61100 49.52500 40.52000
C  5.54700 49.92200 38.34000
C  5.23400 48.47600 38.03200
H  5.71900 47.80800 36.66300
N  8.74400 54.83600 40.53100
C  9.51900 53.89000 40.02000
C  10.81200 54.41400 39.85000
C  10.69200 55.84000 40.04500
C  9.30500 56.08100 40.51100
C  12.05700 53.70600 39.45600
C  11.77100 56.86700 39.72300
O  12.83700 56.46400 39.27000
C  11.50400 58.31900 39.70400
N  6.34000 56.64400 41.36900
C  7.35800 57.56500 41.26900
C  6.87600 59.04300 41.43000
C  5.33900 58.78900 41.49600
C  5.17400 57.21100 41.60200
C  7.53800 59.81500 42.67400
C  4.55400 59.27300 40.26300
C  3.48000 60.39200 40.36500
N  4.75600 54.25000 41.54000
C  3.80000 55.20800 41.86400
C  2.50200 54.53800 42.04800
C  2.82000 53.16500 41.84300
C  4.15700 53.03700 41.45900
C  1.21900 55.10900 42.53300
C  2.26000 51.80500 41.89100
O  1.13400 51.40000 42.19200
C  3.42400 50.90200 41.40500
C  2.84900 49.96100 40.32900
O  2.32600 50.19800 39.26400
O  2.89300 48.68700 40.93900
C  2.44100 47.53400 40.06100
H  9.93200 51.85500 39.48200
H  9.21100 58.19200 40.81800
H  3.21200 57.27800 42.07700
H  6.03700 49.42000 40.46400
H  8.06800 50.22900 38.56200
H  9.34900 48.98700 39.92500
H  7.96100 48.83000 41.05200
H  9.14000 50.17400 41.21800
H  6.18800 50.36500 37.57700
H  4.62300 50.49800 38.39300
H  4.15100 48.58700 37.97900
H  5.50900 47.84200 38.87500
H  12.26300 53.70600 38.38600
H  12.03400 52.68500 39.83900
H  12.89200 54.12700 40.01700
H  10.57900 58.53900 39.17100
H  12.30600 58.80100 39.14500
H  11.54400 58.62700 40.74900
H  7.14100 59.59500 40.52800
H  4.98700 59.23300 42.42700
H  6.79200 60.27400 43.32300
H  8.08700 60.60700 42.16600
H  8.24600 59.18000 43.20700
H  4.15000 58.41100 39.73200
H  5.29700 59.67000 39.57200
H  3.78300 61.25400 39.77100
H  3.30800 60.61800 41.41700
H  2.60200 59.93700 39.90500
H  0.35000 54.71800 42.00200
H  1.34900 56.18700 42.44300
H  1.08200 54.88800 43.59100
H  3.69800 50.28100 42.25800
H  3.26800 46.82900 39.97300
H  2.07700 47.87900 39.09300
H  1.56900 47.14000 40.58400

