158

Mg 24.62100 -5.52800 45.36000
C  27.17900 -3.42900 44.07000
C  22.47900 -4.05100 43.26100
C  22.66000 -8.18300 45.71100
C  27.17300 -7.12600 47.24500
N  24.88400 -3.96700 43.81100
C  25.94300 -3.15700 43.49900
C  25.55700 -2.05100 42.53600
C  23.98300 -2.10100 42.54900
C  23.74700 -3.43700 43.29300
C  23.28700 -0.88800 43.34100
C  26.19300 -2.42300 41.19000
C  26.84500 -1.25600 40.38300
H  26.25900 -1.05000 38.98400
N  22.79100 -6.00700 44.60000
C  22.00100 -5.22300 43.79000
C  20.69200 -5.86200 43.60100
C  20.68300 -7.09100 44.37100
C  22.07000 -7.18200 44.95700
C  19.58600 -5.37700 42.71200
C  19.46600 -8.03500 44.53200
O  18.32400 -7.71000 44.09600
C  19.61200 -9.32500 45.20800
N  24.88600 -7.32200 46.33900
C  23.85800 -8.23600 46.35700
C  24.18100 -9.49000 47.21000
C  25.62600 -9.20100 47.61800
C  25.93700 -7.79200 47.05100
C  23.24100 -9.77400 48.42300
C  26.64000 -10.22600 47.00600
C  26.82300 -11.51100 47.85300
N  26.71000 -5.25800 45.72500
C  27.57700 -6.01300 46.50000
C  28.85000 -5.41700 46.56400
C  28.81600 -4.35000 45.59300
C  27.46500 -4.30700 45.12400
C  29.99900 -5.82800 47.32800
C  29.59200 -3.31900 45.03500
O  30.75600 -2.98900 45.12800
C  28.61600 -2.68900 43.98500
C  28.52400 -1.25900 44.23900
O  28.08500 -0.70700 45.28700
O  28.85400 -0.45900 43.17000
C  28.79000 1.00800 43.30600
H  21.73300 -3.58400 42.61500
H  22.02200 -9.05300 45.87900
H  27.86500 -7.63900 47.91600
H  25.84600 -1.06500 42.90000
H  23.61700 -2.25400 41.53400
H  22.65800 -0.41700 42.58500
H  23.87800 -0.02500 43.65000
H  22.60800 -1.23400 44.12100
H  25.46600 -3.05200 40.67700
H  26.96100 -3.17900 41.35200
H  27.90400 -1.49200 40.27400
H  26.67200 -0.35100 40.96500
H  19.25800 -6.31600 42.26700
H  20.14500 -4.90700 41.90300
H  18.85900 -4.70700 43.17000
H  18.62500 -9.77100 45.33000
H  19.97600 -8.95500 46.16700
H  20.24600 -9.91800 44.54900
H  24.04200 -10.40500 46.63500
H  25.82500 -8.96300 48.66300
H  22.71700 -10.70400 48.20300
H  22.59100 -8.92300 48.62700
H  23.94500 -9.95900 49.23400
H  27.64700 -9.80800 46.98600
H  26.34800 -10.29700 45.95800
H  27.88800 -11.45000 48.07600
H  26.49300 -12.42300 47.35600
H  26.36100 -11.40900 48.83600
H  29.77400 -5.28500 48.24600
H  30.92100 -5.39200 46.94600
H  30.06300 -6.90600 47.47700
H  29.00100 -2.67800 42.96500
H  29.70600 1.27900 43.83100
H  27.96200 1.40400 43.89400
H  28.76700 1.40400 42.29100
Mg 6.39500 54.40100 40.54500
C  5.92200 50.93300 40.26500
C  9.66500 53.98000 39.63300
C  6.66100 57.79200 40.19900
C  2.90200 54.77200 40.79100
N  7.61300 52.57800 39.96600
C  7.23500 51.28200 39.89300
C  8.41100 50.43100 39.48700
C  9.64200 51.39700 39.46800
C  8.95800 52.73600 39.75500
C  10.85100 51.05100 40.44600
C  8.34500 49.82900 38.03800
C  7.95100 50.81500 36.86000
H  6.71700 50.32600 36.00800
N  7.92400 55.71300 39.99700
C  9.18200 55.31000 39.72600
C  10.04400 56.48300 39.59400
C  9.20700 57.60400 39.70400
C  7.83400 57.06800 39.97500
C  11.53300 56.42000 39.44100
C  9.71500 59.00700 39.55700
O  10.79400 59.13300 39.08400
C  8.84600 60.24100 39.64100
N  4.93800 56.09600 40.48100
C  5.27700 57.41300 40.38400
C  4.13400 58.29800 40.72300
C  2.89400 57.37100 40.54800
C  3.59600 56.00000 40.69400
C  4.27600 59.02000 42.12500
C  2.13800 57.59300 39.24800
C  1.34100 58.89700 39.22000
N  4.72400 53.16000 40.59000
C  3.38300 53.44100 40.72600
C  2.62500 52.24100 40.81800
C  3.63700 51.20700 40.75900
C  4.87800 51.85200 40.49200
C  1.09000 52.10300 41.02400
C  3.84700 49.81700 40.90500
O  3.09600 48.88100 41.16000
C  5.27300 49.58200 40.41000
C  5.29600 48.68000 39.24900
O  5.01500 48.95700 38.10600
O  5.76700 47.45200 39.66600
C  5.53800 46.28400 38.80300
H  10.71400 53.76200 39.41900
H  6.76600 58.87800 40.22500
H  1.84000 54.87900 41.02500
H  8.43100 49.75900 40.34500
H  10.12200 51.36900 38.49000
H  11.78900 50.92900 39.90400
H  10.71800 50.15000 41.04600
H  10.93100 51.82700 41.20800
H  7.64100 48.99700 38.03000
H  9.35000 49.43800 37.88100
H  8.81600 50.79600 36.19700
H  7.63800 51.78000 37.25900
H  12.03100 57.28300 39.88200
H  11.62700 56.34700 38.35700
H  11.86900 55.54800 40.00200
H  8.14400 60.12400 38.81500
H  9.48300 61.11700 39.51900
H  8.34500 60.41000 40.59400
H  4.07400 59.10000 39.98800
H  2.15800 57.33000 41.35100
H  3.35700 58.74000 42.64000
H  4.44100 60.08000 41.93100
H  5.16500 58.54600 42.54000
H  1.43300 56.77400 39.10600
H  2.91500 57.49200 38.49000
H  0.27900 58.74000 39.03300
H  1.76200 59.41100 38.35600
H  1.47200 59.48000 40.13200
H  0.56200 51.97700 40.07800
H  0.68100 52.93700 41.59400
H  0.90400 51.22800 41.64600
H  5.82300 49.05900 41.19300
H  6.53400 45.86500 38.66000
H  5.10400 46.45800 37.81900
H  4.95400 45.47300 39.23800

