158

Mg 8.24300 3.99400 27.39300
C  9.55900 2.25000 30.29500
C  6.15900 5.68200 29.36400
C  6.79100 5.10500 24.65700
C  10.06000 1.66000 25.43500
N  7.86000 3.90100 29.63900
C  8.61600 3.30800 30.59600
C  8.30700 3.91900 31.95400
C  7.12300 4.87500 31.75100
C  7.07000 4.87300 30.12400
C  5.77400 4.53600 32.46200
C  9.68800 4.44700 32.69000
C  9.56200 5.41100 33.93700
H  10.23100 5.00400 35.26200
N  6.80600 5.36200 27.03200
C  6.03200 5.94400 27.98900
C  5.17800 6.99300 27.33300
C  5.42300 6.93800 25.97100
C  6.38800 5.73000 25.81600
C  4.24600 7.90400 28.10800
C  4.86900 7.71400 24.75000
O  5.26100 7.54300 23.55600
C  3.72400 8.53700 25.00300
N  8.30100 3.31500 25.39300
C  7.65100 4.03200 24.44400
C  7.83700 3.45300 23.09000
C  9.09400 2.53400 23.29900
C  9.13000 2.49100 24.81200
C  6.59000 2.66200 22.52900
C  10.39100 3.08800 22.68300
C  11.36400 3.91100 23.47900
N  9.44100 2.23000 27.72300
C  10.12400 1.40500 26.85100
C  10.76700 0.30400 27.65400
C  10.60500 0.65700 28.98100
C  9.75000 1.77400 28.97600
C  11.64900 -0.77400 27.00800
C  11.05200 0.24200 30.29000
O  11.89000 -0.57100 30.56200
C  10.35200 1.27100 31.24400
C  9.63100 0.55900 32.35500
O  8.59900 0.02200 32.16300
O  10.28100 0.58500 33.54700
C  9.68700 -0.03600 34.71900
H  5.58800 6.30400 30.05700
H  6.28500 5.45400 23.75500
H  10.47200 0.97800 24.68900
H  7.84800 3.13300 32.55300
H  7.42600 5.90000 31.96600
H  5.04200 4.08500 31.79200
H  5.28700 5.43400 32.84400
H  5.83400 3.79400 33.25800
H  10.34800 4.79400 31.89600
H  10.14200 3.51600 33.03200
H  8.50100 5.43200 34.18800
H  9.81200 6.45900 33.77400
H  4.19400 8.96000 27.84400
H  4.47300 7.92000 29.17400
H  3.26300 7.43700 28.05200
H  3.39000 8.96500 24.05700
H  4.06700 9.40400 25.56800
H  2.82400 8.01100 25.32000
H  8.11400 4.29300 22.45300
H  8.88000 1.51600 22.97400
H  5.67800 2.85000 23.09600
H  6.82600 1.60300 22.42100
H  6.33400 3.26600 21.65800
H  10.05900 3.66600 21.82100
H  10.96300 2.21200 22.37600
H  12.21800 3.24300 23.58500
H  10.82500 4.35500 24.31700
H  11.73600 4.69500 22.82000
H  11.59400 -0.82600 25.92100
H  11.35600 -1.70400 27.49600
H  12.71700 -0.62700 27.17200
H  11.07200 1.90600 31.76100
H  8.92000 -0.77300 34.48000
H  9.13700 0.73000 35.26600
H  10.49300 -0.44000 35.33200
Mg 8.96800 47.91800 25.65300
C  6.82300 48.16500 28.47300
C  11.42800 49.59300 27.38000
C  10.68300 48.32700 22.83500
C  6.16800 46.98700 23.83400
N  8.98900 49.07900 27.63900
C  8.08200 48.80600 28.68300
C  8.64300 49.45100 29.99900
C  10.11300 49.97300 29.55900
C  10.22600 49.50800 28.08600
C  10.30300 51.53000 29.61800
C  8.70200 48.43900 31.20700
C  7.82000 48.80600 32.40400
H  8.06500 47.87100 33.65900
N  10.90200 48.55300 25.27500
C  11.78600 49.07600 26.10800
C  13.14400 49.04100 25.49000
C  12.97700 48.68800 24.12600
C  11.46700 48.50400 24.00900
C  14.38200 49.44000 26.24900
C  13.95700 48.51500 22.97800
O  13.62700 48.11600 21.88700
C  15.36800 48.83500 23.14400
N  8.45100 47.85600 23.67700
C  9.33200 48.01800 22.66700
C  8.72200 47.67000 21.28600
C  7.52400 46.72600 21.72800
C  7.32100 47.25300 23.19600
C  8.26100 48.95200 20.50700
C  7.75600 45.20300 21.66300
C  8.68700 44.45200 22.61100
N  6.95900 47.54200 26.08400
C  5.88600 47.21000 25.21300
C  4.58500 47.00400 25.94800
C  5.00000 47.34800 27.25200
C  6.39300 47.67100 27.23000
C  3.22500 46.68800 25.43200
C  4.51600 47.58900 28.62900
O  3.40800 47.57600 29.02400
C  5.76400 47.88200 29.50100
C  5.82300 46.58000 30.33400
O  6.60100 45.63900 30.10800
O  5.04700 46.53900 31.47100
C  5.40100 45.46900 32.39500
H  12.19700 50.13900 27.93000
H  11.26400 48.42400 21.91600
H  5.34300 46.59600 23.23400
H  8.10300 50.35100 30.29300
H  10.97800 49.44700 29.96200
H  11.36100 51.61700 29.86300
H  9.62300 51.99700 30.33100
H  10.14400 51.97400 28.63500
H  9.71200 48.27300 31.58300
H  8.28400 47.48000 30.90000
H  6.75300 48.69300 32.20900
H  8.03800 49.82900 32.70900
H  14.84800 50.24300 25.67900
H  15.07400 48.60300 26.15100
H  14.31600 49.91000 27.23000
H  15.51500 49.74300 23.72900
H  15.86000 48.87000 22.17200
H  15.86500 48.04200 23.70400
H  9.48000 47.14700 20.70300
H  6.61600 47.02000 21.20200
H  8.71200 49.81400 20.99800
H  7.20200 48.92100 20.25000
H  8.77500 48.90800 19.54700
H  8.19800 45.20600 20.66700
H  6.80000 44.68000 21.68000
H  9.02900 45.13600 23.38700
H  9.54200 44.15100 22.00600
H  8.20400 43.54300 22.97000
H  2.79500 45.84500 25.97300
H  3.13500 46.58100 24.35100
H  2.72600 47.63000 25.65800
H  5.54300 48.62400 30.26700
H  4.68600 44.64700 32.42900
H  5.37900 46.00700 33.34300
H  6.44000 45.16700 32.26400

