158

Mg 16.20600 -2.18200 27.57600
C  14.79600 -0.59200 30.37500
C  18.11400 -4.02100 29.75800
C  17.60900 -3.77600 24.90400
C  14.32900 -0.21200 25.49600
N  16.50500 -2.22700 29.80100
C  15.79700 -1.53800 30.79200
C  16.38300 -1.71200 32.20700
C  17.51500 -2.69500 31.83200
C  17.42000 -2.97100 30.36100
C  18.95100 -2.28600 32.34300
C  15.33300 -2.16300 33.16400
C  15.19700 -1.41800 34.50800
H  16.51100 -0.81800 35.02600
N  17.66500 -3.65500 27.38000
C  18.30000 -4.34400 28.43400
C  19.20300 -5.29800 27.95900
C  18.97700 -5.37400 26.51600
C  18.01400 -4.24300 26.19800
C  20.12700 -6.04900 28.79500
C  19.51000 -6.30900 25.46200
O  19.10300 -6.19800 24.26500
C  20.40600 -7.44200 25.89200
N  16.01300 -2.06800 25.44000
C  16.69900 -2.79000 24.51000
C  16.35800 -2.17400 23.09000
C  15.07900 -1.31400 23.35700
C  15.10300 -1.19100 24.87400
C  17.61400 -1.44600 22.56800
C  13.66800 -1.79500 22.69700
C  13.23100 -1.26800 21.27900
N  14.84700 -0.74100 27.79200
C  14.12200 -0.01000 26.88400
C  13.16200 0.87400 27.54600
C  13.48100 0.67800 28.91700
C  14.49000 -0.29100 29.01000
C  12.17400 1.70700 26.90300
C  13.02400 1.12200 30.21500
O  12.25200 2.00700 30.52400
C  13.87600 0.35200 31.15100
C  14.65500 1.26400 31.93900
O  15.69700 1.78700 31.65700
O  13.98000 1.54500 33.06800
C  14.63600 2.48600 34.03100
H  18.60200 -4.66500 30.49200
H  18.13500 -4.17800 24.03500
H  13.76100 0.50000 24.89300
H  16.90100 -0.80300 32.51300
H  17.33500 -3.64800 32.33000
H  19.04300 -1.25400 32.68100
H  19.70400 -2.49600 31.58300
H  19.28000 -2.84200 33.22200
H  15.53400 -3.22500 33.30900
H  14.34400 -2.11800 32.70800
H  14.78900 -2.00500 35.33100
H  14.40300 -0.69500 34.31900
H  19.50300 -6.38900 29.62100
H  20.83500 -5.28400 29.11200
H  20.60400 -6.91000 28.32600
H  19.97800 -7.98500 26.73400
H  21.43000 -7.10700 26.06100
H  20.27300 -8.18200 25.10300
H  16.16900 -2.97800 22.37800
H  15.33900 -0.35000 22.92100
H  18.17500 -2.02900 21.83900
H  18.29100 -1.29700 23.40900
H  17.36600 -0.50000 22.08700
H  12.81700 -1.74900 23.37700
H  13.77800 -2.86100 22.49900
H  12.26900 -0.84200 21.56500
H  13.22400 -2.04300 20.51400
H  13.94600 -0.56100 20.85900
H  12.27600 1.71300 25.81800
H  12.23600 2.67900 27.39200
H  11.16300 1.35300 27.10700
H  13.27100 -0.27700 31.80500
H  14.49400 3.49600 33.64700
H  15.69600 2.25500 34.13400
H  14.05100 2.42800 34.94800
Mg 49.63100 45.79600 42.69800
C  46.31900 46.22500 41.80600
C  49.48100 42.68300 41.32200
C  53.04900 45.43900 43.11800
C  49.98400 49.13800 43.18600
N  48.09400 44.59700 41.69300
C  46.77900 44.94300 41.45200
C  45.99200 43.90800 40.74100
C  46.97200 42.72700 40.89900
C  48.26200 43.33900 41.26200
C  46.48800 41.59500 41.88000
C  45.63600 44.31800 39.25200
C  44.35100 43.72500 38.84700
H  43.90500 43.84800 37.36600
N  51.04200 44.26200 42.34700
C  50.75900 43.01700 41.85600
C  51.89900 42.15900 41.78800
C  52.98700 42.93400 42.14600
C  52.36900 44.30600 42.61400
C  51.78900 40.71300 41.33200
C  54.43400 42.49400 42.21600
O  54.79500 41.48800 41.65800
C  55.52400 43.17700 42.97900
N  51.27300 47.05900 43.19700
C  52.54600 46.70400 43.35800
C  53.43200 47.93100 43.57100
C  52.41800 49.05600 43.83000
C  51.09500 48.38900 43.47900
C  54.50500 47.80200 44.70300
C  52.79900 50.23000 42.87500
C  54.00900 51.13100 43.28900
N  48.41200 47.49500 42.48800
C  48.72900 48.72000 42.75900
C  47.53000 49.52000 42.65000
C  46.47500 48.56700 42.33600
C  47.15600 47.30100 42.23500
C  47.50700 51.01700 42.99300
C  45.04300 48.40300 42.11100
O  44.10400 49.20200 42.22300
C  44.89200 46.78600 41.74100
C  44.04300 46.12000 42.82400
O  44.15500 46.33600 43.96800
O  43.10700 45.37000 42.16100
C  42.28100 44.57000 43.06900
H  49.43000 41.66300 40.93600
H  54.10600 45.24500 43.31100
H  50.08700 50.21100 43.36000
H  45.12100 43.82900 41.39100
H  47.09900 42.20400 39.95100
H  47.12300 41.42900 42.75100
H  46.53500 40.66400 41.31700
H  45.43500 41.68900 42.14700
H  46.28700 43.76200 38.57700
H  45.62800 45.39500 39.08400
H  43.64500 44.29000 39.45700
H  44.40500 42.66300 39.08900
H  52.73300 40.25800 41.03100
H  50.96900 40.64500 40.61800
H  51.47200 40.17000 42.22300
H  55.35400 43.10500 44.05300
H  55.64100 44.18600 42.58300
H  56.45000 42.62900 42.80700
H  53.91700 47.91400 42.59500
H  52.45600 49.41900 44.85800
H  54.23400 48.48800 45.50500
H  55.49700 47.87300 44.25700
H  54.43700 46.81700 45.16300
H  51.96100 50.92600 42.84800
H  52.84400 49.81600 41.86700
H  53.69900 52.16500 43.44400
H  54.92300 50.95600 42.72200
H  54.29100 50.87300 44.30900
H  48.23200 51.65600 42.49000
H  47.73800 51.22500 44.03700
H  46.47100 51.34300 42.89800
H  44.36000 46.55600 40.81800
H  41.41500 44.12600 42.57700
H  41.89500 45.19900 43.87000
H  42.92600 43.81100 43.51200

