158

Mg 40.94600 7.81300 29.66200
C  42.60200 9.49500 32.35800
C  38.53700 6.75900 31.93800
C  39.70000 5.93400 27.29600
C  43.70800 8.68000 27.55700
N  40.66100 8.03700 31.87300
C  41.42000 8.82200 32.73200
C  40.82500 8.84500 34.15200
C  39.62600 7.88200 33.93500
C  39.62900 7.48900 32.51100
C  39.38800 6.68100 34.88600
C  40.53800 10.33500 34.54400
C  39.89000 10.68600 35.87900
H  40.67400 11.58200 36.94300
N  39.30400 6.58500 29.61500
C  38.40000 6.33900 30.58200
C  37.30800 5.55200 30.10100
C  37.59600 5.46900 28.72100
C  38.94000 5.98900 28.46700
C  36.10400 5.02800 30.93500
C  36.71200 4.88300 27.65200
O  37.00300 4.79800 26.47100
C  35.32000 4.65200 27.98400
N  41.69900 7.24800 27.70100
C  40.96000 6.39500 26.93300
C  41.51900 6.30400 25.42300
C  42.82500 7.25200 25.55200
C  42.75200 7.79000 27.00200
C  41.66900 4.80800 24.80500
C  42.92200 8.36300 24.48900
C  42.06100 9.59400 24.66500
N  42.80300 8.86300 29.88500
C  43.73100 9.14000 28.89600
C  44.74800 9.94500 29.49100
C  44.37700 10.08600 30.88600
C  43.11900 9.48700 31.01400
C  45.92100 10.40200 28.68300
C  44.71600 10.75300 32.13200
O  45.71200 11.33200 32.46600
C  43.61400 10.35900 33.14900
C  44.23800 9.51100 34.16900
O  45.22600 8.79600 34.01300
O  43.74800 9.89000 35.39900
C  44.34000 9.32900 36.61000
H  37.68700 6.43600 32.54300
H  39.26800 5.31000 26.51100
H  44.49400 9.07300 26.90800
H  41.54700 8.39600 34.83500
H  38.79600 8.55400 34.15500
H  40.21900 6.39400 35.53100
H  39.19100 5.75100 34.35400
H  38.45000 6.77000 35.43400
H  39.93800 10.69300 33.70800
H  41.43600 10.94600 34.46800
H  39.67900 9.72800 36.35600
H  39.01200 11.27900 35.62600
H  36.30400 4.91700 32.00100
H  35.96100 3.98200 30.66400
H  35.26800 5.69500 30.72400
H  34.78500 4.37300 27.07700
H  34.87900 5.45900 28.56900
H  35.45800 3.73200 28.55400
H  40.74400 6.77600 24.82000
H  43.76600 6.70900 25.45600
H  41.10800 4.71400 23.87500
H  41.23600 4.01800 25.41800
H  42.72500 4.54700 24.73000
H  42.72200 8.01300 23.47600
H  43.98000 8.62400 24.50000
H  42.78100 10.29900 25.08000
H  41.33600 9.47400 25.47000
H  41.66000 9.97300 23.72400
H  46.63000 9.58800 28.53300
H  46.45100 11.07900 29.35300
H  45.70900 10.85800 27.71600
H  43.36500 11.35800 33.50800
H  45.35300 9.61200 36.89300
H  44.33100 8.25200 36.44400
H  43.63500 9.52300 37.41900
Mg 53.25700 23.62700 44.90100
C  50.46000 25.72300 44.02100
C  51.25900 20.97600 43.98000
C  56.01200 21.88300 45.02200
C  55.13300 26.63000 45.49000
N  51.17200 23.36100 43.79800
C  50.19900 24.40400 43.68600
C  48.93100 23.82300 43.11200
C  49.01000 22.37800 43.63600
C  50.61100 22.18900 43.81300
C  48.24300 22.02900 44.88700
C  48.97900 23.90900 41.58800
C  47.65900 24.53200 40.93200
H  46.91200 23.53100 39.99300
N  53.63400 21.67900 44.49400
C  52.66500 20.69600 44.16400
C  53.34000 19.42000 43.95200
C  54.71000 19.68900 44.26300
C  54.85200 21.08700 44.68600
C  52.69700 18.08500 43.68900
C  55.82900 18.66800 44.20800
O  55.49400 17.48900 43.93500
C  57.16500 18.92300 44.45800
N  55.24800 24.24300 45.16800
C  56.16200 23.22800 45.32900
C  57.56400 23.83200 45.36500
C  57.30800 25.36400 45.50200
C  55.82200 25.39700 45.37000
C  58.61000 23.35600 46.40300
C  57.88200 26.28100 44.42600
C  58.58000 27.48200 44.93100
N  52.81800 25.69500 44.98400
C  53.71500 26.74100 45.36500
C  52.98900 27.95100 45.34000
C  51.66200 27.58200 44.86400
C  51.67100 26.19900 44.62600
C  53.46200 29.31600 45.70500
C  50.40400 28.17400 44.47800
O  50.00800 29.38000 44.50600
C  49.56400 26.96000 43.95800
C  49.05000 27.21500 42.58900
O  49.68600 27.21300 41.57100
O  47.83900 27.81100 42.74100
C  47.18400 28.18600 41.52500
H  50.55600 20.17600 43.73700
H  56.96700 21.35500 45.01900
H  55.77200 27.47600 45.75000
H  48.09800 24.35600 43.57200
H  48.71700 21.64800 42.88200
H  47.86600 22.84900 45.49700
H  48.82800 21.32600 45.48000
H  47.30600 21.51700 44.66900
H  49.21300 22.99700 41.03800
H  49.81300 24.56100 41.32700
H  47.96500 25.46700 40.46100
H  46.95100 24.78100 41.72300
H  53.01400 17.76100 42.69700
H  51.63200 18.31600 43.71200
H  52.86700 17.35200 44.47700
H  57.79900 18.04500 44.33100
H  57.23400 19.33700 45.46400
H  57.40000 19.69100 43.72200
H  58.00100 23.58100 44.39900
H  57.54400 25.63300 46.53100
H  59.05500 24.18700 46.95100
H  59.52100 22.90100 46.01300
H  58.25800 22.51600 47.00200
H  57.20700 26.56500 43.61900
H  58.61500 25.61600 43.96800
H  58.19300 28.37300 44.43700
H  59.63400 27.51200 44.65500
H  58.39100 27.57600 46.00100
H  53.09200 29.69900 46.65500
H  53.15500 29.98400 44.90100
H  54.54900 29.35200 45.63200
H  48.68500 26.80500 44.58400
H  46.25500 27.62100 41.45400
H  47.66900 27.85900 40.60600
H  46.94600 29.24900 41.50700

