158

Mg 0.29200 7.99700 25.46300
C  0.86800 9.76100 28.45000
C  0.13500 5.11800 27.42200
C  -0.12100 6.22500 22.68200
C  0.82800 10.87100 23.60100
N  0.39200 7.51300 27.68000
C  0.48500 8.43700 28.67800
C  0.43900 7.83100 30.03200
C  0.36600 6.26200 29.75200
C  0.27100 6.26500 28.24500
C  1.46900 5.28800 30.37400
C  -0.70300 8.41500 30.86300
C  -0.53500 8.17400 32.40700
H  -0.53400 6.66100 32.80400
N  0.04200 5.97500 25.07600
C  0.07400 4.94800 25.99100
C  0.03600 3.61900 25.25400
C  -0.02800 3.97300 23.84000
C  -0.00600 5.48300 23.84300
C  0.27300 2.24000 25.90100
C  -0.10400 3.03000 22.61600
O  -0.05400 3.45800 21.44900
C  -0.12900 1.55300 22.82900
N  0.34300 8.49700 23.40200
C  0.06600 7.57200 22.45700
C  -0.10200 8.22700 21.06600
C  0.03500 9.79400 21.45700
C  0.46700 9.71600 22.88500
C  0.93300 7.75100 19.95100
C  -1.24100 10.67500 21.23400
C  -2.18500 10.98800 22.41200
N  0.81100 9.86300 25.86600
C  1.00000 10.94800 25.01700
C  1.42800 12.02200 25.75800
C  1.43200 11.66900 27.13900
C  0.99700 10.27000 27.12800
C  1.64300 13.51800 25.23600
C  1.64200 12.14100 28.54000
O  2.14600 13.16500 28.92600
C  1.14100 10.88400 29.42200
C  2.22400 10.46800 30.32400
O  3.24600 9.89600 30.03500
O  1.89200 10.89900 31.59500
C  2.86600 10.49400 32.64500
H  0.25000 4.26300 28.09200
H  -0.19600 5.71000 21.72100
H  0.97600 11.74500 22.96300
H  1.41000 7.98500 30.50200
H  -0.59700 5.82400 30.01300
H  1.01400 4.52900 31.01000
H  2.14100 5.87700 30.99900
H  2.04900 4.87400 29.54900
H  -1.60000 7.84600 30.62100
H  -0.75200 9.50000 30.77100
H  -1.26400 8.73500 32.99200
H  0.32100 8.68200 32.85200
H  -0.69200 1.78900 25.66800
H  0.36700 2.27000 26.98700
H  1.14700 1.70200 25.53300
H  -1.09400 1.43500 23.32200
H  0.74000 1.25800 23.41600
H  -0.04900 1.07800 21.85200
H  -1.09100 7.94600 20.70400
H  0.87600 10.25000 20.93500
H  1.21900 8.57900 19.30200
H  0.56700 6.93600 19.32600
H  1.79100 7.28300 20.43400
H  -1.81800 10.18300 20.45100
H  -0.89200 11.62500 20.83000
H  -1.72600 10.58900 23.31700
H  -3.06200 10.37800 22.19600
H  -2.42700 12.03500 22.59800
H  1.13500 13.64900 24.28100
H  2.68100 13.81400 25.38700
H  1.18900 14.21700 25.93800
H  0.24500 11.17100 29.97300
H  3.50100 11.25500 33.10000
H  3.50700 9.63700 32.43500
H  2.23900 10.23200 33.49700
Mg 48.31200 35.56800 28.21400
C  46.31900 34.14100 30.79500
C  48.83100 38.19000 30.08600
C  49.73300 37.05100 25.53200
C  47.44500 32.80400 26.17000
N  47.87200 35.96000 30.21100
C  47.07700 35.31300 31.13900
C  47.09000 35.96600 32.52700
C  47.49300 37.44300 32.15600
C  48.06600 37.17100 30.67100
C  46.33600 38.44100 32.10300
C  48.08700 35.32400 33.52500
C  47.65900 35.20300 34.97900
H  48.53800 35.84000 36.10700
N  49.26900 37.41700 27.85800
C  49.41200 38.37100 28.84300
C  50.11200 39.48400 28.26600
C  50.45100 39.09000 26.89500
C  49.72500 37.83000 26.69900
C  50.38600 40.78400 28.95300
C  51.26600 39.93900 25.82900
O  51.38800 39.63200 24.67300
C  51.91700 41.26700 26.17000
N  48.66700 34.95500 26.10200
C  49.31900 35.73800 25.24700
C  49.50200 35.01600 23.87900
C  48.95900 33.59800 24.25000
C  48.22300 33.79100 25.54900
C  48.79800 35.72200 22.63700
C  50.01500 32.49000 24.38500
C  50.15800 31.29700 23.39100
N  47.09500 33.77900 28.34400
C  46.79700 32.83000 27.45000
C  45.97400 31.74800 28.13400
C  45.71400 32.29400 29.37200
C  46.44800 33.54800 29.48100
C  45.57000 30.36500 27.65800
C  44.96100 32.09500 30.63900
O  44.18000 31.15600 30.90000
C  45.28800 33.34000 31.53100
C  45.72200 32.90100 32.85400
O  46.79200 32.45600 33.13300
O  44.70100 33.11000 33.78400
C  44.92300 32.54300 35.08800
H  48.86900 39.14900 30.60800
H  50.35700 37.39800 24.70500
H  47.25400 31.94000 25.53000
H  46.07900 35.91900 32.93300
H  48.22500 37.94500 32.78800
H  46.45500 39.24100 32.83500
H  45.36600 37.95600 32.21100
H  46.33000 38.84100 31.09000
H  48.99900 35.91700 33.45400
H  48.27700 34.30700 33.18200
H  47.73500 34.14500 35.23000
H  46.69400 35.67100 35.17400
H  49.71800 41.61500 28.72500
H  51.39800 41.10800 28.71100
H  50.42000 40.48400 30.00000
H  52.28500 41.79300 25.28900
H  52.63400 41.11100 26.97700
H  51.10000 41.93900 26.43300
H  50.56500 35.08900 23.65100
H  48.21800 33.26000 23.52500
H  49.42300 36.42200 22.08400
H  47.92200 36.27600 22.97500
H  48.44300 35.05700 21.84900
H  50.12800 32.16800 25.42100
H  51.01300 32.88600 24.19800
H  50.14800 30.40300 24.01400
H  51.08100 31.24900 22.81300
H  49.34100 31.33000 22.67000
H  46.06400 29.61600 28.27800
H  45.83700 30.29100 26.60400
H  44.49300 30.39700 27.82200
H  44.47500 34.04900 31.68600
H  44.02300 32.00800 35.38900
H  45.13800 33.30300 35.83900
H  45.75500 31.83900 35.09300

