158

Mg 0.54100 7.97700 25.08200
C  1.04500 10.01500 27.80400
C  0.74900 5.26400 27.10800
C  0.14700 6.00000 22.38900
C  0.69200 10.78400 22.93200
N  0.85500 7.71300 27.22900
C  0.99500 8.65600 28.17400
C  1.10500 8.10100 29.55600
C  1.23100 6.51600 29.29300
C  0.95900 6.46600 27.77400
C  2.58600 5.82900 29.69000
C  -0.11000 8.48500 30.40400
C  0.00100 8.63300 31.93600
H  1.20200 8.04900 32.61700
N  0.42600 5.86900 24.78400
C  0.45600 4.98100 25.79000
C  0.18200 3.66500 25.20800
C  0.19200 3.80900 23.79500
C  0.21200 5.23200 23.58400
C  0.12600 2.35900 26.08800
C  -0.02700 2.67200 22.66300
O  0.03600 2.84900 21.47800
C  -0.19600 1.21000 23.03600
N  0.43300 8.37300 23.00500
C  0.18600 7.33600 22.14000
C  -0.17000 7.90600 20.83000
C  -0.11500 9.45500 20.96200
C  0.32900 9.58000 22.36800
C  0.71300 7.21200 19.77300
C  -1.54000 10.13400 20.75900
C  -1.61500 11.61200 20.22700
N  0.88100 10.02600 25.25800
C  0.81900 11.03900 24.34500
C  1.06100 12.33700 25.06300
C  1.15900 11.95200 26.43200
C  0.98600 10.53500 26.48300
C  1.05700 13.70700 24.47100
C  1.36700 12.46600 27.80500
O  1.74800 13.56300 28.16800
C  1.21300 11.26300 28.66900
C  2.39900 11.19700 29.47600
O  3.47700 10.68200 29.18900
O  2.06300 11.57200 30.74700
C  3.11100 11.54900 31.80000
H  0.69100 4.37700 27.74200
H  -0.04200 5.50000 21.43700
H  0.72000 11.68700 22.31900
H  2.02500 8.54900 29.93100
H  0.43500 5.99500 29.82500
H  3.05700 5.59200 28.73600
H  2.48400 4.87300 30.20300
H  3.14600 6.45800 30.38200
H  -0.88500 7.73100 30.27000
H  -0.53600 9.46300 30.18000
H  -0.86200 8.24400 32.47700
H  0.15300 9.67000 32.23700
H  1.02100 1.74100 26.01200
H  -0.74600 1.87300 25.65100
H  0.08100 2.53900 27.16300
H  0.72500 0.87900 23.51500
H  -0.16500 0.65400 22.09900
H  -1.03900 1.02400 23.70100
H  -1.19700 7.58700 20.65300
H  0.50300 9.98100 20.23400
H  1.61000 6.80300 20.23800
H  0.96600 7.81000 18.89800
H  0.21600 6.37500 19.28300
H  -2.07400 10.12500 21.70900
H  -2.13800 9.49600 20.10800
H  -1.96800 11.54700 19.19800
H  -0.60300 12.01800 20.21200
H  -2.18300 12.21100 20.94000
H  1.08100 13.69400 23.38200
H  1.97700 14.13800 24.86600
H  0.18900 14.32600 24.69800
H  0.29000 11.38800 29.23500
H  3.92100 10.84700 31.60000
H  2.70400 11.08600 32.69900
H  3.33100 12.60000 31.98500
Mg 42.25400 41.42100 26.68700
C  41.44300 43.54400 29.31700
C  43.20800 39.04700 28.97200
C  43.36900 39.46400 24.08700
C  41.51900 43.92500 24.46100
N  42.28300 41.34100 28.93900
C  41.94000 42.35200 29.78800
C  42.17700 41.87900 31.24800
C  42.59600 40.41900 31.15200
C  42.64000 40.14900 29.59500
C  43.96700 40.02300 31.75200
C  41.08600 42.35100 32.24000
C  40.64800 41.38500 33.32400
H  39.96600 41.78100 34.62500
N  43.27300 39.54800 26.53100
C  43.51600 38.76700 27.59200
C  43.99800 37.48900 27.05500
C  44.01000 37.53800 25.62600
C  43.55500 38.90400 25.36400
C  44.46200 36.41700 28.05300
C  44.49700 36.48700 24.67900
O  44.46200 36.63600 23.48100
C  44.83200 35.12300 25.15700
N  42.43100 41.61800 24.57800
C  42.80500 40.65000 23.70000
C  42.68500 41.01600 22.22500
C  41.83000 42.32100 22.38300
C  41.98800 42.73300 23.86800
C  44.07400 41.14900 21.54300
C  40.43800 42.16000 21.79900
C  39.41600 41.61600 22.69700
N  41.70200 43.36900 26.78700
C  41.44900 44.30000 25.86700
C  40.88000 45.48000 26.43700
C  40.86900 45.18900 27.77600
C  41.49100 43.95200 27.97500
C  40.58500 46.68800 25.57900
C  40.48800 45.71000 29.05800
O  39.99700 46.83200 29.25100
C  40.88900 44.74200 30.09700
C  41.76400 45.39800 31.06600
O  43.01200 45.35700 31.07600
O  41.01400 46.14800 31.91300
C  41.68400 46.46400 33.28100
H  43.63800 38.36400 29.70800
H  43.58300 38.87100 23.19600
H  41.10700 44.57700 23.68800
H  43.02100 42.53500 31.46000
H  41.93600 39.71700 31.66200
H  44.76800 40.23100 31.04300
H  43.88500 38.98800 32.08200
H  44.18300 40.76800 32.51700
H  40.19900 42.47800 31.61900
H  41.40300 43.35700 32.51500
H  41.53100 40.80700 33.59700
H  40.01200 40.66200 32.81400
H  45.42800 36.16400 27.61700
H  43.69300 35.64500 28.09700
H  44.64700 36.72800 29.08100
H  45.73400 35.05600 25.76600
H  44.90700 34.49600 24.26900
H  43.96800 34.92400 25.79100
H  42.14800 40.18500 21.76900
H  42.17800 43.13100 21.74100
H  44.82400 40.85400 22.27700
H  44.37400 42.16200 21.27500
H  44.15700 40.44600 20.71400
H  40.54800 41.60400 20.86800
H  40.22600 43.19500 21.52900
H  39.91200 41.18700 23.56800
H  38.87200 40.86000 22.13100
H  38.73200 42.36900 23.08900
H  41.42700 46.89000 24.91700
H  40.27800 47.55300 26.16800
H  39.64500 46.41500 25.10000
H  39.92300 44.62700 30.58900
H  42.07900 45.53500 33.69300
H  41.01500 46.79600 34.07500
H  42.47900 47.19400 33.12700

