158

Mg 1.35300 -2.77500 45.06800
C  4.34700 -1.18900 43.76100
C  -0.28500 -0.33700 43.38400
C  -1.28900 -4.38800 45.89300
C  3.44100 -5.39500 46.20000
N  2.00300 -1.07500 43.57100
C  3.23000 -0.55900 43.31900
C  3.20400 0.69000 42.50400
C  1.76700 1.13000 42.79500
C  1.09500 -0.20700 43.21600
C  1.53900 2.33300 43.80600
C  3.67300 0.49800 41.06800
C  4.77400 1.53800 40.59600
H  6.27100 0.97300 40.38600
N  -0.53800 -2.49500 44.62700
C  -1.00900 -1.45700 43.89300
C  -2.42900 -1.62100 43.70100
C  -2.78700 -2.79800 44.39700
C  -1.53000 -3.27800 45.04700
C  -3.26200 -0.76900 42.86800
C  -4.16100 -3.55200 44.39600
O  -5.07900 -2.98500 43.80100
C  -4.40700 -4.72800 45.25100
N  1.15300 -4.67000 45.97400
C  -0.11000 -5.10500 46.29000
C  -0.00700 -6.42900 47.13800
C  1.55000 -6.71800 47.11100
C  2.09600 -5.58900 46.32100
C  -0.68400 -6.44500 48.59200
C  1.90900 -8.15200 46.53000
C  2.46400 -9.29100 47.53500
N  3.45300 -3.20300 45.10500
C  4.13200 -4.32400 45.58000
C  5.57000 -4.13300 45.41500
C  5.67300 -2.89400 44.75500
C  4.35500 -2.39100 44.52700
C  6.64200 -5.12800 45.69400
C  6.58200 -1.86600 44.27100
O  7.80100 -1.90500 44.18900
C  5.70900 -0.70300 43.68600
C  5.98300 0.54600 44.47100
O  5.26200 1.13300 45.24700
O  7.19500 1.05700 44.03600
C  7.59500 2.32400 44.56900
H  -0.81300 0.53800 42.99800
H  -2.20000 -4.87600 46.24800
H  4.17500 -6.11400 46.57100
H  3.76000 1.51000 42.95800
H  1.33000 1.35200 41.82100
H  1.16900 3.10900 43.13600
H  2.42400 2.76100 44.27500
H  0.84400 2.04300 44.59400
H  2.82000 0.49300 40.38900
H  4.11400 -0.49400 40.96800
H  4.74300 2.28500 41.39000
H  4.42100 2.04700 39.70000
H  -3.87900 -1.34500 42.17900
H  -2.65800 -0.17200 42.18500
H  -3.85600 -0.19600 43.58000
H  -3.76100 -5.58300 45.05000
H  -5.41600 -5.10800 45.09100
H  -4.17200 -4.41200 46.26700
H  -0.41200 -7.19600 46.47800
H  1.79600 -6.66500 48.17100
H  -0.35600 -7.29500 49.19000
H  -1.76400 -6.51700 48.45700
H  -0.44600 -5.49500 49.07000
H  2.72700 -7.98000 45.83000
H  1.04600 -8.61400 46.05200
H  2.64000 -8.89200 48.53400
H  3.34400 -9.80200 47.14400
H  1.61400 -9.92700 47.78200
H  7.59500 -4.66300 45.44400
H  6.38200 -5.97600 45.06100
H  6.72000 -5.46500 46.72700
H  6.18200 -0.56900 42.71300
H  8.00900 2.29700 45.57700
H  6.76000 3.02500 44.55600
H  8.33600 2.62600 43.82900
Mg 1.12900 42.24400 26.81800
C  2.66600 42.16600 29.98000
C  -1.75600 41.03600 28.31000
C  -0.15100 41.72800 23.73700
C  4.23900 42.82200 25.45000
N  0.55500 41.64600 28.89100
C  1.28000 41.84200 30.04800
C  0.36600 41.68200 31.32100
C  -0.99600 41.21500 30.75600
C  -0.73400 41.27900 29.18500
C  -1.23500 39.77700 31.12800
C  0.33900 42.95700 32.15100
C  0.51000 42.84600 33.61700
H  -0.09900 41.63400 34.26500
N  -0.76700 41.66700 26.07000
C  -1.82900 41.18200 26.90500
C  -2.91200 40.81000 26.02300
C  -2.49800 41.09700 24.66200
C  -1.11600 41.56400 24.73700
C  -4.30600 40.26000 26.57100
C  -3.33000 40.86200 23.36000
O  -2.89800 41.23200 22.26100
C  -4.72400 40.28300 23.35100
N  1.91400 42.40200 24.94200
C  1.20700 42.05000 23.79500
C  2.13300 42.02100 22.57400
C  3.38200 42.79100 23.07000
C  3.19500 42.72500 24.58400
C  2.36600 40.58300 21.92700
C  3.44000 44.23200 22.69000
C  3.82900 44.44200 21.16400
N  3.04000 42.58500 27.43600
C  4.19600 42.80100 26.78700
C  5.27300 43.08300 27.73100
C  4.69500 42.85600 28.93500
C  3.34600 42.49600 28.78300
C  6.72600 43.38800 27.46100
C  4.93300 42.72100 30.35000
O  6.05000 42.77800 30.88000
C  3.62800 42.40100 31.11100
C  3.84900 41.07300 31.80600
O  3.88100 39.98000 31.31700
O  4.07100 41.33600 33.16200
C  4.25100 40.15600 34.06000
H  -2.66300 40.66500 28.79100
H  -0.55500 41.51800 22.74400
H  5.24000 42.85200 25.01400
H  0.76000 40.90500 31.97600
H  -1.76500 41.88100 31.14800
H  -2.31000 39.65000 31.25100
H  -0.63100 39.59600 32.01700
H  -0.90500 39.10700 30.33400
H  -0.61200 43.45200 31.95600
H  1.11800 43.61000 31.75700
H  0.19500 43.78300 34.07600
H  1.57800 42.89600 33.82900
H  -4.20700 40.12200 27.64700
H  -4.47700 39.23600 26.23800
H  -5.18800 40.86200 26.35200
H  -4.80500 39.33000 23.87400
H  -4.96800 40.10000 22.30400
H  -5.44900 41.01400 23.70900
H  1.65600 42.56300 21.75800
H  4.28600 42.26700 22.76000
H  1.46300 39.98500 22.05100
H  3.22000 40.03500 22.32700
H  2.47600 40.56900 20.84300
H  4.34100 44.57900 23.19600
H  2.54900 44.73300 23.06700
H  3.00400 44.95200 20.66500
H  4.03200 43.46100 20.73500
H  4.74400 45.02600 21.06700
H  7.02300 43.82800 28.41300
H  6.86300 44.01700 26.58100
H  7.31900 42.47400 27.44000
H  3.38500 43.24800 31.75300
H  5.28500 40.17400 34.40400
H  4.02600 39.20900 33.56900
H  3.59600 40.21800 34.92900

