158

Mg 46.31900 24.56600 28.76800
C  47.49000 26.68300 31.29200
C  45.25000 22.42600 31.27900
C  45.98300 22.16500 26.47500
C  47.99000 26.56800 26.43800
N  46.26600 24.61500 30.93600
C  46.60300 25.71600 31.67800
C  46.02700 25.56400 33.11900
C  45.58300 24.03100 33.24500
C  45.70700 23.63800 31.78900
C  46.56600 23.18400 34.12800
C  44.92000 26.62700 33.42000
C  45.01500 27.38300 34.80800
H  45.82300 26.81200 36.02800
N  45.61400 22.57800 28.85300
C  45.16400 21.92000 30.00000
C  44.51800 20.69400 29.59500
C  44.71200 20.59700 28.12700
C  45.47800 21.84000 27.75000
C  43.72600 19.81000 30.65600
C  44.30700 19.52700 27.16000
O  44.52200 19.68000 25.90700
C  43.52900 18.25300 27.53900
N  46.95500 24.41100 26.78800
C  46.53700 23.32700 26.01900
C  46.89200 23.49800 24.58700
C  47.59700 24.93600 24.55300
C  47.46000 25.38600 25.96000
C  47.66300 22.37800 23.96400
C  46.70800 25.92400 23.69200
C  47.44900 26.85800 22.68000
N  47.44900 26.35900 28.81900
C  47.97500 27.04500 27.73400
C  48.55900 28.34300 28.25700
C  48.39800 28.27100 29.66400
C  47.74500 27.02200 29.92200
C  49.29400 29.35700 27.41600
C  48.59500 28.89800 30.97800
O  49.19100 29.96100 31.38400
C  47.99800 27.93400 32.05500
C  49.06600 27.72000 33.02800
O  50.01500 27.01300 32.82900
O  48.79500 28.42600 34.18200
C  49.89200 28.69100 35.07000
H  44.92700 21.68000 32.00900
H  45.88800 21.36800 25.73400
H  48.38700 27.18800 25.63100
H  46.78300 25.85400 33.84900
H  44.57000 23.97400 33.64300
H  47.07900 23.81800 34.85100
H  47.39000 22.66100 33.64300
H  45.96900 22.52100 34.75300
H  43.92400 26.18500 33.38900
H  44.95600 27.40400 32.65700
H  44.01800 27.40200 35.24900
H  45.37500 28.37900 34.55200
H  42.69100 19.69100 30.33600
H  43.65700 20.21600 31.66500
H  44.08400 18.80000 30.85800
H  43.16900 18.24400 28.56800
H  44.09800 17.33900 27.36800
H  42.62000 18.22200 26.93800
H  45.94800 23.52200 24.04200
H  48.62600 24.88500 24.19700
H  47.71400 21.51200 24.62400
H  48.67600 22.69100 23.71200
H  47.22800 22.19600 22.98100
H  46.23100 26.63700 24.36500
H  46.00300 25.28700 23.15700
H  48.21900 26.29100 22.15700
H  47.98900 27.67500 23.15800
H  46.64800 27.24600 22.05100
H  49.45000 30.20100 28.08800
H  48.57300 29.61900 26.64200
H  50.18000 28.80600 27.10300
H  47.25300 28.58200 32.51700
H  50.79200 28.11300 34.85600
H  49.59600 28.54500 36.10900
H  50.10200 29.75200 34.93700
Mg 17.01000 51.49800 26.56600
C  19.02500 50.33100 29.11500
C  14.66200 52.55000 28.90700
C  15.07400 52.78400 24.11300
C  19.42600 50.55400 24.23600
N  16.90400 51.54500 28.68400
C  17.88300 51.04600 29.54400
C  17.40900 51.32300 30.98400
C  15.85600 51.48700 30.91400
C  15.74300 51.80200 29.38800
C  14.98300 50.29200 31.29500
C  18.18600 52.45100 31.69200
C  18.14700 52.42400 33.18900
H  17.10800 51.65400 33.90300
N  15.03800 52.58500 26.56300
C  14.26900 52.88200 27.66300
C  13.11700 53.50400 27.10600
C  13.21400 53.71300 25.70900
C  14.48700 52.99300 25.38400
C  12.07300 54.02700 28.14000
C  12.29600 54.28400 24.71900
O  12.52300 54.34500 23.53600
C  11.11400 55.02400 25.20000
N  17.17400 51.56000 24.44600
C  16.22400 52.04900 23.73500
C  16.74700 52.22600 22.25700
C  18.12800 51.55100 22.30300
C  18.27700 51.20500 23.73000
C  15.85400 51.53000 21.12600
C  19.29500 52.44000 21.78600
C  20.16800 51.96000 20.52500
N  18.74800 50.49800 26.59500
C  19.57600 50.12400 25.57300
C  20.80700 49.49900 26.13500
C  20.58900 49.50900 27.60200
C  19.32600 50.14200 27.76000
C  22.02200 49.01200 25.32000
C  21.07200 49.17000 28.93000
O  22.04300 48.53900 29.30300
C  20.10700 49.69500 29.88700
C  19.61300 48.56500 30.62400
O  18.90400 47.66000 30.17400
O  19.89100 48.73700 31.96600
C  19.39500 47.85800 32.97600
H  14.05000 53.00700 29.68800
H  14.60600 53.33500 23.29500
H  20.23300 50.29900 23.54600
H  17.64700 50.44100 31.57900
H  15.63500 52.39700 31.47300
H  14.07700 50.64500 31.78800
H  15.64200 49.62300 31.84800
H  14.55700 49.88200 30.37900
H  17.84900 53.45800 31.44400
H  19.19300 52.45900 31.27600
H  18.10500 53.43700 33.59100
H  19.08500 51.93500 33.44900
H  12.24500 53.72800 29.17400
H  11.13000 53.57100 27.83800
H  12.10400 55.11700 28.13700
H  10.37000 55.27200 24.44300
H  11.30900 56.00200 25.64000
H  10.59400 54.33600 25.86600
H  16.66600 53.30600 22.13300
H  18.18100 50.60100 21.77200
H  15.50800 52.33200 20.47400
H  15.01700 51.01200 21.59300
H  16.35500 50.88600 20.40300
H  19.91500 52.60500 22.66700
H  18.97300 53.46700 21.61100
H  20.36000 52.73800 19.78600
H  19.58000 51.20200 20.00700
H  21.16500 51.61600 20.80000
H  22.25200 49.65900 24.47300
H  21.93300 47.95900 25.05300
H  22.91900 49.17800 25.91700
H  20.47900 50.49000 30.53400
H  18.60700 47.18700 32.63500
H  19.07200 48.39800 33.86700
H  20.20500 47.22500 33.34100

