158

Mg 1.52700 -0.81600 43.58800
C  4.92600 0.06000 44.01200
C  0.99200 2.29100 42.29200
C  -1.54700 -1.90000 42.86900
C  2.53300 -4.15100 44.09000
N  2.91300 0.98400 43.02600
C  4.24800 1.19500 43.42000
C  4.69000 2.59100 43.07200
C  3.30100 3.31400 42.91100
C  2.29700 2.14500 42.63700
C  2.96300 4.21300 44.17700
C  5.56400 2.74700 41.78800
C  5.63100 1.72600 40.52500
H  5.45600 2.29300 39.09300
N  -0.05500 0.08100 42.68000
C  -0.15300 1.38300 42.23100
C  -1.57700 1.66100 41.84000
C  -2.28900 0.48000 42.05400
C  -1.29600 -0.50700 42.58800
C  -2.06000 2.97300 41.25300
C  -3.74000 0.30100 41.64600
O  -4.35400 1.20300 41.03800
C  -4.51100 -0.97900 41.90100
N  0.62000 -2.74300 43.48800
C  -0.68600 -2.92800 43.24800
C  -1.17600 -4.39900 43.40500
C  0.18400 -4.99000 43.85500
C  1.23200 -3.92600 43.69800
C  -2.42900 -4.53300 44.36200
C  0.54400 -6.28900 43.15000
C  0.95200 -7.39900 44.04100
N  3.29000 -1.85900 44.08900
C  3.55000 -3.21500 44.29000
C  4.90500 -3.39500 44.70000
C  5.55300 -2.16500 44.56200
C  4.49400 -1.29200 44.14100
C  5.56400 -4.70400 44.99700
C  6.77100 -1.38500 44.77000
O  7.88900 -1.80200 44.99200
C  6.40200 0.13100 44.46400
C  6.62400 0.96500 45.74800
O  5.69800 1.43900 46.35700
O  7.93800 1.10200 45.97600
C  8.20800 2.26700 46.80800
H  0.55500 3.26800 42.07600
H  -2.55800 -2.30500 42.79200
H  2.80600 -5.17200 44.36600
H  5.28100 3.03600 43.87300
H  3.31300 3.90800 41.99800
H  2.40700 3.61200 44.89800
H  2.36600 5.07900 43.89200
H  3.84200 4.56500 44.71600
H  6.54700 2.90900 42.23000
H  5.44400 3.68500 41.24600
H  4.97900 0.86200 40.65600
H  6.67100 1.40200 40.55900
H  -2.32400 3.04300 40.19800
H  -1.30400 3.74800 41.38100
H  -2.91200 3.25500 41.87200
H  -5.50300 -0.73500 41.52000
H  -4.47800 -1.28600 42.94600
H  -3.99800 -1.63000 41.19400
H  -1.40000 -4.68800 42.37800
H  0.10700 -5.18900 44.92300
H  -2.65600 -3.48400 44.55000
H  -2.15000 -5.09400 45.25400
H  -3.23800 -4.98400 43.78700
H  1.37900 -6.03800 42.49700
H  -0.27700 -6.54500 42.48000
H  0.84200 -7.12200 45.08900
H  1.86600 -7.94000 43.79600
H  0.12900 -8.10200 43.91000
H  6.50400 -4.75100 44.44700
H  4.92600 -5.53700 44.70100
H  5.68100 -4.72200 46.08100
H  7.11600 0.52900 43.74300
H  7.53000 2.27200 47.66100
H  8.02400 3.15700 46.20700
H  9.24000 2.32200 47.15500
Mg 1.19900 42.42300 25.70800
C  1.91200 42.74100 29.15600
C  -1.99300 41.26100 26.59100
C  0.66900 41.84500 22.49300
C  4.39500 43.77400 24.97900
N  -0.01000 42.15100 27.69600
C  0.57100 42.26200 28.99400
C  -0.49500 41.92900 30.05200
C  -1.65200 41.26100 29.15700
C  -1.22300 41.55900 27.74300
C  -1.92600 39.80300 29.50000
C  -1.02900 43.24600 30.76100
C  -1.09800 43.11900 32.32500
H  -1.42600 41.80800 33.06700
N  -0.43000 41.73100 24.69300
C  -1.68300 41.27400 25.17000
C  -2.49100 40.86800 24.07900
C  -1.74200 41.10300 22.88700
C  -0.51900 41.61000 23.28600
C  -3.94900 40.58800 24.19000
C  -2.21500 40.78700 21.47700
O  -1.56700 41.10100 20.53000
C  -3.39100 39.92500 21.20800
N  2.42100 42.83400 24.00600
C  1.93900 42.37500 22.83100
C  2.98100 42.61600 21.75500
C  3.98300 43.67500 22.38300
C  3.62700 43.43700 23.90000
C  3.75700 41.40700 21.34300
C  3.69700 45.15700 21.96700
C  4.16700 45.59800 20.59700
N  2.85700 42.94400 26.78700
C  4.13300 43.44200 26.36100
C  4.96500 43.66200 27.51700
C  4.11600 43.46200 28.61400
C  2.85600 42.96100 28.13200
C  6.42200 44.25200 27.44600
C  3.96900 43.58100 30.03400
O  4.64800 44.07900 30.89100
C  2.64100 42.87800 30.42200
C  2.82600 41.58100 30.97900
O  3.38800 40.63900 30.44000
O  2.13600 41.46800 32.12600
C  2.39100 40.24000 32.86800
H  -2.92900 40.76900 26.86300
H  0.60400 41.79400 21.40400
H  5.26900 44.40700 24.81500
H  -0.01000 41.32200 30.81600
H  -2.57400 41.77400 29.43000
H  -1.76500 39.14700 28.64400
H  -2.92300 39.58500 29.88100
H  -1.21200 39.45100 30.24500
H  -2.08500 43.41200 30.54500
H  -0.50300 44.14300 30.43400
H  -1.78600 43.83700 32.77200
H  -0.08000 43.38300 32.61000
H  -4.34600 40.75700 25.19100
H  -4.13800 39.55900 23.88500
H  -4.44300 41.27300 23.50100
H  -3.31600 39.55500 20.18600
H  -4.28300 40.50100 21.45300
H  -3.37400 39.05600 21.86600
H  2.44100 42.97800 20.88000
H  5.04100 43.43700 22.27600
H  3.73500 40.73500 22.20200
H  4.73400 41.63100 20.91600
H  3.21900 40.98500 20.49400
H  4.28500 45.82700 22.59300
H  2.63100 45.37500 22.04100
H  3.26600 45.66500 19.98700
H  4.93200 45.01000 20.09000
H  4.56400 46.60400 20.73600
H  7.11000 43.61400 27.99900
H  6.43800 45.29400 27.76600
H  6.77200 44.11800 26.42300
H  2.12200 43.55400 31.10100
H  1.69000 39.43400 32.65100
H  2.28500 40.45300 33.93200
H  3.42500 39.89900 32.82300

