158

Mg 26.96200 50.11300 26.97100
C  24.91100 51.21100 29.73600
C  29.22300 48.98500 29.10700
C  29.11800 49.96700 24.39000
C  24.56700 51.63600 24.84500
N  27.07400 50.33500 29.15900
C  26.07900 50.60700 30.13700
C  26.64800 50.33700 31.57700
C  28.08700 49.61000 31.27500
C  28.12500 49.61800 29.73300
C  29.31200 50.33600 31.99100
C  25.69300 49.46600 32.48700
C  25.21300 50.11100 33.79600
H  25.30200 49.16400 34.99800
N  28.86400 49.51900 26.76900
C  29.62200 48.98800 27.74500
C  30.86700 48.37800 27.13900
C  30.78400 48.63500 25.77000
C  29.57000 49.45600 25.54900
C  31.97900 47.77000 27.99500
C  31.75300 48.30800 24.65500
O  31.63600 48.62500 23.44200
C  33.05000 47.57400 24.97000
N  26.89200 50.85400 24.96100
C  27.91300 50.55600 24.07600
C  27.45900 50.78100 22.61900
C  25.94100 51.01100 22.75300
C  25.76200 51.23100 24.27800
C  28.20000 51.95800 21.98800
C  25.04900 49.80100 22.23400
C  24.25200 49.95600 20.95100
N  25.00000 51.18400 27.15700
C  24.19300 51.69000 26.19200
C  22.96100 52.07200 26.82900
C  23.27400 51.97500 28.20900
C  24.47900 51.37100 28.30200
C  21.69700 52.43700 26.18500
C  22.65700 52.09500 29.51000
O  21.52700 52.50500 29.78900
C  23.63900 51.64100 30.55700
C  23.88100 52.66700 31.56300
O  24.84400 53.48300 31.57300
O  22.96900 52.52700 32.56500
C  23.09500 53.49500 33.71300
H  29.85400 48.44500 29.81600
H  29.80600 49.85700 23.54800
H  23.76600 51.97400 24.18400
H  26.82300 51.31900 32.01700
H  28.03800 48.58400 31.63800
H  29.00700 50.77800 32.93900
H  29.89600 51.00600 31.36000
H  30.03200 49.53900 32.18000
H  26.14900 48.49300 32.67200
H  24.81600 49.21500 31.88900
H  24.15600 50.31500 33.62700
H  25.63700 51.08700 34.03000
H  31.75200 48.06800 29.01800
H  32.95300 48.17300 27.71900
H  32.03700 46.69000 27.86400
H  32.97200 46.56700 25.37800
H  33.55300 48.22800 25.68200
H  33.61500 47.62600 24.03900
H  27.53700 49.85300 22.05300
H  25.51400 51.91900 22.32600
H  28.52900 51.59100 21.01500
H  29.07700 52.39400 22.46500
H  27.52600 52.79400 21.80400
H  24.41000 49.34800 22.99100
H  25.72600 48.99100 21.96400
H  24.52600 49.20700 20.20800
H  24.37600 51.00400 20.67600
H  23.20100 49.77700 21.17900
H  20.84200 52.34000 26.85500
H  21.58300 51.98500 25.19900
H  21.78400 53.50300 25.97800
H  23.21500 50.79500 31.09800
H  23.32700 52.92000 34.60900
H  22.12900 53.88400 34.03500
H  23.78500 54.33000 33.59300
Mg -12.07400 37.73900 41.24900
C  -9.62100 35.41300 40.38100
C  -10.31400 40.11700 39.33500
C  -14.77300 39.63300 41.03300
C  -13.78900 35.18700 42.87400
N  -10.24200 37.73900 39.92000
C  -9.42500 36.62500 39.77600
C  -8.20900 36.94900 38.98800
C  -8.24600 38.54200 38.84200
C  -9.67000 38.85600 39.35300
C  -7.26500 39.34400 39.67100
C  -8.31500 36.26100 37.58300
C  -7.06700 35.42100 37.05900
H  -5.94100 36.26300 36.41300
N  -12.51300 39.66900 40.32500
C  -11.63800 40.50400 39.69300
C  -12.36600 41.72600 39.37300
C  -13.66400 41.63400 39.90100
C  -13.70600 40.29800 40.47500
C  -11.67500 42.83500 38.56200
C  -14.73200 42.62600 39.77000
O  -14.45900 43.60400 39.07200
C  -16.13900 42.48500 40.28800
N  -14.00600 37.47900 41.89100
C  -14.98300 38.37100 41.56800
C  -16.34800 37.93900 42.10000
C  -15.99200 36.57900 42.75600
C  -14.50800 36.34400 42.45400
C  -17.16000 38.99800 42.98100
C  -16.87300 35.40800 42.16000
C  -17.56900 34.50600 43.17100
N  -11.75800 35.68700 41.70800
C  -12.47400 34.80500 42.45400
C  -11.69300 33.63700 42.61800
C  -10.56100 33.73300 41.85600
C  -10.67500 35.04600 41.26300
C  -12.08700 32.41200 43.45000
C  -9.40600 33.14600 41.30400
O  -9.01700 31.98700 41.42200
C  -8.65000 34.14900 40.41300
C  -7.39700 34.36000 41.27400
O  -6.40800 33.65200 41.40600
O  -7.46400 35.60400 41.91000
C  -6.26600 36.15500 42.61000
H  -9.67000 40.85600 38.85300
H  -15.73600 40.14700 41.03100
H  -14.22800 34.29100 43.31600
H  -7.25700 36.70000 39.45600
H  -8.06400 38.80900 37.80100
H  -6.35600 39.49000 39.08700
H  -6.91500 38.73800 40.50700
H  -7.68400 40.29900 39.98800
H  -8.69800 36.94700 36.82700
H  -9.14100 35.55000 37.58700
H  -7.48200 34.65800 36.40000
H  -6.69600 34.88300 37.93100
H  -12.24900 43.41100 37.83600
H  -10.65000 42.69400 38.21800
H  -11.39800 43.59500 39.29200
H  -16.61600 43.45200 40.12900
H  -16.24800 42.10200 41.30300
H  -16.61200 41.79500 39.58900
H  -17.05000 37.89900 41.26700
H  -16.06400 36.43700 43.83400
H  -17.84500 39.64100 42.42800
H  -16.51300 39.71200 43.49100
H  -17.68400 38.45200 43.76600
H  -16.39100 34.66900 41.52000
H  -17.65400 35.80000 41.50800
H  -18.08400 33.67100 42.69500
H  -18.23500 35.18100 43.70800
H  -16.88200 34.12100 43.92600
H  -12.36600 32.80600 44.42700
H  -11.18500 31.81700 43.59600
H  -12.93900 31.90800 42.99300
H  -8.32700 33.65000 39.49900
H  -6.56900 36.98500 43.24900
H  -5.64900 36.41500 41.75100
H  -5.83000 35.46300 43.33100

