158

Mg -3.20400 16.99900 26.45400
C  -3.72400 14.80300 29.18800
C  -4.06400 19.54100 28.54600
C  -3.19800 18.99300 23.83300
C  -3.61200 14.19100 24.40700
N  -3.72100 17.12900 28.66500
C  -3.63100 16.09700 29.57800
C  -3.82600 16.65300 31.04400
C  -4.14400 18.16500 30.82900
C  -3.97400 18.31400 29.20600
C  -5.62700 18.53500 31.22800
C  -2.52700 16.21700 31.87700
C  -1.79600 17.26300 32.81500
H  -1.30100 16.85200 34.25200
N  -3.28400 18.96900 26.29400
C  -3.54000 19.89900 27.29700
C  -3.33400 21.23200 26.77000
C  -2.99200 21.01400 25.36300
C  -3.15500 19.59200 25.12600
C  -3.52200 22.50700 27.57900
C  -2.62100 22.14400 24.37200
O  -2.56300 21.90900 23.16500
C  -2.41700 23.51500 24.73400
N  -3.37400 16.57300 24.45400
C  -3.17800 17.61700 23.48800
C  -3.28200 16.97300 22.03900
C  -3.42500 15.48500 22.33500
C  -3.35500 15.38700 23.81700
C  -4.37700 17.60600 21.07200
C  -2.35400 14.57000 21.65000
C  -2.84600 14.11200 20.23500
N  -3.52200 14.94100 26.69400
C  -3.60000 13.97800 25.81400
C  -3.83100 12.71500 26.44500
C  -3.94400 13.01400 27.79800
C  -3.72300 14.36000 27.89900
C  -4.02400 11.42900 25.73900
C  -4.27900 12.40500 29.05000
O  -4.62700 11.24300 29.27300
C  -4.08200 13.54900 30.00500
C  -3.14300 13.14500 31.07800
O  -1.91300 13.05100 30.93100
O  -3.82500 12.98000 32.29400
C  -3.01900 12.54800 33.43500
H  -4.17000 20.45100 29.14100
H  -3.30300 19.64100 22.96000
H  -3.76900 13.31800 23.76900
H  -4.73900 16.23800 31.47100
H  -3.57200 18.87500 31.42700
H  -5.58300 19.00000 32.21300
H  -6.16400 17.61000 31.43900
H  -6.30500 19.14900 30.63600
H  -1.72200 15.82500 31.25600
H  -2.88300 15.44400 32.55800
H  -2.51400 18.06900 32.96700
H  -0.93500 17.78900 32.40400
H  -2.50400 22.77900 27.85700
H  -4.03600 22.26900 28.51100
H  -4.13300 23.23800 27.04900
H  -1.88100 24.07800 23.97000
H  -1.71000 23.45700 25.56200
H  -3.33200 24.04700 24.99200
H  -2.32100 17.29400 21.63700
H  -4.42800 15.14700 22.07200
H  -4.81200 18.58200 21.28500
H  -5.31000 17.06400 21.22500
H  -4.14500 17.46300 20.01700
H  -2.11100 13.75900 22.33600
H  -1.50300 15.24900 21.57900
H  -3.86800 14.39700 19.98500
H  -2.82600 13.02800 20.35300
H  -2.19400 14.37200 19.40100
H  -4.77200 10.85400 26.28500
H  -3.13900 10.80000 25.64800
H  -4.47700 11.70100 24.78600
H  -5.01500 13.82400 30.49700
H  -3.24500 11.48300 33.49800
H  -3.32900 13.14600 34.29200
H  -1.93400 12.64400 33.38300
Mg 36.41800 50.08800 25.24100
C  36.60300 48.37600 28.18600
C  34.61400 52.61100 26.98200
C  36.20400 51.80400 22.30200
C  37.73600 47.31100 23.55400
N  35.69900 50.40300 27.29600
C  36.05800 49.63500 28.38500
C  35.61800 50.23900 29.79800
C  34.80000 51.49000 29.25000
C  35.09300 51.55600 27.79000
C  33.28600 51.44700 29.53700
C  36.78000 50.51800 30.76200
C  36.72100 49.76700 32.10700
H  35.33100 49.55000 32.73900
N  35.55600 52.02300 24.78900
C  34.86000 52.90100 25.59600
C  34.40800 54.01800 24.78700
C  34.78900 53.72700 23.40700
C  35.57500 52.47800 23.44300
C  33.70600 55.26500 25.49700
C  34.29700 54.38800 22.11900
O  34.65900 53.97300 21.03000
C  33.44000 55.59200 22.09600
N  36.94700 49.69800 23.25100
C  36.86700 50.55100 22.24700
C  37.14600 49.82600 20.93400
C  37.84500 48.51800 21.30100
C  37.45600 48.46800 22.80100
C  35.85300 49.56900 19.97300
C  39.37200 48.71300 21.10000
C  40.17100 47.54600 20.47900
N  37.02400 48.22600 25.70200
C  37.57800 47.18500 24.92400
C  37.78000 46.00300 25.75800
C  37.50900 46.45400 27.03500
C  36.92200 47.77500 26.92500
C  38.19800 44.67300 25.20100
C  37.56900 46.12300 28.44300
O  38.01700 45.16100 29.04700
C  36.93000 47.25200 29.25400
C  35.71000 46.78200 30.00700
O  34.63100 47.24300 29.81700
O  36.01400 45.85900 30.94100
C  34.89600 45.28300 31.77500
H  34.03100 53.40400 27.45400
H  36.12900 52.26900 21.31600
H  38.08100 46.43300 23.00500
H  34.94900 49.47800 30.20100
H  35.17400 52.45600 29.58700
H  33.13200 50.60200 30.20700
H  32.71700 51.19000 28.64300
H  32.89600 52.29200 30.10500
H  36.90700 51.57400 30.99900
H  37.74800 50.19500 30.37700
H  37.33700 50.30000 32.83100
H  37.27700 48.84600 31.93400
H  34.44500 55.96900 25.88000
H  33.02200 55.02400 26.31000
H  33.15200 55.79900 24.72500
H  33.02400 55.90200 21.13700
H  34.05900 56.46200 22.31600
H  32.59100 55.41400 22.75600
H  37.87500 50.53100 20.53200
H  37.37100 47.68200 20.78600
H  34.97100 49.78800 20.57400
H  35.86600 48.52400 19.66400
H  36.06800 50.28100 19.17600
H  39.82800 48.93000 22.06600
H  39.62400 49.59700 20.51400
H  40.92300 47.23100 21.20300
H  40.71800 47.93200 19.61900
H  39.56500 46.68800 20.19000
H  37.51600 44.25900 24.45800
H  38.26400 43.99000 26.04800
H  39.21800 44.78300 24.83100
H  37.59200 47.60700 30.04400
H  34.64600 46.05900 32.49900
H  35.35900 44.44400 32.29500
H  34.04800 44.95300 31.17700

