158

Mg 36.35400 48.85300 25.05900
C  36.72500 47.05700 28.15800
C  35.14200 51.61500 26.74500
C  35.62700 50.24000 22.07900
C  37.65500 46.01700 23.49600
N  35.97200 49.24100 27.12500
C  36.26400 48.41700 28.27800
C  36.05100 49.18200 29.58900
C  35.20100 50.41400 29.12700
C  35.54500 50.46900 27.56500
C  33.67500 50.33300 29.54800
C  37.38200 49.37000 30.53200
C  37.22100 48.84300 31.97000
H  35.94500 49.18200 32.74700
N  35.59100 50.66500 24.53700
C  35.24900 51.64500 25.37900
C  34.93600 52.86000 24.58100
C  34.93700 52.46400 23.18100
C  35.38600 51.06900 23.20100
C  34.76100 54.22600 25.29800
C  34.66700 53.34000 21.91300
O  34.67500 52.83100 20.75000
C  34.13200 54.73600 22.08700
N  36.53400 48.13900 23.11900
C  36.16000 48.94700 22.03000
C  36.55300 48.36500 20.70500
C  37.56200 47.16500 21.12800
C  37.25200 47.05500 22.65300
C  35.44300 47.96000 19.70800
C  39.03600 47.39000 20.73100
C  39.90500 46.22600 20.34200
N  36.97700 46.90300 25.61100
C  37.47900 45.87200 24.85400
C  37.70700 44.74800 25.66100
C  37.45400 45.19200 26.98000
C  37.04000 46.48300 26.87500
C  38.13100 43.33700 25.11300
C  37.41400 44.75500 28.33800
O  37.68400 43.69400 28.81900
C  37.01800 46.00900 29.20000
C  35.93600 45.69300 30.15500
O  34.71800 45.68300 29.96600
O  36.39800 45.33100 31.37200
C  35.46700 45.15800 32.52300
H  34.64800 52.37200 27.35800
H  35.48000 50.71100 21.10500
H  37.97300 45.17600 22.87600
H  35.37100 48.43800 30.00400
H  35.62300 51.34000 29.51600
H  33.08500 50.30300 28.63200
H  33.27600 51.27300 29.93000
H  33.39900 49.57100 30.27700
H  37.80100 50.37600 30.50100
H  38.11300 48.74400 30.02100
H  38.09400 49.27400 32.46000
H  37.63900 47.84300 32.08500
H  35.44600 54.92500 24.81800
H  35.12200 54.13500 26.32200
H  33.73600 54.58200 25.18900
H  34.94800 55.35800 22.45300
H  33.30300 54.75800 22.79400
H  33.85200 55.33900 21.22300
H  37.09100 49.18700 20.23200
H  37.19200 46.20400 20.77100
H  35.47700 46.97300 19.24700
H  35.51100 48.68200 18.89500
H  34.43000 47.93900 20.11100
H  39.55000 47.70200 21.64000
H  39.07500 48.16100 19.96200
H  40.28700 45.71800 21.22700
H  40.69000 46.81900 19.87500
H  39.39700 45.59900 19.60900
H  38.04500 43.27500 24.02800
H  37.67300 42.48100 25.60800
H  39.18800 43.37800 25.37600
H  37.91900 46.24700 29.76700
H  35.67900 44.16300 32.91300
H  34.39200 45.21200 32.34600
H  35.80900 45.90000 33.24400
Mg 6.34500 54.12900 41.67300
C  5.88000 50.64900 41.41500
C  9.51000 53.60700 40.41000
C  6.63100 57.48700 41.23400
C  2.98700 54.52800 42.59500
N  7.57600 52.29900 41.02300
C  7.20900 50.94500 41.04600
C  8.26800 50.10300 40.33800
C  9.52100 51.02300 40.51500
C  8.82900 52.38700 40.63400
C  10.41700 50.74900 41.75700
C  8.03300 49.65700 38.89900
C  7.39400 50.76300 38.01300
H  6.25400 50.41000 37.04900
N  7.92400 55.41100 40.94900
C  9.13800 54.97700 40.44700
C  9.87300 56.08300 40.02100
C  9.07600 57.32900 40.30500
C  7.81100 56.76700 40.84800
C  11.32300 56.04000 39.45800
C  9.41300 58.77800 40.04300
O  10.57100 58.96400 39.61100
C  8.59700 59.93800 40.26300
N  4.91100 55.76600 41.76400
C  5.36900 57.05000 41.60200
C  4.24000 58.11500 42.01800
C  3.13500 57.07900 42.52300
C  3.72500 55.69600 42.29000
C  4.68000 59.26700 43.02000
C  1.78000 57.18600 41.83800
C  0.56000 57.11600 42.68600
N  4.76000 52.92700 41.96000
C  3.47200 53.24700 42.39700
C  2.73500 52.03200 42.60100
C  3.66600 51.03800 42.27200
C  4.87200 51.57400 41.85700
C  1.27100 51.96800 43.06000
C  3.79400 49.63500 42.22000
O  3.07100 48.74800 42.55500
C  5.20000 49.36000 41.50700
C  4.79100 48.69600 40.24600
O  4.08300 49.11400 39.34800
O  5.44500 47.40000 40.20800
C  5.09300 46.70900 38.96300
H  10.49600 53.43300 39.97500
H  6.68700 58.57600 41.17200
H  1.95700 54.76500 42.87200
H  8.40800 49.21200 40.95000
H  10.20200 51.02700 39.66400
H  9.96200 50.06000 42.46900
H  10.49400 51.74300 42.19700
H  11.43100 50.42100 41.52700
H  7.51500 48.71900 38.70100
H  9.03700 49.53500 38.49200
H  8.07800 51.37800 37.42900
H  6.84200 51.41800 38.68800
H  11.37900 56.24100 38.38800
H  11.80200 55.09100 39.69900
H  11.82000 56.88300 39.93700
H  7.73400 59.90100 39.59800
H  9.25400 60.80600 40.21000
H  8.27100 60.00300 41.30100
H  3.94100 58.60000 41.08900
H  3.12300 57.23600 43.60100
H  4.89700 60.23700 42.57200
H  5.59900 59.00200 43.54300
H  3.94800 59.35800 43.82200
H  1.68400 56.42500 41.06400
H  1.75100 58.11100 41.26100
H  0.69900 56.65200 43.66200
H  -0.23400 56.53700 42.21400
H  0.15400 58.11100 42.87300
H  0.87200 52.98200 43.04600
H  1.22100 51.44800 44.01600
H  0.79400 51.44200 42.23300
H  5.64800 48.67000 42.22200
H  5.35400 45.67200 39.17700
H  5.72800 46.97700 38.11800
H  4.03900 46.84200 38.72000

