158

Mg 15.71800 -2.10700 27.34000
C  15.08800 -0.05800 30.05600
C  17.88600 -3.95700 29.34600
C  16.88400 -3.76800 24.63700
C  14.07200 0.12200 25.16100
N  16.57200 -1.93300 29.41200
C  15.93500 -1.11800 30.41900
C  16.41000 -1.55800 31.81400
C  17.50600 -2.66200 31.47600
C  17.40700 -2.85200 29.93200
C  19.04400 -2.34400 31.86400
C  15.23500 -1.92200 32.74900
C  15.29300 -1.19100 34.10300
H  16.52800 -0.37500 34.47300
N  16.97800 -3.68900 27.04900
C  17.78400 -4.32700 27.98700
C  18.21100 -5.61800 27.48600
C  18.02300 -5.58000 26.07700
C  17.26700 -4.31500 25.85000
C  18.87900 -6.69200 28.36400
C  18.35900 -6.52600 25.00300
O  18.04600 -6.40700 23.79500
C  19.17100 -7.76300 25.38000
N  15.58300 -1.71700 25.13200
C  16.20700 -2.58700 24.28300
C  15.83800 -2.20900 22.85600
C  14.63200 -1.25900 22.98100
C  14.77800 -0.88200 24.48700
C  16.96500 -1.60000 22.06000
C  13.22000 -1.84600 22.69700
C  12.62100 -1.71500 21.25000
N  14.75300 -0.36800 27.48700
C  14.03200 0.36900 26.55300
C  13.42500 1.51100 27.20200
C  13.68100 1.29700 28.61700
C  14.56900 0.20300 28.70000
C  12.56900 2.60600 26.55800
C  13.46400 1.82000 29.90500
O  12.76400 2.83400 30.23600
C  14.35700 0.94300 30.93200
C  15.31400 1.78800 31.68000
O  16.54900 1.87500 31.52100
O  14.61800 2.69300 32.41700
C  15.40100 3.66600 33.18700
H  18.52200 -4.56700 29.99100
H  16.99300 -4.43900 23.78300
H  13.40300 0.71000 24.53000
H  16.88200 -0.63800 32.15800
H  17.19800 -3.56100 32.01100
H  19.41400 -3.00200 32.65000
H  19.01300 -1.31600 32.22400
H  19.58600 -2.34900 30.91800
H  15.28800 -2.96500 33.06100
H  14.30300 -1.61500 32.27500
H  15.32500 -1.97200 34.86300
H  14.40600 -0.62900 34.39500
H  18.67400 -7.72100 28.06800
H  18.71700 -6.66200 29.44200
H  19.94700 -6.58900 28.17600
H  19.63700 -8.04300 24.43500
H  18.60900 -8.60700 25.78000
H  19.96500 -7.35200 26.00200
H  15.46100 -3.11800 22.38700
H  14.88600 -0.42000 22.33400
H  16.57500 -1.05400 21.20000
H  17.61000 -2.44700 21.82500
H  17.54700 -0.81900 22.54800
H  12.48700 -1.50100 23.42500
H  13.22600 -2.92200 22.87100
H  11.61600 -1.29500 21.28400
H  12.47200 -2.70400 20.81700
H  13.24300 -1.04800 20.65200
H  12.97800 3.11400 25.68500
H  12.42400 3.42000 27.26900
H  11.68900 2.02600 26.27900
H  13.63900 0.52800 31.63900
H  16.22400 4.12900 32.64200
H  15.78900 3.22400 34.10500
H  14.69600 4.46500 33.41700
Mg 26.98900 49.66500 26.16700
C  25.16200 50.80800 28.86900
C  29.34000 48.47200 28.37400
C  29.25900 49.42800 23.62900
C  24.80400 51.28900 23.97500
N  27.05600 49.50200 28.37200
C  26.26700 50.08100 29.25800
C  26.70600 49.90000 30.73000
C  28.18100 49.32200 30.47000
C  28.14400 48.93900 28.95600
C  29.34700 50.24400 31.00100
C  25.85300 48.83300 31.54200
C  25.36700 49.27500 32.91400
H  26.44200 49.76200 33.97500
N  28.96600 48.93800 26.01600
C  29.77200 48.45000 27.03900
C  31.06200 48.05600 26.54800
C  31.16300 48.47500 25.18400
C  29.71200 48.92700 24.85300
C  32.10000 47.43900 27.49600
C  32.31400 48.53800 24.18900
O  32.33000 49.07400 23.04000
C  33.65200 47.96700 24.66000
N  27.10000 50.38500 24.11700
C  28.08700 50.04200 23.27500
C  27.75600 50.48500 21.80200
C  26.30700 50.99400 21.91700
C  26.03100 50.93700 23.43200
C  28.72000 51.45600 21.09400
C  25.26300 50.28900 21.00200
C  24.39200 51.15400 19.99800
N  25.15700 50.57400 26.33900
C  24.40600 51.23800 25.36200
C  23.26600 51.87600 26.05000
C  23.56700 51.67800 27.45300
C  24.69600 50.92400 27.54500
C  22.16600 52.69600 25.45100
C  23.07300 51.91200 28.75300
O  22.00000 52.44000 29.06400
C  24.04000 51.35100 29.74900
C  24.35200 52.49900 30.67600
O  25.21800 53.34500 30.52100
O  23.48900 52.51500 31.73600
C  23.73100 53.39900 32.84100
H  30.03200 48.02500 29.09000
H  30.03300 49.22500 22.88600
H  24.12100 51.80300 23.29500
H  26.66000 50.90300 31.15300
H  28.39500 48.39800 31.00500
H  28.92400 50.85700 31.79700
H  29.63500 50.88100 30.16500
H  30.27300 49.75100 31.29500
H  26.20500 47.80200 31.50900
H  25.00000 48.81600 30.86300
H  24.81400 48.49400 33.43600
H  24.70200 50.13400 32.83300
H  31.77600 47.24600 28.51900
H  33.03000 47.99000 27.63900
H  32.47000 46.55200 26.98100
H  34.47100 48.10700 23.95500
H  33.50800 46.88900 24.72100
H  33.90700 48.38400 25.63500
H  27.72100 49.60700 21.15800
H  26.24500 52.03500 21.59800
H  29.58700 51.73200 21.69400
H  28.29800 52.42800 20.84000
H  29.09800 51.01300 20.17300
H  24.68200 49.65600 21.67300
H  25.77000 49.59300 20.33400
H  24.30600 50.69800 19.01100
H  24.79800 52.16000 19.89800
H  23.38100 51.21600 20.40000
H  21.26200 52.79400 26.05200
H  21.84700 52.07200 24.61600
H  22.59600 53.60900 25.03800
H  23.58200 50.52900 30.29800
H  24.63400 53.06300 33.35200
H  22.87500 53.43000 33.51600
H  23.88000 54.43400 32.53300

