158

Mg 26.47900 50.30100 26.47100
C  24.28200 51.68000 28.99400
C  28.49700 49.28100 28.87900
C  28.72100 49.42900 24.11100
C  24.37800 51.91000 24.08000
N  26.33000 50.49000 28.66900
C  25.36800 50.96700 29.54700
C  25.73200 50.82000 31.05100
C  27.13100 50.17400 30.88400
C  27.35100 49.97000 29.35400
C  28.32900 51.04700 31.49100
C  24.57400 50.00800 31.81200
C  24.15500 50.47900 33.26600
H  25.17200 50.88400 34.27000
N  28.33000 49.42700 26.49100
C  28.96200 48.97400 27.57500
C  30.21300 48.32500 27.19900
C  30.31800 48.37300 25.78400
C  29.10500 49.08400 25.42500
C  31.20200 47.74900 28.20000
C  31.33700 47.75900 24.82000
O  31.25700 47.82800 23.58700
C  32.63300 47.14500 25.36900
N  26.44100 50.55100 24.37500
C  27.49800 50.06100 23.61200
C  27.25900 50.28400 22.10400
C  25.81600 50.97100 22.16200
C  25.49500 51.11000 23.61700
C  28.24100 51.24000 21.31600
C  24.65100 50.15600 21.50400
C  24.68900 48.61300 21.46000
N  24.73000 51.56600 26.46500
C  24.00600 52.03400 25.41700
C  22.84400 52.71000 25.85600
C  22.93700 52.57600 27.26500
C  24.10200 51.82800 27.57200
C  21.87200 53.46800 24.95900
C  22.24300 52.93000 28.45700
O  21.17900 53.51900 28.68100
C  23.09200 52.37100 29.67200
C  23.45000 53.52900 30.51500
O  24.11400 54.51800 30.17800
O  22.86100 53.42200 31.78400
C  22.75100 54.62700 32.58400
H  29.09000 48.84600 29.68600
H  29.29800 49.16600 23.22200
H  23.87600 52.50000 23.31100
H  25.65400 51.79900 31.52300
H  27.11300 49.21300 31.39700
H  28.02900 52.07600 31.69100
H  29.21100 50.90600 30.86600
H  28.55700 50.47400 32.39000
H  25.02300 49.02400 31.94800
H  23.72500 49.99000 31.12800
H  23.47100 49.80800 33.78500
H  23.54500 51.34500 33.00700
H  31.93000 48.55500 28.30000
H  31.68800 46.82600 27.88400
H  30.71300 47.61700 29.16500
H  33.16200 47.95300 25.87500
H  33.24400 46.73300 24.56600
H  32.53600 46.26400 26.00400
H  27.14200 49.28700 21.67800
H  25.63000 51.93400 21.68800
H  29.18100 51.42000 21.83600
H  27.65600 52.14400 21.15000
H  28.44400 50.87500 20.30900
H  24.46300 50.46200 20.47500
H  23.71900 50.41100 22.00800
H  23.75100 48.23300 21.86500
H  25.53100 48.23000 22.03600
H  24.80400 48.24500 20.44000
H  22.33100 53.81500 24.03300
H  21.46900 54.32800 25.49400
H  21.07600 52.76400 24.71600
H  22.39800 51.67300 30.14200
H  21.78500 54.58200 33.08700
H  22.78500 55.62400 32.14600
H  23.48800 54.49500 33.37700
Mg 16.64500 52.14000 25.82100
C  18.28700 50.98800 28.69600
C  14.06200 53.24100 27.75300
C  15.26800 53.46100 23.09300
C  19.18200 50.76000 23.87800
N  16.30100 52.18400 27.98300
C  17.16000 51.71000 29.01100
C  16.63000 52.17000 30.36100
C  15.21200 52.69400 30.04600
C  15.15300 52.69500 28.48400
C  14.08000 51.97600 30.92300
C  17.57500 53.26600 30.93300
C  18.09700 52.89100 32.29100
H  17.32700 53.41000 33.46200
N  14.86700 53.12300 25.44700
C  13.94900 53.51100 26.37600
C  12.83300 54.16600 25.71700
C  13.14400 54.18900 24.30100
C  14.48300 53.51600 24.20500
C  11.73800 54.85900 26.50600
C  12.32500 54.59800 23.12600
O  12.63600 54.44100 21.95100
C  11.04800 55.33500 23.26300
N  17.04100 51.99600 23.78800
C  16.46200 52.77500 22.88400
C  17.16300 52.81200 21.50500
C  18.55600 52.07300 21.76100
C  18.21900 51.54000 23.26100
C  16.34800 52.21100 20.31600
C  19.77800 53.00000 21.66000
C  21.13300 52.29600 21.53300
N  18.27800 51.00200 26.12500
C  19.20400 50.46400 25.27200
C  20.23600 49.66700 25.99700
C  19.88800 49.90500 27.32700
C  18.66200 50.60000 27.38700
C  21.53500 49.11200 25.51000
C  20.35500 49.68300 28.66400
O  21.29600 49.01600 29.10300
C  19.40400 50.45100 29.62600
C  18.90900 49.68800 30.78200
O  17.98200 48.90200 30.67800
O  19.76400 49.73500 31.79300
C  19.89700 48.71200 32.77300
H  13.20900 53.61700 28.32100
H  14.83400 53.93900 22.21200
H  19.99700 50.24900 23.36200
H  16.51300 51.31800 31.03100
H  15.12100 53.72900 30.37500
H  14.52700 51.69700 31.87700
H  13.77900 51.15500 30.27100
H  13.23100 52.64800 31.04700
H  17.07000 54.21700 31.10500
H  18.45400 53.41800 30.30700
H  19.12900 53.22000 32.40900
H  18.26300 51.81400 32.30700
H  12.03200 55.31300 27.45200
H  10.91500 54.14400 26.52100
H  11.33700 55.66900 25.89700
H  11.21300 56.23200 23.86100
H  10.50700 54.61100 23.87200
H  10.49800 55.46100 22.33100
H  17.33800 53.86500 21.28400
H  18.70500 51.17300 21.16500
H  15.45500 51.72800 20.71200
H  16.95100 51.44600 19.82600
H  16.09400 53.03600 19.65000
H  19.84100 53.73600 22.46200
H  19.55900 53.55100 20.74500
H  21.77600 52.61700 22.35200
H  21.66300 52.69000 20.66500
H  21.05100 51.21200 21.45100
H  21.97000 48.42800 26.23800
H  22.25800 49.91300 25.34800
H  21.35700 48.60900 24.56000
H  19.91600 51.28000 30.11500
H  20.72500 48.98500 33.42800
H  19.89300 47.73900 32.28300
H  19.03600 48.73000 33.44200

