158

Mg 43.28400 42.24800 27.24900
C  42.02800 44.23500 29.64800
C  44.07800 39.84400 29.72300
C  45.26500 40.61400 24.93300
C  42.84700 44.82900 24.87900
N  43.00400 41.99200 29.49800
C  42.36400 42.97500 30.20000
C  42.27300 42.52200 31.74900
C  42.89000 41.04900 31.73900
C  43.42200 40.94400 30.27200
C  44.03500 40.85800 32.77300
C  40.90800 42.61200 32.44500
C  40.58300 43.66700 33.46300
H  39.91400 43.21900 34.76300
N  44.41000 40.42800 27.27500
C  44.60700 39.55100 28.40100
C  45.58200 38.48700 28.03900
C  46.00500 38.78700 26.68500
C  45.28400 39.98300 26.22100
C  46.11200 37.44400 28.98000
C  47.00100 38.07600 25.82900
O  47.37200 38.41700 24.71600
C  47.66600 36.88400 26.34300
N  43.94400 42.72200 25.13800
C  44.67900 41.79200 24.43800
C  45.02500 42.39200 23.06400
C  44.18300 43.73400 23.00300
C  43.56700 43.74800 24.42900
C  46.57600 42.59100 22.91000
C  43.11000 43.70400 21.94100
C  41.64800 43.22200 22.29300
N  42.38700 44.04100 27.20200
C  42.25300 44.95600 26.17900
C  41.53900 46.09400 26.69600
C  41.38000 45.93000 28.12600
C  41.98900 44.65500 28.31700
C  41.03700 47.32200 25.93600
C  40.91400 46.44200 29.39500
O  40.35200 47.48800 29.63200
C  41.42400 45.36600 30.38600
C  42.38300 46.06300 31.28400
O  43.54000 46.24900 31.07400
O  41.77100 46.61300 32.42700
C  42.70800 47.25700 33.31100
H  44.41000 39.09600 30.44600
H  45.65400 39.96800 24.14300
H  42.76800 45.67800 24.19800
H  42.98500 43.12900 32.30700
H  42.17900 40.25100 31.95500
H  43.72800 40.03800 33.42200
H  44.35700 41.71500 33.36600
H  44.82200 40.30300 32.26400
H  40.76900 41.67700 32.98800
H  40.26600 42.54400 31.56700
H  40.05300 44.59200 33.23400
H  41.55500 44.02900 33.80000
H  45.72500 36.49300 28.61400
H  45.84000 37.55000 30.03000
H  47.20200 37.42000 28.97000
H  46.85400 36.23300 26.66900
H  48.37000 37.00500 27.16600
H  48.17600 36.50500 25.45800
H  44.72300 41.73700 22.24700
H  44.79000 44.63300 22.89800
H  47.12900 42.47400 23.84200
H  46.68500 43.63300 22.61000
H  47.00400 41.85400 22.23100
H  43.44600 43.09800 21.09900
H  43.01800 44.68800 21.48000
H  41.13800 44.03900 22.80200
H  41.56600 42.34200 22.93100
H  41.12000 42.89800 21.39600
H  40.63100 47.07400 24.95600
H  41.76900 48.11500 25.78900
H  40.06700 47.56200 26.37300
H  40.51500 44.89700 30.76200
H  43.01200 48.19000 32.83700
H  43.63400 46.73100 33.54400
H  42.17000 47.55900 34.21000
Mg 29.85400 58.32900 40.88800
C  26.96900 56.54000 39.95500
C  31.68400 56.03800 38.91800
C  32.42500 60.40800 40.98400
C  27.73900 61.01800 42.04400
N  29.39300 56.43800 39.82400
C  28.14100 55.96300 39.44800
C  28.25100 54.77000 38.45100
C  29.75800 54.32000 38.76600
C  30.36200 55.66600 39.21200
C  29.96000 53.15100 39.70600
C  27.95800 55.18000 36.97100
C  27.06400 54.35700 36.10300
H  26.94200 54.56100 34.64600
N  31.85600 58.12700 40.28600
C  32.37700 57.18300 39.46700
C  33.77600 57.52500 39.14900
C  34.05400 58.80700 39.76500
C  32.71000 59.17600 40.38200
C  34.68200 56.48200 38.29900
C  35.30600 59.55000 39.65500
O  36.25700 59.09400 38.96200
C  35.60700 60.83100 40.41700
N  30.00500 60.33900 41.56000
C  31.26600 60.77600 41.66100
C  31.29200 62.22400 42.29800
C  29.73900 62.50100 42.49500
C  29.12900 61.25700 42.00000
C  32.09300 62.25000 43.60100
C  29.30600 63.82900 41.71100
C  28.39900 64.87200 42.46800
N  27.76300 58.71200 41.02400
C  27.08300 59.83600 41.56200
C  25.69000 59.53900 41.57200
C  25.58800 58.28200 40.95700
C  26.85500 57.82000 40.61000
C  24.59600 60.44000 42.07400
C  24.64100 57.25200 40.50000
O  23.44200 57.23500 40.52500
C  25.52100 56.07700 39.83500
C  25.30000 54.82300 40.65200
O  25.96200 54.57100 41.65900
O  24.45800 53.90300 40.07700
C  24.47000 52.51700 40.60700
H  32.11600 55.31000 38.22800
H  33.20600 61.17100 40.98700
H  27.13100 61.73700 42.59700
H  27.48800 54.04700 38.73800
H  30.22500 53.92600 37.86300
H  28.99300 52.86400 40.12100
H  30.57200 53.43700 40.56100
H  30.43000 52.26100 39.28700
H  28.92300 55.24900 36.47000
H  27.75100 56.24600 36.86900
H  26.07900 54.41000 36.56700
H  27.39700 53.33800 36.30400
H  34.84400 56.78300 37.26400
H  34.27300 55.47200 38.33100
H  35.64000 56.29200 38.78200
H  35.11500 61.68100 39.94400
H  36.69300 60.89800 40.35600
H  35.30200 60.77000 41.46200
H  31.73400 62.95300 41.61800
H  29.34100 62.48600 43.50900
H  32.63700 61.32400 43.78600
H  31.39700 62.38500 44.42800
H  32.77800 63.09600 43.66700
H  28.75000 63.57800 40.80800
H  30.16600 64.40900 41.37700
H  28.24100 64.63000 43.51900
H  27.51000 65.11400 41.88600
H  29.06400 65.73600 42.46000
H  24.90500 60.97500 42.97200
H  23.71600 59.82500 42.26200
H  24.53400 61.23100 41.32700
H  25.13600 55.92800 38.82600
H  25.46900 52.21000 40.91600
H  24.19400 51.82400 39.81200
H  23.71700 52.43000 41.38900

