158

Mg 9.14600 2.62300 27.65100
C  10.58700 1.17600 30.68900
C  7.19200 4.47900 29.67200
C  7.93900 3.95500 24.83400
C  10.63800 0.06700 25.83700
N  8.94900 2.79300 29.85200
C  9.76100 2.29500 30.87100
C  9.44600 2.92600 32.17700
C  8.17500 3.74700 31.92700
C  7.98000 3.63000 30.38400
C  6.88200 3.24000 32.63900
C  10.75400 3.72900 32.63000
C  10.95300 3.90300 34.12900
H  9.84100 3.45800 35.09800
N  7.81800 4.11900 27.35100
C  7.09600 4.77000 28.23600
C  6.39100 5.87700 27.57900
C  6.50300 5.67100 26.15800
C  7.47900 4.52700 26.03500
C  5.56900 6.89500 28.32400
C  5.92900 6.44100 24.99400
O  6.34200 6.34700 23.85400
C  4.91200 7.43500 25.36000
N  9.25400 2.11300 25.61500
C  8.67700 2.80300 24.63800
C  9.01000 2.26000 23.22000
C  9.93500 1.02600 23.57100
C  10.05300 1.09500 25.15100
C  7.83700 1.87300 22.28300
C  11.38900 0.87700 22.92200
C  11.57800 1.42100 21.54300
N  10.27500 0.89800 28.13100
C  10.78000 -0.04500 27.26300
C  11.58000 -0.98400 28.03700
C  11.56200 -0.55800 29.37500
C  10.73500 0.59700 29.38900
C  12.36600 -2.06000 27.44100
C  12.14700 -0.76300 30.72800
O  12.85000 -1.62000 31.11600
C  11.63800 0.39900 31.60500
C  11.10900 -0.14300 32.90300
O  10.05000 -0.77200 33.04900
O  12.04000 0.04300 33.88700
C  11.74400 -0.48600 35.21500
H  6.73400 5.21600 30.33600
H  7.61800 4.44100 23.91000
H  11.03500 -0.76500 25.25300
H  9.18700 2.09400 32.83100
H  8.29400 4.78600 32.23300
H  6.56300 4.02500 33.32400
H  7.00700 2.38100 33.29900
H  6.17800 2.90400 31.87800
H  10.71400 4.72500 32.19000
H  11.67400 3.26500 32.27400
H  10.99400 4.98200 34.27800
H  11.93100 3.55300 34.45900
H  5.57900 7.88000 27.85800
H  5.87000 6.99300 29.36700
H  4.52600 6.61600 28.46900
H  5.27100 8.40500 25.70200
H  4.19100 7.19400 26.14100
H  4.29700 7.47700 24.46100
H  9.63200 3.03100 22.76500
H  9.49200 0.04000 23.43400
H  6.96000 1.72200 22.91100
H  8.00600 1.02200 21.62300
H  7.68100 2.67300 21.55800
H  11.51800 -0.20100 23.01300
H  12.01400 1.35500 23.67700
H  12.55400 1.90400 21.53100
H  10.82500 2.15000 21.24400
H  11.65000 0.56200 20.87500
H  12.45100 -1.98900 26.35700
H  11.89600 -2.94500 27.87000
H  13.37300 -1.95300 27.84400
H  12.51600 1.03000 31.74800
H  10.88000 -1.14900 35.26700
H  11.48600 0.24400 35.98300
H  12.65700 -1.02400 35.46800
Mg 0.55200 42.86900 26.24700
C  2.95000 42.40200 28.88900
C  -1.91300 42.44000 28.55200
C  -1.49900 42.56300 23.71900
C  3.35200 42.61200 23.96200
N  0.54700 42.31600 28.44200
C  1.61000 42.31300 29.31900
C  1.14500 42.17200 30.73400
C  -0.31300 41.78500 30.50100
C  -0.61800 42.32300 29.08600
C  -0.68800 40.32100 30.76900
C  1.25900 43.39000 31.58400
C  1.17300 43.24800 33.08700
H  0.62300 41.95400 33.63500
N  -1.45900 42.69300 26.18500
C  -2.29000 42.67500 27.21600
C  -3.61700 42.95800 26.76600
C  -3.56800 42.90000 25.33900
C  -2.14000 42.70500 24.99300
C  -4.72500 43.16900 27.71200
C  -4.68800 43.00700 24.33300
O  -4.55300 42.87000 23.12400
C  -5.97900 43.36900 24.89000
N  0.86000 42.67700 24.11700
C  -0.15500 42.50900 23.31000
C  0.27700 42.50200 21.80800
C  1.80700 42.75500 21.87100
C  2.07300 42.70900 23.43200
C  -0.20100 41.36400 20.90300
C  2.33800 44.10700 21.25900
C  2.12900 45.49300 21.97400
N  2.69100 42.70400 26.36600
C  3.65900 42.61800 25.32100
C  4.97500 42.54200 25.92100
C  4.71400 42.49700 27.30500
C  3.35100 42.57400 27.53000
C  6.26900 42.46500 25.18000
C  5.34100 42.33600 28.55100
O  6.51200 42.13100 28.73600
C  4.19900 42.38900 29.68800
C  4.34400 41.11000 30.51600
O  4.24000 39.97600 30.06100
O  4.58600 41.49200 31.87500
C  4.70700 40.38100 32.80000
H  -2.63600 42.47800 29.36900
H  -2.19100 42.37700 22.89500
H  4.26200 42.50000 23.36900
H  1.69200 41.35300 31.20200
H  -0.95600 42.36500 31.16200
H  -1.65700 40.25200 31.26300
H  0.00900 39.80000 31.42500
H  -0.74500 39.84900 29.78800
H  0.43900 44.06300 31.33100
H  2.20300 43.85800 31.30500
H  0.62200 44.11300 33.45800
H  2.18400 43.27500 33.49400
H  -5.52700 43.84900 27.42300
H  -4.37400 43.60600 28.64700
H  -5.19500 42.20000 27.87800
H  -6.29800 42.59600 25.59000
H  -6.66200 43.47600 24.04700
H  -5.97900 44.35900 25.34700
H  -0.17800 43.39600 21.38000
H  2.39900 41.92300 21.48900
H  0.50700 41.33900 20.07400
H  -1.21300 41.50800 20.52200
H  -0.10100 40.39200 21.38500
H  1.96900 44.12000 20.23300
H  3.41400 43.95800 21.16600
H  1.20900 45.39900 22.55100
H  2.05200 46.27300 21.21600
H  2.96600 45.78900 22.60600
H  6.25900 43.11500 24.30500
H  6.51700 41.43900 24.90800
H  6.97900 42.91900 25.87100
H  4.24900 43.20200 30.41200
H  5.72700 40.00000 32.76200
H  4.01700 39.55600 32.62200
H  4.56900 40.74600 33.81800

