158

Mg 23.95700 -4.27700 45.15300
C  26.22300 -1.87500 44.03600
C  21.52900 -2.97800 43.18200
C  22.12600 -7.17100 45.70400
C  26.69000 -5.76200 46.85600
N  24.01600 -2.71400 43.67000
C  24.90900 -1.79200 43.40200
C  24.43000 -0.83200 42.30400
C  22.90000 -1.06700 42.23000
C  22.74700 -2.31800 43.16600
C  21.95200 0.13800 42.60300
C  25.22200 -1.09800 40.95800
C  25.52300 0.16700 40.13200
H  25.08200 0.14500 38.62900
N  22.12200 -4.96400 44.55900
C  21.18100 -4.24800 43.75000
C  19.95200 -4.94000 43.61000
C  20.13700 -6.23000 44.23800
C  21.50600 -6.15600 44.90200
C  18.80700 -4.30300 42.84400
C  19.08200 -7.30400 44.09200
O  18.01600 -7.03700 43.54000
C  19.34100 -8.54400 44.78300
N  24.28400 -6.07500 46.19300
C  23.32600 -7.04500 46.33200
C  23.87600 -8.21800 47.14900
C  25.32900 -7.75600 47.63800
C  25.44100 -6.41800 46.90200
C  22.97400 -8.79400 48.30500
C  26.50700 -8.70200 47.22700
C  27.70500 -8.71100 48.19100
N  25.97900 -3.80500 45.56100
C  26.91500 -4.49400 46.25900
C  28.16000 -3.77500 46.15700
C  27.92100 -2.70800 45.35800
C  26.62000 -2.77500 44.94600
C  29.45500 -4.14500 46.87200
C  28.47300 -1.48400 44.73000
O  29.58500 -1.07200 44.75600
C  27.34200 -0.90600 43.79300
C  27.03100 0.38800 44.27300
O  26.16400 0.75600 45.03400
O  27.92600 1.31800 43.82300
C  27.96700 2.64800 44.35500
H  20.72500 -2.43400 42.68200
H  21.64500 -8.13900 45.85600
H  27.59500 -6.26700 47.19900
H  24.69500 0.20000 42.53100
H  22.67300 -1.40000 41.21800
H  21.68000 0.59000 41.64900
H  22.55500 0.88800 43.11300
H  21.15200 -0.34500 43.16400
H  24.56600 -1.68400 40.31500
H  26.16000 -1.63300 41.10300
H  26.59000 0.32600 40.29100
H  24.82900 0.92000 40.50500
H  19.09400 -3.45100 42.22700
H  18.19200 -4.06500 43.71100
H  18.13800 -4.91100 42.23700
H  18.55500 -9.27100 44.57800
H  19.51600 -8.30700 45.83200
H  20.32400 -8.85900 44.43200
H  23.94800 -9.01700 46.41100
H  25.46400 -7.56700 48.70300
H  23.42300 -8.81500 49.29800
H  22.79100 -9.84500 48.08200
H  21.98600 -8.33400 48.31500
H  26.88100 -8.40200 46.24800
H  26.14700 -9.72900 47.17300
H  27.75200 -7.84600 48.85300
H  28.59700 -8.74200 47.56600
H  27.61700 -9.57300 48.85200
H  30.15700 -4.45300 46.09700
H  29.35300 -4.92000 47.63200
H  29.88000 -3.30700 47.42500
H  27.73200 -0.76500 42.78400
H  28.55500 3.20500 43.62600
H  28.32500 2.61800 45.38500
H  26.99100 3.13000 44.29800
Mg 44.39900 4.15300 47.11300
C  42.63300 7.16500 47.50400
C  41.44400 2.67500 46.32400
C  46.10100 1.33900 46.37400
C  47.31200 6.07300 46.90100
N  42.28100 4.93000 46.78000
C  41.76800 6.14300 47.05700
C  40.24400 6.19200 46.70200
C  39.93300 4.70900 46.28200
C  41.26900 4.08100 46.58500
C  38.60700 4.11100 47.00000
C  39.91200 7.12000 45.53200
C  40.74800 7.14800 44.16700
H  39.97400 6.96500 42.85200
N  43.81500 2.19400 46.56800
C  42.54400 1.80000 46.32100
C  42.54700 0.41300 45.97400
C  43.84800 -0.11600 45.90000
C  44.68000 1.13900 46.27300
C  41.26000 -0.37000 45.60300
C  44.36300 -1.49000 45.64800
O  43.55800 -2.42500 45.50800
C  45.80800 -1.83100 45.69300
N  46.34700 3.80200 46.48700
C  46.84000 2.50300 46.48300
C  48.40300 2.55000 46.41200
C  48.75500 4.01000 46.68500
C  47.42900 4.69400 46.66000
C  49.08200 1.49500 47.35500
C  49.72100 4.64800 45.58400
C  51.13100 4.70900 46.15900
N  44.92300 6.20600 47.18400
C  46.12000 6.80700 47.14000
C  45.98300 8.24700 47.42500
C  44.59600 8.44300 47.57900
C  44.01800 7.16300 47.37100
C  47.09600 9.26900 47.62400
C  43.54300 9.44100 47.79200
O  43.60300 10.66300 47.89800
C  42.25000 8.58200 47.67300
C  41.54100 8.78400 48.91200
O  41.52900 8.07800 49.95000
O  40.91600 10.03200 48.81700
C  40.15700 10.48000 49.92900
H  40.52400 2.12100 46.12600
H  46.74000 0.45600 46.31500
H  48.16800 6.74200 47.00400
H  39.69900 6.59800 47.55400
H  39.74800 4.48700 45.23100
H  38.07900 4.80300 47.65600
H  38.86900 3.24500 47.60900
H  37.82100 3.94200 46.26300
H  39.95300 8.13500 45.92600
H  38.88500 7.00500 45.18400
H  41.45300 6.31700 44.14600
H  41.41800 8.00700 44.17300
H  40.27100 0.03500 45.81700
H  41.21300 -1.38500 45.99700
H  41.31800 -0.38600 44.51500
H  46.05000 -2.89200 45.63800
H  46.03600 -1.42500 46.67900
H  46.39200 -1.31700 44.93000
H  48.67400 2.29300 45.38900
H  48.98100 4.13800 47.74400
H  48.35900 1.12100 48.08000
H  49.93000 1.79400 47.97100
H  49.38200 0.57900 46.84600
H  49.32500 5.59400 45.21400
H  49.67700 4.07900 44.65500
H  51.73800 3.91500 45.72500
H  51.09600 4.47500 47.22300
H  51.59800 5.64600 45.85500
H  47.89500 9.13600 46.89500
H  47.64600 9.10500 48.55100
H  46.68900 10.27900 47.57300
H  41.75700 9.02200 46.80600
H  39.67400 9.63300 50.41600
H  39.45600 11.26900 49.65200
H  40.88800 10.87600 50.63300

