158

Mg 49.01100 36.26100 28.14100
C  46.61500 34.86400 30.39600
C  49.58900 38.67400 30.37000
C  51.00500 37.51800 25.83200
C  48.03000 33.71800 25.88800
N  48.18100 36.59200 30.17200
C  47.26100 35.90500 30.88900
C  47.06700 36.55300 32.32000
C  47.79200 38.01100 32.11300
C  48.60000 37.73200 30.81600
C  46.78100 39.17500 31.82500
C  47.77600 35.85900 33.52300
C  49.02100 34.94700 33.25300
H  50.40800 35.38000 33.77500
N  50.21100 37.80000 28.13200
C  50.37800 38.67500 29.13600
C  51.31900 39.64100 28.75100
C  51.93200 39.25500 27.53900
C  51.07400 38.14900 27.14600
C  51.63700 40.80300 29.76100
C  53.04400 39.86800 26.70500
O  53.45000 39.39500 25.62100
C  53.80400 41.06700 27.19500
N  49.44300 35.69300 26.14400
C  50.24700 36.47200 25.40000
C  50.35000 35.99900 23.91500
C  49.70300 34.55100 24.00000
C  49.02000 34.59400 25.41400
C  49.52100 36.96500 22.97400
C  50.76000 33.38900 23.95000
C  50.97000 32.74700 22.56800
N  47.64800 34.62300 28.04700
C  47.34200 33.71000 27.12100
C  46.34500 32.73200 27.56600
C  46.00000 33.27600 28.80200
C  46.82300 34.33000 29.10500
C  45.85500 31.57200 26.81400
C  45.02900 33.12000 29.84900
O  44.02300 32.39100 29.92500
C  45.48400 34.05900 31.02800
C  45.84600 33.21000 32.12300
O  46.51100 32.14500 32.05400
O  45.30600 33.66100 33.34200
C  45.03600 32.59700 34.34600
H  49.70400 39.44400 31.13600
H  51.55500 37.96700 25.00100
H  47.79000 32.96200 25.13700
H  45.99100 36.58900 32.49200
H  48.45200 38.33100 32.91900
H  47.04500 40.12900 32.28200
H  45.77400 38.85000 32.08700
H  46.74200 39.33900 30.74800
H  47.09900 35.28500 34.15600
H  48.10200 36.65700 34.19000
H  49.18400 34.89300 32.17700
H  48.84000 33.91600 33.55700
H  52.34700 41.52500 29.35800
H  52.14300 40.33300 30.60400
H  50.79000 41.39500 30.10700
H  53.12200 41.90800 27.31900
H  54.62100 41.26400 26.50100
H  54.23700 40.70700 28.12900
H  51.37200 35.77300 23.60900
H  48.91300 34.44400 23.25600
H  48.87800 37.58300 23.60100
H  49.04200 36.38900 22.18300
H  50.22200 37.62900 22.46900
H  50.39900 32.63600 24.65100
H  51.61800 33.88300 24.40500
H  50.16100 33.09600 21.92700
H  50.81600 31.66900 22.61100
H  51.96900 32.89600 22.15700
H  46.62100 30.79800 26.77400
H  45.40300 31.99600 25.91700
H  45.09500 31.11500 27.44800
H  44.59600 34.59500 31.36200
H  45.86400 32.44800 35.04000
H  44.75100 31.65700 33.87300
H  44.13900 32.71100 34.95400
Mg 30.92400 58.72400 40.73900
C  28.32400 56.62900 39.78000
C  33.14700 56.35700 39.46400
C  33.41400 61.07000 40.93300
C  28.57400 61.16800 41.69000
N  30.70700 56.77400 39.75500
C  29.55600 56.17500 39.35500
C  29.73100 54.88200 38.58700
C  31.29400 54.72500 38.76600
C  31.74700 56.00800 39.38300
C  31.69700 53.41900 39.52200
C  29.27200 54.95900 37.09900
C  28.23300 53.98800 36.54100
H  27.14300 54.52000 35.55200
N  32.92000 58.72100 40.25100
C  33.69300 57.63600 39.82700
C  35.07800 57.97000 39.76300
C  35.16100 59.30000 40.12000
C  33.80300 59.76500 40.41100
C  36.19500 56.96800 39.40200
C  36.51900 60.00900 40.29500
O  37.53300 59.37700 40.18900
C  36.62500 61.46100 40.61000
N  30.93600 60.92100 41.03600
C  32.16200 61.55500 41.24800
C  31.90600 62.93900 41.81200
C  30.37600 63.02600 42.05300
C  29.88600 61.63700 41.56600
C  32.81000 63.38200 43.10100
C  29.65400 64.15800 41.33800
C  28.31200 64.64700 41.90200
N  28.92400 58.83900 40.81300
C  28.06100 59.94300 41.16100
C  26.74000 59.61800 40.80700
C  26.74400 58.29900 40.30900
C  28.06700 57.87300 40.42600
C  25.52300 60.54200 41.05400
C  25.98800 57.21500 39.80900
O  24.81100 57.11400 39.57800
C  26.92800 56.08700 39.38200
C  26.59100 54.91100 40.17600
O  26.96200 54.60700 41.29900
O  25.69900 54.16000 39.42800
C  25.24900 52.85800 40.05500
H  33.78600 55.59300 39.01500
H  34.19100 61.81800 41.10400
H  27.88400 61.91900 42.08000
H  29.12100 54.19400 39.17400
H  31.79300 54.78500 37.79900
H  32.01200 53.72800 40.51900
H  32.57700 52.97300 39.05900
H  30.95500 52.62200 39.55500
H  30.14200 54.76600 36.47100
H  28.95900 55.98900 36.93200
H  27.66900 53.63300 37.40300
H  28.71300 53.11200 36.10400
H  35.79100 56.23500 38.70400
H  36.64000 56.62000 40.33400
H  36.98900 57.46800 38.84700
H  36.00700 62.15000 40.03400
H  37.67000 61.76500 40.54200
H  36.27100 61.70600 41.61100
H  32.18400 63.57100 40.96900
H  30.12400 62.90600 43.10700
H  32.20800 63.37800 44.00900
H  33.33800 64.33400 43.04600
H  33.58100 62.63600 43.29500
H  29.62600 63.69700 40.35100
H  30.27700 65.05100 41.31300
H  28.15600 64.27200 42.91300
H  27.54600 64.29100 41.21200
H  28.30800 65.73700 41.90700
H  24.99700 60.18200 41.93900
H  24.82800 60.50300 40.21600
H  25.83200 61.57100 41.23800
H  26.84200 55.95900 38.30300
H  24.38100 52.96700 40.70600
H  26.04400 52.46200 40.68700
H  24.94100 52.13900 39.29500

