158

Mg 46.86700 17.05000 28.46600
C  45.05200 16.95400 31.44700
C  49.30600 18.44400 30.21800
C  48.10400 17.98100 25.57600
C  43.96000 15.83400 26.71200
N  47.05600 17.68700 30.60900
C  46.25500 17.49700 31.70000
C  46.82300 17.86900 33.03400
C  48.12300 18.58400 32.48100
C  48.28900 18.04600 31.03400
C  48.22000 20.13000 32.74800
C  47.05400 16.61700 33.87200
C  46.60400 16.70600 35.38400
H  46.04900 17.97000 36.08500
N  48.59000 17.95100 27.93000
C  49.47400 18.44600 28.80800
C  50.54000 19.01800 28.09600
C  50.35200 18.80000 26.69800
C  48.98900 18.26000 26.62300
C  51.62500 19.81800 28.80800
C  51.27500 19.12200 25.53100
O  50.84900 18.91900 24.41400
C  52.76900 19.56600 25.66400
N  46.10600 16.81700 26.41800
C  46.87300 17.31800 25.40200
C  46.21400 17.18700 24.06800
C  45.06500 16.27100 24.40900
C  45.01100 16.18900 25.97200
C  45.72800 18.54100 23.48000
C  45.00700 14.95400 23.57900
C  45.57700 13.62800 24.17400
N  44.87500 16.31500 28.92200
C  43.86900 15.82800 28.14000
C  42.76300 15.47500 29.01800
C  43.16000 15.89500 30.32300
C  44.48800 16.41400 30.19700
C  41.32300 15.07300 28.69900
C  42.74200 15.97900 31.72600
O  41.69400 15.60000 32.27800
C  43.98600 16.63600 32.43800
C  43.40900 17.89200 32.95800
O  43.32900 18.96500 32.37700
O  42.77500 17.60800 34.18400
C  41.77900 18.61800 34.68300
H  50.12100 18.81200 30.84500
H  48.52500 18.54700 24.74300
H  43.10500 15.41500 26.17800
H  46.16800 18.56300 33.56200
H  48.95200 18.13900 33.03100
H  47.24600 20.55600 32.99100
H  48.65900 20.69600 31.92600
H  48.87800 20.35800 33.58600
H  48.13000 16.47000 33.96100
H  46.58600 15.75200 33.40100
H  47.44000 16.40100 36.01300
H  45.96200 15.82500 35.41800
H  52.57500 19.42700 28.44400
H  51.79800 19.61800 29.86500
H  51.56300 20.88500 28.59700
H  52.66200 20.65000 25.69700
H  53.25100 19.22600 24.74700
H  53.28700 19.13900 26.52300
H  46.94500 16.69400 23.42700
H  44.09800 16.71200 24.16600
H  45.68600 19.16900 24.37000
H  44.72600 18.48200 23.05500
H  46.48400 18.83700 22.75300
H  45.46600 15.13500 22.60700
H  43.95100 14.70900 23.46800
H  44.74200 12.95900 24.38000
H  46.16700 13.79000 25.07700
H  46.14400 13.02200 23.46800
H  41.06100 15.44300 27.70800
H  40.70500 15.64200 29.39400
H  41.15000 13.99700 28.69100
H  44.22600 16.12100 33.36800
H  40.86900 18.52900 34.08900
H  42.17800 19.62600 34.56600
H  41.65000 18.43000 35.74900
Mg -12.05700 16.63700 41.57200
C  -9.07000 14.87100 40.81900
C  -10.43400 19.47900 40.00700
C  -14.95100 18.17700 41.63200
C  -13.47500 13.66200 42.75900
N  -10.00400 17.15700 40.60300
C  -8.99700 16.27900 40.42900
C  -7.73400 16.91200 39.80000
C  -8.12500 18.38400 39.48900
C  -9.61800 18.35100 40.05100
C  -7.23100 19.48700 40.20900
C  -7.24100 16.17400 38.48500
C  -5.72200 16.15600 38.18800
H  -5.23100 16.97000 37.02700
N  -12.58100 18.52200 40.98600
C  -11.81900 19.57100 40.39500
C  -12.71100 20.62400 40.11400
C  -13.94500 20.41000 40.66300
C  -13.88300 19.00200 41.10600
C  -12.24800 21.79400 39.26700
C  -15.14200 21.38900 40.96000
O  -15.16100 22.56800 40.44300
C  -16.33600 21.05000 41.78900
N  -13.94700 15.98700 42.11000
C  -14.99300 16.85500 42.08500
C  -16.35500 16.01900 42.38200
C  -15.75600 14.54900 42.68800
C  -14.25800 14.75600 42.60200
C  -17.24900 16.71400 43.44400
C  -16.40400 13.46200 41.81100
C  -17.29400 12.53200 42.58200
N  -11.41700 14.72800 42.01100
C  -12.08600 13.60700 42.53100
C  -11.18800 12.53100 42.61200
C  -10.00700 13.02500 42.01600
C  -10.24600 14.29500 41.52400
C  -11.30500 11.20400 43.21500
C  -8.63200 12.53300 41.66800
O  -8.21000 11.40300 41.86100
C  -7.96800 13.80000 40.87400
C  -6.82100 14.24100 41.68900
O  -6.78200 14.58500 42.87800
O  -5.81200 14.28900 40.76700
C  -4.48500 14.48000 41.41800
H  -10.02400 20.32200 39.44800
H  -15.82600 18.68200 41.21800
H  -13.97700 12.82800 43.25400
H  -6.89300 16.86900 40.49200
H  -8.26900 18.71800 38.46200
H  -7.83000 20.16500 40.81700
H  -6.56900 20.00900 39.51900
H  -6.47400 19.03100 40.84700
H  -7.61900 16.66800 37.58900
H  -7.51500 15.12300 38.38800
H  -5.32600 15.14100 38.21700
H  -5.18300 16.49500 39.07300
H  -13.06400 21.96300 38.56400
H  -11.37800 21.46400 38.69900
H  -11.99200 22.68300 39.84400
H  -16.79600 22.00900 42.02800
H  -16.10300 20.54000 42.72400
H  -16.94600 20.51700 41.06000
H  -16.91700 15.99600 41.44800
H  -15.95400 14.27000 43.72300
H  -17.24500 17.79800 43.32600
H  -17.05900 16.41000 44.47300
H  -18.27600 16.50500 43.14400
H  -15.65400 12.85600 41.30300
H  -16.96400 13.95600 41.01700
H  -18.33400 12.61800 42.26800
H  -17.29000 12.84800 43.62500
H  -16.92400 11.51000 42.49600
H  -12.01900 11.32500 44.03000
H  -10.35500 10.90100 43.65600
H  -11.65200 10.43000 42.53000
H  -7.69800 13.25000 39.97300
H  -3.75700 14.36800 40.61400
H  -4.35000 13.81600 42.27200
H  -4.24300 15.48700 41.75700

