158

Mg 47.80200 24.69100 27.92100
C  48.17800 27.19900 30.48800
C  46.24400 22.76700 30.30700
C  47.63800 22.22500 25.64300
C  49.55700 26.68400 25.71500
N  47.42500 24.98700 30.14000
C  47.59100 26.06300 30.95900
C  46.82900 25.89500 32.28900
C  46.47200 24.38100 32.29700
C  46.79700 23.94600 30.83400
C  47.22800 23.56000 33.34000
C  45.75400 26.87300 32.59800
C  45.75800 27.48900 34.01100
H  46.51500 26.87400 35.24500
N  46.92200 22.80400 27.92800
C  46.20600 22.24000 28.98500
C  45.82000 20.86100 28.53100
C  45.99600 20.81500 27.10900
C  46.85800 21.97000 26.83100
C  45.18900 19.87300 29.43400
C  45.53200 19.79400 26.02300
O  45.93800 19.85400 24.90500
C  44.74700 18.64800 26.51000
N  48.65500 24.38600 26.07700
C  48.43200 23.30600 25.30500
C  49.19500 23.38500 24.00200
C  49.58300 24.90300 23.98500
C  49.22500 25.37800 25.33900
C  50.39800 22.40700 24.01900
C  48.89700 25.63400 22.85300
C  49.72500 26.71400 22.20900
N  48.72600 26.54600 27.97700
C  49.35800 27.23800 26.99200
C  49.60200 28.61500 27.43000
C  49.14500 28.62400 28.75300
C  48.65900 27.31500 29.09400
C  50.19500 29.74400 26.63100
C  48.93000 29.48100 29.91700
O  49.19000 30.65200 30.05500
C  48.51500 28.55300 31.14100
C  49.73800 28.25800 31.98100
O  50.74600 27.81800 31.50800
O  49.58400 28.64100 33.26400
C  50.85200 28.49700 34.07200
H  45.75400 22.19700 31.10000
H  47.52300 21.43800 24.89400
H  50.16300 27.24800 25.00300
H  47.55600 26.06400 33.08300
H  45.43300 24.18500 32.56100
H  47.86100 24.17100 33.98400
H  47.86300 22.82100 32.85100
H  46.55200 23.00700 33.99200
H  44.77100 26.42900 32.44100
H  45.84200 27.70500 31.90000
H  44.68400 27.47800 34.19700
H  46.06600 28.53100 33.91900
H  45.27000 20.19000 30.47400
H  45.57800 18.86300 29.30500
H  44.16300 19.83500 29.06900
H  43.74800 18.93400 26.83800
H  45.25700 18.19700 27.36200
H  44.65300 17.93400 25.69100
H  48.51300 23.03900 23.22500
H  50.66100 24.92600 23.82600
H  50.28900 21.63900 23.25300
H  50.52300 21.89400 24.97200
H  51.34800 22.90800 23.83100
H  47.94600 26.09500 23.11900
H  48.63000 24.94200 22.05500
H  50.17200 26.29700 21.30600
H  50.56800 27.05900 22.80700
H  49.15400 27.63400 22.08400
H  51.04500 29.32700 26.09300
H  50.50600 30.40700 27.43900
H  49.58800 30.26200 25.88900
H  47.63100 28.81100 31.72400
H  50.77000 27.64500 34.74700
H  50.99400 29.36200 34.72000
H  51.79600 28.49500 33.52700
Mg -11.12100 16.50600 42.06500
C  -8.23600 14.54100 41.69900
C  -9.46900 18.89800 40.33300
C  -14.09900 18.03400 41.70800
C  -12.74400 13.53300 43.17400
N  -9.15300 16.63600 41.01300
C  -8.14000 15.74700 41.03700
C  -6.94600 16.20200 40.22200
C  -7.26900 17.69700 40.01700
C  -8.71800 17.78100 40.50800
C  -6.28100 18.69500 40.62400
C  -6.73600 15.36400 38.94200
C  -5.43500 14.54300 38.90900
H  -4.54900 14.78500 37.64500
N  -11.60800 18.30700 41.27900
C  -10.76600 19.22100 40.66200
C  -11.49400 20.51700 40.38000
C  -12.83000 20.23700 40.69800
C  -12.92900 18.82200 41.22700
C  -10.83100 21.62900 39.68400
C  -14.00600 21.13300 40.39000
O  -13.85600 22.29300 39.92400
C  -15.40800 20.65600 40.60500
N  -13.15200 15.79000 42.34800
C  -14.17600 16.66100 42.11800
C  -15.57400 15.94400 42.34500
C  -15.18700 14.69700 43.22000
C  -13.59100 14.62500 42.91200
C  -16.67400 16.88400 42.91600
C  -16.04800 13.44000 43.06900
C  -16.69400 12.88700 44.31900
N  -10.64600 14.41900 42.47100
C  -11.40000 13.39100 42.88600
C  -10.48400 12.25700 43.14800
C  -9.23000 12.71300 42.66100
C  -9.40500 14.00200 42.28300
C  -10.87900 10.93800 43.76100
C  -7.91400 12.22600 42.43100
O  -7.43300 11.10500 42.56800
C  -7.19400 13.40400 41.74600
C  -6.08100 13.83600 42.71600
O  -6.21600 14.17800 43.89800
O  -4.87400 13.76200 42.07300
C  -3.73200 14.12100 42.92800
H  -8.89600 19.67600 39.82500
H  -15.08100 18.51000 41.66600
H  -13.05800 12.60000 43.64600
H  -6.15300 16.11500 40.96400
H  -7.28900 17.92400 38.95100
H  -5.49600 18.15100 41.14900
H  -6.70700 19.41900 41.31900
H  -5.81900 19.23100 39.79500
H  -6.73800 16.09600 38.13400
H  -7.57300 14.68500 38.78100
H  -5.73700 13.49800 38.84300
H  -4.81000 14.82200 39.75700
H  -9.79000 21.66600 40.00500
H  -11.16200 22.65000 39.87600
H  -10.85600 21.53800 38.59800
H  -16.16800 21.30700 40.17500
H  -15.62200 20.60400 41.67300
H  -15.50300 19.69700 40.09600
H  -15.84700 15.58000 41.35500
H  -15.25600 15.01300 44.26100
H  -16.37100 17.48300 43.77500
H  -17.53600 16.40400 43.38000
H  -16.98800 17.54900 42.11200
H  -15.52600 12.56400 42.68200
H  -16.88000 13.59700 42.38400
H  -16.42100 11.83700 44.41700
H  -17.77300 13.02300 44.25300
H  -16.35100 13.41100 45.21200
H  -10.43400 11.08200 44.74500
H  -10.31100 10.25000 43.13400
H  -11.94600 10.72200 43.70100
H  -6.85500 13.06800 40.76600
H  -2.87400 14.25400 42.26900
H  -3.46500 13.37700 43.67800
H  -4.05500 15.06100 43.37600

