158

Mg 40.37800 9.53300 29.63600
C  42.44800 10.66800 32.10800
C  38.16500 8.46700 31.99000
C  38.53200 8.38200 27.14200
C  42.93400 10.38900 27.26300
N  40.43800 9.37700 31.81400
C  41.25100 10.13900 32.61300
C  40.74000 10.26700 34.03700
C  39.50600 9.30500 33.99600
C  39.33800 9.06100 32.50300
C  39.69300 7.91100 34.75600
C  40.46000 11.64900 34.65100
C  41.03600 12.05800 36.03200
H  40.02600 12.55900 37.04100
N  38.59400 8.47900 29.60600
C  37.75000 8.24400 30.63400
C  36.54000 7.66900 30.18600
C  36.57800 7.71100 28.72700
C  37.98100 8.16100 28.41300
C  35.50500 7.11000 30.99200
C  35.51200 7.32600 27.71700
O  35.54200 7.50600 26.48100
C  34.27800 6.63100 28.22300
N  40.79800 9.24900 27.44800
C  39.74100 8.86700 26.63300
C  40.07300 8.97600 25.15800
C  41.58100 9.50000 25.19000
C  41.81000 9.70900 26.72100
C  40.01600 7.56600 24.38500
C  41.88000 10.71800 24.27800
C  41.41900 12.08800 24.70600
N  42.34900 10.39200 29.66600
C  43.20800 10.73300 28.63300
C  44.41500 11.37100 29.20400
C  44.12800 11.44400 30.58200
C  42.91800 10.81400 30.76800
C  45.62100 11.79300 28.46300
C  44.70700 11.84300 31.89000
O  45.76200 12.35400 32.20400
C  43.53600 11.36100 32.93000
C  44.19300 10.47300 33.88300
O  44.81800 9.43600 33.58800
O  44.13300 11.03200 35.11700
C  44.84700 10.15700 36.12600
H  37.40600 8.22100 32.73500
H  37.78900 8.22600 26.35700
H  43.72000 10.64600 26.55000
H  41.49800 9.87100 34.71300
H  38.63600 9.81700 34.40500
H  38.93100 7.82000 35.53000
H  40.71300 7.78900 35.11900
H  39.48500 7.07500 34.08800
H  39.40600 11.76200 34.90800
H  40.71700 12.33300 33.84200
H  41.59000 12.91300 35.64500
H  41.75700 11.36000 36.45800
H  34.53200 7.56500 30.81000
H  35.55300 7.21900 32.07500
H  35.30500 6.04000 30.92700
H  34.50300 5.74000 28.81000
H  33.71300 6.39900 27.32000
H  33.62700 7.27900 28.80900
H  39.47400 9.71900 24.63200
H  42.18300 8.64500 24.87900
H  40.95200 7.20200 23.96200
H  39.25400 7.56000 23.60600
H  39.91200 6.74200 25.09100
H  41.33800 10.51300 23.35600
H  42.95600 10.70900 24.10200
H  42.23500 12.73800 25.02100
H  40.78300 11.97100 25.58400
H  40.95100 12.54200 23.83200
H  46.35400 12.11000 29.20600
H  45.45000 12.59300 27.74300
H  46.09000 10.98900 27.89700
H  43.15600 12.27000 33.39700
H  45.91300 10.19100 35.90000
H  44.49000 9.12800 36.09000
H  44.71700 10.52900 37.14200
Mg -1.80900 33.81000 25.95700
C  -3.77500 32.51600 28.58200
C  -0.55600 36.00700 28.07400
C  -0.40200 35.29600 23.20100
C  -3.62700 31.97900 23.65500
N  -2.14700 34.21100 28.04100
C  -2.86900 33.49900 28.96900
C  -2.63100 33.89700 30.44300
C  -1.73400 35.19500 30.26800
C  -1.44600 35.15300 28.67500
C  -2.46300 36.51000 30.62700
C  -1.92500 32.81900 31.35300
C  -2.79900 32.18900 32.46100
H  -2.06200 31.78100 33.64800
N  -0.56200 35.39100 25.67000
C  -0.08500 36.11700 26.72800
C  0.90400 37.04500 26.18000
C  0.92300 36.93600 24.81400
C  -0.05400 35.84800 24.50700
C  1.67900 37.98400 27.01400
C  1.67300 37.68600 23.77900
O  1.59600 37.37900 22.65700
C  2.55500 38.75500 24.12700
N  -1.98500 33.66800 23.66300
C  -1.27800 34.35800 22.84700
C  -1.54200 34.01500 21.41600
C  -2.43000 32.75200 21.53200
C  -2.77100 32.87500 23.03500
C  -1.98300 35.16600 20.41800
C  -1.64200 31.41800 21.31100
C  -2.46700 30.27200 20.71000
N  -3.31300 32.42400 26.04900
C  -3.92400 31.73800 25.05100
C  -4.90400 30.86100 25.67300
C  -4.84400 31.09100 27.04200
C  -3.88400 32.06400 27.21700
C  -5.82300 29.95200 24.91900
C  -5.47300 30.77400 28.23100
O  -6.33300 29.94500 28.44200
C  -4.72100 31.63000 29.37900
C  -5.82100 32.37700 30.16000
O  -6.65900 33.10200 29.73700
O  -5.70300 31.91200 31.46900
C  -6.66700 32.45000 32.49600
H  -0.17000 36.70800 28.81800
H  0.12500 35.82900 22.40600
H  -4.18500 31.38200 22.93100
H  -3.62900 34.06400 30.84900
H  -0.81000 35.13100 30.84200
H  -2.12600 36.86100 31.60200
H  -3.49500 36.33600 30.93100
H  -2.49200 37.34200 29.92300
H  -1.05300 33.28600 31.81000
H  -1.64600 32.05000 30.63200
H  -3.29000 31.26800 32.14300
H  -3.62700 32.82000 32.78400
H  1.41600 37.92400 28.07000
H  1.57900 38.99600 26.62200
H  2.71500 37.66100 26.91000
H  1.89400 39.46600 24.62300
H  3.01100 39.22400 23.25600
H  3.31000 38.47900 24.86300
H  -0.55400 33.76800 21.02700
H  -3.31800 32.74800 20.90000
H  -1.88400 36.14700 20.88200
H  -3.01900 34.96200 20.14800
H  -1.46000 35.08800 19.46500
H  -1.27800 30.94700 22.22500
H  -0.73800 31.59400 20.72800
H  -1.84800 29.52200 20.21800
H  -3.13700 30.54900 19.89600
H  -3.06700 29.81300 21.49600
H  -5.38200 29.73600 23.94600
H  -6.78600 30.36100 24.61300
H  -5.81500 29.04100 25.51800
H  -4.24500 30.89100 30.02300
H  -7.66300 32.63300 32.09400
H  -6.32000 33.38600 32.93400
H  -6.77500 31.59700 33.16700

