158

Mg 43.37500 5.07200 47.03500
C  40.93100 7.45900 46.96500
C  40.83000 2.63700 46.75800
C  45.68100 2.72100 46.58000
C  45.82000 7.52000 47.21100
N  41.09200 5.04100 46.79200
C  40.32100 6.16800 46.85300
C  38.90100 5.82100 46.88000
C  38.86200 4.26700 46.91600
C  40.34800 3.92900 46.81800
C  38.25000 3.62200 48.21000
C  38.10200 6.36000 45.67500
C  38.71200 6.09300 44.23100
H  38.94500 7.32600 43.23200
N  43.27600 2.98600 46.80200
C  42.13000 2.18600 46.73400
C  42.55200 0.79000 46.70800
C  43.99100 0.73900 46.70800
C  44.40400 2.16000 46.74700
C  41.63800 -0.47100 46.59400
C  44.87000 -0.52200 47.00500
O  44.45800 -1.64000 47.03600
C  46.35300 -0.37600 47.19300
N  45.51700 5.14200 47.09400
C  46.20400 4.03500 46.71500
C  47.76000 4.41900 46.42300
C  47.79800 5.82500 46.88200
C  46.30200 6.21700 47.08100
C  48.84500 3.52400 47.21000
C  48.63100 6.85300 45.97900
C  49.85600 7.43500 46.64900
N  43.37700 7.11300 47.14700
C  44.42600 7.96000 47.19100
C  43.88100 9.35400 47.06600
C  42.50200 9.15600 46.94600
C  42.27800 7.79000 47.10000
C  44.82800 10.54600 46.92900
C  41.36400 9.81500 46.85700
O  41.22100 11.03300 46.69300
C  40.21000 8.78800 46.86700
C  39.29200 9.00900 47.98000
O  39.53800 8.67000 49.14900
O  38.12200 9.63300 47.48800
C  37.14900 9.99200 48.59800
H  40.06900 1.86600 46.89800
H  46.44700 2.00200 46.28200
H  46.57600 8.30800 47.18300
H  38.36900 6.18400 47.75900
H  38.42100 3.96800 45.96500
H  38.86000 2.79700 48.58000
H  37.20400 3.43600 47.96600
H  38.22300 4.38500 48.98700
H  38.02000 7.43900 45.80600
H  37.12000 5.88900 45.67900
H  38.01200 5.47300 43.67100
H  39.62900 5.50900 44.30000
H  41.88500 -1.08000 45.72500
H  40.60900 -0.13100 46.47900
H  41.79600 -1.09700 47.47300
H  46.40500 0.31700 48.03300
H  46.84900 -0.01200 46.29400
H  46.68100 -1.34600 47.56800
H  47.90200 4.25600 45.35500
H  48.20300 5.83200 47.89400
H  49.30900 2.79400 46.54600
H  48.26600 2.94600 47.93000
H  49.67300 4.07200 47.65800
H  48.16600 7.81300 45.75800
H  48.94800 6.36900 45.05500
H  49.92900 8.51900 46.55300
H  50.79100 7.02800 46.26300
H  50.05100 7.14600 47.68100
H  45.64800 10.38900 46.22800
H  45.24900 10.78800 47.90500
H  44.19700 11.39100 46.65500
H  39.69000 8.92700 45.92000
H  36.80800 9.06700 49.06200
H  36.27600 10.46400 48.14600
H  37.69800 10.63200 49.28800
Mg 36.62000 49.21900 24.73400
C  36.56800 47.43800 27.84700
C  35.36200 51.89300 26.20900
C  36.20600 50.72900 21.66500
C  37.40300 46.25100 23.13200
N  35.93200 49.56500 26.80300
C  36.13000 48.78300 27.90200
C  35.84000 49.58000 29.19100
C  35.22200 50.93000 28.65300
C  35.45500 50.82300 27.13100
C  33.74800 51.45400 29.08800
C  37.15300 49.69500 30.01900
C  37.10200 49.49900 31.53600
H  35.78800 49.53800 32.35300
N  35.92200 51.05900 23.98700
C  35.55000 52.08800 24.83500
C  35.37600 53.30000 24.07400
C  35.62700 52.97500 22.68200
C  35.91200 51.53400 22.69600
C  35.18100 54.67100 24.75600
C  35.77300 53.93400 21.53100
O  35.95600 53.50700 20.40100
C  35.55900 55.47200 21.68000
N  36.85300 48.63500 22.71700
C  36.58600 49.40100 21.65900
C  36.88600 48.73100 20.31200
C  37.21500 47.28000 20.81300
C  37.14500 47.40100 22.35200
C  35.69100 48.72400 19.36200
C  38.47900 46.69900 20.22100
C  39.82000 47.20400 20.81000
N  37.07800 47.22700 25.36400
C  37.35100 46.19100 24.56600
C  37.71800 45.09000 25.44800
C  37.38500 45.48700 26.78600
C  36.99600 46.83700 26.63800
C  38.26300 43.82500 24.85400
C  37.31500 45.11900 28.16600
O  37.60400 44.02100 28.60800
C  36.82500 46.42000 28.94600
C  35.77600 46.02400 29.90500
O  34.57100 45.98200 29.69400
O  36.42400 45.60800 31.01300
C  35.60100 45.19600 32.18900
H  34.95300 52.71600 26.80000
H  36.30300 51.27300 20.72300
H  37.74900 45.42700 22.50400
H  35.05300 48.97000 29.63400
H  35.86500 51.71400 29.05100
H  33.12200 50.60300 29.35500
H  33.15800 51.97700 28.33500
H  33.83700 52.19200 29.88600
H  37.61900 50.67000 29.87900
H  37.89000 48.99600 29.62300
H  37.88100 50.09000 32.01600
H  37.34000 48.44200 31.65600
H  36.02100 55.35900 24.66800
H  35.18000 54.58200 25.84300
H  34.21000 55.12700 24.56300
H  34.56300 55.58900 22.10700
H  35.76800 55.99800 20.74800
H  36.34300 55.76000 22.38000
H  37.76400 49.29100 19.99100
H  36.43600 46.54000 20.62700
H  34.89300 49.16600 19.95900
H  35.34300 47.75200 19.01500
H  36.00900 49.34200 18.52200
H  38.50100 47.04700 19.18900
H  38.49700 45.61000 20.27100
H  40.41500 47.52600 19.95500
H  40.27000 46.37200 21.35200
H  39.70100 48.06800 21.46300
H  38.91100 44.15700 24.04300
H  37.41500 43.25700 24.47100
H  38.94600 43.34200 25.55300
H  37.65600 46.66700 29.60800
H  35.45600 46.11600 32.75600
H  36.21600 44.43300 32.66600
H  34.64400 44.76900 31.88900

