158

Mg 2.22100 -0.77200 44.32100
C  5.41900 0.31300 43.54100
C  0.88900 1.90400 42.65300
C  -0.74600 -2.45400 44.05400
C  3.64700 -3.84400 45.43500
N  3.09400 0.96600 43.32400
C  4.38700 1.14300 42.99500
C  4.61900 2.42500 42.21900
C  3.19800 3.00600 42.09400
C  2.31800 1.90000 42.67100
C  3.05600 4.46800 42.63600
C  5.41700 2.32200 40.83900
C  5.88000 3.66700 40.30100
H  5.45800 4.04400 38.87800
N  0.26700 -0.25700 43.63400
C  -0.02300 0.94800 43.09300
C  -1.46800 0.95200 42.84100
C  -1.96900 -0.38400 43.14900
C  -0.79400 -1.13400 43.56500
C  -2.11200 2.00700 42.05400
C  -3.47900 -0.90100 43.02100
O  -4.37500 -0.05500 42.90800
C  -4.02200 -2.33600 43.20000
N  1.65600 -2.93300 44.52700
C  0.30500 -3.20100 44.57400
C  0.07100 -4.73500 45.04000
C  1.49000 -5.10300 45.57400
C  2.32800 -3.90900 45.15800
C  -1.08100 -4.91400 46.05400
C  1.94200 -6.51000 45.16000
C  1.23800 -7.70300 45.76500
N  4.14100 -1.58600 44.67200
C  4.57900 -2.75800 45.13200
C  6.00300 -2.77000 45.29900
C  6.41600 -1.55900 44.72100
C  5.27400 -0.87800 44.28300
C  6.80000 -3.91400 45.95200
C  7.52900 -0.75900 44.38400
O  8.73000 -0.94100 44.62700
C  6.93100 0.54400 43.65500
C  7.21700 1.73800 44.60800
O  7.02400 1.81400 45.79300
O  7.75500 2.77900 43.86800
C  8.28400 3.92700 44.64600
H  0.50700 2.80600 42.16900
H  -1.67500 -3.01800 43.94500
H  4.17300 -4.65500 45.94300
H  5.27900 3.11200 42.74800
H  3.10100 3.13000 41.01500
H  3.10400 5.22000 41.84900
H  3.76100 4.81500 43.39100
H  2.04600 4.65400 43.00100
H  4.77300 1.81800 40.11800
H  6.33800 1.74400 40.92400
H  6.96900 3.68700 40.25100
H  5.53300 4.53800 40.85700
H  -2.16700 1.69400 41.01100
H  -1.60800 2.96000 42.21000
H  -3.14300 2.07200 42.40100
H  -5.08700 -2.37600 42.97200
H  -3.88000 -2.73100 44.20600
H  -3.50600 -2.93500 42.44900
H  -0.12300 -5.22400 44.08500
H  1.55800 -5.03200 46.66000
H  -1.88200 -5.43500 45.53000
H  -1.54400 -3.95800 46.29700
H  -0.82100 -5.40200 46.99400
H  3.01700 -6.63600 45.29100
H  1.77700 -6.62100 44.08800
H  1.85500 -8.49600 46.18800
H  0.82200 -8.18100 44.87800
H  0.53300 -7.44200 46.55400
H  6.46400 -4.15200 46.96100
H  7.82600 -3.54700 45.90300
H  6.79400 -4.79700 45.31300
H  7.54600 0.77000 42.78400
H  9.11000 4.40500 44.12100
H  8.73800 3.60200 45.58200
H  7.44600 4.55700 44.94300
Mg 26.10500 50.51400 27.55400
C  23.85600 51.91600 29.89900
C  28.21400 49.77800 29.99100
C  28.30600 49.74500 25.16200
C  23.93300 51.95800 25.00900
N  25.93100 50.72200 29.77900
C  25.00500 51.33200 30.56700
C  25.21100 51.02800 32.09000
C  26.69100 50.42200 32.04200
C  27.00100 50.34300 30.54500
C  27.86000 51.12300 32.84500
C  24.16000 50.10100 32.80600
C  23.78800 50.45600 34.24100
H  24.80600 50.76500 35.27500
N  28.02300 49.62100 27.59700
C  28.75300 49.51300 28.68100
C  30.09200 49.03900 28.35400
C  30.11700 48.90200 26.88800
C  28.77700 49.41000 26.45700
C  31.20600 48.86000 29.38700
C  31.24000 48.34300 25.98300
O  31.14100 48.37800 24.79800
C  32.41600 47.47400 26.55400
N  26.19100 50.91300 25.38100
C  27.16900 50.36800 24.60600
C  26.75000 50.40200 23.14000
C  25.23700 50.73300 23.22800
C  25.10000 51.27500 24.65600
C  27.73500 51.21100 22.37000
C  24.20200 49.64800 22.77900
C  24.25700 49.02700 21.38000
N  24.32800 51.80300 27.41800
C  23.56000 52.23200 26.37200
C  22.39100 52.88900 26.82500
C  22.51600 52.83200 28.24000
C  23.70700 52.14600 28.52900
C  21.27400 53.30100 25.87600
C  21.86200 53.24400 29.46700
O  20.76700 53.71800 29.76200
C  22.67500 52.60400 30.61400
C  23.07100 53.70700 31.57100
O  23.82900 54.59800 31.43400
O  22.42800 53.36400 32.75800
C  22.74900 54.27000 33.88000
H  28.95200 49.56300 30.76700
H  28.97800 49.63600 24.30800
H  23.33100 52.27200 24.15400
H  25.14900 51.99600 32.58700
H  26.59100 49.42700 32.47600
H  28.79000 51.14500 32.27700
H  27.94100 50.89900 33.90800
H  27.46300 52.13800 32.88600
H  24.51200 49.08200 32.96500
H  23.24800 49.95000 32.22800
H  23.17300 49.68500 34.70500
H  23.17500 51.35700 34.25800
H  32.22200 48.68600 29.03400
H  31.08500 47.89000 29.87000
H  31.19200 49.66900 30.11700
H  33.14100 48.22500 26.86900
H  32.68600 46.92100 25.65500
H  31.96200 46.85600 27.32900
H  26.68100 49.37300 22.78800
H  25.05400 51.60000 22.59300
H  27.39500 52.19300 22.04000
H  27.92600 50.61000 21.48100
H  28.73000 51.27300 22.81100
H  23.26500 50.19800 22.86600
H  24.13100 48.87000 23.53800
H  24.36900 47.95500 21.54800
H  25.05500 49.42600 20.75500
H  23.36300 49.38500 20.86800
H  21.12000 52.52500 25.12500
H  21.45300 54.26400 25.39800
H  20.47400 53.47500 26.59500
H  22.07100 51.86200 31.13700
H  22.97300 55.29700 33.59100
H  23.61900 53.80400 34.34300
H  21.94900 54.25800 34.62000

