158

Mg 25.51400 1.66800 29.73000
C  27.53600 1.74100 32.53000
C  22.74800 2.04700 31.80000
C  23.54500 1.83900 26.97100
C  28.25000 1.00300 27.72600
N  25.24100 1.82700 32.01700
C  26.20600 1.89700 32.94400
C  25.64700 2.02500 34.33100
C  24.05700 1.98600 34.10300
C  23.96600 1.91500 32.56300
C  23.42500 0.73500 34.82700
C  26.17500 3.38000 35.02200
C  26.89900 3.19000 36.40500
H  26.29800 4.10400 37.59800
N  23.46200 1.95800 29.39700
C  22.47500 2.08100 30.42300
C  21.17500 2.13100 29.76500
C  21.39600 2.00200 28.36800
C  22.87000 1.88300 28.17900
C  19.88700 2.30600 30.46500
C  20.33200 1.78900 27.32100
O  20.58800 1.54700 26.18300
C  18.89500 1.82000 27.65300
N  25.78300 1.39700 27.62800
C  24.87400 1.65700 26.65000
C  25.47300 1.69300 25.26500
C  26.98100 1.67100 25.55400
C  27.08700 1.27700 27.05200
C  24.94300 0.62100 24.28400
C  27.75100 2.92200 25.25100
C  27.46300 4.17100 26.09300
N  27.51500 1.37800 30.02500
C  28.47900 1.03400 29.11300
C  29.72400 0.85700 29.76900
C  29.45700 1.13300 31.14500
C  28.00900 1.41300 31.25400
C  31.14200 0.49400 29.14300
C  30.01900 1.27000 32.54600
O  31.18300 1.18400 32.91300
C  28.75800 1.57200 33.42500
C  28.70200 0.36400 34.27600
O  28.04100 -0.60300 34.11800
O  29.36400 0.70300 35.37400
C  29.46900 -0.31900 36.42700
H  21.85500 2.28800 32.38200
H  22.90600 1.94600 26.09200
H  29.05000 0.75400 27.02500
H  26.06700 1.17600 34.87000
H  23.55300 2.84600 34.54300
H  24.00600 -0.16800 35.01700
H  22.72900 0.38300 34.06500
H  22.66600 0.97200 35.57300
H  25.28300 3.97400 35.21900
H  26.82100 4.03000 34.43200
H  27.98100 3.28300 36.30900
H  26.59400 2.20700 36.76300
H  19.37900 3.23500 30.20400
H  20.12200 2.29500 31.53000
H  19.14100 1.51800 30.36300
H  18.61200 2.81800 27.98700
H  18.44600 0.98900 28.19700
H  18.37300 1.62400 26.71700
H  25.24100 2.68600 24.87900
H  27.45600 0.88900 24.96300
H  25.71200 -0.11100 24.03900
H  24.75700 1.13600 23.34200
H  23.97900 0.17000 24.51900
H  27.56700 3.10200 24.19200
H  28.79000 2.59100 25.25800
H  27.95800 3.98600 27.04600
H  26.37700 4.26300 26.09800
H  27.79600 5.07700 25.58500
H  31.93400 0.55600 29.89000
H  31.49600 1.11000 28.31700
H  31.07000 -0.54900 28.83300
H  28.83400 2.48600 34.01300
H  28.57400 -0.06100 36.99200
H  30.38700 -0.24300 37.00900
H  29.42000 -1.34800 36.07100
Mg 5.07900 52.42400 42.14900
C  5.04900 48.89300 41.85400
C  7.52700 52.39200 39.74500
C  4.62500 55.80500 41.85000
C  2.30000 52.18800 44.15200
N  5.97400 50.86300 40.80000
C  5.83500 49.47300 40.84800
C  6.69400 48.82600 39.75000
C  7.74800 49.90300 39.51700
C  7.04000 51.12600 40.03900
C  9.15900 49.71200 40.13600
C  5.82000 48.30500 38.53700
C  5.91500 46.79500 38.01200
H  6.38400 46.50800 36.53900
N  6.02000 53.95700 41.00600
C  7.03600 53.70600 40.10800
C  7.56100 55.03900 39.73100
C  6.86800 56.01700 40.46000
C  5.82400 55.29000 41.15700
C  8.63500 55.16300 38.69100
C  7.20500 57.44000 40.50000
O  8.21500 57.83400 39.88400
C  6.42800 58.43900 41.36500
N  3.75200 53.74700 42.89400
C  3.71300 55.06800 42.63100
C  2.39000 55.72800 43.11800
C  1.45100 54.49700 43.41900
C  2.54400 53.40700 43.52600
C  2.50900 56.60600 44.43600
C  0.43400 54.25800 42.24700
C  -0.51100 55.45700 41.94700
N  4.00000 50.94500 43.02400
C  2.99200 50.99200 43.96300
C  2.69600 49.65000 44.40200
C  3.49400 48.78000 43.59700
C  4.23700 49.59900 42.77000
C  1.71800 49.27600 45.46400
C  3.85200 47.39400 43.36300
O  3.52800 46.33800 43.82800
C  4.88900 47.47100 42.19500
C  4.61600 46.53600 41.15800
O  3.66200 46.64200 40.37100
O  5.44100 45.45600 41.29100
C  5.03300 44.30700 40.48100
H  8.41400 52.49000 39.11600
H  4.42700 56.87800 41.81900
H  1.33100 52.17400 44.65400
H  7.03000 47.95200 40.30700
H  7.89400 50.02600 38.44400
H  9.90000 49.83900 39.34700
H  9.27300 48.72500 40.58400
H  9.40400 50.55100 40.78900
H  6.08600 48.95600 37.70400
H  4.80700 48.64400 38.75600
H  4.91700 46.40200 38.20500
H  6.64200 46.35600 38.69500
H  8.58100 54.37100 37.94500
H  9.62600 55.06000 39.13200
H  8.65200 56.18100 38.29900
H  6.91400 59.41500 41.36800
H  6.48000 57.88700 42.30300
H  5.49800 58.64400 40.83400
H  2.08400 56.44200 42.35300
H  0.84800 54.70400 44.30400
H  3.39900 57.23300 44.40200
H  2.58000 55.99200 45.33400
H  1.73500 57.36900 44.51700
H  -0.19400 53.39500 42.46600
H  0.91100 53.92400 41.32600
H  0.01200 56.34800 41.59900
H  -1.14100 55.72700 42.79500
H  -1.20300 55.21400 41.14100
H  0.72900 49.37100 45.01600
H  1.80500 50.00200 46.27200
H  1.84000 48.28000 45.88900
H  5.86800 47.22000 42.60500
H  5.79700 43.53700 40.58600
H  5.12800 44.59200 39.43400
H  3.99800 44.05300 40.71000

