158

Mg 36.13400 49.92600 25.01700
C  36.39200 47.86700 28.04000
C  34.60800 52.28800 26.92900
C  35.27100 51.32700 22.23100
C  37.02000 46.97200 23.22400
N  35.70400 50.05200 27.24400
C  35.90100 49.12000 28.28500
C  35.61500 49.80200 29.68100
C  34.87900 51.15600 29.28100
C  35.13000 51.16700 27.71800
C  33.39300 51.10600 29.71800
C  36.92200 50.13300 30.41700
C  37.00000 49.80900 31.93300
H  35.70900 49.40900 32.70800
N  35.24800 51.72600 24.65500
C  34.64600 52.52300 25.57500
C  33.92200 53.60200 24.83200
C  34.11900 53.38700 23.43000
C  34.94100 52.11900 23.38200
C  33.05700 54.65300 25.47600
C  33.58700 54.10100 22.17400
O  33.63100 53.68900 21.00900
C  33.03100 55.50900 22.25600
N  36.23400 49.23800 22.96000
C  35.85300 50.06900 22.00400
C  36.07300 49.54800 20.58300
C  36.54000 48.05800 20.91300
C  36.56400 47.99100 22.45200
C  34.88500 49.62400 19.62700
C  37.99600 47.67100 20.43900
C  39.32800 48.28500 21.05700
N  36.77200 47.84700 25.45500
C  37.15000 46.76600 24.63600
C  37.49800 45.60300 25.37800
C  37.20500 45.93600 26.77500
C  36.74700 47.31500 26.71200
C  38.20900 44.38100 24.93700
C  37.17800 45.51100 28.10400
O  37.39500 44.40600 28.55000
C  36.71000 46.74100 29.04000
C  35.55700 46.23100 29.79800
O  34.35400 46.44600 29.51500
O  35.91600 45.41300 30.88800
C  34.77500 45.08700 31.74500
H  34.22200 53.14500 27.48400
H  34.97400 51.74500 21.26700
H  37.25100 46.12300 22.57900
H  34.95600 49.19600 30.30300
H  35.35600 51.97600 29.81900
H  33.13900 50.19200 30.25400
H  32.83300 51.17800 28.78600
H  33.09900 52.05100 30.17500
H  37.17200 51.18000 30.24900
H  37.69300 49.52100 29.94800
H  37.40600 50.69200 32.42600
H  37.74500 49.01900 32.02300
H  31.97200 54.55800 25.42700
H  33.28000 55.60500 24.99600
H  33.37000 54.82800 26.50500
H  33.82600 56.23800 22.41300
H  32.19000 55.55400 22.94900
H  32.67500 55.71200 21.24600
H  36.85900 50.13200 20.10200
H  35.80000 47.34800 20.54300
H  34.93500 48.83900 18.87200
H  34.71800 50.52700 19.04000
H  34.07400 49.33500 20.29500
H  38.08400 47.93400 19.38500
H  38.07100 46.58500 20.38500
H  39.76800 47.43000 21.57100
H  39.08900 49.11100 21.72700
H  40.01100 48.75300 20.34900
H  38.37300 44.42000 23.86000
H  37.64700 43.45100 25.02800
H  39.18100 44.50300 25.41400
H  37.42900 46.97800 29.82400
H  34.18300 44.35300 31.19900
H  34.14100 45.92500 32.03400
H  35.22400 44.72300 32.66900
Mg 26.90300 49.74600 26.59600
C  24.91000 50.59400 29.44300
C  29.42400 49.01600 28.78200
C  28.87000 49.35400 24.02900
C  24.28900 50.99400 24.56600
N  27.07200 49.82500 28.80300
C  26.12900 50.04300 29.76300
C  26.60800 49.65300 31.19600
C  28.12900 49.41900 30.95700
C  28.22400 49.40700 29.42000
C  29.00500 50.45100 31.62800
C  25.84700 48.43600 31.76800
C  25.05700 48.85300 33.02600
H  25.81300 49.46600 34.25000
N  28.96300 49.18100 26.41600
C  29.80300 48.82500 27.46200
C  31.02200 48.42300 26.88000
C  30.96400 48.66900 25.47200
C  29.56300 49.09000 25.20900
C  32.19800 47.99000 27.68500
C  31.97500 48.65600 24.42500
O  31.87900 49.15900 23.26800
C  33.32500 48.09400 24.56600
N  26.61800 50.10000 24.61400
C  27.54300 49.73700 23.70300
C  27.04200 50.01500 22.27500
C  25.59800 50.42700 22.43100
C  25.46500 50.52400 23.98200
C  27.86500 51.07500 21.51700
C  24.45800 49.39500 21.93200
C  23.37800 49.95800 21.07300
N  25.08000 50.67700 26.87300
C  24.10100 51.11600 25.97300
C  22.91700 51.63300 26.64900
C  23.18500 51.37900 27.98500
C  24.47800 50.82700 28.12000
C  21.67900 52.25500 26.06300
C  22.63600 51.51600 29.28800
O  21.53500 51.95800 29.63700
C  23.67200 50.93200 30.33100
C  24.07100 52.00100 31.26300
O  24.94200 52.83800 31.05400
O  23.40000 51.91800 32.40500
C  23.67000 53.01100 33.37600
H  30.11800 48.80000 29.59700
H  29.45800 49.11500 23.14000
H  23.38300 51.27500 24.02400
H  26.39000 50.55800 31.76300
H  28.40300 48.39300 31.20200
H  29.64100 49.88700 32.31000
H  28.37300 51.04400 32.28800
H  29.69300 50.87400 30.89600
H  26.53600 47.62400 32.00400
H  25.10400 48.06800 31.06000
H  24.60600 47.91000 33.33400
H  24.21900 49.51800 32.81700
H  31.80100 47.54800 28.59900
H  32.85600 48.83200 27.89900
H  32.68100 47.25700 27.03900
H  33.84800 47.85400 23.64000
H  33.11500 47.11800 25.00300
H  33.97200 48.58900 25.29100
H  27.11700 49.06000 21.75500
H  25.38600 51.40800 22.00500
H  28.79000 51.39100 22.00000
H  27.42300 52.05100 21.32000
H  28.18200 50.75300 20.52500
H  23.96300 48.91400 22.77500
H  24.99500 48.64800 21.34800
H  22.49000 49.36700 21.29700
H  23.73000 50.03300 20.04400
H  23.25800 50.94800 21.51300
H  21.58300 53.33900 26.12100
H  20.87500 51.94200 26.72800
H  21.41400 51.84400 25.08900
H  23.32600 50.04400 30.86000
H  24.63200 53.50800 33.25100
H  23.55400 52.67200 34.40600
H  22.86300 53.73700 33.27600

