158

Mg 26.27100 0.49400 29.81500
C  28.17500 0.08800 32.69100
C  23.66100 1.22000 31.63200
C  24.53200 0.10600 26.99800
C  29.19900 -0.58700 28.05600
N  25.95900 0.34900 32.07000
C  26.91000 0.58300 32.97900
C  26.31000 0.99900 34.30800
C  24.83300 1.47900 33.91100
C  24.77300 1.00500 32.41400
C  23.62200 0.88200 34.64000
C  27.05600 2.12500 35.16600
C  27.54700 1.67800 36.52400
H  27.42200 2.67300 37.65700
N  24.28400 0.54600 29.35400
C  23.32600 0.93000 30.28000
C  22.06500 0.98200 29.62800
C  22.27700 0.59600 28.28400
C  23.74300 0.36300 28.12900
C  20.82900 1.50600 30.20100
C  21.31600 0.44800 27.08000
O  21.69800 0.08800 25.98900
C  19.85400 0.76100 27.26700
N  26.83400 -0.20800 27.76500
C  25.91600 -0.09900 26.82300
C  26.61500 -0.37500 25.43900
C  28.08600 -0.25500 25.74500
C  28.08100 -0.29400 27.29800
C  26.17500 -1.74400 24.83800
C  28.96900 0.88000 25.22700
C  29.30200 0.77100 23.75700
N  28.25000 -0.21100 30.22400
C  29.28500 -0.61700 29.42900
C  30.46600 -0.92300 30.22900
C  30.07300 -0.59500 31.49100
C  28.69900 -0.21900 31.43300
C  31.84000 -1.43000 29.78100
C  30.50500 -0.65700 32.84200
O  31.51900 -1.06500 33.42000
C  29.27200 -0.13200 33.67100
C  29.03000 -1.21100 34.69300
O  28.45200 -2.22800 34.52000
O  29.69300 -0.88100 35.84000
C  29.77200 -1.99500 36.81700
H  22.78700 1.55400 32.19500
H  24.00900 -0.03800 26.05100
H  30.12500 -0.85000 27.54100
H  26.35800 0.11500 34.94400
H  24.71700 2.56200 33.95500
H  24.00000 0.61200 35.62600
H  23.14600 0.02000 34.17300
H  22.83100 1.62700 34.72700
H  26.39200 2.96900 35.35200
H  27.93800 2.50000 34.64500
H  28.62300 1.64100 36.35200
H  27.17800 0.70600 36.85000
H  20.44600 2.33000 29.59900
H  21.03200 2.03000 31.13500
H  20.04800 0.76300 30.36400
H  19.38200 0.02800 27.92200
H  19.39300 0.71200 26.28000
H  19.85300 1.77400 27.66900
H  26.30000 0.31600 24.65800
H  28.57000 -1.15400 25.36300
H  25.98900 -2.48800 25.61200
H  26.97900 -2.27000 24.32300
H  25.30400 -1.66200 24.18700
H  29.82800 1.02400 25.88200
H  28.36000 1.77700 25.33600
H  30.35400 1.05800 23.74500
H  28.78500 1.40100 23.03300
H  29.30300 -0.24600 23.36600
H  32.50800 -1.36600 30.64000
H  32.17200 -0.84800 28.92200
H  31.63100 -2.40300 29.33600
H  29.62800 0.74900 34.20500
H  30.61100 -1.75300 37.46900
H  30.13700 -2.91200 36.35600
H  28.83100 -2.10500 37.35600
Mg 54.07200 24.54400 44.88300
C  51.43600 26.77100 44.37600
C  51.96100 21.93500 44.20200
C  56.86100 22.53800 44.61100
C  56.15700 27.13300 45.62000
N  51.95100 24.41500 44.20700
C  51.01800 25.43500 44.17500
C  49.54400 24.84900 44.06700
C  49.79500 23.35500 44.45900
C  51.35700 23.21200 44.27400
C  49.43400 23.00200 45.90700
C  48.73700 25.03500 42.71200
C  49.45300 25.03400 41.33800
H  49.72000 23.57100 40.87300
N  54.38100 22.50600 44.41700
C  53.34500 21.59300 44.24200
C  54.02500 20.28800 44.08000
C  55.44600 20.47000 44.07400
C  55.64500 21.90200 44.38200
C  53.24200 19.01700 43.87000
C  56.46200 19.31900 43.83200
O  56.08800 18.18700 43.75300
C  57.91800 19.58800 43.62500
N  56.22700 24.86400 44.92100
C  57.15000 23.88400 44.88900
C  58.60800 24.39200 45.07300
C  58.37500 25.93200 45.41700
C  56.84400 26.00400 45.20500
C  59.30700 23.53900 46.21700
C  59.23400 26.91600 44.53300
C  58.61200 27.48100 43.18100
N  53.88800 26.56000 44.96900
C  54.79700 27.50500 45.41800
C  54.21300 28.78400 45.56900
C  52.93100 28.62300 45.03400
C  52.77800 27.21700 44.70400
C  54.78200 29.98800 46.23400
C  51.60800 29.14200 44.70900
O  51.22900 30.29100 44.86000
C  50.61500 27.97700 44.27200
C  50.09000 28.39200 42.93100
O  50.73900 28.64800 41.91800
O  48.73100 28.61300 43.09000
C  47.95800 28.75200 41.83100
H  51.28000 21.14300 43.88600
H  57.79000 21.96700 44.54700
H  56.81700 27.92400 45.98200
H  48.83100 25.28600 44.76600
H  49.36800 22.71700 43.68500
H  49.69600 21.94500 45.93400
H  48.37400 23.20300 46.06500
H  50.08100 23.60600 46.54300
H  48.11100 25.92600 42.74200
H  48.06900 24.18000 42.60100
H  50.44000 25.49700 41.32700
H  48.78800 25.50700 40.61500
H  53.01800 18.93400 42.80700
H  52.33100 19.06200 44.46600
H  53.80500 18.10400 44.06300
H  57.98800 20.51000 43.04900
H  58.19500 18.70600 43.04800
H  58.50000 19.66800 44.54300
H  59.07600 24.36200 44.09000
H  58.46700 26.03500 46.49800
H  59.57300 24.20100 47.04200
H  60.20000 23.06600 45.80900
H  58.61100 22.86200 46.71300
H  60.22200 26.46900 44.41900
H  59.38500 27.77100 45.19200
H  59.13300 27.15700 42.28000
H  58.65800 28.57000 43.13700
H  57.57400 27.17200 43.05800
H  55.71100 30.37600 45.81700
H  54.92900 29.78800 47.29500
H  53.99700 30.74300 46.17300
H  49.83800 28.02300 45.03600
H  48.52600 29.22300 41.02900
H  46.96900 29.18100 41.99300
H  47.81200 27.77100 41.38000

