158

Mg -11.42800 38.51500 41.48000
C  -9.58600 35.61600 40.87000
C  -9.18000 40.27500 39.62900
C  -13.54100 41.10900 41.71700
C  -13.99400 36.44500 42.73500
N  -9.51700 38.04000 40.49400
C  -8.98900 36.80000 40.31300
C  -7.67900 36.85300 39.52100
C  -7.54500 38.36700 39.23400
C  -8.78200 38.96400 39.83300
C  -6.18100 39.06100 39.68600
C  -7.64800 36.01600 38.21100
C  -6.30900 35.37400 37.68700
H  -5.66200 35.69700 36.34200
N  -11.30600 40.41700 40.85400
C  -10.28200 40.98700 40.12600
C  -10.57800 42.45900 39.96800
C  -11.67300 42.72100 40.82400
C  -12.20300 41.38000 41.23600
C  -9.79900 43.40000 39.08900
C  -12.26900 44.13300 41.14000
O  -11.68300 45.07500 40.68600
C  -13.49200 44.37500 41.94900
N  -13.61400 38.73200 41.95000
C  -14.20800 39.90200 42.00500
C  -15.63700 39.90600 42.54700
C  -15.82700 38.34500 42.83300
C  -14.40200 37.84000 42.54100
C  -15.92900 40.79700 43.77600
C  -16.92500 37.63200 41.98100
C  -18.00800 36.76900 42.63700
N  -11.71700 36.50200 41.82300
C  -12.78500 35.84700 42.42100
C  -12.48700 34.43200 42.58400
C  -11.24400 34.34900 41.97600
C  -10.85900 35.63800 41.48200
C  -13.30900 33.41500 43.16000
C  -10.15800 33.41600 41.63400
O  -10.17000 32.20600 41.85800
C  -9.06300 34.19200 40.86400
C  -7.76200 33.95700 41.48500
O  -7.05100 32.97500 41.30500
O  -7.43500 34.94100 42.38700
C  -6.15100 34.71400 43.03000
H  -8.44700 40.89100 39.10300
H  -14.24700 41.93600 41.81300
H  -14.76900 35.83100 43.19800
H  -6.91300 36.45300 40.18500
H  -7.69700 38.65100 38.19300
H  -6.50600 40.03200 40.05900
H  -5.50200 39.24800 38.85400
H  -5.67500 38.47300 40.45200
H  -7.92700 36.52100 37.28600
H  -8.50600 35.34500 38.21700
H  -6.37000 34.28600 37.64400
H  -5.51600 35.53800 38.41700
H  -10.47100 43.76300 38.31200
H  -9.00400 42.95800 38.49000
H  -9.48700 44.26100 39.68000
H  -13.39100 45.39900 42.31000
H  -13.69300 43.74200 42.81300
H  -14.26100 44.37400 41.17600
H  -16.23800 40.25100 41.70700
H  -16.04400 38.19400 43.89000
H  -15.19800 41.58000 43.97600
H  -16.17600 40.12100 44.59500
H  -16.93700 41.10800 43.50300
H  -16.38700 36.90600 41.37200
H  -17.39300 38.36600 41.32400
H  -17.95800 36.80800 43.72600
H  -17.99300 35.70000 42.42800
H  -18.98500 37.04100 42.23800
H  -13.52000 33.63000 44.20700
H  -12.79600 32.46600 42.99900
H  -14.32200 33.31800 42.76800
H  -9.19100 33.67300 39.91400
H  -5.28700 34.84300 42.37800
H  -6.08000 33.77700 43.58300
H  -6.19300 35.46600 43.81700
Mg 1.53200 41.99100 25.01500
C  2.90300 42.09100 28.21400
C  -1.44500 41.34700 26.55500
C  0.29600 41.56400 21.99200
C  4.74300 42.62600 23.68200
N  0.83900 41.70000 27.18300
C  1.52800 41.85200 28.31400
C  0.66800 41.93100 29.51600
C  -0.67100 41.35300 28.92800
C  -0.43300 41.50100 27.44200
C  -1.21500 39.96900 29.34700
C  0.44200 43.29300 30.15500
C  1.20800 43.54700 31.44700
H  0.29700 43.62200 32.72400
N  -0.24300 41.57400 24.35900
C  -1.42100 41.37600 25.17100
C  -2.52600 41.07000 24.30500
C  -2.11800 41.29900 22.99000
C  -0.60200 41.47000 23.06000
C  -3.92900 40.77700 24.78000
C  -2.95600 41.30200 21.70600
O  -2.53200 41.47500 20.58700
C  -4.43000 41.21400 21.72700
N  2.44800 41.96500 23.11900
C  1.67600 41.83200 22.00700
C  2.36600 42.20100 20.76700
C  3.72300 42.82100 21.34500
C  3.66700 42.40500 22.78600
C  2.62900 40.99600 19.85200
C  3.80200 44.33200 21.15100
C  4.56600 44.79900 19.84900
N  3.51100 42.29700 25.76600
C  4.67000 42.58400 25.09000
C  5.77600 42.75500 26.06400
C  5.08100 42.52400 27.28100
C  3.72200 42.22100 27.05900
C  7.18700 43.04100 25.52400
C  5.35100 42.57700 28.71400
O  6.33600 42.76600 29.43000
C  3.94900 42.27100 29.31200
C  4.08500 40.96400 30.05500
O  4.64700 39.96700 29.56800
O  3.49900 41.01400 31.26700
C  3.14200 39.76900 31.94400
H  -2.45900 41.28800 26.95500
H  -0.18300 41.55200 21.01000
H  5.68100 42.83800 23.16400
H  1.08200 41.22200 30.23400
H  -1.48900 42.02700 29.18400
H  -1.07600 39.16100 28.62900
H  -2.27200 39.99400 29.61300
H  -0.75400 39.58700 30.25800
H  -0.58400 43.53700 30.43300
H  0.67000 44.10900 29.46900
H  1.87000 44.40000 31.30000
H  1.84800 42.70600 31.71400
H  -4.16500 39.85300 24.25300
H  -4.67000 41.54200 24.54700
H  -4.04900 40.74200 25.86200
H  -4.91400 41.41800 20.77200
H  -4.77600 41.99900 22.40000
H  -4.65300 40.24000 22.16200
H  1.84100 43.04800 20.32600
H  4.63200 42.37000 20.94900
H  1.87100 40.23100 20.02000
H  3.63700 40.60100 19.97800
H  2.46500 41.20100 18.79400
H  4.60800 44.58200 21.84100
H  2.88000 44.84300 21.42900
H  5.36900 45.45600 20.18300
H  3.88200 45.35700 19.21000
H  4.97000 43.97700 19.25900
H  7.64900 43.93200 25.94900
H  7.12200 43.16000 24.44200
H  7.84500 42.17700 25.62400
H  3.63100 43.02900 30.02700
H  3.57400 39.65100 32.93800
H  3.20900 38.87700 31.32100
H  2.09400 40.01300 32.11800

