158

Mg 8.47700 4.33700 28.12400
C  10.02900 2.72200 30.96200
C  6.82200 6.18300 30.36700
C  6.90800 5.77200 25.53900
C  9.82700 1.85900 26.10800
N  8.49900 4.34100 30.38500
C  9.21500 3.72000 31.35600
C  9.06300 4.28300 32.76200
C  7.82900 5.23200 32.47500
C  7.68500 5.29100 30.94400
C  6.50200 4.85600 33.23600
C  10.38800 4.87400 33.35600
C  10.48800 5.94300 34.42900
H  11.11100 5.46400 35.72500
N  7.04900 5.81600 27.96800
C  6.50000 6.45600 29.04600
C  5.53600 7.43800 28.54500
C  5.57600 7.34700 27.09900
C  6.61600 6.30200 26.84200
C  4.58100 8.28300 29.35900
C  4.74800 8.07300 26.04600
O  5.08200 8.00800 24.93800
C  3.59100 8.97400 26.36100
N  8.41300 3.89100 26.10800
C  7.72900 4.63300 25.17100
C  7.97000 4.10500 23.80100
C  9.05900 2.97400 23.97800
C  9.04400 2.88600 25.48800
C  6.62400 3.68800 23.10100
C  10.43500 3.33500 23.38600
C  11.53300 4.13000 24.14100
N  9.70400 2.64500 28.40600
C  10.16300 1.75000 27.49100
C  10.92400 0.70600 28.12100
C  10.91600 1.12400 29.47000
C  10.16200 2.27500 29.61000
C  11.58400 -0.40500 27.44500
C  11.59900 0.78400 30.71900
O  12.37700 -0.14300 30.91500
C  10.91600 1.79100 31.79000
C  10.05400 0.93300 32.75500
O  9.15500 0.20500 32.42100
O  10.58400 1.03900 33.98200
C  9.84400 0.30200 35.07700
H  6.17600 6.74900 31.04200
H  6.50700 6.33600 24.69400
H  10.23100 1.10500 25.42900
H  8.72400 3.46000 33.39000
H  8.11100 6.19600 32.89700
H  5.70000 4.69000 32.51700
H  6.27400 5.65600 33.94000
H  6.47500 3.89900 33.75600
H  11.04400 5.11200 32.51900
H  10.67400 3.95600 33.86900
H  9.54100 6.35500 34.77800
H  11.05200 6.78900 34.03500
H  4.85500 9.32700 29.20800
H  4.58500 8.01300 30.41500
H  3.52700 8.22800 29.08600
H  3.10600 9.16500 25.40400
H  3.84100 9.79200 27.03600
H  2.82500 8.36400 26.84100
H  8.26500 4.82200 23.03400
H  8.70700 2.01100 23.60800
H  6.40000 4.32800 22.24700
H  5.77600 3.82100 23.77200
H  6.54500 2.64000 22.81300
H  10.14200 4.06000 22.62700
H  11.00500 2.61800 22.79400
H  11.05100 4.38300 25.08500
H  11.79100 5.09700 23.71000
H  12.41700 3.50100 24.24500
H  12.08200 0.05100 26.58900
H  10.94800 -1.24200 27.15800
H  12.38500 -0.68800 28.12800
H  11.64300 2.30800 32.41600
H  8.96900 -0.23600 34.71500
H  9.33600 0.95400 35.78800
H  10.55400 -0.31900 35.62400
Mg -11.18800 38.53300 41.45800
C  -9.46400 35.54100 40.76000
C  -8.67400 40.24600 39.71300
C  -13.23200 41.21000 41.15400
C  -13.83500 36.63300 42.66700
N  -9.43300 37.92900 40.21400
C  -8.87300 36.63200 40.14600
C  -7.45000 36.65200 39.62000
C  -7.22500 38.19000 39.29500
C  -8.54100 38.88300 39.80100
C  -5.88300 38.63900 39.87300
C  -7.28300 35.74400 38.39500
C  -6.06500 34.71100 38.56300
H  -4.87700 34.76400 37.51100
N  -10.92900 40.49200 40.74700
C  -9.81200 40.97700 40.03100
C  -10.03100 42.39400 39.69200
C  -11.29600 42.77200 40.18900
C  -11.87500 41.49300 40.73500
C  -9.02400 43.25400 39.00200
C  -11.92200 44.19700 40.06200
O  -11.17900 45.08300 39.64400
C  -13.30200 44.52200 40.51600
N  -13.28800 38.81300 41.56600
C  -13.90700 39.99800 41.49400
C  -15.39400 39.95400 41.77500
C  -15.54300 38.55900 42.39800
C  -14.11200 37.97600 42.29300
C  -16.03300 41.09100 42.63000
C  -16.62600 37.62100 41.67200
C  -17.33700 36.72400 42.68200
N  -11.60300 36.44800 41.75100
C  -12.69900 35.88500 42.32500
C  -12.41700 34.47300 42.46600
C  -11.18700 34.29800 41.82600
C  -10.70300 35.54800 41.40900
C  -13.41000 33.44900 42.98900
C  -10.22500 33.33100 41.43800
O  -10.25400 32.11400 41.50400
C  -9.01000 34.10800 40.88600
C  -7.85500 33.82900 41.80000
O  -7.09000 32.83100 41.70800
O  -7.53000 34.82000 42.77500
C  -6.55900 34.56200 43.85700
H  -7.76100 40.72800 39.35800
H  -13.85300 42.10100 41.04700
H  -14.67800 36.10100 43.11300
H  -6.64000 36.39600 40.30300
H  -7.01400 38.33900 38.23600
H  -5.09700 37.90400 39.69900
H  -6.03400 38.54400 40.94800
H  -5.73300 39.69500 39.64700
H  -7.29500 36.37000 37.50400
H  -8.23200 35.20800 38.36700
H  -6.49700 33.71300 38.63600
H  -5.52600 34.89200 39.49300
H  -8.92100 44.22700 39.48300
H  -8.99500 43.41600 37.92400
H  -8.05900 42.76400 39.13500
H  -13.50900 44.09900 41.49900
H  -14.00100 44.06500 39.81600
H  -13.50200 45.59300 40.47400
H  -15.72800 39.88100 40.74000
H  -15.68500 38.70400 43.46800
H  -16.57100 41.64200 41.85800
H  -15.39000 41.85000 43.07600
H  -16.72500 40.64900 43.34700
H  -16.09500 36.96600 40.98200
H  -17.27200 38.28900 41.10100
H  -18.34000 36.49400 42.32400
H  -17.54100 37.19400 43.64400
H  -16.88000 35.73500 42.69300
H  -13.78800 33.60400 43.99900
H  -13.09100 32.41000 42.90600
H  -14.24800 33.50500 42.29400
H  -8.72000 33.60200 39.96500
H  -6.85800 33.67800 44.42100
H  -6.57700 35.36900 44.58900
H  -5.58300 34.52400 43.37500

