158

Mg 45.20100 3.38200 47.18600
C  42.83400 5.73300 46.60700
C  42.66300 0.93900 47.07100
C  47.54600 0.95100 47.02100
C  47.67500 5.86500 46.81300
N  43.02600 3.29700 46.63800
C  42.29900 4.44500 46.61700
C  40.79200 4.10000 46.37900
C  40.69400 2.65800 47.10100
C  42.19700 2.28400 47.03200
C  39.97000 2.69800 48.55400
C  40.44200 4.13600 44.83800
C  39.24800 4.92000 44.39700
H  39.43100 5.79300 43.18400
N  45.10900 1.25500 47.20800
C  44.00000 0.53200 47.10500
C  44.34600 -0.91800 47.13100
C  45.76400 -0.98300 47.14200
C  46.21100 0.43400 47.11600
C  43.27800 -1.99100 47.14300
C  46.66400 -2.30400 47.13600
O  46.06500 -3.37000 47.14700
C  48.08500 -2.14200 47.02500
N  47.21200 3.39000 46.77300
C  48.00300 2.26000 46.91600
C  49.55400 2.57800 46.90300
C  49.53200 4.11600 47.01400
C  48.08000 4.47900 46.75500
C  50.38800 1.80600 48.02000
C  50.55600 4.80700 46.04900
C  51.43800 5.87100 46.76100
N  45.28400 5.40900 46.76100
C  46.36500 6.31800 46.73300
C  45.76100 7.67100 46.61600
C  44.36300 7.45300 46.58400
C  44.16200 6.04600 46.63800
C  46.45000 9.01600 46.54600
C  43.13800 8.12400 46.43800
O  42.90800 9.32800 46.42500
C  42.08200 6.99200 46.56400
C  41.33100 7.13600 47.87700
O  41.77500 6.77900 48.98100
O  40.01100 7.38600 47.62200
C  39.07400 7.49900 48.71200
H  41.83000 0.23300 47.08300
H  48.40000 0.27100 47.03700
H  48.40500 6.67000 46.92100
H  40.20000 4.81600 46.94900
H  39.96400 2.12600 46.49100
H  39.21600 1.91800 48.66100
H  39.51700 3.66900 48.75100
H  40.77100 2.46000 49.25400
H  40.37900 3.09200 44.53100
H  41.26800 4.50800 44.23100
H  38.71600 5.32200 45.25900
H  38.42200 4.31700 44.01900
H  43.02400 -2.16100 46.09700
H  42.44300 -1.66000 47.75900
H  43.68400 -2.88600 47.61600
H  48.25700 -1.45600 46.19500
H  48.69000 -3.02900 46.83700
H  48.44400 -1.73300 47.96900
H  49.87900 2.27600 45.90700
H  49.76800 4.31600 48.06000
H  50.94100 0.99800 47.54100
H  49.80300 1.50300 48.88800
H  51.10400 2.55100 48.36800
H  49.99100 5.26800 45.23900
H  51.36600 4.18400 45.66900
H  51.39700 5.87700 47.85100
H  51.28600 6.91600 46.49100
H  52.47000 5.68100 46.46800
H  47.05500 9.10300 45.64300
H  47.09600 9.06800 47.42200
H  45.70900 9.81400 46.48500
H  41.32700 7.01400 45.77900
H  38.22800 8.14200 48.46700
H  39.52200 7.79800 49.66000
H  38.66000 6.49100 48.71200
Mg 40.75900 40.14600 27.45100
C  40.16900 42.66300 29.84500
C  41.93900 38.10500 30.01700
C  41.39000 37.85000 25.08800
C  40.04200 42.55400 24.92400
N  41.01200 40.39200 29.71300
C  40.61300 41.47100 30.45600
C  40.65100 41.14800 31.98100
C  41.35000 39.70700 31.94800
C  41.44500 39.36000 30.44400
C  42.68600 39.72100 32.70900
C  39.23800 41.23300 32.74000
C  39.23100 42.07700 33.97700
H  38.67100 41.40200 35.26200
N  41.51400 38.21300 27.61800
C  41.96800 37.56000 28.71400
C  42.40400 36.21500 28.31400
C  42.27700 36.08700 26.95000
C  41.69900 37.39300 26.46700
C  42.96800 35.25000 29.30200
C  42.78800 35.05000 26.01200
O  42.76200 35.18700 24.81300
C  43.46600 33.78000 26.52300
N  40.93000 40.32600 25.31400
C  41.06100 39.17000 24.54500
C  40.73400 39.39700 23.02200
C  39.98500 40.80400 23.07700
C  40.27100 41.26000 24.53500
C  41.90000 39.36400 22.12800
C  38.51100 40.64500 22.70400
C  37.69700 39.81100 23.65400
N  40.22500 42.19400 27.36000
C  40.00200 43.06400 26.27100
C  39.52500 44.29300 26.75300
C  39.66400 44.24900 28.14400
C  40.10000 42.93600 28.47400
C  39.04400 45.45700 25.93200
C  39.54200 44.98900 29.30300
O  39.24000 46.21600 29.32600
C  39.78200 43.92700 30.54900
C  40.86100 44.44900 31.38000
O  41.94300 44.69000 30.89700
O  40.43500 44.76800 32.69100
C  41.28800 45.61700 33.49400
H  42.22400 37.59500 30.93900
H  41.36300 37.09000 24.30400
H  39.65500 43.18800 24.12300
H  41.34600 41.88600 32.38200
H  40.76300 38.85600 32.29400
H  42.87700 38.67500 32.95000
H  42.43600 40.23600 33.63700
H  43.49700 40.27100 32.23200
H  39.06400 40.18700 32.99400
H  38.42800 41.52400 32.07100
H  38.49300 42.86300 33.81700
H  40.18800 42.55500 34.18500
H  44.02800 35.03000 29.17600
H  42.42700 34.31300 29.16900
H  42.82300 35.52000 30.34800
H  44.46500 34.08900 26.83100
H  43.65800 33.08700 25.70400
H  42.86900 33.31000 27.30400
H  39.97500 38.67600 22.71800
H  40.55700 41.44900 22.40900
H  42.66400 38.70100 22.53500
H  42.21500 40.32600 21.72500
H  41.55000 38.84700 21.23400
H  38.52700 40.23900 21.69200
H  38.17700 41.68200 22.72500
H  38.20300 39.37300 24.51500
H  37.29000 39.04900 22.99000
H  36.77600 40.25800 24.02700
H  38.84500 45.11700 24.91600
H  39.92000 46.08600 25.77200
H  38.24400 45.94900 26.48600
H  38.87200 43.79200 31.13300
H  41.50600 45.03800 34.39100
H  40.71700 46.48400 33.82700
H  42.16800 45.82700 32.88600

