158

Mg 41.09000 9.06600 29.54800
C  42.64600 10.28100 32.45600
C  38.74300 7.57400 31.57500
C  39.44500 8.23000 26.85100
C  43.72900 10.22500 27.65800
N  40.79400 8.95300 31.81300
C  41.50600 9.53500 32.78400
C  40.87800 9.38500 34.16400
C  39.75500 8.23400 33.88700
C  39.71300 8.23400 32.36400
C  40.21400 6.85000 34.42400
C  40.23900 10.74100 34.59700
C  40.22100 11.07300 36.11600
H  41.25100 12.07600 36.67700
N  39.30600 8.20500 29.32900
C  38.51100 7.53000 30.17100
C  37.35800 6.94700 29.54600
C  37.50200 7.25700 28.18300
C  38.78300 7.97100 28.04200
C  36.17400 6.29300 30.28200
C  36.48400 6.98400 26.99600
O  36.68700 7.41100 25.83800
C  35.20200 6.16100 27.15700
N  41.51300 9.37100 27.48000
C  40.68100 8.88600 26.57400
C  41.26400 8.87000 25.13000
C  42.60500 9.64900 25.44100
C  42.61000 9.78300 26.93200
C  41.43300 7.35300 24.51500
C  42.84800 11.05100 24.74500
C  41.99800 12.41700 25.10100
N  42.88600 9.96000 29.94200
C  43.92900 10.35100 29.06400
C  45.00900 10.89800 29.91200
C  44.51000 10.96700 31.18300
C  43.23200 10.37100 31.16100
C  46.21100 11.46700 29.41900
C  44.79300 11.42800 32.47700
O  45.80800 11.99800 32.92800
C  43.64000 10.94300 33.36500
C  44.18600 10.14100 34.36200
O  44.64600 9.01400 34.12200
O  44.06400 10.74700 35.60800
C  44.98200 10.13400 36.55200
H  38.01900 6.95000 32.10200
H  38.90300 7.78800 26.01200
H  44.51400 10.62500 27.01300
H  41.54000 9.02600 34.95300
H  38.76200 8.39500 34.30600
H  39.49600 6.59700 35.20400
H  41.22300 6.79500 34.83100
H  40.19400 6.12400 33.61100
H  39.16400 10.64600 34.44000
H  40.63300 11.56100 33.99600
H  40.30600 10.11900 36.63500
H  39.27100 11.51800 36.41100
H  36.32200 6.23400 31.36000
H  36.04600 5.32000 29.80900
H  35.28500 6.91900 30.20000
H  35.55000 5.14800 27.35900
H  34.63400 6.07500 26.23100
H  34.74200 6.48300 28.09200
H  40.71600 9.55500 24.48200
H  43.48700 9.03000 25.27900
H  40.76000 6.68500 25.05200
H  42.38900 6.83200 24.56800
H  41.08200 7.44000 23.48700
H  42.74400 11.06800 23.66000
H  43.88700 11.22200 25.02700
H  41.38900 12.18300 25.97400
H  41.21500 12.61300 24.36900
H  42.59500 13.23700 25.50200
H  46.80200 10.91700 28.68700
H  46.92400 11.52700 30.24200
H  46.10100 12.48500 29.04500
H  43.05200 11.77900 33.74400
H  45.96700 9.81400 36.21300
H  44.46500 9.28800 37.00400
H  45.14300 10.82300 37.38100
Mg -1.88600 34.34900 27.46500
C  -3.95300 32.70300 29.71100
C  -0.72100 36.32100 29.97700
C  -0.64400 36.62500 25.13600
C  -3.79900 32.89500 24.84100
N  -2.35100 34.49600 29.60900
C  -3.18600 33.66700 30.31800
C  -3.03900 33.91800 31.85900
C  -2.03300 35.14600 31.98100
C  -1.72600 35.40600 30.39000
C  -2.62500 36.36400 32.71800
C  -2.47500 32.61100 32.53500
C  -3.17900 32.14100 33.86000
H  -2.34700 32.05400 35.12400
N  -0.67300 36.08000 27.52500
C  -0.24200 36.64200 28.68300
C  0.76600 37.56500 28.41800
C  0.85000 37.75000 26.97100
C  -0.19300 36.79400 26.47900
C  1.66500 38.14300 29.49300
C  1.82900 38.51400 26.11900
O  1.79300 38.51800 24.90200
C  2.88900 39.30900 26.75200
N  -2.35200 34.77500 25.34600
C  -1.58000 35.68800 24.65600
C  -1.90400 35.63100 23.11500
C  -2.55900 34.18600 22.99600
C  -2.90700 33.90300 24.46100
C  -2.89900 36.78600 22.75000
C  -1.69600 32.98800 22.50000
C  -0.37100 32.74300 23.22600
N  -3.39000 32.94600 27.29200
C  -4.06300 32.47700 26.15400
C  -5.06800 31.49000 26.56400
C  -4.99400 31.50100 27.95700
C  -4.04200 32.45800 28.32600
C  -5.83500 30.57500 25.68900
C  -5.53100 30.92200 29.15800
O  -6.37400 30.09300 29.36700
C  -4.85200 31.65500 30.34500
C  -5.83800 32.36500 31.20700
O  -6.37600 33.41800 30.85800
O  -5.91600 31.78200 32.49700
C  -7.11400 32.25600 33.20000
H  -0.36700 36.95600 30.79200
H  -0.14900 37.32900 24.46400
H  -4.35800 32.38100 24.05700
H  -4.04000 34.14300 32.22600
H  -1.06300 34.80400 32.34100
H  -1.88500 37.16000 32.80300
H  -2.68900 36.20800 33.79500
H  -3.51000 36.79000 32.24500
H  -1.40500 32.67500 32.73100
H  -2.62700 31.79600 31.82800
H  -3.64500 31.15900 33.77700
H  -3.87300 32.94100 34.11800
H  1.73600 37.42600 30.31200
H  1.08700 38.92600 29.98400
H  2.67300 38.49800 29.27700
H  2.44200 39.90200 27.54900
H  3.49600 39.92100 26.08400
H  3.57300 38.64300 27.27800
H  -1.00500 35.74200 22.51000
H  -3.52100 34.24800 22.48800
H  -3.09500 37.33300 23.67200
H  -3.91000 36.57200 22.40000
H  -2.49200 37.31200 21.88600
H  -1.57800 33.08000 21.42100
H  -2.13500 31.99100 22.52500
H  -0.00600 31.71900 23.14700
H  -0.27900 33.09300 24.25500
H  0.39100 33.35700 22.74800
H  -6.87700 30.89600 25.71200
H  -5.71400 29.57300 26.09900
H  -5.51900 30.54700 24.64700
H  -4.29600 30.88200 30.87700
H  -7.07500 33.30200 33.50400
H  -6.97300 31.68400 34.11700
H  -8.03400 32.16200 32.62200

