158

Mg 1.93400 -1.21100 44.99200
C  5.30300 -0.39600 44.48300
C  1.08200 1.32300 42.61700
C  -1.15500 -2.44800 44.66800
C  2.97500 -4.08500 46.72200
N  3.13300 0.17200 43.60000
C  4.48500 0.37900 43.67800
C  4.86100 1.48700 42.72000
C  3.49600 2.11200 42.27700
C  2.44200 1.19700 42.88800
C  3.15100 3.50900 42.93000
C  5.70700 0.92200 41.44600
C  7.11100 1.56600 41.45500
H  7.58900 2.24300 40.19300
N  0.16200 -0.56900 43.94700
C  0.07400 0.46700 43.04200
C  -1.37500 0.63700 42.72100
C  -2.07800 -0.49100 43.29400
C  -0.97700 -1.21000 44.01500
C  -1.98200 1.69500 41.85300
C  -3.56800 -0.72400 43.12300
O  -4.15500 -0.15900 42.22100
C  -4.38900 -1.68200 43.96800
N  1.04400 -2.98400 45.61200
C  -0.29300 -3.23600 45.43800
C  -0.67300 -4.65800 46.05800
C  0.69000 -5.11500 46.73100
C  1.60800 -4.00200 46.37200
C  -1.93100 -4.67800 47.02900
C  1.20300 -6.49400 46.13900
C  2.03800 -7.31600 47.18600
N  3.72200 -2.09000 45.62700
C  4.01300 -3.22600 46.35600
C  5.43800 -3.24000 46.57600
C  5.99500 -2.14000 45.89900
C  4.89700 -1.49700 45.26700
C  6.18600 -4.26100 47.23600
C  7.24200 -1.43300 45.58200
O  8.43900 -1.56600 45.92800
C  6.78200 -0.28600 44.62400
C  7.25600 1.03600 45.16300
O  6.75900 1.55100 46.14200
O  8.30900 1.54100 44.38400
C  8.46000 3.00100 44.54500
H  0.74100 2.07300 41.90000
H  -2.17000 -2.83400 44.55900
H  3.27800 -4.90800 47.37200
H  5.49200 2.08600 43.37700
H  3.33600 1.97300 41.20800
H  3.10400 4.19800 42.08700
H  3.87800 3.90100 43.64100
H  2.23800 3.67900 43.49900
H  5.20200 1.25200 40.53800
H  5.85700 -0.15100 41.56100
H  7.92700 0.93500 41.81000
H  7.16900 2.38900 42.16700
H  -2.25300 1.35000 40.85500
H  -1.25200 2.47700 41.64400
H  -2.91100 2.11000 42.24200
H  -5.37600 -1.24600 44.12000
H  -3.90300 -1.86100 44.92700
H  -4.42800 -2.60600 43.39000
H  -0.89300 -5.34000 45.23700
H  0.64400 -5.18700 47.81800
H  -1.65100 -5.08900 48.00000
H  -2.82100 -5.16600 46.63300
H  -2.10300 -3.61600 47.20000
H  1.80600 -6.35000 45.24200
H  0.38400 -7.17000 45.89500
H  1.29500 -8.08400 47.40500
H  2.24300 -6.74700 48.09200
H  2.95600 -7.81800 46.88100
H  7.21800 -3.96000 47.41500
H  6.15500 -5.23900 46.75500
H  5.74400 -4.60300 48.17200
H  7.24200 -0.43200 43.64700
H  9.18000 3.13000 45.35400
H  7.56200 3.54200 44.84700
H  8.80400 3.48000 43.62900
Mg 48.13600 45.87000 43.17100
C  44.89900 46.23000 42.11000
C  48.31800 42.72000 41.83900
C  51.64400 46.20600 42.93000
C  48.08300 49.15400 44.30600
N  46.80500 44.72000 42.07900
C  45.52900 45.10200 41.70100
C  44.87700 43.94200 40.93200
C  45.83100 42.72000 41.19300
C  47.09300 43.42300 41.74900
C  45.27100 41.65400 42.14400
C  44.68800 44.29700 39.41300
C  43.43900 43.54700 38.83100
H  43.52700 43.16600 37.33000
N  49.76000 44.63300 42.57800
C  49.59700 43.32600 42.08300
C  50.90400 42.77800 41.75300
C  51.90100 43.69000 42.15500
C  51.14000 44.88600 42.55700
C  51.11200 41.36300 41.20900
C  53.37300 43.47200 42.06600
O  53.80700 42.40000 41.67900
C  54.33000 44.61000 42.44100
N  49.56300 47.45200 43.43300
C  50.92200 47.29400 43.34800
C  51.64900 48.49900 43.96400
C  50.60200 49.50200 44.27400
C  49.33200 48.65500 44.06400
C  52.63700 48.10100 45.08000
C  50.63800 50.79300 43.32700
C  51.48900 51.98300 43.87700
N  46.71200 47.33000 43.45400
C  46.78900 48.60800 43.99000
C  45.44600 49.19700 43.99900
C  44.68000 48.32500 43.22300
C  45.51900 47.23600 42.85200
C  45.15400 50.66900 44.46900
C  43.39800 48.12900 42.60000
O  42.45100 48.95900 42.66200
C  43.43200 46.77100 41.82700
C  42.43200 45.81400 42.30100
O  41.46200 45.44400 41.64400
O  42.42400 45.65200 43.62700
C  41.27000 44.92700 44.18200
H  48.42100 41.66000 41.60000
H  52.72600 46.34800 42.94000
H  48.07500 50.18900 44.65400
H  43.89800 43.74200 41.36500
H  46.06600 42.18300 40.27300
H  44.31200 41.98000 42.54600
H  45.98100 41.65800 42.97100
H  45.26700 40.62800 41.77600
H  45.54500 43.99700 38.81000
H  44.44400 45.35600 39.32600
H  42.49700 44.04100 39.07200
H  43.43900 42.66400 39.47000
H  51.58700 41.41200 40.22900
H  50.24900 40.71300 41.05900
H  51.74800 40.71000 41.80600
H  54.41000 45.36200 41.65600
H  55.35900 44.34300 42.68400
H  53.99800 44.96400 43.41600
H  52.22300 48.95800 43.15900
H  50.66200 49.81800 45.31500
H  52.48200 47.03900 45.26800
H  52.49800 48.70000 45.98000
H  53.64800 48.20500 44.68300
H  49.65600 51.25900 43.23800
H  50.98700 50.57800 42.31700
H  51.64400 51.94400 44.95500
H  50.97100 52.94000 43.81800
H  52.41500 52.07700 43.31000
H  45.93600 51.41100 44.30900
H  44.85200 50.67500 45.51700
H  44.23700 50.92900 43.94000
H  43.23900 47.16400 40.82900
H  41.48000 44.55400 45.18400
H  40.74200 44.17500 43.59600
H  40.52500 45.64700 44.52100

