158

Mg 7.98800 53.00200 40.99700
C  7.64400 49.55400 40.63600
C  11.17900 52.70200 39.91500
C  8.03300 56.34300 40.65100
C  4.62100 53.11100 41.86500
N  9.13500 51.31400 40.08900
C  8.89700 49.97200 40.15000
C  9.99400 49.19600 39.50700
C  11.22600 50.11900 39.91900
C  10.48800 51.50700 39.94200
C  12.05000 49.81900 41.24400
C  9.84700 49.09800 37.89600
C  9.96800 47.70000 37.27100
H  8.78500 47.20800 36.31400
N  9.44200 54.44000 40.33100
C  10.69800 54.07800 39.96800
C  11.45900 55.24200 39.75500
C  10.56900 56.37500 39.91200
C  9.30500 55.76500 40.38800
C  12.97600 55.23300 39.27900
C  11.02200 57.81400 39.63100
O  12.17200 58.02500 39.19700
C  10.12700 59.05200 39.86600
N  6.56900 54.54600 41.24600
C  6.80100 55.81700 40.89700
C  5.60200 56.72500 41.14500
C  4.46100 55.69800 41.45600
C  5.24700 54.39200 41.54900
C  5.87200 57.71200 42.27600
C  3.27900 55.63700 40.49400
C  3.70700 55.10500 39.17700
N  6.43100 51.64000 41.27500
C  5.16000 51.82200 41.77600
C  4.50300 50.59300 42.00300
C  5.49700 49.65500 41.59200
C  6.59300 50.36500 41.14000
C  3.11800 50.41800 42.61500
C  5.82600 48.23800 41.61100
O  5.26600 47.28200 42.10900
C  7.18700 48.17800 40.93500
C  7.07000 47.43800 39.61800
O  6.68800 47.86800 38.52500
O  7.35000 46.10200 39.85200
C  6.88900 45.08800 38.90200
H  12.20900 52.44000 39.66500
H  7.99200 57.40800 40.41200
H  3.58900 53.19700 42.21300
H  10.05400 48.19900 39.94400
H  11.94900 50.02200 39.10900
H  11.50000 49.09500 41.84500
H  12.23800 50.69800 41.86100
H  12.93900 49.39900 40.77300
H  10.56300 49.77200 37.42700
H  8.86300 49.50100 37.65400
H  10.11200 46.95200 38.05100
H  10.74100 47.64400 36.50500
H  12.99400 55.92200 38.43400
H  13.41200 54.24900 39.10500
H  13.51000 55.62800 40.14300
H  9.49900 58.96900 40.75200
H  9.46000 59.12400 39.00700
H  10.69000 59.98400 39.89000
H  5.29400 57.15800 40.19300
H  4.14600 55.93000 42.47300
H  6.70000 57.38600 42.90600
H  4.95700 57.81000 42.85900
H  6.26900 58.66100 41.91600
H  2.84900 56.58700 40.17500
H  2.39900 55.12700 40.88400
H  3.15400 55.53600 38.34200
H  3.62100 54.01900 39.22500
H  4.75400 55.34000 38.98900
H  2.49200 51.19400 42.17600
H  3.18400 50.54600 43.69600
H  2.63600 49.46300 42.40800
H  7.73300 47.64100 41.71100
H  7.76500 44.78400 38.33000
H  6.13400 45.36600 38.16700
H  6.53200 44.16200 39.35300
Mg 10.98100 46.82000 25.74800
C  8.95600 46.85700 28.67100
C  13.57200 47.89800 27.50600
C  12.70300 47.08000 22.92700
C  7.96000 46.42500 23.90000
N  11.20300 47.31900 27.84400
C  10.26300 47.23000 28.83400
C  11.00700 47.57400 30.18500
C  12.26200 48.32900 29.68800
C  12.37700 47.80900 28.22000
C  12.20600 49.84500 29.75800
C  11.34900 46.42000 31.21800
C  10.90000 46.51400 32.70800
H  10.93200 45.28500 33.56300
N  12.91800 47.19500 25.31300
C  13.91000 47.50200 26.23500
C  15.19300 47.30300 25.61100
C  14.95100 47.10500 24.15200
C  13.45300 47.13900 24.08000
C  16.43000 47.41400 26.40000
C  15.98600 46.82200 23.04000
O  15.65700 46.57400 21.89200
C  17.47400 46.85300 23.46700
N  10.38200 46.94300 23.70100
C  11.30400 47.05400 22.66900
C  10.69100 46.75100 21.38600
C  9.20500 46.46500 21.70700
C  9.15200 46.64300 23.17500
C  11.05800 47.78900 20.21100
C  8.63100 45.08400 21.22500
C  9.12600 44.57300 19.83600
N  8.77800 46.72500 26.15300
C  7.72500 46.43100 25.32300
C  6.52900 46.24400 26.14000
C  6.99700 46.37700 27.50600
C  8.36400 46.72100 27.41000
C  5.11300 45.96300 25.60100
C  6.62100 46.47000 28.89200
O  5.45400 46.37500 29.25600
C  7.89000 46.59200 29.75400
C  8.13000 45.42700 30.51100
O  8.75700 44.46000 30.12100
O  7.50900 45.47100 31.74800
C  7.61600 44.24200 32.62100
H  14.30600 48.32300 28.19300
H  13.36600 46.82900 22.09600
H  7.01500 46.24400 23.38400
H  10.32800 48.21700 30.74400
H  13.16100 48.01000 30.21400
H  13.17200 50.33000 29.90200
H  11.43600 50.08100 30.49200
H  11.81500 50.32600 28.86200
H  12.41900 46.27300 31.07100
H  10.89700 45.48200 30.89600
H  9.85700 46.83000 32.73500
H  11.48700 47.36800 33.04700
H  17.03400 48.24600 26.03800
H  17.10300 46.55800 26.43600
H  16.22600 47.73700 27.42100
H  17.64200 45.90900 23.98700
H  17.72500 47.71200 24.08900
H  18.03000 46.89800 22.53000
H  11.20700 45.81200 21.18600
H  8.62500 47.24200 21.21000
H  11.47500 48.72600 20.58000
H  10.26800 48.06700 19.51300
H  11.76800 47.27700 19.56200
H  7.54300 45.14900 21.22500
H  8.99800 44.30500 21.89400
H  8.24000 44.18800 19.33100
H  9.88100 43.79100 19.91900
H  9.54900 45.35900 19.21100
H  4.42900 46.41600 26.31800
H  4.89000 44.90600 25.74300
H  4.88000 46.29100 24.58800
H  7.78400 47.34100 30.53800
H  7.52100 44.54700 33.66300
H  8.59800 43.77800 32.53200
H  6.81300 43.53100 32.42400

