158

Mg 35.85200 49.10900 25.60300
C  36.17700 47.58900 28.66700
C  34.24500 51.87400 27.26700
C  35.16200 50.59200 22.58500
C  37.09800 46.39500 24.06700
N  35.22700 49.66200 27.78000
C  35.59000 48.88000 28.86000
C  35.17100 49.59200 30.14900
C  34.53100 50.96300 29.72600
C  34.65000 50.82500 28.14300
C  33.02100 51.08200 30.15700
C  36.45700 49.65500 31.14000
C  36.10200 49.50400 32.63900
H  34.62400 49.53400 33.08900
N  34.85400 51.00300 25.00400
C  34.34200 51.97600 25.84300
C  33.98700 53.15000 25.01700
C  34.25500 52.80300 23.62500
C  34.69900 51.40600 23.70000
C  33.59300 54.53100 25.69300
C  34.17500 53.69700 22.42300
O  34.54800 53.36000 21.29600
C  33.63600 55.12200 22.56200
N  35.99100 48.52700 23.58100
C  35.77600 49.33400 22.55500
C  36.24200 48.70500 21.27300
C  36.92800 47.33300 21.76500
C  36.74800 47.42600 23.20300
C  35.15400 48.47700 20.14000
C  38.39600 47.23000 21.40500
C  39.46800 48.03500 22.09200
N  36.53000 47.32600 26.18300
C  37.04100 46.26100 25.44400
C  37.40400 45.18100 26.27900
C  37.07700 45.65700 27.56300
C  36.51100 46.97400 27.47400
C  37.94900 43.83500 25.86900
C  36.98300 45.26900 28.99200
O  37.27100 44.23200 29.52800
C  36.48000 46.48900 29.71000
C  35.19800 46.12200 30.44200
O  34.13400 45.96100 29.88900
O  35.46900 45.76700 31.73500
C  34.43200 44.96400 32.42300
H  33.64400 52.63100 27.77600
H  34.90400 51.03300 21.62100
H  37.55100 45.53600 23.56900
H  34.41000 48.92100 30.54800
H  35.05500 51.80300 30.18200
H  32.88800 52.03200 30.67400
H  32.61300 50.38100 30.88500
H  32.33000 51.06100 29.31400
H  37.04400 50.56700 31.02800
H  37.15200 48.87300 30.83000
H  36.68100 50.19000 33.25700
H  36.48900 48.49700 32.79500
H  32.52500 54.75100 25.66100
H  34.14400 55.32500 25.18800
H  34.03100 54.54100 26.69100
H  33.55300 55.59800 21.58500
H  34.41200 55.64700 23.11900
H  32.75000 55.06700 23.19500
H  37.03200 49.34300 20.87600
H  36.43600 46.49100 21.28000
H  34.17100 48.55700 20.60500
H  35.34500 47.49900 19.69700
H  35.38100 49.26900 19.42700
H  38.44500 47.56900 20.37100
H  38.57300 46.17200 21.59900
H  39.56900 47.83800 23.15900
H  39.33800 49.09400 21.86500
H  40.44700 47.83400 21.65700
H  38.73300 44.06400 25.14700
H  37.13500 43.21800 25.48700
H  38.48800 43.43300 26.72700
H  37.22000 46.75800 30.46300
H  34.83200 43.96400 32.58900
H  33.48300 44.94400 31.88700
H  34.12800 45.50800 33.31800
Mg -11.72600 15.98000 41.64900
C  -8.56900 14.88600 40.89200
C  -11.15700 18.99900 40.15500
C  -15.01700 16.65200 41.83600
C  -12.41200 12.63600 42.67100
N  -10.04100 16.68300 40.37100
C  -8.79100 16.19300 40.50400
C  -7.78100 17.21800 39.94200
C  -8.62500 18.48900 39.68100
C  -10.07300 18.08400 40.25700
C  -8.05800 19.80200 40.38200
C  -7.01100 16.70500 38.68000
C  -5.62000 17.23500 38.69200
H  -5.34000 18.33600 37.70700
N  -12.91100 17.64700 41.00700
C  -12.48600 18.81500 40.57200
C  -13.59600 19.66300 40.31200
C  -14.77800 19.00000 40.76900
C  -14.24600 17.71300 41.27800
C  -13.44600 20.99600 39.57700
C  -16.24600 19.53800 40.57800
O  -16.43000 20.68500 40.15800
C  -17.44000 18.66800 40.88900
N  -13.44200 14.74400 42.24600
C  -14.69600 15.37900 42.26600
C  -15.78200 14.34400 42.62100
C  -14.98000 13.00400 42.70500
C  -13.50400 13.47700 42.64100
C  -16.50800 14.71400 43.93800
C  -15.17200 11.98400 41.45400
C  -15.45600 10.55000 41.95500
N  -10.73600 14.14300 41.82600
C  -11.05500 12.90800 42.26400
C  -9.93700 11.99900 42.23900
C  -8.80400 12.75500 41.79900
C  -9.43000 14.01200 41.45100
C  -9.90900 10.55200 42.57400
C  -7.44600 12.79500 41.63400
O  -6.53300 11.97900 41.92100
C  -7.17100 14.11700 40.88500
C  -6.16000 14.85100 41.70100
O  -6.22400 15.22600 42.84400
O  -4.98600 14.93200 40.90200
C  -3.79500 15.17900 41.77800
H  -10.92700 19.97500 39.72400
H  -16.10500 16.73500 41.86600
H  -12.67400 11.64200 43.04200
H  -7.14300 17.37000 40.81300
H  -8.66600 18.73100 38.61900
H  -8.10800 20.64700 39.69500
H  -7.07800 19.67200 40.84300
H  -8.83600 20.07400 41.09500
H  -7.48600 17.04400 37.75900
H  -7.10300 15.62000 38.64000
H  -5.05200 16.32700 38.48800
H  -5.37200 17.55900 39.70300
H  -12.57000 21.04900 38.93100
H  -13.24100 21.73800 40.34900
H  -14.34400 21.28500 39.03000
H  -18.30100 19.15800 40.43300
H  -17.46800 18.46600 41.96000
H  -17.33100 17.68300 40.43600
H  -16.48900 14.33300 41.79200
H  -15.37400 12.59300 43.63500
H  -16.90500 15.72700 43.87300
H  -15.91200 14.59800 44.84400
H  -17.24600 13.91600 44.00600
H  -14.25500 11.96000 40.86500
H  -15.94200 12.45700 40.84500
H  -16.28000 10.24300 41.31200
H  -15.56600 10.49800 43.03900
H  -14.52800 10.05300 41.67300
H  -10.71000 10.34900 43.28500
H  -8.94800 10.38500 43.06000
H  -10.13500 9.98000 41.67400
H  -6.84100 14.07900 39.84600
H  -2.90500 15.31000 41.16200
H  -3.63200 14.42400 42.54600
H  -3.98900 16.06300 42.38600

