158

Mg 9.06500 2.16200 27.59000
C  10.44500 0.96600 30.63700
C  6.90400 4.13500 29.58000
C  7.50000 2.96500 24.82300
C  10.70600 -0.46500 25.94900
N  8.82600 2.62400 29.91400
C  9.50600 2.02400 30.91200
C  9.13500 2.72600 32.26900
C  8.00900 3.77800 31.92100
C  7.91100 3.53800 30.38100
C  6.74500 3.72200 32.77200
C  10.46700 3.37500 32.81000
C  10.28500 4.46700 33.91600
H  10.96300 4.22600 35.25300
N  7.49300 3.36100 27.26700
C  6.69200 4.06400 28.18100
C  5.79000 4.95200 27.42200
C  6.08300 4.71400 26.04500
C  7.11900 3.67000 26.01600
C  4.76200 5.86900 28.15700
C  5.55100 5.47700 24.86700
O  5.99500 5.47400 23.74500
C  4.38300 6.41900 25.12100
N  9.12600 1.35300 25.66100
C  8.41600 1.91300 24.64700
C  8.84600 1.35800 23.23000
C  9.78500 0.25000 23.62800
C  9.93800 0.37700 25.16400
C  7.70700 1.10000 22.11600
C  11.08100 0.19400 22.96100
C  11.11500 -0.71000 21.67500
N  10.26100 0.54600 28.18800
C  10.91400 -0.34200 27.38800
C  11.86900 -1.13000 28.21600
C  11.64800 -0.71900 29.50900
C  10.73600 0.39300 29.42000
C  12.86700 -2.18600 27.85100
C  12.08400 -0.86200 30.92100
O  12.92600 -1.52800 31.42000
C  11.30800 0.25300 31.69400
C  10.51400 -0.42200 32.70800
O  9.52600 -1.00800 32.47800
O  11.17300 -0.24000 33.93800
C  10.31900 -0.42600 35.10900
H  6.01000 4.49700 30.09200
H  7.04200 3.26400 23.87700
H  11.30200 -1.23300 25.45200
H  8.93800 2.01300 33.07000
H  8.45500 4.77000 31.99100
H  5.85800 3.42300 32.21300
H  6.61500 4.65400 33.32200
H  6.75200 2.96100 33.55300
H  10.99100 3.82900 31.96900
H  11.04300 2.57700 33.27800
H  9.22600 4.61000 34.13200
H  10.70800 5.37900 33.49600
H  4.92600 6.89000 27.81300
H  4.89800 5.97100 29.23400
H  3.69300 5.68600 28.04800
H  4.67800 7.24500 25.76800
H  3.59700 5.83700 25.60100
H  4.14000 6.90400 24.17600
H  9.55100 2.16700 23.03900
H  9.04300 -0.51600 23.40400
H  7.62100 2.02700 21.54900
H  6.72500 0.82600 22.50200
H  7.98300 0.36300 21.36100
H  11.90200 -0.18100 23.57200
H  11.37600 1.18300 22.60800
H  11.17700 -0.11600 20.76400
H  10.29100 -1.40900 21.53200
H  11.98700 -1.34200 21.84700
H  13.61100 -2.32700 28.63500
H  13.40600 -1.82700 26.97400
H  12.35700 -3.11300 27.59000
H  12.02500 1.01200 32.00600
H  10.02000 -1.47200 35.05600
H  9.47400 0.26200 35.13600
H  10.88000 -0.26400 36.03000
Mg -10.02600 40.48400 40.95000
C  -9.32800 37.09300 40.06100
C  -7.03900 41.27800 39.66200
C  -11.16200 43.57500 41.07900
C  -13.24200 39.36800 42.00400
N  -8.44700 39.31600 39.92200
C  -8.28300 37.97100 39.72100
C  -6.88800 37.52900 39.27800
C  -6.07900 38.88400 39.35200
C  -7.25400 39.90900 39.63300
C  -4.99300 39.08500 40.47500
C  -6.92300 36.83900 37.85600
C  -5.86000 35.76300 37.65000
H  -4.83900 35.92000 36.54100
N  -9.15100 42.20500 40.51700
C  -7.92000 42.38500 39.90800
C  -7.77000 43.77900 39.60400
C  -8.92300 44.49000 40.04900
C  -9.80500 43.43900 40.62300
C  -6.50100 44.31700 38.87900
C  -9.09800 46.03600 39.97400
O  -8.18000 46.79400 39.49800
C  -10.27900 46.60900 40.66800
N  -11.93100 41.32200 41.62200
C  -12.10300 42.68500 41.59800
C  -13.53700 43.10500 41.85300
C  -14.15000 41.73600 42.35100
C  -13.04300 40.73300 41.96500
C  -13.80800 44.36000 42.73900
C  -15.50900 41.35600 41.57300
C  -16.49900 40.49900 42.45700
N  -11.10600 38.60400 40.99700
C  -12.39200 38.36200 41.50300
C  -12.67100 36.85500 41.48000
C  -11.47500 36.33600 40.91800
C  -10.62100 37.42800 40.57200
C  -13.85400 36.05100 41.83600
C  -10.74400 35.09400 40.60200
O  -10.95500 33.89200 40.79800
C  -9.44500 35.57400 39.90200
C  -8.39500 34.82400 40.62900
O  -8.08500 34.90000 41.78700
O  -7.95200 33.95000 39.68100
C  -7.06500 32.96700 40.23800
H  -6.06200 41.63700 39.33000
H  -11.62300 44.55500 40.94300
H  -14.21000 38.92400 42.24900
H  -6.47000 36.84300 40.01500
H  -5.57900 39.16400 38.42500
H  -5.38900 39.80800 41.18800
H  -4.00500 39.31600 40.07800
H  -4.80200 38.16200 41.02300
H  -6.84400 37.68300 37.17000
H  -7.84400 36.38600 37.48800
H  -6.38200 34.82000 37.48500
H  -5.29500 35.70900 38.58000
H  -5.94100 44.92000 39.59300
H  -6.83300 44.93300 38.04300
H  -5.84800 43.51200 38.54100
H  -10.38500 46.11400 41.63300
H  -11.17900 46.59400 40.05400
H  -10.02400 47.64900 40.87300
H  -13.88000 43.36100 40.85100
H  -14.18000 41.68900 43.44000
H  -12.85400 44.70200 43.14200
H  -14.46300 44.06200 43.55700
H  -14.16000 45.27000 42.25200
H  -15.33000 40.78100 40.66400
H  -16.02700 42.29400 41.37100
H  -17.43100 41.02600 42.66200
H  -16.06900 40.40400 43.45400
H  -16.64900 39.46800 42.13600
H  -13.59400 35.00000 41.71100
H  -14.58000 36.37000 41.08800
H  -14.40400 36.18800 42.76700
H  -9.42900 35.34800 38.83600
H  -6.08200 33.41300 40.39000
H  -6.90800 32.22400 39.45700
H  -7.55500 32.35200 40.99300

