158

Mg 35.18000 2.95600 30.80200
C  32.85300 4.24100 33.30400
C  37.65000 3.36200 33.38000
C  37.52600 2.15200 28.46400
C  32.75100 3.08300 28.51900
N  35.28400 3.76700 33.07400
C  34.14600 3.97300 33.88100
C  34.54500 4.09700 35.38800
C  36.11500 4.12300 35.33800
C  36.38500 3.71700 33.87700
C  36.83100 5.47300 35.82200
C  33.87600 2.93300 36.22900
C  32.99700 3.38600 37.43200
H  33.36100 4.74300 38.05700
N  37.31900 2.76700 30.89700
C  38.08300 2.97400 31.99900
C  39.43200 2.55500 31.67800
C  39.49600 2.23700 30.27400
C  38.08400 2.36200 29.76100
C  40.53400 2.54300 32.71400
C  40.65200 1.69800 29.37400
O  40.63300 1.64700 28.13200
C  41.87700 1.20100 30.06200
N  35.18100 2.79900 28.77700
C  36.23700 2.41500 27.97300
C  35.77000 2.20600 26.52200
C  34.30800 2.57600 26.52300
C  34.01500 2.70100 28.09300
C  36.59400 2.96100 25.40700
C  33.52500 1.41800 25.76300
C  32.18500 1.88000 25.06400
N  33.11300 3.52600 30.87000
C  32.33700 3.59400 29.78600
C  31.03900 4.02000 30.24000
C  31.20000 4.27200 31.63400
C  32.56800 4.03000 31.93200
C  29.74500 4.20600 29.49100
C  30.52500 4.74200 32.78900
O  29.36600 5.07700 32.96100
C  31.56100 4.62700 33.94700
C  31.57500 5.92300 34.79200
O  32.24900 6.94200 34.54500
O  30.63000 5.83700 35.78800
C  30.39100 7.08700 36.60100
H  38.36500 3.20200 34.18900
H  38.21600 1.88400 27.66200
H  32.16100 3.32200 27.63200
H  34.18400 5.08200 35.68400
H  36.54900 3.45200 36.07900
H  37.20300 5.42400 36.84500
H  36.07700 6.25900 35.87100
H  37.52700 5.79000 35.04600
H  34.70700 2.31300 36.56500
H  33.36500 2.22000 35.58200
H  33.28100 2.67100 38.20400
H  31.93500 3.36500 37.18400
H  40.91600 1.52700 32.81300
H  40.17100 2.94200 33.66100
H  41.35700 3.19800 32.43000
H  42.67000 0.96300 29.35300
H  41.50100 0.39800 30.69500
H  42.36800 1.87500 30.76400
H  35.93900 1.14700 26.32600
H  34.19300 3.58300 26.12200
H  36.39100 4.02300 25.27100
H  36.49200 2.45500 24.44600
H  37.65500 2.84100 25.62600
H  33.36400 0.64500 26.51400
H  34.19000 1.13600 24.94700
H  32.14600 1.52400 24.03500
H  31.96400 2.94400 24.97200
H  31.47400 1.36400 25.70900
H  29.97400 3.88700 28.47400
H  29.54700 5.27800 29.50900
H  28.98100 3.64900 30.03200
H  31.39300 3.80400 34.64200
H  31.14500 7.30900 37.35700
H  29.41200 6.95700 37.06200
H  30.17000 7.96300 35.99100
Mg 35.10800 48.77000 25.53200
C  35.57700 46.89900 28.61500
C  33.87800 51.36000 27.66000
C  34.32300 50.43900 22.80500
C  36.11400 45.97100 23.76100
N  34.71700 49.05200 27.81400
C  35.06100 48.15500 28.83200
C  34.75500 48.70800 30.24500
C  34.02400 50.03700 29.83900
C  34.27900 50.16700 28.35200
C  32.53900 49.85700 30.05600
C  36.06500 49.04600 31.05100
C  35.92800 48.92400 32.58900
H  34.65400 48.92300 33.30500
N  34.22600 50.69700 25.25000
C  33.84800 51.60400 26.24300
C  33.57700 52.88300 25.52000
C  33.67700 52.64100 24.16500
C  34.12200 51.23900 23.99900
C  33.21600 54.06200 26.25600
C  33.50700 53.59700 23.01000
O  33.75500 53.28000 21.85100
C  33.02800 55.03200 23.10800
N  35.12500 48.20200 23.66400
C  34.80800 49.10400 22.65300
C  34.81500 48.46300 21.29200
C  35.30000 46.98200 21.61800
C  35.57900 47.03800 23.07500
C  33.38600 48.60000 20.61800
C  36.46400 46.42500 20.68800
C  36.47000 44.97700 20.45000
N  35.67600 46.77000 26.03900
C  36.12900 45.76900 25.19000
C  36.58300 44.66800 26.04100
C  36.37500 45.05300 27.35000
C  35.86800 46.33100 27.29100
C  36.96500 43.33700 25.39700
C  36.54800 44.62100 28.76400
O  37.01300 43.55100 29.20400
C  36.01700 45.87300 29.66000
C  35.04600 45.27800 30.59300
O  34.10200 44.59900 30.22200
O  35.26300 45.54100 31.96200
C  34.35600 45.02500 32.94700
H  33.58100 52.22300 28.26000
H  34.10400 50.97800 21.88000
H  36.63900 45.22300 23.16300
H  34.06300 48.01200 30.72100
H  34.30900 50.86500 30.48800
H  32.12600 49.48100 29.12000
H  32.03900 50.82000 30.16100
H  32.31900 49.26400 30.94400
H  36.19800 50.10200 30.81600
H  36.91600 48.42700 30.76500
H  36.62800 49.55500 33.13500
H  36.35200 47.94200 32.80000
H  32.13100 54.16400 26.24000
H  33.52600 54.92800 25.67200
H  33.43300 54.09300 27.32300
H  32.88000 55.45500 22.11400
H  33.82900 55.59100 23.59100
H  32.11900 55.07500 23.70800
H  35.54300 48.96000 20.65100
H  34.45200 46.29800 21.64600
H  33.14700 47.60900 20.23300
H  33.57200 49.30600 19.80800
H  32.65700 49.05100 21.29200
H  37.40000 46.53600 21.23500
H  36.53400 47.03500 19.78700
H  36.79000 44.78000 19.42700
H  35.46600 44.57100 20.56700
H  37.04200 44.44000 21.20700
H  37.88700 43.35500 24.81600
H  36.19300 43.12100 24.65700
H  36.87100 42.58500 26.18100
H  36.82800 46.28900 30.25700
H  34.67700 45.23600 33.96700
H  34.36700 43.93500 32.92000
H  33.31100 45.32900 32.88200

