158

Mg 25.84900 0.86500 30.45200
C  28.08900 0.66600 33.04300
C  23.36300 1.24100 32.76200
C  23.67400 0.73100 27.87700
C  28.39800 -0.38800 28.33500
N  25.78000 0.90700 32.72500
C  26.83100 1.02900 33.51500
C  26.43100 1.31900 34.90500
C  24.84400 1.36000 34.84600
C  24.60800 1.17700 33.37600
C  24.03600 0.25300 35.79000
C  27.10000 2.60100 35.40100
C  27.90000 2.65000 36.70100
H  27.42400 3.65100 37.78000
N  23.75400 1.13700 30.35600
C  22.94100 1.23000 31.41000
C  21.57700 1.19300 30.91600
C  21.62000 1.17200 29.47900
C  23.06000 0.95800 29.20200
C  20.40400 1.39100 31.80300
C  20.56900 1.19600 28.43200
O  20.82300 1.31700 27.20300
C  19.19300 1.28800 28.84100
N  26.04400 0.21500 28.44700
C  24.99100 0.42300 27.56100
C  25.49900 0.33100 26.09500
C  26.97700 -0.00800 26.24600
C  27.15000 -0.09200 27.75600
C  24.72500 -0.53400 25.02700
C  28.01200 0.95500 25.58300
C  29.26200 0.37900 24.98000
N  27.78900 0.21300 30.57700
C  28.72700 -0.19000 29.67500
C  30.00400 -0.43800 30.31400
C  29.81300 -0.11700 31.65400
C  28.47500 0.29200 31.73200
C  31.22800 -0.97000 29.65100
C  30.44200 0.00400 32.95100
O  31.55600 -0.19900 33.33300
C  29.33300 0.51800 33.91300
C  29.24100 -0.51700 35.02900
O  28.66000 -1.60600 34.95100
O  29.89500 -0.02400 36.13800
C  29.89100 -0.84900 37.34300
H  22.58000 1.44100 33.49600
H  23.05300 0.93800 27.00300
H  29.15600 -0.71600 27.62100
H  26.73600 0.45700 35.49800
H  24.45900 2.36000 35.04700
H  23.22000 -0.27300 35.29500
H  23.51700 0.71200 36.63200
H  24.79900 -0.47600 36.06100
H  26.33400 3.36000 35.55900
H  27.63200 2.99400 34.53400
H  28.96500 2.84200 36.56900
H  27.75700 1.69500 37.20700
H  20.64000 1.48400 32.86300
H  19.73200 0.55500 31.60800
H  19.96000 2.33400 31.48200
H  19.04300 2.12600 29.52100
H  19.08900 0.34400 29.37600
H  18.56900 1.29900 27.94700
H  25.50800 1.31400 25.62300
H  27.14900 -0.99600 25.82000
H  23.67600 -0.61300 25.31500
H  25.17000 -1.52700 24.96600
H  24.63400 -0.10400 24.02900
H  28.25300 1.68700 26.35400
H  27.58800 1.55500 24.77800
H  29.34600 -0.68500 25.20000
H  30.08700 0.96300 25.38600
H  29.20400 0.50700 23.89900
H  31.00000 -2.03600 29.67700
H  32.22100 -0.85000 30.08600
H  31.23400 -0.62000 28.61900
H  29.78200 1.42700 34.31300
H  28.85600 -0.90800 37.68000
H  30.49000 -0.32700 38.09000
H  30.14000 -1.89100 37.14100
Mg 16.83300 51.84700 26.45600
C  18.70400 50.68200 29.13200
C  14.51600 52.89500 28.94200
C  14.93200 52.83500 24.08100
C  19.13200 50.55300 24.23000
N  16.72100 51.94700 28.75500
C  17.58800 51.37100 29.60900
C  17.28700 51.71500 31.10300
C  15.75800 52.17000 31.01600
C  15.62500 52.31700 29.49600
C  14.68600 51.07900 31.47300
C  18.27200 52.80100 31.69900
C  18.65300 52.62000 33.24800
H  17.69800 51.77500 34.13200
N  15.05000 52.81900 26.45100
C  14.28900 53.23200 27.56400
C  13.11900 53.99600 26.99700
C  13.14600 53.90300 25.56600
C  14.40600 53.18100 25.29000
C  12.10000 54.61000 27.96400
C  12.09600 54.23600 24.54200
O  12.19200 53.91400 23.37000
C  10.89000 54.97300 25.01000
N  16.97000 51.67000 24.38400
C  16.11100 52.32300 23.58400
C  16.48000 52.10600 22.12100
C  17.94900 51.62500 22.24900
C  18.07700 51.36100 23.69700
C  15.63700 50.98300 21.43700
C  18.97500 52.64100 21.72500
C  20.25600 52.06300 21.13400
N  18.54800 50.87500 26.64300
C  19.38200 50.38900 25.64300
C  20.56100 49.82400 26.24400
C  20.25300 49.88500 27.61200
C  19.07700 50.57100 27.78200
C  21.79200 49.35900 25.56800
C  20.89800 49.51700 28.86100
O  21.98700 49.00900 29.09400
C  19.74800 50.05400 29.89200
C  19.20200 48.96900 30.77900
O  18.17100 48.31600 30.53400
O  19.90600 48.95400 32.01400
C  19.36100 48.02900 33.01700
H  13.76000 53.23300 29.65400
H  14.31000 53.26500 23.29300
H  19.95800 50.32100 23.55400
H  17.51800 50.83600 31.70500
H  15.46700 53.13600 31.42800
H  14.07300 51.48900 32.27600
H  15.12500 50.18300 31.91100
H  13.98500 50.90600 30.65700
H  17.83200 53.79400 31.60900
H  19.11800 52.95400 31.02900
H  18.50200 53.63600 33.61200
H  19.71100 52.37900 33.35000
H  11.73500 55.62000 27.77400
H  12.62900 54.70600 28.91200
H  11.25200 53.94800 28.14200
H  11.12700 55.89000 25.54900
H  10.36800 54.32400 25.71400
H  10.20800 55.18900 24.18700
H  16.43100 53.08700 21.64800
H  18.05600 50.62700 21.82500
H  15.18700 50.42500 22.25800
H  16.14900 50.31400 20.74600
H  14.83500 51.41300 20.83800
H  19.29400 53.27600 22.55200
H  18.35600 53.22800 21.04700
H  21.12400 52.32300 21.74000
H  20.39700 52.47500 20.13500
H  20.17500 50.97600 21.15200
H  22.05800 50.17500 24.89600
H  21.42400 48.64000 24.83600
H  22.63800 49.13500 26.21800
H  20.30200 50.72800 30.54600
H  18.30900 47.90000 32.76100
H  19.36000 48.32600 34.06600
H  19.84600 47.05900 32.90700

