158

Mg 53.65700 23.73000 44.51300
C  50.91900 25.72300 43.80900
C  51.99900 21.06400 43.04800
C  56.60800 22.04600 44.40700
C  55.42600 26.56800 45.41600
N  51.74800 23.55100 43.34100
C  50.76000 24.42700 43.38900
C  49.60900 23.91500 42.49200
C  49.75500 22.33700 42.61700
C  51.28800 22.28300 43.02000
C  48.66200 21.54200 43.52700
C  49.74000 24.36900 41.03000
C  48.45200 24.36800 40.14500
H  48.03000 22.95300 39.63100
N  54.18300 21.81600 43.82800
C  53.27100 20.82900 43.41800
C  53.89800 19.56700 43.42600
C  55.25900 19.81400 43.83200
C  55.44200 21.28400 44.02000
C  53.23200 18.26500 43.14600
C  56.32600 18.71300 43.87500
O  56.09900 17.55900 43.55800
C  57.69900 18.94900 44.28300
N  55.83900 24.29600 44.53300
C  56.77100 23.39000 44.67300
C  58.15400 23.99100 44.83400
C  57.82200 25.53000 45.15200
C  56.23300 25.49700 45.05000
C  58.98000 23.22300 45.91800
C  58.48700 26.58000 44.19800
C  59.65900 27.31300 44.81400
N  53.23100 25.70700 44.75500
C  54.04300 26.73900 45.17400
C  53.28700 27.93600 45.40900
C  52.02800 27.60900 44.87400
C  52.05900 26.23900 44.47000
C  53.79800 29.07900 46.14000
C  50.69800 28.12600 44.58800
O  50.18900 29.21700 44.81500
C  50.01100 26.88000 43.73900
C  49.55700 27.42100 42.47200
O  50.27800 27.88500 41.60700
O  48.23100 27.36400 42.44100
C  47.51000 28.06300 41.35700
H  51.51000 20.14400 42.72300
H  57.52600 21.48700 44.59800
H  55.97700 27.41900 45.82200
H  48.64400 24.27000 42.85400
H  49.70500 21.88000 41.62800
H  48.63600 21.88300 44.56200
H  49.01900 20.51300 43.56900
H  47.65600 21.35500 43.15300
H  50.40200 23.69700 40.48300
H  50.11800 25.37700 40.86100
H  48.75700 25.04400 39.34700
H  47.61100 24.77400 40.70700
H  53.70300 17.50900 43.77400
H  53.41500 17.97300 42.11200
H  52.17500 18.32800 43.40700
H  58.17200 19.37900 43.40100
H  58.11700 17.98000 44.55500
H  57.71800 19.53700 45.20100
H  58.53000 23.90300 43.81500
H  57.94900 25.81000 46.19800
H  59.48600 23.84800 46.65300
H  59.66900 22.54200 45.41600
H  58.25800 22.66300 46.51200
H  57.75900 27.38000 44.06600
H  58.91000 26.22300 43.25900
H  59.30800 28.31800 45.05000
H  60.57300 27.24100 44.22500
H  59.94900 26.88300 45.77300
H  54.86700 29.29600 46.13900
H  53.58400 29.03400 47.20800
H  53.26300 29.93500 45.72800
H  49.05600 26.72900 44.24100
H  47.95400 27.70500 40.42800
H  47.79500 29.11400 41.39300
H  46.42600 27.94900 41.33700
Mg -10.07200 17.05900 42.88900
C  -6.73700 17.94800 42.69600
C  -10.81200 20.41400 42.25400
C  -13.08200 16.14600 42.26800
C  -9.08400 13.68600 42.82600
N  -8.90900 18.90700 42.38100
C  -7.55100 19.02500 42.44400
C  -7.07900 20.46100 42.17800
C  -8.41500 21.21300 42.42600
C  -9.47500 20.15300 42.29900
C  -8.34700 21.96000 43.80100
C  -6.52200 20.60500 40.69500
C  -5.02000 20.83000 40.55600
H  -4.26800 19.85200 39.58200
N  -11.71800 18.15400 42.25000
C  -11.89900 19.52000 42.17800
C  -13.31700 19.79200 41.81700
C  -13.96700 18.50700 41.68000
C  -12.92300 17.53200 42.05300
C  -13.87100 21.24200 41.57000
C  -15.44500 18.38800 41.32600
O  -16.16800 19.36900 41.21700
C  -16.02200 16.97500 41.00200
N  -10.95700 15.17800 42.46300
C  -12.22600 15.09100 42.50200
C  -12.71700 13.76600 42.81700
C  -11.47900 12.89500 43.00900
C  -10.43000 13.95300 42.65000
C  -13.76200 13.79100 44.02200
C  -11.45200 11.58100 42.18100
C  -11.29900 10.26800 43.08800
N  -8.33600 16.01400 42.83200
C  -8.03000 14.63300 42.79600
C  -6.58400 14.38800 42.97000
C  -6.07900 15.64100 42.90400
C  -7.14800 16.60000 42.79300
C  -5.92000 13.00200 43.20500
C  -4.77500 16.38500 42.98200
O  -3.60400 15.86300 43.02800
C  -5.21500 17.91100 42.95400
C  -4.90700 18.49700 44.30000
O  -5.11500 18.00500 45.42400
O  -4.55500 19.79300 44.09900
C  -3.84700 20.39400 45.27100
H  -11.12900 21.44700 42.09600
H  -14.13100 15.84100 42.28200
H  -8.73800 12.67100 43.03400
H  -6.27700 20.86100 42.79800
H  -8.61900 22.04700 41.75500
H  -7.87800 22.93000 43.63800
H  -7.86700 21.36000 44.57500
H  -9.33100 22.16200 44.22400
H  -6.95800 21.46000 40.17700
H  -6.70600 19.66300 40.17800
H  -4.47300 20.88700 41.49700
H  -4.85000 21.83200 40.16200
H  -13.32100 22.00900 42.11500
H  -14.90400 21.30800 41.91100
H  -13.75900 21.53800 40.52700
H  -15.24500 16.39900 40.50000
H  -16.91900 17.25100 40.44600
H  -16.28600 16.56100 41.97500
H  -13.36500 13.40000 42.02000
H  -11.32600 12.71600 44.07300
H  -13.54500 14.57300 44.75000
H  -13.48400 12.85100 44.50000
H  -14.81700 13.92200 43.78200
H  -10.63600 11.50000 41.46300
H  -12.35000 11.54900 41.56400
H  -10.85600 10.55900 44.04000
H  -10.63000 9.54400 42.62300
H  -12.34200 9.95200 43.08400
H  -4.85300 13.05300 42.99200
H  -6.36700 12.30900 42.49200
H  -6.08700 12.62400 44.21300
H  -4.63900 18.45300 42.20500
H  -4.53500 20.53600 46.10500
H  -3.33300 21.33500 45.07700
H  -3.05900 19.71100 45.59000

