158

Mg 26.98500 51.02600 25.67900
C  25.34600 52.32500 28.43200
C  29.45100 49.78100 27.80100
C  28.77800 50.16400 23.07700
C  24.85700 52.85300 23.54200
N  27.40600 51.18600 27.85700
C  26.50200 51.60700 28.78700
C  26.91600 51.24700 30.25400
C  28.24000 50.53100 30.00200
C  28.41900 50.53100 28.46600
C  29.44900 51.21100 30.68700
C  25.82800 50.40400 31.07400
C  25.21800 51.23900 32.26900
H  25.29700 50.61700 33.67900
N  28.89700 50.22200 25.46900
C  29.67100 49.61800 26.42700
C  30.72700 48.85600 25.81200
C  30.46500 48.82600 24.40100
C  29.32400 49.85600 24.25300
C  31.92200 48.31100 26.60500
C  31.10300 48.06600 23.26000
O  30.68900 48.05800 22.13800
C  32.28400 47.12400 23.59300
N  26.85500 51.45400 23.62100
C  27.66500 50.90300 22.74500
C  27.27700 51.05800 21.23700
C  26.06300 52.05000 21.43800
C  25.79800 52.07200 22.93900
C  28.42000 51.76800 20.46600
C  24.79900 51.63700 20.64900
C  24.54800 52.50900 19.35400
N  25.32800 52.23600 25.88300
C  24.58200 52.93900 24.97700
C  23.54700 53.65000 25.70100
C  23.78400 53.39200 27.02600
C  24.94900 52.57100 27.09200
C  22.42500 54.37800 25.09300
C  23.25900 53.58100 28.32900
O  22.33100 54.30600 28.63800
C  24.24200 52.93500 29.36000
C  24.85400 54.02000 30.25700
O  26.02300 54.44700 30.07600
O  24.12000 54.27100 31.40500
C  24.83800 55.15100 32.41300
H  30.11000 49.20700 28.45600
H  29.30600 49.83800 22.17900
H  24.21900 53.54400 22.98800
H  27.12800 52.17300 30.78900
H  28.17800 49.49900 30.34600
H  29.71400 52.17100 30.24400
H  30.29900 50.54300 30.54500
H  29.18300 51.38500 31.72900
H  26.30900 49.56100 31.56900
H  24.96000 49.97100 30.57600
H  24.16000 51.34600 32.02800
H  25.74100 52.19100 32.35400
H  32.26100 48.97400 27.40100
H  32.76300 48.50700 25.94100
H  31.82800 47.24200 26.79300
H  31.92400 46.47700 24.39300
H  33.13400 47.79500 23.71600
H  32.50800 46.46100 22.75800
H  27.02300 50.04500 20.92700
H  26.38500 53.07000 21.22700
H  28.10500 52.74300 20.09200
H  28.47500 51.16400 19.56000
H  29.37000 51.87300 20.98900
H  23.94100 51.53800 21.31400
H  25.10200 50.65000 20.30000
H  24.44800 51.91700 18.44500
H  25.28500 53.28200 19.13500
H  23.60700 53.05600 19.41300
H  21.85600 53.70000 24.45700
H  22.82900 55.11100 24.39500
H  21.81200 54.81600 25.88100
H  23.69100 52.13800 29.86000
H  24.72800 56.20300 32.14900
H  25.90100 54.91000 32.41200
H  24.49800 55.06300 33.44400
Mg -1.30300 34.26600 27.24200
C  -3.02200 32.56400 29.89600
C  -0.02100 36.38700 29.75900
C  0.16400 35.95800 24.90700
C  -3.03700 32.28100 24.92200
N  -1.58500 34.41200 29.69300
C  -2.31500 33.65100 30.50100
C  -2.00600 34.05500 31.89900
C  -1.12900 35.41300 31.82600
C  -0.89600 35.42600 30.30400
C  -1.83700 36.65100 32.38500
C  -1.31800 32.92700 32.74300
C  -1.97100 32.60000 34.08200
H  -0.93400 32.49300 35.22800
N  -0.17000 35.96500 27.28700
C  0.39500 36.59400 28.40900
C  1.36800 37.59300 27.95800
C  1.42800 37.52000 26.56400
C  0.37100 36.51500 26.17500
C  2.17200 38.53900 28.89600
C  2.28900 38.32200 25.57300
O  2.33300 38.13600 24.33300
C  3.13100 39.42500 26.05500
N  -1.46700 34.24900 25.22600
C  -0.75000 35.08700 24.41100
C  -0.93900 34.65700 22.92200
C  -1.95700 33.46000 22.93600
C  -2.11400 33.30800 24.49600
C  -1.27200 35.85400 21.91200
C  -1.56600 32.26700 22.14900
C  -0.86100 31.08600 22.88600
N  -2.64900 32.68600 27.32100
C  -3.33100 32.08300 26.27700
C  -4.15700 31.03000 26.86000
C  -3.98500 31.13800 28.25100
C  -3.09300 32.17200 28.49000
C  -5.09900 30.10800 26.07500
C  -4.41200 30.54800 29.50200
O  -5.12300 29.58300 29.71400
C  -3.92000 31.50300 30.62900
C  -5.09800 32.21100 31.30400
O  -5.84600 33.07300 30.82300
O  -5.28200 31.64600 32.52500
C  -6.38300 32.22200 33.29600
H  0.36200 37.05300 30.53500
H  0.70100 36.46400 24.10300
H  -3.50600 31.55500 24.25500
H  -2.94200 34.43900 32.30600
H  -0.21800 35.26100 32.40500
H  -2.71300 36.48400 33.01200
H  -1.96500 37.40200 31.60500
H  -1.04900 37.07900 33.00600
H  -0.24000 33.03200 32.86600
H  -1.53200 31.99400 32.22200
H  -2.26600 31.55100 34.10100
H  -2.78100 33.22900 34.45300
H  2.08500 39.57500 28.56900
H  3.21900 38.23900 28.94700
H  1.90100 38.43500 29.94600
H  3.69800 39.80000 25.20300
H  3.73200 38.97000 26.84300
H  2.52000 40.22300 26.47800
H  0.10200 34.38500 22.74800
H  -2.97800 33.75700 22.69800
H  -0.49200 36.11900 21.19800
H  -1.33000 36.76900 22.50100
H  -2.21800 35.76700 21.37700
H  -0.88300 32.40600 21.31100
H  -2.54500 31.91500 21.82600
H  -1.68100 30.36900 22.93300
H  -0.63400 31.47400 23.87800
H  -0.11200 30.55100 22.30200
H  -5.26700 30.59800 25.11600
H  -6.11500 30.10700 26.47000
H  -4.81300 29.06300 25.95500
H  -3.36100 30.95400 31.38700
H  -7.11100 32.79200 32.72000
H  -5.92100 32.91100 34.00300
H  -6.89800 31.47100 33.89600

