158

Mg 16.53300 -2.77300 28.00600
C  15.35100 -0.75000 30.80100
C  18.74100 -4.26400 30.40000
C  17.76100 -4.52200 25.58700
C  14.41500 -0.92500 25.94100
N  16.95700 -2.54500 30.37800
C  16.29100 -1.66200 31.24600
C  16.72700 -2.02600 32.72200
C  17.85800 -3.04300 32.60200
C  17.87800 -3.32000 31.08400
C  19.24900 -2.75900 33.19400
C  15.56100 -2.52200 33.59100
C  15.31000 -1.77000 34.87100
H  16.47000 -1.17200 35.77600
N  18.04600 -4.19700 28.00700
C  18.78500 -4.64900 29.03200
C  19.65800 -5.72100 28.59400
C  19.30700 -5.95700 27.23300
C  18.37700 -4.81300 26.83700
C  20.83400 -6.38700 29.39400
C  19.88900 -7.03600 26.32500
O  19.70200 -6.99000 25.07700
C  20.50600 -8.27400 26.93200
N  16.13500 -2.70100 26.04300
C  16.71600 -3.63800 25.24800
C  16.33600 -3.38800 23.75200
C  14.98700 -2.48500 23.99200
C  15.23900 -1.91900 25.37000
C  17.39100 -2.69200 23.01300
C  13.59500 -3.20100 23.87700
C  12.36200 -2.54200 23.22200
N  15.16200 -1.18200 28.24500
C  14.32500 -0.49700 27.29900
C  13.53000 0.44300 27.94800
C  13.92200 0.35400 29.33300
C  14.93300 -0.56300 29.44800
C  12.49700 1.38800 27.38200
C  13.64800 0.95700 30.59400
O  13.00200 1.90100 31.00000
C  14.61300 0.25800 31.64100
C  15.50400 1.22800 32.28100
O  16.60800 1.56400 31.90800
O  14.91300 1.86500 33.42400
C  15.55300 3.00000 34.07100
H  19.44900 -4.79500 31.03900
H  18.11400 -5.08200 24.71900
H  13.55000 -0.53800 25.39900
H  17.14400 -1.08000 33.06600
H  17.57200 -4.05500 32.88800
H  19.34400 -1.73600 33.55600
H  19.93600 -2.92100 32.36300
H  19.53900 -3.52400 33.91500
H  15.55200 -3.58700 33.82200
H  14.67000 -2.50600 32.96300
H  14.64300 -2.44400 35.40800
H  14.78100 -0.84800 34.63100
H  21.13700 -5.68000 30.16600
H  21.75400 -6.57900 28.84100
H  20.49300 -7.25100 29.96300
H  20.13400 -8.54900 27.91900
H  21.56600 -8.08600 27.10200
H  20.46700 -9.18000 26.32700
H  16.21200 -4.29700 23.16400
H  14.95300 -1.69200 23.24600
H  18.01500 -3.42500 22.50200
H  18.05300 -2.19100 23.72000
H  17.09200 -1.86900 22.36400
H  13.19300 -3.46200 24.85600
H  13.82500 -4.17000 23.43400
H  11.73300 -3.24700 22.67800
H  12.65500 -1.79100 22.48900
H  11.82800 -2.00800 24.00900
H  12.94300 2.36900 27.21300
H  11.57900 1.55100 27.94600
H  12.07300 1.04800 26.43700
H  14.03600 -0.35200 32.33700
H  16.43600 3.39300 33.56700
H  15.84100 2.75600 35.09300
H  14.82700 3.81300 34.09300
Mg -0.90800 34.42300 26.97000
C  -2.87200 32.70500 29.13400
C  0.11200 36.58500 29.47200
C  0.69700 36.24000 24.62900
C  -2.15400 32.44900 24.23000
N  -1.33000 34.58400 29.11200
C  -2.23400 33.75500 29.81700
C  -2.07500 34.05000 31.36300
C  -1.30500 35.41900 31.39700
C  -0.80200 35.57900 29.93000
C  -1.93500 36.68700 32.07900
C  -1.34900 32.90900 32.17100
C  -2.02400 32.16300 33.32300
H  -1.21800 32.17000 34.67400
N  0.28800 36.16300 27.03900
C  0.67000 36.81800 28.13900
C  1.66600 37.83100 27.77900
C  1.91100 37.68900 26.34700
C  0.92800 36.59300 25.96400
C  2.35300 38.73300 28.79200
C  2.87100 38.41100 25.40200
O  2.94300 38.22000 24.21500
C  3.65300 39.53700 26.04200
N  -0.69600 34.27600 24.81500
C  -0.00600 35.19500 24.09600
C  -0.38200 35.19000 22.62200
C  -1.02000 33.80100 22.52900
C  -1.34600 33.47600 23.93000
C  -1.28900 36.39000 22.16900
C  -0.12500 32.67900 21.85500
C  0.81700 31.86600 22.79000
N  -2.16800 32.84300 26.70600
C  -2.52000 32.09400 25.54200
C  -3.27100 30.99900 25.98400
C  -3.55500 31.27000 27.35700
C  -2.81700 32.35000 27.75500
C  -3.92100 29.94100 25.00900
C  -4.35400 30.77900 28.52400
O  -5.15900 29.85300 28.62700
C  -3.82000 31.67100 29.67500
C  -5.03600 32.26200 30.31700
O  -5.75900 33.10400 29.81000
O  -5.20600 31.76400 31.55000
C  -6.19500 32.37600 32.38700
H  0.35600 37.34300 30.22000
H  1.04400 36.88900 23.82200
H  -2.53700 31.85100 23.40000
H  -3.12000 34.26300 31.58900
H  -0.40000 35.13400 31.93400
H  -2.36200 37.40700 31.38100
H  -1.16700 37.17100 32.68300
H  -2.75700 36.38500 32.72800
H  -0.39100 33.28800 32.52800
H  -1.08500 32.21600 31.37200
H  -2.23400 31.10500 33.16800
H  -3.01900 32.56200 33.51900
H  3.39500 38.41900 28.86000
H  2.05000 38.64500 29.83600
H  2.12700 39.79500 28.70700
H  4.29600 39.13500 26.82400
H  2.93500 40.24400 26.45900
H  4.29100 40.09700 25.35800
H  0.54200 35.14800 22.04500
H  -1.92500 33.81100 21.92200
H  -1.53400 37.16200 22.89900
H  -2.24800 35.99800 21.83100
H  -0.73100 36.80200 21.32800
H  0.46000 33.13700 21.05700
H  -0.69200 31.92600 21.30900
H  0.92600 32.13000 23.84200
H  1.82500 31.86900 22.37500
H  0.54700 30.81300 22.85900
H  -4.41000 29.13800 25.56100
H  -3.18500 29.62400 24.27100
H  -4.67200 30.51400 24.46500
H  -3.28700 31.06600 30.40800
H  -6.90300 33.10900 32.00100
H  -5.62900 32.87200 33.17600
H  -6.80700 31.61400 32.87000

