158

Mg 2.56600 -3.25500 45.51300
C  5.93000 -2.25600 44.86900
C  1.60000 -0.90200 43.41400
C  -0.42800 -4.76100 45.58500
C  3.98000 -6.10900 47.13700
N  3.67700 -1.93700 44.05400
C  5.00500 -1.56600 44.04200
C  5.25100 -0.45800 42.98800
C  3.83400 0.10600 42.74300
C  2.94500 -0.98100 43.44300
C  3.63800 1.48400 43.51800
C  6.02700 -0.96900 41.75500
C  7.32800 -0.30900 41.34000
H  7.58300 0.06100 39.85400
N  0.83100 -2.84800 44.65900
C  0.59700 -1.72700 43.91500
C  -0.85200 -1.72100 43.59200
C  -1.49000 -2.88100 44.09300
C  -0.31900 -3.57000 44.79500
C  -1.46900 -0.63700 42.79400
C  -2.99000 -3.33100 44.02100
O  -3.84800 -2.64700 43.44200
C  -3.41000 -4.71700 44.48800
N  1.74600 -5.19000 46.37900
C  0.53600 -5.50100 46.30700
C  0.33700 -6.91100 46.93400
C  1.75900 -7.24900 47.44300
C  2.55800 -6.11900 46.94700
C  -0.74800 -6.98500 48.09200
C  2.13900 -8.67900 46.94900
C  2.15400 -9.75300 48.02800
N  4.51700 -3.99600 46.00300
C  4.94600 -5.06400 46.77600
C  6.35200 -4.99500 46.95300
C  6.75100 -3.82700 46.19200
C  5.64800 -3.36000 45.61700
C  7.15400 -5.89200 47.83400
C  7.93600 -3.05100 45.90900
O  9.07600 -3.18100 46.32700
C  7.43300 -1.92500 45.01200
C  7.53900 -0.66100 45.81000
O  6.82100 -0.45100 46.78600
O  8.29800 0.26000 45.15500
C  8.32400 1.63600 45.69900
H  1.22000 -0.07500 42.81000
H  -1.39900 -5.23900 45.72900
H  4.40000 -7.02400 47.56000
H  5.82800 0.35500 43.42900
H  3.60200 0.04800 41.68000
H  4.35200 1.57800 44.33600
H  2.65200 1.73200 43.91000
H  4.03200 2.34400 42.97600
H  5.44300 -0.98100 40.83500
H  6.19900 -1.99600 42.07600
H  8.16500 -0.92900 41.65800
H  7.46900 0.63400 41.86800
H  -1.96800 0.13100 43.38500
H  -2.18400 -1.02300 42.06700
H  -0.73400 -0.16100 42.14500
H  -2.78500 -5.39000 43.90200
H  -4.43200 -4.90400 44.15900
H  -3.40800 -4.73800 45.57800
H  -0.09500 -7.58500 46.19400
H  1.77900 -7.19800 48.53100
H  -1.42600 -6.13800 47.99000
H  -0.38100 -7.01500 49.11800
H  -1.38700 -7.85800 47.96200
H  3.11700 -8.66000 46.46800
H  1.55500 -9.00100 46.08600
H  2.98500 -10.43000 47.82800
H  1.24900 -10.35600 47.96600
H  2.27700 -9.30600 49.01400
H  6.55200 -6.01700 48.73400
H  8.15500 -5.52100 48.05200
H  7.13900 -6.87600 47.36600
H  7.98000 -1.90400 44.07000
H  8.34100 2.32600 44.85600
H  9.14800 1.90200 46.36100
H  7.40800 1.91800 46.22000
Mg 43.17700 42.46300 25.75700
C  42.39400 44.85500 28.26600
C  44.46500 40.49600 28.24900
C  44.35600 40.39300 23.48800
C  42.21400 44.81100 23.37000
N  43.48000 42.76500 27.94700
C  42.94200 43.72700 28.80600
C  43.19000 43.43900 30.36800
C  44.11400 42.10100 30.27900
C  44.03500 41.76500 28.67500
C  45.50700 42.35100 30.90100
C  41.86800 43.39900 31.16600
C  41.49200 42.32900 32.26100
H  40.86000 42.89300 33.46400
N  44.09500 40.59800 25.83800
C  44.47600 39.93800 27.00500
C  44.86800 38.56900 26.63200
C  44.70600 38.53900 25.20900
C  44.42800 39.85900 24.80500
C  45.30800 37.50400 27.67300
C  44.95400 37.38100 24.22800
O  44.86000 37.46100 22.99900
C  45.18100 36.05000 24.80900
N  43.27700 42.59500 23.74800
C  43.84400 41.57300 23.00700
C  43.76100 41.91000 21.51400
C  42.73000 43.11900 21.49500
C  42.75100 43.56200 22.95000
C  45.09600 42.31500 20.88000
C  41.34000 42.74100 20.91800
C  40.36400 42.08200 21.89200
N  42.48400 44.42600 25.78300
C  42.14500 45.26500 24.74100
C  41.69700 46.52400 25.29400
C  41.78500 46.39800 26.65800
C  42.23600 45.08800 26.88600
C  41.25700 47.68700 24.47300
C  41.54300 47.10000 27.87000
O  41.31800 48.26300 28.10400
C  41.84700 46.12600 28.95100
C  42.88200 46.67800 29.90400
O  44.10800 46.59100 29.69300
O  42.38000 47.16600 31.08900
C  43.36400 47.33000 32.15400
H  44.89500 39.90000 29.05600
H  44.74300 39.72900 22.71200
H  41.91000 45.58400 22.66100
H  43.80200 44.24500 30.77300
H  43.73300 41.21600 30.78800
H  45.71800 43.40900 31.05700
H  46.23500 41.82300 30.28600
H  45.72600 41.89600 31.86700
H  41.00800 43.38300 30.49700
H  41.79200 44.42100 31.53600
H  42.37300 41.74400 32.52600
H  40.85800 41.55700 31.82500
H  45.26800 37.89500 28.69000
H  46.31500 37.17700 27.41500
H  44.66000 36.64700 27.86000
H  45.55400 35.37700 24.03800
H  44.28800 35.69500 25.32500
H  46.04800 36.17600 25.45800
H  43.42100 40.98800 21.04200
H  43.11600 43.99600 20.97500
H  45.73600 42.58700 21.71900
H  44.88800 43.25400 20.36600
H  45.52500 41.51700 20.27300
H  41.54700 42.13000 20.04000
H  41.02100 43.73300 20.60100
H  40.22000 41.10400 21.43200
H  39.42200 42.62800 21.84600
H  40.60100 42.05600 22.95600
H  40.16900 47.67400 24.40800
H  41.60900 47.51500 23.45600
H  41.66300 48.65800 24.75900
H  40.87300 46.03300 29.43000
H  44.04300 46.47800 32.18100
H  42.82800 47.43700 33.09700
H  43.79000 48.33100 32.08300

