158

Mg -2.12500 18.09600 26.79900
C  -2.36400 15.86100 29.57100
C  -2.38800 20.73200 28.73900
C  -2.62200 19.89800 24.04100
C  -2.24400 15.04300 24.73800
N  -2.45600 18.17800 28.88300
C  -2.40900 17.23300 29.88100
C  -2.65600 17.93100 31.28300
C  -2.69300 19.43100 30.98600
C  -2.51300 19.47000 29.42100
C  -4.02700 20.05500 31.46700
C  -1.77900 17.50300 32.43800
C  -1.42100 18.52000 33.63600
H  -1.44700 17.85900 35.06700
N  -2.44400 20.10600 26.45900
C  -2.45100 21.03800 27.38000
C  -2.61600 22.37100 26.76300
C  -2.64500 22.20700 25.33300
C  -2.60400 20.66900 25.19400
C  -2.65000 23.63800 27.52900
C  -2.65400 23.12100 24.16500
O  -2.72800 22.75100 22.99500
C  -2.64500 24.67000 24.39700
N  -2.49800 17.51200 24.76300
C  -2.46200 18.55700 23.79500
C  -2.39100 18.05800 22.35000
C  -2.12700 16.49400 22.59200
C  -2.32700 16.30000 24.09400
C  -3.74300 18.37300 21.54700
C  -0.85200 15.90000 21.92300
C  0.57900 16.31200 22.45400
N  -2.13900 15.93300 27.02100
C  -2.21800 14.87100 26.14700
C  -2.23200 13.60500 26.82800
C  -2.35100 14.00500 28.17100
C  -2.26500 15.38900 28.21600
C  -2.33600 12.26600 26.19000
C  -2.47700 13.44900 29.50100
O  -2.54700 12.25600 29.89000
C  -2.41800 14.65900 30.51100
C  -1.18000 14.41500 31.38000
O  -0.05000 14.61100 31.00000
O  -1.50700 14.10400 32.69600
C  -0.34700 13.99400 33.67800
H  -2.43600 21.54800 29.46300
H  -2.75800 20.48200 23.12900
H  -2.17900 14.17400 24.07900
H  -3.63000 17.56300 31.60500
H  -1.96800 20.11800 31.42300
H  -4.47500 20.63500 30.66100
H  -3.77900 20.86500 32.15400
H  -4.73500 19.42500 32.00500
H  -0.87000 17.00000 32.10600
H  -2.19900 16.63700 32.95000
H  -2.23500 19.24500 33.66600
H  -0.54100 19.11600 33.39600
H  -3.50400 24.29600 27.37100
H  -1.76100 24.23200 27.31700
H  -2.43900 23.50900 28.59100
H  -2.91000 24.93800 25.42000
H  -3.20600 25.17600 23.61100
H  -1.60100 24.97400 24.31300
H  -1.52400 18.45400 21.82200
H  -2.92600 15.89700 22.15200
H  -3.49100 18.99100 20.68500
H  -4.47900 18.85500 22.19100
H  -4.14800 17.42100 21.20300
H  -0.94600 15.99800 20.84100
H  -0.96200 14.84100 22.15600
H  0.81200 15.65200 23.29000
H  0.48100 17.33600 22.81700
H  1.35600 16.30800 21.69000
H  -1.82300 12.40800 25.23900
H  -3.38400 12.03600 25.99900
H  -1.82800 11.55800 26.84500
H  -3.31300 14.78300 31.12200
H  -0.22900 13.06800 34.24000
H  -0.19900 14.83300 34.35800
H  0.60500 14.02900 33.14800
Mg 27.05500 50.26400 27.01200
C  25.16500 51.65600 29.59100
C  29.53900 49.83700 29.17800
C  28.79200 49.14400 24.41200
C  24.56400 51.41900 24.73900
N  27.27400 50.74300 29.13800
C  26.38800 51.07000 30.04200
C  26.90400 50.98700 31.45700
C  28.40900 50.91300 31.30700
C  28.46900 50.46800 29.74200
C  29.02000 52.25800 31.46400
C  26.39200 49.71000 32.19400
C  25.13300 49.90200 33.03100
H  25.25600 49.88000 34.55500
N  28.90500 49.50000 26.83300
C  29.73200 49.27700 27.88900
C  30.88600 48.49700 27.42600
C  30.76600 48.42400 26.01800
C  29.44200 49.04400 25.64300
C  31.97300 48.09000 28.30900
C  31.77800 47.92600 25.05900
O  31.59900 47.89700 23.85400
C  33.13000 47.51400 25.48200
N  26.80900 50.58100 24.79400
C  27.62000 49.77500 24.02800
C  27.04700 49.53700 22.68100
C  25.68000 50.19700 22.80300
C  25.69400 50.86600 24.15200
C  28.06000 50.11100 21.55700
C  24.45000 49.25900 22.70900
C  23.46400 49.62300 21.60200
N  25.23600 51.36200 27.11800
C  24.28500 51.69900 26.09900
C  23.16300 52.38400 26.70800
C  23.48400 52.42700 28.01900
C  24.70800 51.71400 28.22300
C  21.98600 52.95600 26.00300
C  22.96500 52.81500 29.31400
O  21.91100 53.35400 29.59200
C  24.02400 52.28000 30.45100
C  24.49600 53.50900 31.21700
O  25.43400 54.25400 30.86500
O  23.63600 53.68100 32.27100
C  23.88300 54.92100 33.11900
H  30.39200 49.71900 29.85000
H  29.21200 48.48400 23.65000
H  23.76300 51.57700 24.01400
H  26.62800 51.88300 32.01300
H  28.80900 50.18600 32.01500
H  28.38800 53.00800 30.98800
H  29.95900 52.43700 30.93900
H  29.09300 52.44300 32.53500
H  27.08200 49.21800 32.88000
H  26.21500 48.96300 31.42000
H  24.44700 49.13100 32.68100
H  24.76200 50.87800 32.71500
H  31.65900 48.13400 29.35200
H  32.93000 48.60000 28.20000
H  32.21300 47.04700 28.10200
H  33.74400 48.36700 25.77100
H  33.66300 47.08400 24.63400
H  32.88300 46.76400 26.23300
H  26.86700 48.46400 22.61600
H  25.58800 50.93200 22.00300
H  28.93300 50.37200 22.15600
H  27.80900 50.99400 20.97000
H  28.26100 49.35100 20.80200
H  23.82700 49.04100 23.57600
H  24.90400 48.30900 22.42600
H  23.48300 50.70900 21.50800
H  22.43200 49.34700 21.81700
H  23.67100 49.13200 20.65200
H  22.13000 54.02600 25.85300
H  21.04500 52.76100 26.51600
H  21.93900 52.45400 25.03600
H  23.48100 51.55800 31.06200
H  24.78700 54.74400 33.70100
H  23.01800 55.02200 33.77400
H  23.81200 55.86700 32.58300

