158

Mg 24.43300 -5.37400 46.06000
C  26.42100 -2.83700 44.61000
C  21.92800 -4.31500 43.99900
C  22.94800 -8.22700 46.65500
C  27.34000 -6.37500 47.75300
N  24.37400 -3.77900 44.51300
C  25.20000 -2.79800 44.08700
C  24.51800 -1.90200 43.03900
C  23.02900 -2.14900 43.43100
C  23.09200 -3.51200 43.97800
C  22.33500 -1.19200 44.42000
C  24.80700 -2.36600 41.54800
C  25.51700 -1.40600 40.66500
H  26.27900 -2.06400 39.45400
N  22.74400 -6.18800 45.44300
C  21.80400 -5.55700 44.63900
C  20.60800 -6.39800 44.61700
C  20.83300 -7.60300 45.37000
C  22.20900 -7.39300 45.87600
C  19.40800 -6.15000 43.67800
C  19.86500 -8.75100 45.46300
O  18.75800 -8.78800 44.90800
C  20.34200 -10.05900 46.11500
N  25.07100 -7.08600 47.15100
C  24.23700 -8.15600 47.15900
C  24.99300 -9.39100 47.66800
C  26.34300 -8.75400 48.24600
C  26.25300 -7.30700 47.73900
C  24.17500 -10.32800 48.68400
C  27.55300 -9.60100 47.96100
C  28.45400 -9.94100 49.21400
N  26.45100 -4.69400 46.35100
C  27.46100 -5.16300 47.10600
C  28.66000 -4.30200 46.91700
C  28.24400 -3.38300 45.96300
C  26.88900 -3.64900 45.60200
C  30.02700 -4.40800 47.68600
C  28.71400 -2.31600 45.16600
O  29.81500 -1.88700 45.06200
C  27.57900 -1.92400 44.24500
C  27.31600 -0.50700 44.33200
O  27.76600 0.27100 43.55200
O  26.59100 -0.21000 45.46200
C  26.47000 1.18900 45.79300
H  21.06800 -4.06600 43.37500
H  22.51200 -9.22700 46.70400
H  28.22600 -6.55500 48.36700
H  24.84700 -0.89700 43.30200
H  22.42200 -2.12200 42.52600
H  22.28300 -1.59000 45.43300
H  21.35900 -1.00300 43.97200
H  22.92100 -0.27900 44.52500
H  23.83400 -2.58200 41.10800
H  25.27200 -3.34800 41.62900
H  26.29400 -0.93200 41.26500
H  24.70800 -0.83000 40.21600
H  19.52900 -6.76200 42.78400
H  19.30800 -5.09800 43.41100
H  18.48200 -6.35800 44.21400
H  21.11100 -10.37200 45.41000
H  19.52600 -10.78000 46.05500
H  20.67300 -9.92100 47.14400
H  25.10400 -10.06400 46.81700
H  26.30200 -8.52900 49.31200
H  23.24700 -10.47500 48.13100
H  23.88900 -9.91100 49.64900
H  24.83300 -11.19700 48.71200
H  28.17500 -9.00400 47.29400
H  27.34000 -10.50700 47.39400
H  29.50900 -10.12900 49.01800
H  28.09000 -10.73800 49.86200
H  28.40300 -8.97200 49.71000
H  30.18000 -5.47000 47.88000
H  29.92300 -3.85800 48.62100
H  30.88900 -3.96300 47.18900
H  27.88000 -2.12200 43.21600
H  26.19400 1.31000 46.84100
H  25.64000 1.65900 45.26600
H  27.38600 1.75900 45.63500
Mg -12.84000 37.94800 41.50700
C  -10.41000 35.48800 40.81700
C  -10.62700 40.41700 40.40100
C  -15.21200 40.27500 42.00200
C  -15.03200 35.38500 42.39500
N  -10.81600 38.00700 40.53700
C  -10.01900 36.86200 40.47000
C  -8.60800 37.22100 39.95900
C  -8.69600 38.78500 39.76400
C  -10.14600 39.11700 40.17700
C  -7.61800 39.53000 40.68000
C  -8.35400 36.46700 38.58800
C  -6.95200 35.91700 38.35500
H  -6.06000 36.48700 37.25100
N  -12.87700 40.09100 41.24700
C  -11.87900 40.90300 40.90700
C  -12.28100 42.25500 40.85400
C  -13.63200 42.23400 41.30000
C  -14.02500 40.83100 41.54400
C  -11.33000 43.37300 40.62100
C  -14.54900 43.47000 41.46600
O  -14.01000 44.60200 41.23500
C  -16.02000 43.38100 41.78600
N  -14.78800 37.84200 42.07700
C  -15.62100 38.89900 42.13500
C  -16.99600 38.58600 42.71700
C  -16.99300 37.01300 42.50800
C  -15.48700 36.69300 42.33900
C  -17.24300 38.98100 44.21500
C  -17.83300 36.60000 41.22500
C  -17.13200 36.22100 39.89200
N  -12.75800 35.83600 41.63500
C  -13.71300 34.94000 42.12400
C  -13.07700 33.59400 42.23500
C  -11.81800 33.73000 41.68200
C  -11.68600 35.17100 41.35900
C  -13.76200 32.30100 42.64000
C  -10.57300 33.07900 41.32600
O  -10.16100 31.93700 41.29000
C  -9.60600 34.21200 40.74100
C  -8.34400 34.26800 41.57500
O  -8.24000 34.68100 42.71400
O  -7.23800 33.73600 40.87200
C  -5.91800 33.91700 41.44800
H  -9.81900 41.10900 40.15700
H  -16.03400 40.93200 42.29500
H  -15.67800 34.55100 42.68000
H  -7.76200 36.95600 40.59300
H  -8.44100 39.04600 38.73600
H  -6.88100 38.85500 41.11500
H  -8.19000 39.85700 41.54800
H  -7.23100 40.40900 40.16500
H  -8.53200 37.21600 37.81600
H  -9.02400 35.63600 38.36700
H  -6.96100 34.84200 38.17400
H  -6.37300 36.03400 39.27100
H  -11.84300 44.02800 39.91700
H  -10.37400 43.02900 40.22500
H  -11.20400 43.89900 41.56800
H  -16.47700 42.64400 41.12600
H  -16.34800 44.36100 41.43900
H  -16.32500 43.24700 42.82400
H  -17.77800 39.06400 42.12700
H  -17.40200 36.41100 43.31900
H  -18.01500 39.74900 44.25900
H  -16.33700 39.27800 44.74300
H  -17.62900 38.06700 44.66600
H  -18.61500 37.32600 40.99900
H  -18.25700 35.66300 41.58700
H  -16.69600 35.22400 39.83100
H  -16.43000 36.99400 39.58100
H  -17.97700 36.33200 39.21100
H  -13.37300 31.52800 41.97800
H  -14.84900 32.38800 42.66000
H  -13.47700 32.02600 43.65600
H  -9.46100 33.93700 39.69600
H  -5.86900 34.06700 42.52700
H  -5.55000 34.85900 41.04000
H  -5.14600 33.20400 41.16100

