158

Mg 24.15200 -5.45400 45.29800
C  26.40300 -3.09500 43.85200
C  21.70500 -4.26300 43.12800
C  22.37500 -8.17300 45.96400
C  26.95800 -6.94200 46.86700
N  24.13600 -3.92700 43.70200
C  25.11800 -3.05100 43.27400
C  24.62300 -2.24500 42.04600
C  23.08100 -2.31400 42.27600
C  22.91000 -3.59000 43.04600
C  22.49700 -1.04900 42.82200
C  25.02900 -2.84300 40.68100
C  25.52100 -1.80000 39.64000
H  24.91600 -1.92500 38.24000
N  22.33400 -6.13700 44.64400
C  21.45200 -5.42300 43.86600
C  20.17200 -6.13300 43.85300
C  20.31900 -7.24100 44.69200
C  21.70000 -7.21900 45.16100
C  18.99900 -5.68600 43.07500
C  19.18300 -8.20500 45.15100
O  18.09900 -8.24300 44.69300
C  19.40800 -9.13400 46.26500
N  24.54100 -7.23900 46.28600
C  23.64900 -8.20800 46.49600
C  24.24700 -9.43100 47.20000
C  25.73600 -9.09100 47.44900
C  25.76200 -7.67200 46.77500
C  23.49500 -9.93100 48.51300
C  26.65800 -10.14500 46.84800
C  28.09900 -10.17100 47.33700
N  26.22000 -4.95600 45.68400
C  27.20400 -5.65100 46.34400
C  28.46700 -4.91600 46.17900
C  28.19200 -3.89800 45.18800
C  26.82700 -4.00000 44.90100
C  29.78800 -5.23200 46.82600
C  28.79000 -2.88800 44.36100
O  29.94900 -2.50200 44.33700
C  27.60800 -2.22700 43.43000
C  27.44100 -0.92700 43.93100
O  26.62900 -0.54300 44.79300
O  28.27700 -0.06900 43.25300
C  28.40400 1.28000 43.89400
H  20.91700 -3.86100 42.48600
H  21.97500 -9.18100 46.09500
H  27.74000 -7.38500 47.48600
H  24.96500 -1.23300 42.26500
H  22.43400 -2.40100 41.40300
H  23.29600 -0.45200 43.26200
H  21.76900 -1.22900 43.61300
H  22.04600 -0.51300 41.98700
H  24.29700 -3.54300 40.27900
H  25.97900 -3.36200 40.80200
H  26.59800 -1.87700 39.49000
H  25.18100 -0.80000 39.91000
H  18.09200 -6.29100 43.09200
H  19.24200 -5.56900 42.01900
H  18.74400 -4.69800 43.45700
H  18.42200 -9.30800 46.69500
H  19.98500 -8.68800 47.07500
H  19.81900 -10.05900 45.86000
H  24.16900 -10.31400 46.56500
H  25.89800 -8.93000 48.51500
H  23.08400 -10.92600 48.34100
H  22.69400 -9.24500 48.79000
H  24.17300 -10.03700 49.36000
H  26.74100 -9.91600 45.78500
H  26.27100 -11.16100 46.92400
H  28.23400 -11.24200 47.48400
H  28.09800 -9.65000 48.29400
H  28.91800 -10.00100 46.63700
H  30.38400 -6.09800 46.53800
H  29.70500 -5.37200 47.90400
H  30.28500 -4.26900 46.71600
H  27.85000 -2.36100 42.37500
H  28.98300 1.98600 43.29800
H  28.85100 1.09400 44.87100
H  27.45000 1.68300 44.23200
Mg 24.42700 1.47600 29.02700
C  26.60500 1.08900 31.83400
C  21.80000 1.38900 31.18400
C  22.49400 1.23100 26.28800
C  27.20100 1.01400 26.98800
N  24.23800 1.02000 31.28700
C  25.27000 1.28700 32.16300
C  24.77400 1.58600 33.59400
C  23.22000 1.64800 33.37000
C  23.04000 1.34500 31.83700
C  22.45800 0.63900 34.17200
C  25.48500 2.88400 34.10600
C  26.18300 2.75200 35.44900
H  26.16500 3.94300 36.45800
N  22.46200 1.33300 28.78400
C  21.49700 1.41200 29.75400
C  20.22200 1.38900 29.12700
C  20.37700 1.25100 27.71100
C  21.80200 1.18200 27.56100
C  19.05100 1.27500 30.00200
C  19.34000 1.22500 26.53200
O  19.64600 1.02100 25.34700
C  17.80500 1.27800 26.85700
N  24.79200 1.30100 26.89500
C  23.83900 1.31300 25.98100
C  24.41400 1.36100 24.56500
C  25.90700 1.18000 24.79900
C  26.00600 1.10900 26.30400
C  23.84500 0.36000 23.45200
C  26.79500 2.36900 24.21600
C  27.26800 3.51100 25.11100
N  26.47200 1.09500 29.29000
C  27.50600 0.94200 28.37100
C  28.73900 0.66800 29.03500
C  28.43900 0.70900 30.40400
C  27.07900 0.93900 30.54600
C  30.07300 0.41000 28.40100
C  29.02400 0.69800 31.69800
O  30.21300 0.55600 32.04500
C  27.79800 0.93300 32.73600
C  27.71300 -0.22400 33.64000
O  27.08600 -1.21100 33.41100
O  28.27100 0.06700 34.80000
C  27.86300 -0.84700 35.91100
H  21.03500 1.68400 31.90500
H  21.98600 1.04400 25.34000
H  28.03400 0.92100 26.28800
H  25.10600 0.76800 34.23300
H  22.83200 2.64300 33.58800
H  22.15600 -0.24400 33.61000
H  21.53400 1.16500 34.41200
H  23.04200 0.26700 35.01400
H  24.86600 3.78100 34.14800
H  26.27200 3.15200 33.40100
H  27.25300 2.64300 35.26800
H  25.72300 1.91500 35.97400
H  18.61300 2.25900 30.16700
H  19.18200 0.70000 30.91900
H  18.25800 0.76900 29.45100
H  17.59300 2.11300 27.52500
H  17.42500 0.35900 27.30300
H  17.33400 1.25200 25.87500
H  24.10400 2.33700 24.19000
H  26.28200 0.28600 24.30200
H  24.63300 -0.06400 22.83000
H  23.18200 0.82900 22.72500
H  23.42000 -0.51200 23.95100
H  26.26800 2.81400 23.37300
H  27.62600 1.82400 23.76800
H  26.54400 3.47600 25.92500
H  27.09400 4.46800 24.61900
H  28.29700 3.49400 25.47000
H  30.17100 -0.67500 28.35900
H  30.91400 0.81300 28.96500
H  30.06900 0.73400 27.36000
H  28.03300 1.79200 33.36500
H  27.49100 -1.84800 35.69400
H  27.04800 -0.33400 36.42000
H  28.68500 -0.91800 36.62300

