158

Mg 2.40200 -2.00000 44.35300
C  5.79800 -0.91300 44.03500
C  1.44000 0.74900 42.46700
C  -0.61000 -3.21100 44.18800
C  3.66200 -5.04100 45.61100
N  3.49900 -0.24100 43.39800
C  4.83700 -0.01500 43.44700
C  5.22100 1.25500 42.56500
C  3.79200 1.80700 42.31200
C  2.82100 0.75500 42.81300
C  3.36100 3.22800 42.73500
C  6.02700 0.85400 41.24500
C  7.13200 1.88500 40.80700
H  6.56300 3.08700 39.99100
N  0.57700 -1.22500 43.55200
C  0.37900 -0.12300 42.82500
C  -1.01300 0.05100 42.47200
C  -1.66800 -1.09900 43.10700
C  -0.59000 -1.93600 43.65700
C  -1.55800 1.31700 41.79900
C  -3.17200 -1.38900 43.01300
O  -3.90200 -0.62400 42.34500
C  -3.81300 -2.32600 43.86700
N  1.68200 -3.79000 44.85300
C  0.33600 -4.08400 44.73700
C  0.01200 -5.53900 45.10300
C  1.41500 -6.02700 45.63900
C  2.33500 -4.88500 45.33600
C  -1.17300 -5.62800 46.10300
C  1.97600 -7.28200 44.90200
C  2.56800 -8.44900 45.76400
N  4.31800 -2.87200 44.82000
C  4.62900 -4.09500 45.35000
C  6.08200 -4.03100 45.69900
C  6.56900 -2.80300 45.22600
C  5.48600 -2.14000 44.62000
C  6.87300 -5.23400 46.30200
C  7.74400 -1.96600 45.03700
O  8.88600 -2.11300 45.37300
C  7.34400 -0.74200 44.16100
C  7.64600 0.48800 44.92800
O  7.31900 0.72700 46.09100
O  8.37300 1.37500 44.14700
C  8.81200 2.62900 44.74900
H  1.18200 1.62600 41.87000
H  -1.60800 -3.65100 44.23200
H  4.06600 -5.91800 46.11900
H  5.91200 1.89400 43.11400
H  3.61000 1.69600 41.24300
H  4.23300 3.78300 43.08200
H  2.74600 3.28400 43.63200
H  2.92800 3.76100 41.88800
H  5.33300 0.73000 40.41400
H  6.68000 -0.01400 41.33800
H  7.95000 1.29700 40.39100
H  7.54700 2.34000 41.70600
H  -1.74900 1.05100 40.76000
H  -0.94600 2.21200 41.90100
H  -2.51800 1.66400 42.18100
H  -4.87300 -2.14600 43.68600
H  -3.46800 -2.37300 44.90000
H  -3.52400 -3.35000 43.63400
H  -0.21500 -6.08700 44.18800
H  1.46900 -6.20700 46.71200
H  -0.95800 -5.09300 47.02700
H  -1.29100 -6.64200 46.48400
H  -2.09100 -5.32200 45.60100
H  2.62700 -6.79100 44.17800
H  1.16500 -7.75000 44.34500
H  3.64100 -8.57500 45.61700
H  2.19500 -9.46300 45.62000
H  2.38500 -8.35000 46.83400
H  6.79000 -6.12300 45.67700
H  6.57300 -5.26800 47.34900
H  7.92200 -4.93800 46.31100
H  7.83000 -0.67800 43.18800
H  9.62200 2.90300 44.07400
H  9.35700 2.42400 45.67100
H  8.23100 3.51500 45.00600
Mg 6.90100 54.12300 40.91000
C  6.55400 50.53000 40.52200
C  10.24100 53.61700 40.09900
C  7.20600 57.38800 40.25800
C  3.52400 54.34300 41.18400
N  8.19700 52.27600 40.35700
C  7.83300 50.95100 40.18900
C  9.08300 50.10200 39.72500
C  10.25900 51.06500 40.08700
C  9.56300 52.47200 40.15000
C  11.08400 50.73000 41.36600
C  8.98500 49.55200 38.26000
C  8.14400 50.25500 37.14900
H  7.25100 49.38100 36.13100
N  8.58800 55.40700 40.42700
C  9.87100 54.99400 40.17600
C  10.64700 56.18400 39.98400
C  9.77800 57.30100 39.96100
C  8.48900 56.74400 40.28800
C  12.17300 56.08200 39.76500
C  10.15000 58.77600 39.63700
O  11.30700 59.03800 39.36800
C  9.29100 59.86100 39.62100
N  5.56900 55.54900 40.55200
C  5.92900 56.89300 40.47600
C  4.69100 57.74500 40.59600
C  3.64600 56.90800 41.30200
C  4.27700 55.51700 41.04300
C  4.95900 59.19700 41.26100
C  2.24000 57.08600 40.72700
C  1.15800 57.41100 41.71200
N  5.34000 52.70100 40.89200
C  3.94200 52.97600 41.04700
C  3.22900 51.73900 41.18900
C  4.26100 50.76500 41.05000
C  5.47500 51.36700 40.83200
C  1.79600 51.58000 41.50600
C  4.49400 49.28600 41.06700
O  3.77400 48.38000 41.31000
C  5.99900 49.14300 40.65600
C  5.83400 48.43200 39.34700
O  5.45600 49.03000 38.32200
O  5.98300 47.10200 39.48300
C  5.67600 46.29800 38.29400
H  11.30800 53.44000 39.94200
H  7.28800 58.42700 39.93200
H  2.45500 54.40900 41.39300
H  9.09700 49.19000 40.32200
H  10.96800 51.12100 39.26100
H  10.67000 49.86500 41.88300
H  10.96500 51.61900 41.98600
H  12.10700 50.47900 41.08400
H  8.70400 48.50100 38.32800
H  9.98000 49.49300 37.81900
H  8.82200 50.83700 36.52600
H  7.48800 51.01000 37.58200
H  12.73400 56.69600 40.46900
H  12.44200 56.30800 38.73300
H  12.47900 55.03600 39.77100
H  9.77100 60.79600 39.33300
H  8.80700 60.02500 40.58300
H  8.54500 59.79000 38.82900
H  4.44700 57.91500 39.54800
H  3.64600 57.16300 42.36200
H  4.16400 59.32100 41.99600
H  5.02200 59.93500 40.46100
H  5.84400 59.26900 41.89300
H  1.93800 56.19400 40.17700
H  2.12100 57.89300 40.00400
H  0.75200 58.42200 41.71800
H  1.48400 57.20300 42.73200
H  0.32400 56.74900 41.48100
H  1.27400 51.76200 40.56600
H  1.49800 52.29200 42.27500
H  1.46300 50.57600 41.76900
H  6.53800 48.60800 41.43700
H  6.43600 46.40800 37.52000
H  4.74900 46.51500 37.76300
H  5.61100 45.27300 38.66000

