158

Mg 9.65200 47.20800 26.74700
C  7.83100 47.03000 29.67400
C  12.34300 48.45200 28.60100
C  11.40600 47.59400 23.91300
C  6.73700 46.80700 24.85300
N  10.05000 47.55700 28.86300
C  9.21500 47.32600 29.90300
C  9.75300 47.72900 31.24400
C  11.09100 48.55200 30.89500
C  11.15800 48.29100 29.33900
C  11.02900 50.10600 31.05100
C  10.00800 46.60200 32.23400
C  9.75500 46.96300 33.74600
H  10.03900 45.77900 34.70900
N  11.59000 47.65900 26.38200
C  12.55700 48.18700 27.20500
C  13.79000 48.28700 26.49500
C  13.56100 47.94200 25.18700
C  12.14500 47.68800 25.10500
C  15.08300 48.70500 27.17600
C  14.49600 47.83000 24.08800
O  14.02100 47.47100 23.03100
C  15.98700 48.11500 24.22400
N  9.14200 47.24500 24.61400
C  10.04700 47.45200 23.66400
C  9.47300 47.33500 22.27700
C  7.89500 47.16500 22.59600
C  7.89500 47.06500 24.13500
C  9.87300 48.57600 21.43900
C  7.11700 45.97800 21.83900
C  7.14900 44.62200 22.59400
N  7.62100 46.82500 27.16800
C  6.53200 46.73700 26.27400
C  5.34100 46.59700 27.08700
C  5.78000 46.79000 28.39500
C  7.23600 46.84300 28.43300
C  3.92800 46.39200 26.57400
C  5.33400 46.76400 29.82600
O  4.20700 46.50200 30.26500
C  6.68900 46.87200 30.65800
C  6.86400 45.62900 31.53400
O  6.90100 44.45700 31.13500
O  6.66400 45.86800 32.85300
C  6.34900 44.68700 33.71500
H  13.13900 49.11400 28.94800
H  11.86800 47.89400 22.97000
H  5.83400 46.68900 24.25000
H  9.12200 48.47500 31.72800
H  11.94400 48.08600 31.38900
H  11.16600 50.48400 30.03800
H  11.86000 50.39300 31.69600
H  10.06600 50.52200 31.34600
H  11.02400 46.21100 32.27500
H  9.26200 45.83500 32.02400
H  8.71200 47.27800 33.77900
H  10.27200 47.84500 34.12200
H  15.09900 48.54300 28.25400
H  15.39300 49.73900 27.02800
H  15.93300 48.08300 26.89600
H  16.44000 48.36900 23.26500
H  16.56700 47.30500 24.66500
H  16.03000 49.00300 24.85400
H  9.94200 46.51000 21.74100
H  7.36700 48.05600 22.25600
H  10.61800 49.23600 21.88300
H  9.04200 49.25100 21.23300
H  10.29800 48.24100 20.49300
H  7.65300 45.82000 20.90300
H  6.09500 46.27600 21.60200
H  6.20600 44.49800 23.12700
H  7.93500 44.54400 23.34400
H  7.31300 43.79400 21.90300
H  3.93600 46.62000 25.50900
H  3.23500 47.10800 27.01700
H  3.59400 45.38800 26.83700
H  6.63900 47.65700 31.41300
H  7.28100 44.12400 33.73900
H  5.57800 44.10900 33.20500
H  6.10400 44.99700 34.73100
Mg -5.41700 24.57900 25.75400
C  -3.68900 26.20200 28.39200
C  -7.12100 22.70800 28.01200
C  -6.67600 22.98000 23.04600
C  -3.34500 26.41700 23.49700
N  -5.43900 24.44000 27.89000
C  -4.74200 25.34600 28.78300
C  -5.27700 25.18000 30.17800
C  -6.02900 23.76200 30.13400
C  -6.25100 23.62200 28.59400
C  -5.18200 22.55400 30.76200
C  -6.08400 26.44200 30.66500
C  -6.02300 26.82800 32.18400
H  -5.22000 25.84000 33.06100
N  -6.73600 23.04300 25.53900
C  -7.41600 22.42600 26.58100
C  -8.37100 21.51800 25.96900
C  -8.35700 21.66700 24.53200
C  -7.26700 22.64900 24.31000
C  -9.29300 20.86800 26.87900
C  -9.12000 20.80300 23.42200
O  -9.04700 21.04300 22.23400
C  -9.94500 19.75600 23.84500
N  -4.88100 24.51000 23.58000
C  -5.61800 23.81500 22.69400
C  -5.23500 24.09100 21.25300
C  -4.19300 25.29800 21.37900
C  -4.07100 25.40000 22.92500
C  -4.68300 22.74000 20.64700
C  -4.67000 26.58000 20.53300
C  -3.76600 27.27900 19.44800
N  -3.93100 26.03400 25.85400
C  -3.20400 26.72600 24.86400
C  -2.31100 27.67700 25.45500
C  -2.46100 27.49600 26.85100
C  -3.39700 26.44700 27.03800
C  -1.32000 28.67200 24.82800
C  -1.92700 27.91500 28.14500
O  -1.08300 28.78300 28.42400
C  -2.75900 27.03900 29.21700
C  -1.89400 26.27900 30.04200
O  -1.26700 25.28100 29.75500
O  -1.67500 26.89100 31.25900
C  -0.65500 26.34500 32.24600
H  -7.53200 22.06700 28.79400
H  -7.18400 22.47600 22.22100
H  -2.79000 26.94900 22.72200
H  -4.45800 24.96100 30.86300
H  -7.01600 23.73300 30.59500
H  -4.75700 21.87900 30.02000
H  -5.75500 21.83100 31.34300
H  -4.42900 22.91300 31.46400
H  -7.12700 26.36700 30.35700
H  -5.76000 27.33200 30.12600
H  -7.00800 26.99800 32.61900
H  -5.38400 27.70800 32.26100
H  -9.05400 19.80900 26.78600
H  -10.28300 21.00700 26.44400
H  -9.27300 21.10900 27.94200
H  -10.35700 19.04200 23.13200
H  -10.84100 20.12900 24.34300
H  -9.36300 19.30400 24.64800
H  -6.11700 24.45900 20.73000
H  -3.21100 25.06500 20.96800
H  -3.59400 22.75500 20.69200
H  -4.91200 22.73100 19.58100
H  -5.09600 21.93700 21.25700
H  -4.75400 27.43100 21.21000
H  -5.62300 26.37700 20.04500
H  -3.43700 28.23400 19.85800
H  -4.33900 27.40900 18.53000
H  -2.90200 26.63900 19.27300
H  -1.75400 29.27400 24.03000
H  -0.40100 28.26300 24.40900
H  -0.96600 29.36600 25.59000
H  -3.27800 27.72300 29.88900
H  -0.99000 25.43200 32.73800
H  -0.60900 27.13500 32.99500
H  0.26300 26.05300 31.73500

