158

Mg 1.06800 8.16200 27.24800
C  1.20200 10.58200 29.83400
C  1.45100 5.74100 29.76200
C  1.36200 5.66700 24.94200
C  1.28000 10.52800 24.92100
N  1.27700 8.18200 29.52500
C  1.10200 9.26000 30.35000
C  1.10900 8.89000 31.84300
C  1.30300 7.37300 31.79300
C  1.31200 7.04200 30.28500
C  2.62700 6.86100 32.56000
C  -0.14600 9.46800 32.56400
C  -0.02200 9.89000 34.08400
H  -0.66900 8.86800 35.03500
N  1.18000 5.99100 27.27100
C  1.33900 5.26300 28.42900
C  1.35400 3.85700 28.06800
C  1.17600 3.80200 26.65700
C  1.19700 5.18300 26.21000
C  1.53700 2.65700 28.99800
C  1.06600 2.58900 25.76800
O  0.84400 2.65800 24.55300
C  1.02900 1.23100 26.37200
N  1.26500 8.12200 25.26400
C  1.38500 7.00900 24.48300
C  1.43700 7.35300 22.98400
C  1.48000 8.91000 22.96700
C  1.28800 9.19900 24.47300
C  2.53800 6.70200 22.06900
C  0.31100 9.64300 22.18000
C  0.76100 10.56300 21.02300
N  1.18500 10.20500 27.30200
C  1.25100 11.04700 26.25200
C  1.41200 12.39500 26.79200
C  1.48600 12.30000 28.18400
C  1.27800 10.92400 28.43300
C  1.71600 13.59600 25.98200
C  1.70400 13.04800 29.44900
O  1.96300 14.23800 29.64700
C  1.42900 11.91000 30.58800
C  2.65800 11.84300 31.49900
O  3.71500 11.30000 31.28800
O  2.17100 12.42100 32.61700
C  3.11400 12.30800 33.75600
H  1.59300 4.96400 30.51700
H  1.23400 4.84300 24.23700
H  1.27500 11.41200 24.28000
H  1.98800 9.25000 32.37700
H  0.45000 6.88600 32.26500
H  3.19200 7.60700 33.11800
H  3.32500 6.37200 31.88100
H  2.29900 6.02100 33.17300
H  -0.97300 8.75800 32.56700
H  -0.59100 10.26700 31.97100
H  -0.39400 10.87000 34.38200
H  1.04400 9.93700 34.30900
H  2.23900 1.92500 28.59800
H  0.52700 2.32300 29.23600
H  2.04900 2.95000 29.91500
H  0.41000 1.06500 27.25400
H  2.05600 1.06400 26.69600
H  0.91100 0.41000 25.66500
H  0.49900 7.02900 22.53100
H  2.40800 9.30300 22.55100
H  3.39800 6.24400 22.55700
H  2.95300 7.43500 21.37700
H  2.04100 5.93600 21.47300
H  -0.35000 10.09200 22.92100
H  -0.39800 8.91200 21.79100
H  1.81400 10.84100 20.98000
H  0.14700 11.46200 20.97400
H  0.68100 10.10900 20.03500
H  2.53500 13.30200 25.32600
H  1.94700 14.46400 26.59900
H  0.80900 13.79900 25.41300
H  0.53600 12.15700 31.16300
H  3.98000 11.66300 33.61200
H  2.54200 11.85600 34.56600
H  3.19300 13.34300 34.08800
Mg 47.68200 24.70400 28.15800
C  48.67500 27.03000 30.73600
C  47.03600 22.48500 30.73200
C  46.88800 22.49000 25.88300
C  49.00700 26.79400 25.86000
N  47.81200 24.81900 30.49100
C  48.08500 25.90300 31.31200
C  47.88600 25.51000 32.75200
C  47.57300 24.00000 32.74500
C  47.57500 23.72300 31.20100
C  48.64600 23.12000 33.46000
C  46.76600 26.37600 33.46100
C  47.30800 27.39600 34.49000
H  46.63400 27.64300 35.85700
N  46.97700 22.77900 28.28500
C  46.82900 22.00600 29.45300
C  46.22800 20.68900 29.01600
C  46.16400 20.68400 27.61000
C  46.65700 22.03500 27.19200
C  45.79300 19.53400 29.99700
C  45.82800 19.62200 26.55600
O  45.96000 19.72100 25.35900
C  45.24100 18.34100 27.09500
N  48.08100 24.60700 26.06800
C  47.44300 23.67600 25.33700
C  47.52300 24.05900 23.82300
C  47.96600 25.54000 23.87600
C  48.28200 25.67200 25.38600
C  48.47700 23.07800 23.06500
C  46.92000 26.56800 23.38200
C  47.31000 27.66900 22.35500
N  48.72600 26.53000 28.24600
C  49.23600 27.20600 27.18500
C  49.66900 28.47200 27.71300
C  49.44700 28.45700 29.07700
C  48.90000 27.24300 29.35000
C  50.19800 29.68600 27.02000
C  49.72900 29.19200 30.34100
O  50.24600 30.28400 30.51500
C  49.12100 28.22900 31.48900
C  50.31000 27.97700 32.35900
O  51.21100 27.24500 32.18200
O  50.20200 28.72200 33.41700
C  51.11200 28.53300 34.52400
H  46.88800 21.84400 31.60300
H  46.59300 21.88200 25.02500
H  49.31800 27.51600 25.10300
H  48.78300 25.73600 33.32800
H  46.59000 23.70300 33.11100
H  48.99000 22.36600 32.75200
H  48.08300 22.58200 34.22300
H  49.47900 23.72200 33.82400
H  45.97700 25.81600 33.96300
H  46.35000 26.90300 32.60100
H  47.36700 28.37000 34.00400
H  48.35700 27.22600 34.73200
H  46.20300 18.55600 29.74600
H  44.71100 19.42800 30.08500
H  46.14200 19.85100 30.98000
H  45.93300 17.76400 27.70800
H  44.91700 17.72700 26.25400
H  44.41000 18.58600 27.75700
H  46.54300 23.89000 23.37600
H  48.90300 25.73300 23.35300
H  48.86500 22.43600 23.85600
H  49.34600 23.56000 22.61700
H  47.92800 22.60800 22.24800
H  46.43200 26.93700 24.28400
H  46.16100 26.06800 22.78100
H  48.37100 27.81400 22.15100
H  46.97200 28.64700 22.69700
H  46.82100 27.45100 21.40500
H  50.47800 29.43500 25.99700
H  51.01700 30.07900 27.62300
H  49.43400 30.46100 26.96100
H  48.32100 28.78600 31.97600
H  51.98800 29.17500 34.42400
H  51.51100 27.52000 34.58000
H  50.55400 28.81100 35.41700

