158

Mg 24.98600 -5.14700 46.33700
C  27.26700 -2.83200 44.69100
C  22.75200 -4.49200 43.95300
C  23.40500 -7.86500 47.32200
C  27.83900 -6.04100 48.25800
N  25.06100 -3.82500 44.55300
C  25.98900 -2.88800 44.18700
C  25.44100 -2.03600 42.97600
C  23.93800 -2.41900 43.02800
C  23.89800 -3.65800 43.87300
C  22.92000 -1.36000 43.55500
C  26.07500 -2.43000 41.63900
C  26.34600 -1.31500 40.51800
H  25.79400 -1.57200 39.08600
N  23.18900 -5.95300 45.90200
C  22.42400 -5.50900 44.84800
C  21.23400 -6.27700 44.84900
C  21.32500 -7.22900 45.94400
C  22.67200 -7.10500 46.44500
C  20.00800 -6.00100 43.94800
C  20.31100 -8.21500 46.50500
O  19.24900 -8.43700 45.88500
C  20.57500 -9.15500 47.70900
N  25.56200 -6.75400 47.53600
C  24.73000 -7.76400 47.85200
C  25.35700 -8.92100 48.58000
C  26.81200 -8.24300 48.85600
C  26.76200 -6.94500 48.17300
C  24.49800 -9.42800 49.74600
C  28.01900 -9.08100 48.46200
C  28.18000 -10.46800 49.20200
N  27.06900 -4.48900 46.63000
C  27.99600 -4.84700 47.53800
C  29.21200 -4.06200 47.42500
C  28.94700 -3.27500 46.31900
C  27.64600 -3.59600 45.83000
C  30.56400 -4.25200 48.11700
C  29.55200 -2.32200 45.40800
O  30.69400 -1.87600 45.39900
C  28.48900 -2.03000 44.30800
C  28.11400 -0.63700 44.40800
O  27.83200 0.07000 45.35600
O  28.23500 -0.08400 43.04900
C  28.09800 1.42400 42.87500
H  22.05200 -4.25000 43.15000
H  23.00200 -8.83400 47.62300
H  28.74400 -6.37200 48.77000
H  25.63100 -0.98000 43.17000
H  23.66300 -2.77000 42.03300
H  23.39500 -0.38200 43.63400
H  22.57800 -1.59400 44.56400
H  22.04200 -1.32200 42.91000
H  25.53000 -3.25300 41.17600
H  27.03700 -2.90400 41.83300
H  27.39900 -1.07200 40.37100
H  25.89300 -0.42500 40.95400
H  19.39100 -5.22900 44.40800
H  19.44600 -6.92800 43.83500
H  20.42800 -5.73000 42.98000
H  20.89700 -8.58100 48.57800
H  21.25500 -9.91700 47.32900
H  19.60800 -9.61600 47.91100
H  25.59100 -9.73300 47.89100
H  26.80000 -8.18900 49.94500
H  23.41600 -9.29600 49.72900
H  24.94600 -9.17800 50.70800
H  24.47000 -10.51800 49.74700
H  28.92800 -8.58700 48.80600
H  28.13700 -9.46000 47.44700
H  28.03700 -11.27100 48.47900
H  27.48700 -10.48100 50.04400
H  29.21400 -10.52000 49.54200
H  30.93300 -5.21200 47.75500
H  30.40500 -4.30400 49.19400
H  31.22300 -3.41300 47.89100
H  28.81300 -2.40600 43.33700
H  28.62600 1.97900 43.65100
H  27.02900 1.63400 42.84500
H  28.55700 1.68500 41.92200
Mg 17.10500 52.21900 26.55500
C  18.89400 50.86300 29.36000
C  14.60800 53.08500 28.81300
C  15.56700 53.34100 24.07500
C  19.64600 50.88300 24.51600
N  16.81800 52.12300 28.83900
C  17.64600 51.51900 29.72800
C  17.17900 51.79100 31.14300
C  15.69800 52.24400 30.95100
C  15.69700 52.51100 29.48500
C  14.53800 51.25600 31.31700
C  18.17400 52.88700 31.81700
C  18.22500 52.71100 33.38000
H  17.10900 51.99700 34.11900
N  15.34400 53.15100 26.44900
C  14.44000 53.40500 27.46700
C  13.25100 54.02900 26.87700
C  13.47400 54.15100 25.43800
C  14.83800 53.51400 25.23100
C  12.17900 54.59900 27.72400
C  12.60200 54.71400 24.31200
O  13.05700 54.78600 23.14800
C  11.24100 55.28700 24.59900
N  17.52800 51.99600 24.53600
C  16.74800 52.80400 23.72100
C  17.40000 53.00900 22.33900
C  18.79700 52.21300 22.50900
C  18.69600 51.67700 23.94900
C  16.51100 52.64700 21.09000
C  20.03700 53.02000 22.40800
C  21.29300 52.17800 21.92300
N  18.94100 51.00200 26.84200
C  19.81500 50.59500 25.90200
C  20.95200 49.95800 26.55000
C  20.60100 50.00300 27.94200
C  19.39200 50.68100 28.06200
C  22.16300 49.40600 25.78500
C  21.02700 49.63100 29.27500
O  22.08200 49.09600 29.72200
C  19.99300 50.29300 30.25200
C  19.45300 49.27600 31.16700
O  18.70800 48.36900 30.83400
O  19.90200 49.53400 32.44500
C  19.42700 48.63200 33.56600
H  13.70100 53.29600 29.38300
H  15.08500 53.84300 23.23300
H  20.53500 50.50600 24.00500
H  17.32800 50.84400 31.66200
H  15.55200 53.15400 31.53200
H  15.04200 50.38100 31.72900
H  14.05600 51.03200 30.36600
H  13.82400 51.65300 32.03900
H  17.64900 53.80700 31.56300
H  19.16900 52.84200 31.37300
H  18.31900 53.76300 33.65200
H  19.18700 52.23200 33.56300
H  11.41100 55.29500 27.38700
H  12.66500 55.02400 28.60200
H  11.68900 53.72500 28.15400
H  10.56700 54.53500 25.01000
H  10.82300 55.60200 23.64300
H  11.12000 56.14100 25.26600
H  17.53200 54.08700 22.25200
H  18.81800 51.32800 21.87400
H  16.91700 51.98400 20.32600
H  16.03600 53.53600 20.67500
H  15.65000 52.14600 21.53300
H  20.31100 53.33000 23.41700
H  19.97500 53.78600 21.63400
H  22.13900 52.45200 22.55200
H  21.35700 52.48400 20.87900
H  21.25300 51.09900 21.76800
H  22.29000 49.76000 24.76200
H  22.06700 48.32500 25.88800
H  23.05200 49.70700 26.33900
H  20.51600 51.02800 30.86500
H  20.13900 47.83500 33.78100
H  18.44500 48.21500 33.34200
H  19.24200 49.25000 34.44500

