158

Mg 55.30600 23.76000 44.67200
C  52.81900 26.13300 43.52100
C  53.17300 21.28000 43.76000
C  57.91100 21.67200 44.82900
C  57.40600 26.55300 45.28000
N  53.28400 23.75200 43.77300
C  52.38100 24.85000 43.52100
C  51.02000 24.26900 43.08200
C  51.07200 22.82900 43.56500
C  52.60000 22.56900 43.69200
C  50.22100 22.54500 44.83900
C  50.83000 24.43200 41.50900
C  49.41000 24.72100 41.01700
H  48.89900 24.03400 39.75300
N  55.56700 21.67600 44.32200
C  54.54400 20.80700 43.98600
C  55.06900 19.44500 43.86100
C  56.47400 19.56400 44.22100
C  56.69500 20.96500 44.53900
C  54.35300 18.15600 43.52400
C  57.51500 18.52000 44.10000
O  57.12400 17.45200 43.71800
C  58.98100 18.67700 44.61500
N  57.29300 24.07800 44.91200
C  58.22200 23.00100 45.03600
C  59.66800 23.57600 45.21600
C  59.52300 25.05500 45.25300
C  57.92600 25.26900 45.13600
C  60.37300 22.95300 46.38400
C  60.27800 25.84100 44.07700
C  61.66700 26.45400 44.49500
N  55.17600 25.91500 44.52100
C  56.07900 26.94100 44.91500
C  55.39000 28.20900 44.89400
C  54.18300 27.91200 44.22900
C  54.10800 26.52500 44.02600
C  55.84700 29.54100 45.36200
C  52.98600 28.50700 43.60900
O  52.77500 29.70000 43.58300
C  52.07200 27.42700 43.12000
C  51.95900 27.55200 41.64000
O  52.84900 27.50600 40.78800
O  50.58900 27.81200 41.40800
C  50.26000 28.10600 39.97100
H  52.54900 20.39000 43.65300
H  58.79500 21.07300 45.05800
H  58.08400 27.32700 45.64700
H  50.25300 24.86700 43.57400
H  50.60100 22.21900 42.79400
H  50.81900 22.16400 45.66700
H  49.46900 21.76500 44.71300
H  49.65600 23.42500 45.14800
H  51.06300 23.49900 40.99600
H  51.50000 25.20400 41.13100
H  49.33400 25.80200 40.90400
H  48.71500 24.60800 41.84900
H  53.29400 18.39200 43.42200
H  54.54500 17.50000 44.37300
H  54.64600 17.68200 42.58700
H  59.45700 19.24900 43.81800
H  59.43600 17.68700 44.58400
H  58.92000 19.01500 45.64900
H  60.24200 23.32900 44.32300
H  59.76900 25.52600 46.20400
H  60.33700 23.62800 47.23900
H  61.38200 22.92500 45.97300
H  59.96200 21.98400 46.66600
H  59.66500 26.66700 43.71800
H  60.56600 25.29000 43.18200
H  62.40300 25.71000 44.19000
H  61.73300 26.68800 45.55800
H  61.93600 27.34200 43.92400
H  55.20600 29.74000 46.22100
H  55.69200 30.28400 44.58000
H  56.89900 29.44400 45.62900
H  51.13800 27.56200 43.66400
H  49.45500 28.83800 39.91100
H  49.82200 27.23800 39.47900
H  51.12400 28.44100 39.39600
Mg -5.45400 25.77900 26.42600
C  -4.11600 27.44200 29.12100
C  -7.14600 23.61200 28.59400
C  -6.56900 23.97900 23.76400
C  -3.55600 27.85300 24.19100
N  -5.55100 25.56400 28.61900
C  -5.00600 26.38700 29.51200
C  -5.46000 26.00100 30.97100
C  -6.17400 24.57400 30.68700
C  -6.38700 24.65700 29.17500
C  -5.20900 23.39000 31.07200
C  -6.40700 27.10500 31.52700
C  -6.45000 27.29800 33.04300
H  -5.88800 26.16600 33.92900
N  -6.73000 24.00300 26.17700
C  -7.31300 23.29900 27.17900
C  -8.16600 22.28200 26.63200
C  -8.08900 22.41500 25.22000
C  -7.06100 23.46600 24.97200
C  -9.07300 21.40400 27.48900
C  -8.85200 21.79400 24.16500
O  -8.62600 22.10900 23.03800
C  -9.91300 20.71100 24.49500
N  -4.82900 25.72800 24.31200
C  -5.55500 24.93200 23.41000
C  -5.13800 25.27500 21.91100
C  -4.19100 26.54700 22.04900
C  -4.16900 26.75000 23.59300
C  -4.57900 24.14000 21.01800
C  -4.71100 27.83100 21.19600
C  -5.48100 27.56800 19.91700
N  -4.14000 27.34700 26.58100
C  -3.50800 28.14500 25.54600
C  -2.77400 29.21400 26.19900
C  -2.96300 28.94700 27.62700
C  -3.75300 27.78800 27.77200
C  -1.94300 30.27700 25.65700
C  -2.64100 29.43900 28.94700
O  -1.95200 30.42600 29.32800
C  -3.44100 28.54300 29.97500
C  -2.51300 28.01200 30.97900
O  -1.73500 27.13800 30.72800
O  -2.78200 28.52000 32.23600
C  -2.05500 28.03400 33.38100
H  -7.67900 22.97200 29.30100
H  -6.88900 23.50600 22.83300
H  -3.06800 28.42700 23.40000
H  -4.60700 25.91700 31.64500
H  -7.08800 24.47900 31.27400
H  -5.18100 22.79200 30.16100
H  -5.62500 22.75700 31.85600
H  -4.20400 23.74500 31.29800
H  -7.41300 27.08100 31.10900
H  -6.14100 28.04500 31.04400
H  -7.52800 27.24700 33.19100
H  -6.17700 28.30600 33.35400
H  -8.97500 21.65100 28.54600
H  -9.02400 20.35400 27.20100
H  -10.09900 21.64800 27.21200
H  -9.40700 19.96800 25.11000
H  -10.17100 20.17300 23.58200
H  -10.77900 21.24600 24.88600
H  -6.10600 25.47900 21.45300
H  -3.20100 26.27400 21.68600
H  -3.55600 24.34800 20.70400
H  -5.33100 23.88300 20.27200
H  -4.43600 23.20100 21.55200
H  -3.80200 28.38100 20.95200
H  -5.23800 28.55800 21.81300
H  -6.49900 27.88500 20.14300
H  -5.48700 26.58100 19.45500
H  -5.00700 28.29000 19.25100
H  -1.22000 29.86100 24.95500
H  -1.25200 30.82800 26.29400
H  -2.55200 30.89200 24.99400
H  -4.29700 29.07500 30.38900
H  -2.55200 27.21700 33.90300
H  -1.96200 28.89700 34.03900
H  -1.01800 27.73100 33.23600

