158

Mg 0.62600 7.21300 25.66800
C  1.64000 9.13800 28.51300
C  0.65600 4.51600 27.65500
C  0.30300 5.45600 22.85100
C  1.27700 10.21300 23.71500
N  1.19000 6.92000 27.80900
C  1.40400 7.80700 28.82100
C  1.41300 7.16200 30.19000
C  1.15500 5.63000 29.91400
C  1.03600 5.71200 28.34600
C  2.10100 4.61500 30.50700
C  0.35200 7.71000 31.23600
C  0.87600 7.91600 32.70200
H  2.03700 7.16500 33.13500
N  0.41800 5.32000 25.28400
C  0.32100 4.32300 26.30100
C  0.01700 3.08200 25.62600
C  0.03800 3.34200 24.21800
C  0.24500 4.75100 24.07400
C  -0.11800 1.78900 26.34000
C  0.04000 2.41100 23.05200
O  0.00300 2.72300 21.88400
C  0.02500 0.94500 23.30300
N  0.77500 7.75800 23.56400
C  0.53700 6.80800 22.59800
C  0.58300 7.45900 21.25500
C  0.74000 8.98800 21.53500
C  0.99200 9.00000 23.01400
C  1.71100 6.84100 20.40200
C  -0.46600 9.88400 21.18300
C  -0.13200 11.00000 20.23000
N  1.23200 9.28300 26.00200
C  1.39000 10.32200 25.17000
C  1.73800 11.51600 25.90900
C  1.96600 11.13400 27.19400
C  1.53600 9.80600 27.22300
C  2.00900 12.90300 25.29100
C  2.29200 11.54400 28.51400
O  2.71200 12.58000 28.92900
C  2.02300 10.34600 29.45100
C  3.18400 10.18000 30.48200
O  4.23000 9.55000 30.32300
O  2.75300 10.83800 31.63900
C  3.81600 11.17400 32.59500
H  0.63300 3.64500 28.31300
H  0.12900 5.01000 21.86900
H  1.49600 11.14800 23.19600
H  2.42600 7.35500 30.54300
H  0.14100 5.36500 30.21300
H  2.83600 5.13900 31.11700
H  2.52900 3.96300 29.74600
H  1.56800 3.95800 31.19500
H  -0.47300 7.01300 31.38300
H  0.00500 8.66900 30.85200
H  0.03700 7.60600 33.32600
H  1.03100 8.98500 32.84900
H  -0.86600 1.27300 25.73900
H  -0.45800 1.86700 27.37200
H  0.82000 1.23500 26.33800
H  -0.87100 0.65700 23.85200
H  0.84200 0.72300 23.99000
H  0.23900 0.32700 22.43000
H  -0.39300 7.10300 20.92600
H  1.70700 9.27600 21.12300
H  2.20500 7.64200 19.85200
H  1.24900 6.27000 19.59600
H  2.36900 6.21300 21.00200
H  -0.90500 10.41700 22.02600
H  -1.35500 9.35700 20.83800
H  -1.11700 11.37700 19.95200
H  0.50900 10.90000 19.35400
H  0.27300 11.77900 20.87600
H  2.81800 13.40700 25.81900
H  1.15300 13.57100 25.38400
H  2.16100 12.81100 24.21600
H  1.11500 10.57800 30.00700
H  3.24400 11.58900 33.42400
H  4.57000 11.88900 32.26500
H  4.43200 10.39100 33.03700
Mg 16.12000 51.41600 24.83400
C  17.45400 50.61000 27.88700
C  13.14600 52.33400 26.66400
C  14.63500 52.44900 22.07300
C  18.70800 50.20700 23.14000
N  15.45600 51.74700 27.10300
C  16.26400 51.30800 28.12400
C  15.68700 51.83000 29.45100
C  14.24100 52.20300 29.07900
C  14.27800 52.10100 27.54000
C  13.16100 51.36500 29.79700
C  16.53700 53.02800 30.11500
C  16.71100 53.08500 31.61800
H  15.55700 52.33100 32.48100
N  14.24900 52.26600 24.39200
C  13.12700 52.56800 25.26500
C  12.05100 53.06200 24.58200
C  12.48900 53.14300 23.17300
C  13.79000 52.61200 23.15200
C  10.74100 53.42700 25.24000
C  11.72700 53.63800 21.94000
O  12.20400 53.84300 20.83800
C  10.35000 54.05900 22.10800
N  16.58000 51.15800 22.79100
C  15.79100 51.69000 21.83800
C  16.43100 51.43600 20.45200
C  17.85800 50.94000 20.87100
C  17.76800 50.81600 22.35400
C  15.83800 50.37500 19.51400
C  18.98200 52.01100 20.50300
C  18.92500 52.52400 19.09000
N  17.76300 50.59700 25.34500
C  18.77500 50.06900 24.54500
C  19.84900 49.51700 25.39700
C  19.31600 49.70000 26.65100
C  18.08700 50.29900 26.58100
C  21.08200 48.90200 24.90800
C  19.68500 49.53600 28.04600
O  20.66500 49.12300 28.61900
C  18.52400 50.11300 28.87900
C  18.07500 49.17800 29.99800
O  17.19400 48.34800 29.90400
O  18.86300 49.42600 31.11200
C  18.36700 48.89200 32.38000
H  12.21100 52.59800 27.16300
H  14.28400 52.96500 21.17800
H  19.65800 49.97900 22.65200
H  15.72700 51.05400 30.21500
H  13.94700 53.23700 29.26100
H  12.33500 52.01300 30.08900
H  13.50300 50.86600 30.70400
H  12.84100 50.56500 29.13000
H  15.94200 53.85300 29.72200
H  17.52800 53.08200 29.66500
H  16.93200 54.07200 32.02400
H  17.66800 52.57700 31.73800
H  10.31700 54.31300 24.76700
H  10.75000 53.69000 26.29800
H  10.13000 52.54200 25.06200
H  9.60800 53.41300 22.57800
H  10.01000 54.34500 21.11200
H  10.46600 54.95900 22.71100
H  16.45500 52.44000 20.03000
H  18.14700 49.97000 20.46800
H  15.24700 49.68800 20.11900
H  16.55800 49.82700 18.90600
H  15.09400 50.78600 18.83200
H  19.90700 51.44100 20.58600
H  18.93600 52.78900 21.26400
H  18.44400 51.79700 18.43600
H  19.98700 52.54600 18.84400
H  18.41900 53.47900 18.95100
H  21.88000 49.64400 24.95000
H  20.87500 48.48500 23.92300
H  21.46700 48.11900 25.56100
H  18.97600 50.95500 29.40200
H  17.59800 49.55800 32.77000
H  19.09200 48.90100 33.19400
H  18.05200 47.85100 32.30900

