158

Mg 25.73600 -6.31900 48.41100
C  27.33800 -3.65900 46.82600
C  23.22300 -6.17300 46.08400
C  24.55300 -9.13200 49.59200
C  28.75300 -6.80600 50.17500
N  25.39600 -5.08700 46.61100
C  26.12200 -4.03600 46.19000
C  25.65500 -3.53500 44.82800
C  24.24200 -4.16000 44.74900
C  24.25700 -5.23400 45.89500
C  23.12500 -3.08500 44.93400
C  26.63500 -3.92000 43.68600
C  26.97000 -2.85900 42.64000
H  25.95600 -2.71500 41.47300
N  24.10500 -7.49600 47.92500
C  23.14300 -7.20700 47.01500
C  22.06500 -8.16900 47.08600
C  22.44800 -9.12200 48.05200
C  23.70800 -8.58500 48.60300
C  20.78600 -8.17000 46.32800
C  21.71300 -10.43000 48.32400
O  20.89200 -10.89700 47.50200
C  22.20200 -11.43600 49.35000
N  26.49400 -7.61500 49.83300
C  25.85400 -8.76700 50.06500
C  26.67400 -9.83600 50.92500
C  28.07700 -9.06300 51.02000
C  27.77700 -7.77900 50.28200
C  26.08100 -10.19200 52.31000
C  29.19100 -9.88500 50.30800
C  29.41700 -11.39300 50.78300
N  27.64000 -5.37600 48.58300
C  28.71800 -5.65900 49.42000
C  29.76100 -4.66700 49.15900
C  29.27100 -3.83900 48.17300
C  27.97600 -4.35200 47.83300
C  31.12200 -4.66400 49.75100
C  29.46200 -2.62600 47.38600
O  30.34400 -1.83400 47.41300
C  28.30300 -2.60600 46.37500
C  27.76800 -1.23900 46.44300
O  27.73000 -0.43900 45.48000
O  27.39300 -0.98400 47.76300
C  27.21600 0.34600 48.20900
H  22.33200 -6.12200 45.45500
H  24.16000 -10.04800 50.03800
H  29.74400 -6.92000 50.62100
H  25.60000 -2.45000 44.73200
H  24.09400 -4.66000 43.79200
H  22.90000 -2.44500 44.08100
H  23.57800 -2.52100 45.74900
H  22.18400 -3.56800 45.19700
H  26.18600 -4.74700 43.13700
H  27.59200 -4.26500 44.07700
H  27.93600 -3.04400 42.17000
H  26.94200 -1.88500 43.12800
H  20.47300 -7.26300 45.81000
H  19.91500 -8.55000 46.86200
H  20.80800 -8.89500 45.51400
H  23.08700 -11.92400 48.94200
H  21.50000 -12.26900 49.38200
H  22.36200 -11.05000 50.35700
H  26.79800 -10.78200 50.39800
H  28.26800 -8.91600 52.08400
H  25.67100 -11.20200 52.33200
H  25.32000 -9.44100 52.52400
H  26.87700 -10.17700 53.05400
H  30.15600 -9.39500 50.43100
H  29.06700 -9.82100 49.22600
H  30.48800 -11.50900 50.95000
H  29.23400 -12.14000 50.01100
H  28.87500 -11.57200 51.71200
H  31.88400 -4.14000 49.17400
H  31.42400 -5.67800 50.01400
H  31.05500 -4.03500 50.63900
H  28.81000 -2.73100 45.41800
H  27.33700 1.03700 47.37600
H  28.04100 0.55700 48.89000
H  26.23900 0.50400 48.66700
Mg 44.17300 4.47900 48.17800
C  42.02500 7.14500 47.71600
C  41.65800 2.36200 47.62400
C  46.50400 2.08800 47.73600
C  46.87300 6.91800 48.00800
N  42.09500 4.77200 47.76700
C  41.44000 5.90800 47.67000
C  40.02600 5.65100 47.29400
C  39.87300 4.16500 47.59100
C  41.31400 3.69100 47.70300
C  39.23400 3.86100 49.01500
C  39.65300 6.00300 45.78400
C  38.30900 6.69500 45.53000
H  37.71200 6.71100 44.11200
N  44.08300 2.48100 47.75600
C  42.93500 1.73900 47.45400
C  43.29300 0.35200 47.22500
C  44.72900 0.28500 47.29700
C  45.19300 1.65500 47.57900
C  42.32800 -0.69500 46.96100
C  45.44800 -0.98200 47.11700
O  44.83000 -1.96200 46.61900
C  46.89000 -1.14300 47.19800
N  46.33500 4.48600 47.87800
C  47.03900 3.33600 47.79000
C  48.57200 3.50000 47.86100
C  48.72500 5.07400 47.96000
C  47.20000 5.55500 47.96500
C  49.41400 2.66700 48.79700
C  49.48900 5.82300 46.83400
C  50.81900 6.50900 47.16800
N  44.45600 6.61900 48.10800
C  45.56300 7.47200 47.97900
C  45.14600 8.86300 47.83100
C  43.74700 8.73400 47.80900
C  43.37700 7.42800 47.91400
C  45.97000 10.08900 47.67100
C  42.57800 9.52300 47.54000
O  42.34800 10.77200 47.35700
C  41.40900 8.48200 47.64600
C  40.50600 8.76300 48.79400
O  40.84800 8.92500 49.93100
O  39.20400 8.68700 48.38100
C  38.13900 8.77500 49.42200
H  40.83500 1.65100 47.72600
H  47.23900 1.28500 47.82700
H  47.83100 7.43400 48.10600
H  39.33100 6.28200 47.84900
H  39.34900 3.57800 46.83700
H  38.87200 4.77000 49.49400
H  40.09600 3.49400 49.57200
H  38.49000 3.06400 48.98500
H  39.73900 5.09900 45.18100
H  40.37100 6.70400 45.35900
H  38.30000 7.73800 45.84800
H  37.56000 6.18700 46.13600
H  42.45200 -1.26000 46.03700
H  41.28000 -0.39900 47.00700
H  42.44000 -1.45000 47.73900
H  47.12300 -0.80100 48.20700
H  47.35800 -0.54500 46.41600
H  47.14100 -2.19800 47.08400
H  48.92700 3.22300 46.86800
H  49.03500 5.25900 48.98900
H  50.10300 3.30500 49.35100
H  50.04100 2.08400 48.12300
H  48.87100 1.97200 49.43800
H  48.82800 6.64600 46.56100
H  49.58300 5.16300 45.97200
H  50.78400 6.73100 48.23500
H  51.03200 7.43000 46.62500
H  51.60100 5.77800 46.96500
H  46.25500 10.25000 48.71100
H  45.40000 10.94700 47.31300
H  46.76400 9.80000 46.98300
H  40.77000 8.64100 46.77700
H  38.18700 9.75100 49.90700
H  38.19900 8.01200 50.19800
H  37.16500 8.65200 48.95000

