158

Mg -2.45900 17.31300 26.59500
C  -2.55200 15.36200 29.43800
C  -2.69500 20.09400 28.57500
C  -2.68800 19.17000 23.81800
C  -2.83700 14.32100 24.66100
N  -2.54500 17.68300 28.76100
C  -2.55400 16.73300 29.76000
C  -2.58600 17.31100 31.13500
C  -2.47400 18.82800 30.86100
C  -2.63000 18.85900 29.32700
C  -3.51600 19.65200 31.59400
C  -1.49000 16.81000 32.16400
C  -0.69300 17.63600 33.24900
H  -0.41700 17.00800 34.60500
N  -2.53700 19.32100 26.22700
C  -2.65000 20.33700 27.14200
C  -2.52700 21.61800 26.50000
C  -2.36700 21.35700 25.08900
C  -2.56000 19.87600 24.97700
C  -2.74800 22.92700 27.26300
C  -2.00900 22.27600 23.98100
O  -2.03700 21.87500 22.83000
C  -1.78300 23.78100 24.18900
N  -2.77200 16.82300 24.55600
C  -2.82300 17.77000 23.61200
C  -2.90100 17.16900 22.20800
C  -3.12000 15.67700 22.48700
C  -2.82200 15.56700 23.99400
C  -4.07200 17.84600 21.35300
C  -2.10900 14.77000 21.72000
C  -0.58800 14.90200 22.17000
N  -2.47300 15.20000 26.84500
C  -2.64600 14.09800 26.02200
C  -2.76200 12.87300 26.73800
C  -2.77700 13.37300 28.09200
C  -2.58000 14.80000 28.12500
C  -2.76800 11.53900 26.15100
C  -2.91900 12.95300 29.48600
O  -3.14300 11.83300 29.89500
C  -2.70100 14.11900 30.42900
C  -1.47100 13.77500 31.22100
O  -0.28300 13.91700 30.83300
O  -1.85200 13.33300 32.43800
C  -0.81600 12.98700 33.44200
H  -2.67900 20.95700 29.24400
H  -2.84200 19.79500 22.93500
H  -3.07300 13.37500 24.16900
H  -3.61300 17.11100 31.43900
H  -1.49200 19.26700 31.03900
H  -4.07800 20.25000 30.87600
H  -2.96600 20.36800 32.20500
H  -4.13800 18.99700 32.20500
H  -0.73600 16.32300 31.54600
H  -1.98900 16.09900 32.82200
H  -1.34300 18.50600 33.34700
H  0.28600 17.86000 32.82700
H  -1.74300 23.32700 27.40000
H  -3.23600 22.87700 28.23700
H  -3.30900 23.59200 26.60700
H  -1.08100 23.90200 25.01400
H  -2.69400 24.18300 24.63100
H  -1.55600 24.36500 23.29600
H  -1.90600 17.28100 21.77800
H  -4.13200 15.35700 22.23800
H  -4.51200 17.16100 20.62900
H  -3.62400 18.54700 20.64900
H  -4.80000 18.42200 21.92500
H  -2.29000 15.12300 20.70400
H  -2.51600 13.76200 21.80100
H  -0.33700 14.08900 22.85100
H  -0.40900 15.84500 22.68700
H  -0.08100 14.88400 21.20500
H  -1.94800 11.39400 25.44800
H  -3.76000 11.48000 25.70300
H  -2.72100 10.85000 26.99400
H  -3.56800 14.24300 31.07800
H  -0.99300 13.60100 34.32500
H  0.20900 13.10200 33.08900
H  -0.85400 11.99000 33.87900
Mg 30.16500 58.47100 41.09600
C  27.31000 56.75800 40.02500
C  31.98700 56.02500 39.46100
C  32.98900 60.46300 41.15500
C  28.18800 61.14900 42.32800
N  29.67800 56.46800 40.08600
C  28.47100 56.03500 39.67500
C  28.54500 54.75800 38.84500
C  30.05500 54.38500 38.93900
C  30.63900 55.71600 39.53400
C  30.45500 53.07500 39.64600
C  28.01800 54.95500 37.39400
C  27.46000 53.76400 36.61400
H  27.80300 53.71900 35.10900
N  32.14300 58.31600 40.35700
C  32.68300 57.17900 39.73400
C  34.03900 57.38900 39.43800
C  34.35200 58.64900 39.97500
C  33.10700 59.23800 40.47900
C  34.94300 56.29100 38.84700
C  35.69000 59.29800 39.67900
O  36.71300 58.64300 39.44300
C  35.96400 60.78400 39.77700
N  30.49200 60.52900 41.63600
C  31.79600 61.08000 41.72200
C  31.66100 62.52300 41.97300
C  30.15700 62.72700 42.44400
C  29.51700 61.41000 42.12500
C  32.69600 63.07900 43.03600
C  29.39200 64.02500 41.80200
C  28.56800 64.80700 42.85500
N  28.20400 58.89800 41.27200
C  27.57600 59.98100 41.85700
C  26.15100 59.73900 41.80800
C  26.00500 58.49000 41.11000
C  27.27500 58.02000 40.83100
C  25.03400 60.64500 42.33700
C  25.05200 57.53100 40.58700
O  23.86200 57.58000 40.48300
C  25.89600 56.33500 39.90800
C  25.52100 55.15500 40.69300
O  26.03200 54.77000 41.72900
O  24.46300 54.49100 40.14900
C  23.88800 53.29400 40.80900
H  32.57500 55.16700 39.12800
H  33.82700 61.14300 41.32100
H  27.53500 61.86500 42.83300
H  27.97600 53.90400 39.21100
H  30.36100 54.25100 37.90100
H  31.21700 53.19600 40.41700
H  30.92200 52.39100 38.93700
H  29.56700 52.53900 39.98300
H  28.81000 55.45600 36.83700
H  27.17100 55.63700 37.47500
H  26.37400 53.69200 36.67200
H  27.90600 52.87900 37.06700
H  34.50900 55.86600 37.94300
H  34.99700 55.42000 39.50100
H  35.92700 56.65000 38.54700
H  35.14400 61.38000 39.37600
H  36.79800 60.94200 39.09200
H  36.29600 61.00800 40.79100
H  31.84800 62.91600 40.97300
H  30.15600 62.79100 43.53200
H  33.50500 63.50900 42.44600
H  33.06000 62.24300 43.63300
H  32.21300 63.94100 43.49800
H  28.67300 63.67600 41.06000
H  30.07900 64.78600 41.43100
H  27.54200 64.82800 42.48700
H  28.94900 65.82800 42.87900
H  28.64700 64.42400 43.87300
H  25.27000 61.68800 42.12500
H  25.29800 60.76700 43.38700
H  24.02500 60.24300 42.25100
H  25.57200 56.22400 38.87300
H  24.70500 52.79800 41.33300
H  23.57100 52.61200 40.02100
H  23.09800 53.59400 41.49900

