158

Mg 45.33700 3.82700 47.62800
C  43.46500 6.80600 47.04200
C  42.39900 2.05400 46.94000
C  47.13400 1.04100 47.18800
C  48.17000 5.71600 48.07400
N  43.19300 4.37800 47.19100
C  42.69600 5.64300 46.96800
C  41.19500 5.57900 46.55400
C  40.82400 4.06300 46.83700
C  42.20800 3.44400 47.08300
C  39.83100 3.79600 48.02200
C  40.87100 6.01100 45.03900
C  39.88800 7.19500 44.91300
H  38.82900 7.09600 43.75600
N  44.85300 1.79100 47.07300
C  43.56200 1.27800 46.89200
C  43.69900 -0.03500 46.45400
C  45.02200 -0.40900 46.40900
C  45.74300 0.80500 46.92900
C  42.55100 -0.97600 46.12400
C  45.61300 -1.84800 46.13000
O  44.82600 -2.71200 45.69000
C  47.03400 -2.22000 46.40900
N  47.32300 3.44500 47.69700
C  47.82700 2.15500 47.60200
C  49.21700 2.10100 48.14100
C  49.69900 3.64300 48.30200
C  48.31600 4.30400 48.02200
C  49.34300 1.22900 49.41300
C  50.78500 3.93500 47.23300
C  52.24300 3.98700 47.76600
N  45.83600 5.80700 47.59100
C  47.00800 6.46500 47.80000
C  46.82400 7.90200 47.65600
C  45.47200 8.04900 47.44500
C  44.90300 6.77500 47.39400
C  47.88700 8.96600 47.64900
C  44.42300 9.04000 47.18900
O  44.56500 10.23200 47.16900
C  43.08100 8.22600 47.04300
C  42.27000 8.59300 48.23600
O  42.02600 7.84100 49.20800
O  41.63200 9.85600 48.02400
C  40.30300 10.01400 48.52900
H  41.50100 1.47100 46.72700
H  47.75400 0.14500 47.26300
H  49.04800 6.27900 48.39700
H  40.61500 6.15700 47.27300
H  40.37700 3.66600 45.92500
H  39.01800 3.14900 47.68900
H  39.28300 4.71900 48.21100
H  40.34000 3.42800 48.91300
H  40.48300 5.12800 44.53100
H  41.77400 6.37600 44.54900
H  40.42000 8.12600 44.71800
H  39.34700 7.36000 45.84500
H  42.69200 -1.37700 45.12000
H  41.61500 -0.42000 46.07400
H  42.59300 -1.80200 46.83400
H  47.57100 -1.44700 45.85900
H  47.35800 -3.18500 46.01900
H  47.33100 -2.00600 47.43600
H  49.81600 1.68900 47.32900
H  50.09300 3.89700 49.28500
H  49.94200 0.32000 49.46500
H  48.38000 0.90800 49.81100
H  49.68000 1.85700 50.23800
H  50.64900 4.98600 46.98000
H  50.69200 3.27600 46.37000
H  52.62900 5.00700 47.77800
H  52.95600 3.50300 47.09800
H  52.41800 3.61600 48.77500
H  48.62400 8.64200 48.38500
H  47.51000 9.94600 47.94000
H  48.34700 8.91800 46.66200
H  42.53600 8.42700 46.12000
H  39.80800 10.78700 47.94200
H  40.44400 10.36500 49.55200
H  39.87400 9.01300 48.55300
Mg -5.84800 25.32900 26.44300
C  -4.80200 26.72500 29.66300
C  -7.68200 22.97500 28.27600
C  -6.52400 23.98500 23.57100
C  -3.52400 27.54600 25.10300
N  -6.18800 24.96200 28.66500
C  -5.72200 25.67200 29.80200
C  -6.29800 25.10000 31.04900
C  -6.92400 23.70500 30.54400
C  -6.93100 23.91400 29.07100
C  -6.09800 22.43500 30.99300
C  -7.03900 26.02100 31.96200
C  -6.91500 25.88800 33.54800
H  -6.19900 24.60100 34.05500
N  -6.88500 23.75400 26.00000
C  -7.70300 22.95000 26.87100
C  -8.46400 22.05600 26.07000
C  -8.22100 22.34600 24.74700
C  -7.17900 23.39800 24.68600
C  -9.30700 20.94700 26.71000
C  -8.79800 21.73200 23.49000
O  -8.43800 22.07300 22.38400
C  -9.87200 20.72900 23.59800
N  -5.10600 25.70400 24.66900
C  -5.60900 25.06600 23.58800
C  -5.00000 25.61600 22.24200
C  -4.04900 26.73700 22.83100
C  -4.16200 26.62300 24.31600
C  -4.21800 24.63400 21.34000
C  -4.17200 28.19300 22.20200
C  -3.24100 28.45600 20.99100
N  -4.49600 26.93200 27.18100
C  -3.65700 27.71200 26.46200
C  -2.92000 28.69200 27.32600
C  -3.39000 28.30900 28.58900
C  -4.29000 27.26400 28.49000
C  -2.04400 29.78600 26.88400
C  -3.31900 28.72200 29.99200
O  -2.83100 29.67200 30.55800
C  -4.24800 27.70000 30.70600
C  -3.48700 26.89000 31.64000
O  -2.81300 25.92700 31.35800
O  -3.58300 27.44600 32.93500
C  -2.75500 26.94400 33.95400
H  -8.24800 22.31700 28.93900
H  -6.75000 23.53300 22.60300
H  -2.77300 28.17500 24.62100
H  -5.34700 24.85400 31.52200
H  -7.90800 23.56000 30.98900
H  -5.19800 22.71900 31.53800
H  -5.67400 21.95000 30.11400
H  -6.83800 21.85700 31.54500
H  -8.11500 25.86300 31.88300
H  -6.87900 27.03800 31.60300
H  -7.93100 26.05000 33.90800
H  -6.40900 26.77400 33.93100
H  -10.34500 20.89900 26.37800
H  -9.44700 21.16000 27.76900
H  -8.80400 20.00000 26.51300
H  -9.36000 19.79900 23.84300
H  -10.34300 20.55800 22.63000
H  -10.65500 21.12300 24.24600
H  -5.73400 26.11500 21.60900
H  -3.06200 26.34300 22.59200
H  -3.78300 23.79100 21.87700
H  -3.41000 25.19100 20.86600
H  -4.84400 24.26500 20.52700
H  -3.97300 28.95100 22.96100
H  -5.22200 28.36400 21.96700
H  -2.41000 29.12200 21.22600
H  -3.65600 28.89800 20.08500
H  -2.81500 27.47600 20.77500
H  -1.08500 29.53800 26.42700
H  -1.87000 30.37200 27.78600
H  -2.56200 30.45400 26.19600
H  -5.08800 28.10100 31.27300
H  -3.33000 26.25300 34.57100
H  -2.45300 27.75300 34.61900
H  -1.89000 26.40900 33.56300

