158

Mg 35.69400 47.86700 25.64400
C  35.51400 46.35800 28.79400
C  34.27500 50.74800 27.06500
C  35.29300 49.30600 22.42900
C  36.71400 44.95500 24.24100
N  34.84300 48.42700 27.65000
C  35.13800 47.74400 28.84000
C  34.94600 48.63100 30.11400
C  34.36800 49.98000 29.47100
C  34.49000 49.70000 27.97300
C  32.83100 50.36800 29.79300
C  36.28400 48.79500 30.88700
C  36.36700 48.31700 32.36200
H  35.10200 48.16300 33.20700
N  34.91400 49.82500 24.79700
C  34.36600 50.82400 25.63200
C  34.00900 51.92300 24.71600
C  34.36500 51.49700 23.39900
C  34.84500 50.13900 23.46700
C  33.52400 53.28900 25.16900
C  34.18200 52.28400 22.07300
O  34.40500 51.78300 21.00100
C  33.76000 53.62800 22.02500
N  35.83100 47.19400 23.65500
C  35.81000 48.00700 22.51600
C  36.46700 47.37700 21.32200
C  37.06200 46.07700 21.87100
C  36.54600 46.06600 23.38900
C  35.53900 47.12200 20.10000
C  38.62000 46.01600 21.94300
C  39.25400 46.23000 20.56300
N  36.15900 46.04900 26.31600
C  36.51800 44.89100 25.64300
C  36.69800 43.78300 26.62500
C  36.17700 44.34400 27.84000
C  35.96000 45.68400 27.62000
C  37.27800 42.40200 26.30900
C  36.05100 44.02500 29.26600
O  36.27600 43.06200 29.93800
C  35.49600 45.32900 29.87400
C  34.16700 45.16500 30.54600
O  33.06400 45.12200 30.01800
O  34.39000 45.02900 31.86800
C  33.15200 44.85300 32.62800
H  33.92700 51.68800 27.49800
H  35.42100 49.84800 21.49000
H  37.14100 44.05200 23.80000
H  34.26000 48.05800 30.73700
H  34.99800 50.85200 29.64400
H  32.57100 49.82000 30.69900
H  32.14700 50.06000 29.00300
H  32.76600 51.45200 29.89400
H  36.58000 49.84300 30.83100
H  37.03100 48.28300 30.28100
H  36.99100 48.93000 33.01300
H  36.95600 47.40200 32.29700
H  34.23700 54.00100 24.75400
H  33.60400 53.44700 26.24500
H  32.52600 53.58500 24.84600
H  32.88300 53.82300 22.64300
H  33.49300 53.82300 20.98600
H  34.52200 54.34200 22.33700
H  37.15600 48.14600 20.97200
H  36.60400 45.27100 21.29900
H  35.92000 46.27300 19.53200
H  35.47700 48.05500 19.54000
H  34.53000 46.78800 20.34300
H  38.91700 45.02700 22.29300
H  38.90600 46.78200 22.66300
H  38.47500 46.34800 19.80900
H  39.85000 45.39600 20.19300
H  39.85800 47.10200 20.81300
H  37.81300 42.44600 25.36100
H  36.56600 41.59600 26.12900
H  37.87900 42.24800 27.20500
H  36.24800 45.52200 30.63900
H  32.43900 44.08200 32.33300
H  32.72900 45.84300 32.79900
H  33.29800 44.50700 33.65100
Mg 26.31500 50.36000 27.19700
C  24.10200 51.65600 29.61800
C  28.29600 49.12400 29.53200
C  28.34300 49.19500 24.62500
C  24.10500 51.35900 24.78100
N  26.15900 50.27700 29.33500
C  25.26700 50.91700 30.11600
C  25.51700 50.71800 31.58200
C  27.02100 50.03200 31.55800
C  27.19600 49.81900 30.04900
C  28.20200 50.87600 32.06700
C  24.44100 49.83500 32.23400
C  23.94300 50.25400 33.64500
H  24.96900 50.63600 34.65800
N  28.15200 49.43300 27.08900
C  28.73700 48.86100 28.19000
C  29.91100 48.00500 27.83900
C  30.04400 48.13600 26.40600
C  28.80500 48.94900 25.98200
C  30.73100 47.26600 28.85000
C  31.03900 47.42000 25.41800
O  31.05100 47.60600 24.21300
C  32.03400 46.49200 25.97000
N  26.27700 50.35600 25.00600
C  27.22000 49.84400 24.18000
C  26.86000 50.02300 22.71200
C  25.40000 50.44200 22.79500
C  25.15500 50.66700 24.26500
C  27.77400 51.08700 22.02600
C  24.41600 49.31800 22.25700
C  23.78600 49.53300 20.91800
N  24.59000 51.42100 27.14700
C  23.81600 51.81800 26.05900
C  22.58900 52.48600 26.48800
C  22.71800 52.47100 27.86400
C  23.86500 51.74400 28.23100
C  21.52300 52.97800 25.60600
C  21.96700 52.78500 29.05500
O  20.85500 53.28200 29.19500
C  22.85000 52.26300 30.25200
C  23.30100 53.35900 31.18500
O  24.40600 53.95700 31.15100
O  22.32700 53.55000 32.15300
C  22.50000 54.49200 33.27200
H  28.89400 48.77300 30.37500
H  29.04900 48.88100 23.85300
H  23.31700 51.52200 24.04200
H  25.56700 51.72700 31.99000
H  26.95100 49.08500 32.09400
H  28.89500 51.13700 31.26700
H  28.71200 50.22300 32.77500
H  27.77400 51.79900 32.45700
H  24.71800 48.79100 32.38200
H  23.54700 49.63200 31.64400
H  23.37600 49.38200 33.97000
H  23.24900 51.07900 33.47900
H  30.61500 46.20100 28.64500
H  30.48500 47.53300 29.87700
H  31.76600 47.60400 28.89300
H  32.51600 47.02400 26.79000
H  32.78800 46.42600 25.18500
H  31.53400 45.53700 26.12700
H  27.05500 49.04000 22.28400
H  25.16300 51.40100 22.33500
H  28.33100 51.63000 22.79000
H  27.14800 51.62000 21.31100
H  28.49900 50.54600 21.41800
H  23.54700 49.15600 22.89500
H  24.89500 48.34600 22.13200
H  22.81800 49.05200 21.05900
H  24.28200 49.10200 20.04700
H  23.75300 50.58300 20.62700
H  21.91900 53.17200 24.60900
H  21.05300 53.84700 26.06500
H  20.69600 52.29600 25.40800
H  22.20700 51.59500 30.82500
H  23.14900 54.04200 34.02300
H  21.53000 54.75900 33.69100
H  23.01500 55.34500 32.83000

