158

Mg 16.97600 -1.71700 28.20100
C  16.31900 0.50100 30.82100
C  18.72200 -3.72000 30.24600
C  17.95900 -3.45500 25.40700
C  15.20300 0.51000 26.02300
N  17.54900 -1.44000 30.30600
C  17.15000 -0.54100 31.21700
C  17.71400 -0.89600 32.59700
C  18.74200 -2.01400 32.37000
C  18.33100 -2.45300 30.93800
C  20.24600 -1.57900 32.37400
C  16.50100 -1.44800 33.47300
C  16.22800 -0.75300 34.88200
H  17.41800 0.05400 35.51000
N  18.06000 -3.43900 27.87200
C  18.73100 -4.10400 28.89800
C  19.35000 -5.29500 28.27000
C  19.07500 -5.24100 26.83600
C  18.25900 -4.07700 26.60400
C  20.13000 -6.33700 29.08500
C  19.62200 -6.20500 25.70900
O  19.51500 -5.97100 24.51500
C  20.47900 -7.39000 26.00300
N  16.74800 -1.40300 26.07600
C  17.26700 -2.29200 25.17000
C  17.16200 -1.82100 23.71100
C  16.09000 -0.63900 23.90500
C  15.92100 -0.53100 25.47000
C  18.60900 -1.35200 23.10900
C  14.71300 -0.89000 23.15900
C  14.34000 0.06400 22.09800
N  15.99600 0.12400 28.34700
C  15.20100 0.83500 27.43100
C  14.61800 2.01800 28.07600
C  14.95200 1.84900 29.38300
C  15.85500 0.76000 29.50000
C  13.73300 3.12700 27.48000
C  14.78400 2.44000 30.67100
O  14.15000 3.45700 31.08800
C  15.67500 1.62000 31.71600
C  16.69900 2.48300 32.30600
O  17.83200 2.63700 31.82800
O  16.17100 3.23400 33.34200
C  16.97900 4.30800 33.92500
H  19.40500 -4.32300 30.84800
H  18.22300 -4.00800 24.50300
H  14.69600 1.19700 25.34200
H  18.25100 -0.04200 33.01200
H  18.60100 -2.82200 33.08800
H  20.30600 -0.49100 32.39200
H  20.84400 -1.99200 31.56100
H  20.57400 -1.85600 33.37500
H  16.58000 -2.53500 33.51100
H  15.64300 -1.17200 32.86000
H  15.83600 -1.45200 35.62100
H  15.33300 -0.18000 34.64200
H  20.35400 -6.00500 30.09900
H  21.07000 -6.54500 28.57400
H  19.68900 -7.31700 29.26700
H  20.09600 -8.04000 26.79000
H  21.39300 -6.93500 26.38500
H  20.70000 -8.06700 25.17700
H  16.73000 -2.55600 23.03100
H  16.47200 0.34300 23.62600
H  18.78300 -1.89800 22.18100
H  19.41200 -1.58200 23.80900
H  18.77800 -0.29700 22.89200
H  13.92400 -0.94500 23.90900
H  14.62600 -1.86900 22.68700
H  15.23100 0.28200 21.51000
H  13.87000 0.99200 22.42300
H  13.64100 -0.44600 21.43500
H  14.14400 4.12800 27.61800
H  12.77300 3.07200 27.99200
H  13.49500 2.86100 26.45000
H  14.94000 1.26700 32.43900
H  17.81900 4.66700 33.33000
H  17.29100 3.83400 34.85600
H  16.31600 5.16000 34.06900
Mg 41.64700 40.95700 26.96500
C  40.55300 43.27100 29.27900
C  42.69900 38.92500 29.61900
C  42.87500 38.64100 24.71900
C  41.14800 43.27200 24.41100
N  41.70700 41.10700 29.13400
C  41.06200 42.08500 29.83700
C  40.99900 41.70800 31.39700
C  42.02100 40.53500 31.46700
C  42.18800 40.17600 30.02400
C  43.33400 40.86100 32.15300
C  39.49700 41.36100 31.77100
C  38.92600 42.12600 32.90300
H  38.39100 41.27200 34.14100
N  42.70900 39.04800 27.14900
C  42.86300 38.33600 28.30000
C  43.29900 36.93700 27.98300
C  43.47200 36.89200 26.62500
C  42.99800 38.26600 26.13900
C  43.60100 35.89900 29.04800
C  43.86400 35.81200 25.70300
O  44.16000 35.98200 24.48600
C  44.12700 34.49500 26.27000
N  42.09800 40.98800 24.85300
C  42.44200 39.86600 24.15300
C  42.52800 40.19400 22.63900
C  42.13900 41.69200 22.56000
C  41.74300 42.01900 24.02500
C  43.95000 39.95100 22.05100
C  41.08000 42.04000 21.57600
C  39.66600 41.53000 21.81700
N  41.00500 42.92600 26.82500
C  40.79600 43.67200 25.70800
C  40.21900 44.89300 26.12500
C  40.07500 44.83000 27.54700
C  40.53600 43.58100 27.90800
C  39.88600 45.93500 25.13500
C  39.63500 45.39400 28.73100
O  39.03300 46.39500 28.93300
C  39.96900 44.45800 29.89400
C  40.89800 45.21600 30.78500
O  41.95000 45.72400 30.46000
O  40.39700 45.20500 32.10200
C  41.12500 45.93400 33.13100
H  42.88600 38.19600 30.41000
H  43.27700 37.97400 23.95300
H  40.96800 43.99900 23.61600
H  41.48200 42.51500 31.94800
H  41.62900 39.70900 32.06200
H  43.21700 41.64400 32.90300
H  44.11200 41.16300 31.45300
H  43.68300 39.96700 32.66900
H  39.38800 40.29800 31.98600
H  38.91500 41.61200 30.88400
H  38.19400 42.88000 32.61600
H  39.72400 42.76500 33.28200
H  42.90100 35.06300 29.04600
H  43.51100 36.26900 30.06900
H  44.61300 35.51100 28.93500
H  43.32400 34.24800 26.96400
H  45.06400 34.66800 26.79800
H  44.20800 33.73700 25.49100
H  41.81500 39.62700 22.04000
H  43.06700 42.25400 22.44700
H  43.92500 38.89100 21.79800
H  44.73200 40.05700 22.80300
H  44.15400 40.65600 21.24500
H  41.42000 41.58000 20.64800
H  41.05200 43.11500 21.39600
H  39.70200 40.76100 22.58900
H  39.34800 41.02000 20.90700
H  39.00800 42.32500 22.16800
H  39.19400 45.48600 24.42200
H  40.83600 46.19000 24.66500
H  39.40800 46.77400 25.64000
H  39.11900 44.25100 30.54400
H  40.89000 45.62700 34.15000
H  40.86700 46.98700 33.01900
H  42.19200 45.92700 32.90600

