158

Mg 40.63300 8.57100 29.47500
C  42.26100 10.37200 31.91500
C  38.52200 7.28800 31.85900
C  38.87000 7.31000 27.04800
C  43.00400 9.72200 27.15300
N  40.44900 8.90700 31.73400
C  41.13400 9.72100 32.50200
C  40.71400 9.63700 34.00300
C  39.44700 8.64100 33.84600
C  39.50200 8.23400 32.41100
C  39.37600 7.34900 34.74800
C  40.32200 11.01700 34.66800
C  39.38900 10.95600 35.78200
H  39.66900 11.77100 36.99800
N  38.95100 7.47600 29.40100
C  38.19200 6.97200 30.47100
C  37.16100 6.13900 30.06100
C  37.14400 6.21500 28.62200
C  38.35000 7.04900 28.28800
C  36.37900 5.25600 30.96500
C  36.09300 5.78100 27.53600
O  36.09400 6.05200 26.35200
C  34.84600 5.13600 28.12800
N  41.11400 8.31400 27.42000
C  40.06800 7.86900 26.63500
C  40.36500 8.14100 25.12000
C  41.85200 8.67200 25.17000
C  42.06600 8.92300 26.67400
C  40.11500 7.03500 24.03000
C  42.10900 9.81500 24.17200
C  41.47700 11.18400 24.46100
N  42.35100 9.61800 29.53600
C  43.17200 10.06700 28.51100
C  44.22700 10.86900 29.03100
C  43.88500 11.11400 30.33600
C  42.69500 10.36800 30.56200
C  45.33300 11.31700 28.22300
C  44.24400 11.75200 31.60800
O  45.22600 12.43200 31.83900
C  43.21600 11.35400 32.61800
C  43.95400 10.73000 33.79200
O  44.21200 9.54200 33.95800
O  43.94800 11.67400 34.79400
C  44.33100 11.18300 36.19500
H  37.81100 6.98200 32.62900
H  38.31400 7.04700 26.14600
H  43.58300 10.29500 26.42600
H  41.47800 9.02900 34.48600
H  38.47700 9.09000 34.06000
H  38.36500 7.21500 35.13400
H  40.09800 7.32900 35.56500
H  39.72200 6.47200 34.20200
H  39.98500 11.77200 33.95800
H  41.28300 11.37200 35.04000
H  39.34000 9.91300 36.09300
H  38.36400 11.08500 35.43300
H  36.63500 4.22900 30.70300
H  35.30300 5.28500 30.79900
H  36.48100 5.43200 32.03600
H  34.06800 4.92600 27.39400
H  34.44800 5.90400 28.79200
H  35.12400 4.20200 28.61500
H  39.68000 8.95700 24.89100
H  42.49500 7.82300 24.93400
H  39.97200 6.08000 24.53500
H  40.92100 7.06100 23.29500
H  39.21500 7.32700 23.48900
H  41.66900 9.52100 23.22000
H  43.18700 9.91300 24.03700
H  41.00000 11.39200 25.41900
H  40.74400 11.23500 23.65600
H  42.30000 11.85300 24.21100
H  45.78900 12.20900 28.65200
H  44.94700 11.56500 27.23400
H  46.08800 10.53300 28.16500
H  42.66200 12.21200 33.00000
H  43.64700 11.46200 36.99700
H  45.21200 11.77300 36.44600
H  44.58400 10.13100 36.32600
Mg 48.47000 46.30800 42.79900
C  45.03000 46.45000 42.20000
C  48.54100 43.12300 41.47300
C  51.82700 46.55900 42.52200
C  48.29900 49.59700 43.75200
N  46.94300 44.96500 41.84400
C  45.61700 45.23000 41.74600
C  44.97800 44.11300 41.01100
C  45.95600 42.91700 41.26100
C  47.25300 43.68400 41.52900
C  45.60500 41.87800 42.36100
C  44.62800 44.40300 39.52100
C  43.16900 44.07400 39.15300
H  42.96900 43.88400 37.69100
N  50.02200 44.99400 42.08100
C  49.83000 43.66600 41.71400
C  51.17400 43.07000 41.65000
C  52.15800 44.10200 41.81100
C  51.39400 45.26100 42.23000
C  51.37400 41.58900 41.26900
C  53.68200 43.90100 41.71600
O  54.01600 42.90400 41.21500
C  54.67500 44.93900 42.16800
N  49.83600 47.94100 42.71400
C  51.18800 47.77100 42.84700
C  51.87500 49.06600 43.25200
C  50.75200 50.05100 43.67600
C  49.54300 49.08500 43.36400
C  53.06400 48.87900 44.32300
C  50.73400 51.45500 42.94200
C  50.52200 52.71900 43.85100
N  46.96700 47.73000 43.19700
C  47.04300 48.97100 43.68400
C  45.68300 49.57900 43.84900
C  44.85800 48.61200 43.19000
C  45.69500 47.57500 42.79700
C  45.34000 50.90200 44.45800
C  43.48700 48.29500 42.82700
O  42.52100 48.92300 43.14600
C  43.50100 46.82100 42.11900
C  42.51300 45.90400 42.75000
O  41.95000 45.00500 42.12300
O  42.41700 46.06500 44.11900
C  41.38900 45.25400 44.79700
H  48.56600 42.06200 41.21700
H  52.90100 46.75000 42.49400
H  48.38400 50.65500 44.01100
H  44.08900 43.83200 41.57500
H  46.18800 42.37100 40.34600
H  44.58900 41.97000 42.74500
H  46.46100 41.91200 43.03500
H  45.61600 40.92300 41.83700
H  45.31000 43.81700 38.90500
H  44.87100 45.44500 39.31100
H  42.49100 44.84400 39.52100
H  42.88900 43.13400 39.62700
H  51.71000 41.46200 40.24000
H  50.46400 40.99000 41.32100
H  52.08200 41.04600 41.89400
H  54.58900 45.79400 41.49800
H  55.68900 44.54100 42.14400
H  54.38400 45.16400 43.19400
H  52.23700 49.34400 42.26200
H  50.75000 50.19900 44.75600
H  53.94800 49.45200 44.04500
H  53.33000 47.82700 44.41900
H  52.81200 49.29000 45.30000
H  49.91100 51.49800 42.22900
H  51.67400 51.58800 42.40800
H  51.41100 53.34700 43.91200
H  50.24500 52.33200 44.83100
H  49.75600 53.40800 43.49200
H  45.76900 51.65000 43.79100
H  45.80100 51.04000 45.43600
H  44.27000 50.97000 44.65500
H  43.32000 46.90000 41.04700
H  40.39200 45.66400 44.63400
H  41.73300 45.26100 45.83100
H  41.42100 44.21900 44.45600

