158

Mg 36.14200 48.72000 25.87800
C  36.36200 47.05200 28.89600
C  35.24600 51.52000 27.65700
C  36.09900 50.35900 23.02200
C  36.86000 45.68100 24.17700
N  35.64300 49.13300 28.05400
C  35.93100 48.36400 29.14200
C  35.68000 49.04800 30.48600
C  34.94300 50.36300 29.97400
C  35.24400 50.33600 28.46300
C  33.45400 50.60200 30.37100
C  37.02300 49.26100 31.33200
C  36.84900 48.94200 32.76600
H  35.49600 49.11000 33.41500
N  35.74000 50.68000 25.40000
C  35.46600 51.69200 26.29800
C  35.45500 52.94200 25.58900
C  35.77300 52.64400 24.20100
C  35.80900 51.17600 24.12400
C  35.08400 54.27000 26.22000
C  35.98700 53.61300 23.00100
O  36.43300 53.22100 21.90600
C  35.79600 55.06500 23.05100
N  36.16300 48.01800 23.81800
C  36.28600 48.99700 22.82300
C  36.41500 48.23500 21.51400
C  37.01600 46.83400 21.97300
C  36.65700 46.78000 23.39500
C  35.16800 48.20600 20.64500
C  38.56800 46.61700 21.71500
C  38.94900 45.49800 20.89800
N  36.51700 46.74500 26.33000
C  36.89600 45.69000 25.55700
C  37.18600 44.57900 26.37600
C  36.91200 45.00800 27.71900
C  36.56600 46.38900 27.60100
C  37.65200 43.25700 25.85000
C  36.94300 44.69400 29.13500
O  37.17100 43.62100 29.68300
C  36.55100 46.03500 29.92600
C  35.34400 45.77800 30.75800
O  34.15100 45.71700 30.27900
O  35.58700 45.68100 32.05100
C  34.47300 45.14900 32.87200
H  34.89200 52.34600 28.27700
H  36.11800 50.87700 22.06100
H  37.00400 44.70000 23.72100
H  34.90800 48.49600 31.02200
H  35.35900 51.24900 30.45300
H  33.41400 51.52600 30.94900
H  33.15700 49.84800 31.09900
H  32.91100 50.65800 29.42700
H  37.34800 50.30200 31.32300
H  37.69400 48.49400 30.94600
H  37.46400 49.56200 33.41900
H  37.17200 47.90700 32.88200
H  34.89300 54.24500 27.29200
H  34.20700 54.70700 25.74200
H  35.90400 54.97500 26.08100
H  36.34400 55.49100 22.21000
H  36.37600 55.39600 23.91200
H  34.77900 55.45200 22.98400
H  37.15100 48.86200 21.01000
H  36.55800 46.02300 21.40600
H  35.17800 47.40800 19.90200
H  35.16400 49.09500 20.01400
H  34.34500 48.15200 21.35700
H  39.01900 46.40300 22.68400
H  38.98900 47.55900 21.36200
H  39.36700 46.01100 20.03200
H  38.07500 44.91500 20.60500
H  39.67800 44.88500 21.42800
H  38.67100 43.51300 25.55900
H  37.08800 43.01300 24.95000
H  37.53100 42.50700 26.63200
H  37.38000 46.28900 30.58700
H  34.17200 44.24300 32.34700
H  33.79300 46.00100 32.85800
H  34.77700 44.84100 33.87300
Mg -2.66300 35.04200 26.85200
C  -4.52300 33.47400 29.21300
C  -1.83100 37.50700 29.09600
C  -0.64400 36.44900 24.52400
C  -3.93400 32.98000 24.41800
N  -3.20300 35.45200 28.88200
C  -3.91200 34.60200 29.69500
C  -3.85700 35.10400 31.16300
C  -3.42300 36.58200 30.98200
C  -2.73900 36.53400 29.53900
C  -4.57600 37.58500 30.95900
C  -2.88100 34.28900 32.11000
C  -3.41000 33.70100 33.38600
H  -2.52500 33.59000 34.67100
N  -1.39100 36.74300 26.82300
C  -1.13000 37.59200 27.85400
C  -0.04900 38.44000 27.50100
C  0.33000 38.15200 26.17600
C  -0.53700 37.07200 25.76500
C  0.38700 39.51100 28.47600
C  1.31900 38.78700 25.20700
O  1.57000 38.21700 24.16800
C  1.96200 40.07500 25.55400
N  -2.38200 34.83400 24.70100
C  -1.39500 35.47100 24.06000
C  -1.18600 34.87600 22.62100
C  -2.30100 33.72200 22.58800
C  -2.92400 33.86800 24.01000
C  -1.36700 35.94800 21.48800
C  -1.73000 32.33600 22.19800
C  -2.70900 31.38100 21.46000
N  -4.09200 33.63000 26.75900
C  -4.54500 32.88100 25.68600
C  -5.49900 31.89600 26.18900
C  -5.45300 32.04900 27.58400
C  -4.58900 33.12100 27.83500
C  -6.14000 30.76700 25.43400
C  -5.91300 31.51400 28.83500
O  -6.51700 30.46500 29.07400
C  -5.31500 32.44800 29.97400
C  -6.45800 33.11600 30.69900
O  -7.20700 33.93300 30.23500
O  -6.64700 32.52200 31.91500
C  -7.49100 33.31400 32.78400
H  -1.42600 38.12200 29.90300
H  -0.00700 36.76300 23.69400
H  -4.31200 32.32100 23.63400
H  -4.91900 34.99500 31.38100
H  -2.67200 36.90600 31.70200
H  -5.43600 37.00500 31.29400
H  -4.68600 37.91300 29.92600
H  -4.57800 38.32300 31.76100
H  -2.00500 34.91700 32.27300
H  -2.54500 33.43100 31.52900
H  -3.76500 32.71400 33.09000
H  -4.34400 34.17400 33.69000
H  0.85600 39.23500 29.42000
H  -0.41000 40.18000 28.80000
H  1.01300 40.25600 27.98400
H  2.41800 40.40900 24.62200
H  2.67100 39.79500 26.33400
H  1.20000 40.76600 25.91500
H  -0.18300 34.44900 22.58900
H  -3.04600 33.98100 21.83400
H  -2.13500 36.56900 21.94800
H  -1.75800 35.46600 20.59200
H  -0.44800 36.47600 21.23200
H  -1.59600 31.78000 23.12600
H  -0.70000 32.35300 21.84300
H  -2.15900 30.90700 20.64800
H  -3.49200 32.05500 21.11100
H  -3.06300 30.58400 22.11300
H  -5.76500 30.81700 24.41200
H  -7.21700 30.69900 25.59100
H  -5.60400 29.95400 25.92300
H  -4.64800 31.88200 30.62400
H  -7.24100 34.37100 32.86900
H  -7.60100 32.87400 33.77500
H  -8.47700 33.31300 32.32000

