158

Mg 24.04000 -5.57500 45.31800
C  26.40300 -3.19400 43.80800
C  21.71500 -4.20400 43.42200
C  22.32800 -8.31400 46.09100
C  26.86200 -6.73900 47.15100
N  24.09500 -3.85000 43.89500
C  25.12500 -3.13700 43.36300
C  24.61500 -2.19200 42.26600
C  23.09000 -2.27600 42.39300
C  22.92100 -3.49300 43.33400
C  22.39500 -1.05800 42.86600
C  25.24300 -2.44800 40.89800
C  25.95600 -1.21100 40.30800
H  25.42200 -0.74500 38.97500
N  22.12400 -6.10500 44.97000
C  21.30100 -5.43900 44.11200
C  20.02000 -6.09800 44.10500
C  20.13000 -7.28700 44.87300
C  21.56800 -7.30900 45.32700
C  18.79200 -5.69800 43.26200
C  18.98400 -8.26200 45.15400
O  17.87700 -8.17700 44.74900
C  19.28200 -9.51100 45.96400
N  24.58500 -7.35500 46.34600
C  23.66300 -8.32300 46.54900
C  24.23200 -9.46900 47.39600
C  25.76100 -9.00500 47.70200
C  25.79200 -7.61500 47.00500
C  23.41800 -9.89600 48.62000
C  26.88000 -9.97200 47.13000
C  27.62300 -10.97700 48.14200
N  26.30000 -5.06800 45.53500
C  27.23300 -5.59100 46.34600
C  28.48700 -4.90700 46.25700
C  28.25600 -4.03400 45.17800
C  26.89200 -4.14800 44.82000
C  29.72600 -5.22600 47.08500
C  28.82500 -2.95100 44.30600
O  29.95100 -2.56300 44.14900
C  27.65400 -2.38700 43.44400
C  27.42000 -1.00100 43.77900
O  26.47600 -0.53300 44.42200
O  28.57000 -0.24500 43.48000
C  28.68900 1.07600 43.92800
H  20.94000 -3.63200 42.90800
H  21.76500 -9.20500 46.37500
H  27.79800 -6.97700 47.66000
H  24.86500 -1.17800 42.57800
H  22.66600 -2.54400 41.42600
H  22.52500 -0.15700 42.26700
H  22.53800 -0.70800 43.88800
H  21.33500 -1.30600 42.80200
H  24.43000 -2.60100 40.18800
H  25.93700 -3.28600 40.83900
H  26.99600 -1.45100 40.08800
H  25.96400 -0.37100 41.00200
H  18.04100 -5.20100 43.87600
H  18.44900 -6.58200 42.72600
H  19.07700 -4.96300 42.50900
H  18.34400 -10.02400 46.17800
H  19.68900 -9.08700 46.88200
H  19.89600 -10.20800 45.39300
H  24.27900 -10.29800 46.69000
H  25.95800 -8.90700 48.77000
H  22.91300 -9.02400 49.03600
H  24.00400 -10.38700 49.39700
H  22.80000 -10.71300 48.24900
H  27.63400 -9.38900 46.60200
H  26.42300 -10.50900 46.29800
H  28.68600 -10.80000 48.30500
H  27.52400 -11.99500 47.76600
H  27.07900 -10.85000 49.07800
H  30.39800 -5.98900 46.69200
H  29.65300 -5.55100 48.12200
H  30.39300 -4.36400 47.08800
H  27.93300 -2.53900 42.40100
H  28.94700 1.75300 43.11400
H  29.59000 1.19200 44.53000
H  27.76500 1.50800 44.31200
Mg 46.78900 25.15300 28.40700
C  47.72500 27.32000 30.92600
C  46.17700 22.74000 30.84600
C  46.16500 22.85400 25.95200
C  48.00700 27.27800 26.03200
N  46.98100 25.07600 30.63400
C  47.26500 26.13300 31.44100
C  47.06600 25.79200 32.98500
C  46.70400 24.21900 32.90900
C  46.61800 23.97400 31.38800
C  47.54400 23.27400 33.80800
C  46.07700 26.71200 33.71500
C  45.38000 26.19500 34.97400
H  45.35900 27.09200 36.23600
N  46.17600 23.08800 28.42700
C  45.94100 22.28100 29.53300
C  45.43500 20.97200 29.07000
C  45.58700 20.96600 27.68300
C  45.95900 22.35000 27.27900
C  44.90300 19.85500 29.99900
C  45.33600 19.78000 26.80600
O  45.39200 19.81600 25.56200
C  44.84400 18.48200 27.40200
N  46.95900 25.15600 26.21600
C  46.56200 24.16100 25.43300
C  46.90600 24.40900 23.94800
C  47.24000 25.88400 23.99100
C  47.42900 26.11900 25.46800
C  48.00900 23.47400 23.40900
C  46.08500 26.78900 23.44400
C  46.44600 27.96000 22.52500
N  47.74900 26.86500 28.44000
C  48.19100 27.64200 27.38800
C  48.67900 28.84500 27.91200
C  48.58000 28.80000 29.29800
C  48.00000 27.54200 29.60100
C  49.34800 29.94600 27.14700
C  48.70800 29.56700 30.52000
O  49.15700 30.67400 30.73800
C  47.99200 28.66100 31.57500
C  48.98600 28.76000 32.78400
O  49.88300 27.98000 33.02900
O  48.53200 29.71000 33.71000
C  48.94000 29.70200 35.12600
H  46.08000 22.03600 31.67500
H  45.80800 22.16600 25.18300
H  48.44900 27.87900 25.23400
H  47.99300 26.14400 33.43700
H  45.65700 24.18000 33.20900
H  48.31900 22.69900 33.30100
H  46.85200 22.72700 34.44800
H  48.02900 24.05800 34.39000
H  45.27200 27.03700 33.05600
H  46.54500 27.69600 33.76400
H  45.84000 25.24400 35.24200
H  44.31600 26.08300 34.76800
H  44.86800 20.25600 31.01200
H  45.52200 18.96000 30.06000
H  43.87500 19.64200 29.70600
H  44.46600 17.79200 26.64700
H  43.82700 18.57600 27.78200
H  45.57800 18.01400 28.05800
H  45.99900 24.22600 23.37200
H  48.13800 25.98400 23.38100
H  48.08200 22.61000 24.06900
H  48.93500 24.04600 23.35000
H  47.67300 23.18700 22.41300
H  45.44600 27.11900 24.26400
H  45.44400 26.24900 22.74700
H  45.98400 27.85300 21.54400
H  47.51900 28.13100 22.43600
H  46.10400 28.93300 22.87600
H  48.79400 30.14300 26.22900
H  50.42500 29.79600 27.07400
H  49.36000 30.86500 27.73300
H  47.02500 29.10100 31.81700
H  48.66100 30.58700 35.69700
H  49.98700 29.55100 35.39100
H  48.39100 28.84600 35.51900

