158

Mg 10.34900 47.45500 25.31700
C  8.65100 47.74700 28.46000
C  13.11000 48.70200 26.87400
C  11.81500 47.45900 22.28600
C  7.22200 46.95800 23.89700
N  10.77400 48.07800 27.50000
C  10.02100 48.07100 28.61400
C  10.76300 48.53700 29.81100
C  12.07700 49.11300 29.19600
C  12.04900 48.51100 27.78400
C  12.17100 50.70300 29.15000
C  10.98400 47.37800 30.86600
C  10.42100 47.56000 32.32800
H  10.42300 46.29000 33.20500
N  12.26900 47.68900 24.73500
C  13.21500 48.20900 25.54800
C  14.46400 48.35000 24.83100
C  14.14800 47.91600 23.49000
C  12.73500 47.65400 23.42400
C  15.70200 48.81000 25.48900
C  15.04200 47.85700 22.30600
O  14.62200 47.45200 21.25500
C  16.46100 48.32500 22.34000
N  9.64600 47.38000 23.48200
C  10.43400 47.27300 22.35300
C  9.63800 47.07000 21.03900
C  8.30000 46.60700 21.60400
C  8.39200 46.99400 23.09900
C  9.62400 48.34100 20.11900
C  8.01100 45.06600 21.31500
C  8.26200 43.98600 22.43000
N  8.30000 47.44700 25.97700
C  7.09300 47.14700 25.29200
C  6.00500 47.16800 26.21900
C  6.62400 47.46600 27.42900
C  7.95400 47.57200 27.24000
C  4.66600 46.65100 25.80100
C  6.21700 47.51000 28.81300
O  5.10100 47.45100 29.35100
C  7.55700 47.68700 29.55400
C  7.69100 46.45900 30.52000
O  8.32900 45.46500 30.16300
O  6.85800 46.54600 31.59500
C  6.72200 45.29500 32.37200
H  13.94200 49.10300 27.45700
H  12.21700 47.44100 21.27100
H  6.28000 46.63600 23.44900
H  10.06700 49.28200 30.19500
H  12.83300 48.76200 29.89800
H  11.19100 51.16200 29.01500
H  12.79200 51.08900 28.34300
H  12.57100 51.03600 30.10800
H  12.06000 47.40400 31.03700
H  10.77200 46.40400 30.42700
H  9.38500 47.84300 32.14200
H  10.87500 48.29300 32.99500
H  16.15500 49.62600 24.92600
H  16.35300 47.97800 25.75700
H  15.58700 49.24300 26.48300
H  17.02100 47.79900 21.56700
H  16.90700 48.12800 23.31400
H  16.44900 49.40900 22.22600
H  10.12800 46.25300 20.50900
H  7.47200 47.26000 21.32600
H  8.57200 48.62800 20.12300
H  9.86600 48.10800 19.08200
H  10.33300 49.05100 20.54400
H  8.67700 44.72400 20.52300
H  7.04700 44.88500 20.83900
H  8.15400 44.39000 23.43600
H  9.20400 43.44600 22.34400
H  7.47500 43.23900 22.32800
H  3.97000 47.28000 26.35600
H  4.45700 45.59500 25.97000
H  4.48400 46.75600 24.73100
H  7.69100 48.54500 30.21200
H  7.64700 44.71800 32.40400
H  6.02500 44.61400 31.88400
H  6.46600 45.40200 33.42600
Mg -12.95700 15.90900 41.98300
C  -9.82500 14.22000 41.77500
C  -11.40700 18.61400 40.45000
C  -15.95000 17.16900 41.66300
C  -14.24700 12.85800 42.92300
N  -10.83600 16.33400 41.16500
C  -9.77800 15.54400 41.18600
C  -8.57000 16.22900 40.57300
C  -9.03700 17.68900 40.40100
C  -10.53000 17.55900 40.64100
C  -8.42100 18.63400 41.47700
C  -7.96200 15.51400 39.33100
C  -6.46400 15.33800 39.24200
H  -5.71900 16.02500 38.08700
N  -13.59300 17.70000 41.20700
C  -12.82500 18.71500 40.57600
C  -13.69600 19.80700 40.25900
C  -15.03400 19.38200 40.52500
C  -14.92300 18.04000 41.17300
C  -13.12600 21.11500 39.62900
C  -16.31000 20.11700 40.15400
O  -16.19400 21.16700 39.51900
C  -17.69000 19.57300 40.40500
N  -14.81600 15.05500 42.09700
C  -15.92900 15.81800 42.00400
C  -17.24200 15.10400 42.32900
C  -16.72100 13.63900 42.47100
C  -15.14200 13.85900 42.49100
C  -18.03200 15.62700 43.57700
C  -17.13700 12.73300 41.37900
C  -17.08400 11.15600 41.54000
N  -12.26200 13.97200 42.51800
C  -12.88400 12.80400 42.88700
C  -11.94900 11.68600 43.16700
C  -10.73200 12.29500 42.82000
C  -10.97300 13.61100 42.37700
C  -12.17900 10.29400 43.46300
C  -9.28300 11.97300 42.62600
O  -8.59700 11.03000 42.96000
C  -8.73700 13.16600 41.76900
C  -7.58800 13.54700 42.58200
O  -7.67900 13.89800 43.78100
O  -6.46500 13.58700 41.73400
C  -5.19800 13.95400 42.36500
H  -10.96100 19.52700 40.05000
H  -16.93600 17.63200 41.73300
H  -14.70400 11.93500 43.28400
H  -7.90300 16.20300 41.43500
H  -8.73600 18.11700 39.44500
H  -7.73100 19.29200 40.94800
H  -8.02300 18.05900 42.31300
H  -9.17300 19.29500 41.90800
H  -8.10500 16.14000 38.45000
H  -8.52400 14.60500 39.11900
H  -6.24700 14.27000 39.23200
H  -6.08700 15.61900 40.22500
H  -12.52200 20.99800 38.72900
H  -12.60000 21.70700 40.37700
H  -13.83000 21.87200 39.28100
H  -18.45300 20.30600 40.14300
H  -17.85300 19.51900 41.48100
H  -17.88100 18.58800 39.97700
H  -17.87900 15.15700 41.44600
H  -17.04100 13.17300 43.40300
H  -19.05100 15.88600 43.29000
H  -17.53600 16.50300 43.99400
H  -18.02800 14.90400 44.39200
H  -16.41600 13.04400 40.62300
H  -18.13500 13.07400 41.10200
H  -16.21700 10.75700 41.01500
H  -17.95400 10.73000 41.04000
H  -17.05500 10.87300 42.59200
H  -13.11100 10.25400 44.02700
H  -11.43200 9.93800 44.17300
H  -12.32100 9.68500 42.57100
H  -8.39200 12.74700 40.82300
H  -4.52600 14.14500 41.52900
H  -4.79900 13.11000 42.92700
H  -5.36900 14.77800 43.05800

