158

Mg 45.99300 17.05800 28.41700
C  44.52900 16.63000 31.70000
C  48.54500 18.58900 29.94000
C  47.11800 17.56600 25.33700
C  43.14600 15.34000 27.10300
N  46.40200 17.59500 30.56500
C  45.79000 17.30900 31.72700
C  46.52000 17.73800 32.94600
C  47.69200 18.49300 32.36700
C  47.54600 18.25300 30.84400
C  47.75200 20.04100 32.54200
C  47.05400 16.43100 33.73200
C  47.05100 16.46200 35.22600
H  46.90900 17.73900 36.03700
N  47.59100 17.98000 27.74400
C  48.56800 18.61800 28.55500
C  49.61300 19.10900 27.64900
C  49.19400 18.75200 26.28100
C  47.98100 18.05300 26.38100
C  50.75600 20.02600 27.95900
C  49.93700 19.00500 24.93400
O  49.45700 18.72900 23.86000
C  51.31700 19.63600 24.93600
N  45.18300 16.54500 26.60600
C  45.90400 16.90100 25.46700
C  45.12000 16.52600 24.17300
C  43.94600 15.66300 24.75400
C  44.06000 15.89800 26.21000
C  44.53000 17.78500 23.46200
C  44.00700 14.11600 24.44900
C  44.98600 13.29800 25.25300
N  44.19700 16.19300 29.20400
C  43.19100 15.52100 28.50700
C  42.12800 15.15700 29.45200
C  42.64700 15.50800 30.75000
C  43.89400 16.17100 30.55300
C  40.86800 14.39700 29.01300
C  42.34800 15.53300 32.12600
O  41.32400 15.16600 32.67600
C  43.55000 16.28700 32.86100
C  42.99600 17.45800 33.51800
O  42.58700 18.45500 32.90200
O  42.98300 17.27600 34.88600
C  42.38100 18.28600 35.68400
H  49.37900 19.17700 30.32900
H  47.47800 17.59500 24.30600
H  42.38700 14.65000 26.72800
H  45.89900 18.32900 33.61900
H  48.65100 18.16100 32.76300
H  47.52300 20.48500 31.57300
H  48.78900 20.22800 32.82200
H  47.04100 20.32100 33.31900
H  48.04000 16.08900 33.41700
H  46.32700 15.67100 33.44700
H  47.95900 15.96800 35.57300
H  46.19900 15.89300 35.59800
H  50.46300 21.02300 27.63000
H  51.68800 19.68600 27.50800
H  50.89100 20.08800 29.03900
H  52.08900 19.23400 25.59100
H  51.28900 20.67700 25.25800
H  51.54800 19.65600 23.87100
H  45.79900 16.01600 23.48900
H  42.98200 16.09100 24.48100
H  43.47500 17.87200 23.20300
H  45.10700 17.86300 22.54000
H  44.85000 18.62700 24.07600
H  44.28500 14.06000 23.39700
H  43.02400 13.66200 24.57400
H  44.55000 12.83800 26.13900
H  45.85200 13.89300 25.54300
H  45.36700 12.49600 24.61900
H  40.44500 14.87000 28.12600
H  40.17400 14.63200 29.81900
H  40.92800 13.34100 28.74900
H  44.04200 15.60800 33.55600
H  42.55500 19.25000 35.20700
H  42.93600 18.31600 36.62100
H  41.34500 17.96300 35.79200
Mg 49.42900 45.12300 42.13700
C  45.93900 44.84600 41.81500
C  49.73300 41.81700 41.79800
C  52.72400 45.56700 41.92500
C  48.96900 48.63100 41.78400
N  48.01900 43.56000 41.75900
C  46.63900 43.59500 41.75400
C  45.97200 42.26500 41.75500
C  47.16200 41.28800 41.96800
C  48.43600 42.26000 41.82300
C  47.20400 40.58100 43.39800
C  45.19000 42.07000 40.41700
C  45.67700 42.76000 39.13700
H  45.11100 42.23200 37.76300
N  51.07900 43.86000 41.98600
C  50.96100 42.52100 41.73200
C  52.24400 41.94000 41.55400
C  53.17200 42.99900 41.81300
C  52.39200 44.25200 41.92000
C  52.44200 40.55200 41.31200
C  54.67300 42.83800 41.96900
O  55.17600 41.76900 41.72800
C  55.62200 43.90800 42.36600
N  50.69600 46.83600 41.86000
C  51.99000 46.80300 41.94200
C  52.62500 48.16200 42.11500
C  51.46700 49.11200 42.10500
C  50.31200 48.16900 41.90800
C  53.49900 48.41200 43.38700
C  51.53200 50.30900 41.10100
C  51.01500 50.05600 39.65000
N  47.81600 46.53400 41.85400
C  47.79600 47.87700 41.79100
C  46.37700 48.35200 41.81400
C  45.64400 47.15800 41.80300
C  46.50100 46.11200 41.83900
C  45.86500 49.85000 41.72200
C  44.25300 46.66300 41.80800
O  43.17800 47.25300 41.71200
C  44.40600 45.13700 41.80900
C  43.65100 44.54100 43.03200
O  43.08500 43.43100 43.05500
O  43.85500 45.38200 44.16200
C  43.56600 44.66400 45.43600
H  49.80000 40.73000 41.87300
H  53.79400 45.74600 41.80000
H  48.70700 49.68900 41.85400
H  45.32100 42.24700 42.63000
H  47.18400 40.50800 41.20700
H  46.30100 40.76200 43.98100
H  48.13500 40.78900 43.92500
H  47.30600 39.51000 43.22000
H  44.13700 42.34800 40.47000
H  45.01000 40.99700 40.35600
H  46.76100 42.66400 39.08900
H  45.53200 43.83600 39.24000
H  52.25000 40.10800 42.28900
H  53.45700 40.21300 41.10400
H  51.84200 40.06000 40.54600
H  55.28700 44.34500 43.30700
H  55.53200 44.53900 41.48200
H  56.59700 43.42200 42.37300
H  53.15400 48.41400 41.19600
H  51.29500 49.48100 43.11600
H  52.82100 48.44200 44.23900
H  54.17100 49.26800 43.31100
H  54.15600 47.58100 43.64300
H  52.57800 50.60900 41.04900
H  51.03700 51.15700 41.57400
H  50.15800 50.70600 39.47800
H  50.72000 49.04200 39.37800
H  51.78800 50.36100 38.94600
H  46.16600 50.31000 42.66300
H  44.78000 49.76100 41.78100
H  46.13200 50.31100 40.77100
H  43.85200 44.58700 41.04900
H  44.06900 43.69700 45.42400
H  42.49400 44.62400 45.62800
H  43.98300 45.12800 46.33100

