158

Mg 25.91600 50.55100 26.24400
C  24.26100 52.20400 28.64000
C  28.27800 49.50700 28.66800
C  28.13700 49.34800 23.74400
C  24.01600 52.00100 23.76800
N  26.25800 50.90300 28.31000
C  25.32300 51.43300 29.14100
C  25.61600 51.02500 30.61200
C  27.06500 50.53400 30.57500
C  27.23400 50.19600 29.09400
C  28.11400 51.56100 31.02700
C  24.59200 50.09900 31.25700
C  24.43800 50.26400 32.78900
H  25.51100 50.77000 33.72300
N  27.87900 49.49900 26.18400
C  28.58600 49.21800 27.26600
C  29.75800 48.45900 26.83100
C  29.73400 48.42000 25.44800
C  28.55200 49.14600 25.04200
C  30.82000 47.94400 27.78800
C  30.68700 47.61000 24.52200
O  30.62100 47.65400 23.28500
C  31.70900 46.63000 24.99900
N  26.06400 50.55900 24.13900
C  26.93700 49.88500 23.31300
C  26.71100 50.23600 21.79400
C  25.18800 50.74600 21.94500
C  25.05900 51.11500 23.43100
C  27.77700 51.19100 21.27700
C  24.05000 49.81900 21.46300
C  23.31900 48.87900 22.48800
N  24.40900 51.90500 26.16600
C  23.73600 52.51500 25.09000
C  22.73300 53.41700 25.60100
C  22.88300 53.37900 27.03100
C  23.89000 52.42400 27.29500
C  21.77300 54.25800 24.88400
C  22.43800 53.88500 28.26500
O  21.56800 54.72500 28.52800
C  23.21200 53.07300 29.35200
C  23.74900 54.02900 30.27100
O  24.54200 54.89400 29.96300
O  23.32800 53.79100 31.52000
C  24.00900 54.44700 32.59300
H  28.86400 48.93600 29.39100
H  28.78100 48.91700 22.97500
H  23.39900 52.45600 22.99100
H  25.54500 51.93300 31.20900
H  27.29900 49.61700 31.11700
H  28.95400 51.64400 30.33700
H  28.43800 51.44700 32.06200
H  27.70700 52.55600 31.20300
H  25.02100 49.09900 31.20400
H  23.61300 49.99700 30.78800
H  24.05500 49.28100 33.06600
H  23.61600 50.97700 32.84700
H  30.83500 48.67300 28.59800
H  31.78700 48.12800 27.32100
H  30.71900 46.87400 27.97100
H  31.94700 45.84900 24.27800
H  31.20000 46.17600 25.84900
H  32.54000 47.30300 25.21000
H  26.67200 49.43100 21.06100
H  25.11300 51.67500 21.37900
H  28.67000 51.17400 21.90100
H  27.43200 52.17100 20.94600
H  28.21300 50.69300 20.41100
H  24.37600 49.17400 20.64700
H  23.28800 50.45700 21.01500
H  23.77000 48.83700 23.47900
H  23.43400 47.89100 22.04100
H  22.28900 49.17600 22.68800
H  22.22100 54.55400 23.93500
H  21.45900 55.06100 25.55200
H  20.82100 53.77300 24.66900
H  22.36900 52.55300 29.80700
H  23.84900 55.51500 32.44800
H  25.03000 54.08300 32.47500
H  23.60500 54.25600 33.58700
Mg 9.21000 49.00700 25.62700
C  6.83300 49.39000 28.15100
C  11.54500 50.60300 27.63800
C  11.34300 48.54600 23.26100
C  6.49500 48.60500 23.33400
N  9.22000 49.60400 27.74400
C  8.18600 49.54200 28.60700
C  8.66700 49.75900 30.02800
C  10.07000 50.40600 29.81800
C  10.36100 50.18400 28.26800
C  10.13800 51.92400 30.15200
C  8.57700 48.43300 30.82200
C  9.45300 48.26400 32.15900
H  8.92800 47.51200 33.38000
N  11.22400 49.53300 25.45300
C  12.04500 50.17500 26.34700
C  13.39700 50.09500 25.91200
C  13.37300 49.44100 24.57500
C  11.94400 49.17200 24.37000
C  14.63500 50.39900 26.80800
C  14.49400 49.03200 23.72100
O  14.41800 48.40600 22.63800
C  15.85100 49.18800 24.36400
N  8.94500 48.83300 23.53800
C  10.05500 48.49700 22.82700
C  9.70400 47.91900 21.45300
C  8.21500 48.21000 21.39900
C  7.80800 48.60000 22.82900
C  10.55400 48.46500 20.27100
C  7.35300 46.99200 20.86700
C  6.07700 47.24400 19.93500
N  7.08300 48.80500 25.71300
C  6.12800 48.76500 24.65400
C  4.80500 48.89100 25.17500
C  5.02600 49.07500 26.59000
C  6.47500 49.07400 26.82000
C  3.51100 48.98200 24.48200
C  4.33800 49.32500 27.81600
O  3.13600 49.36900 28.05700
C  5.44300 49.60800 28.91700
C  5.30100 48.63400 30.04000
O  5.60900 47.47000 29.96200
O  4.94900 49.27100 31.19000
C  4.84100 48.47200 32.43500
H  12.30300 50.94800 28.34400
H  12.08800 48.20200 22.53900
H  5.76300 48.51100 22.52900
H  7.93800 50.49000 30.37900
H  10.87400 49.92300 30.37400
H  9.41000 52.15200 30.93100
H  9.97200 52.41000 29.19100
H  11.08300 52.31000 30.53700
H  8.52500 47.62300 30.09500
H  7.63200 48.50100 31.36100
H  9.82700 49.25800 32.40500
H  10.35000 47.72500 31.85500
H  14.31600 50.82900 27.75700
H  15.32700 51.15500 26.43700
H  15.22800 49.53200 27.09900
H  15.98000 48.36600 25.06800
H  15.93000 50.22000 24.70400
H  16.61000 49.17500 23.58100
H  9.88900 46.85100 21.56700
H  8.14500 49.02700 20.68100
H  9.98300 49.09700 19.59100
H  10.77800 47.60100 19.64500
H  11.36500 49.10400 20.62200
H  6.92600 46.45300 21.71300
H  8.03600 46.29700 20.37900
H  5.92700 46.31800 19.37900
H  6.30700 48.07900 19.27300
H  5.24900 47.51800 20.59000
H  3.47100 48.03800 23.93800
H  3.54700 49.90500 23.90300
H  2.80000 48.94500 25.30800
H  5.29900 50.65300 29.19100
H  4.40600 47.49800 32.21200
H  4.31600 49.08400 33.16900
H  5.86500 48.44400 32.80700

