158

Mg 1.65900 -2.48000 44.65600
C  4.87400 -1.35000 43.95200
C  0.36100 -0.03600 42.50200
C  -1.34200 -4.10200 44.83900
C  3.15700 -5.42300 46.11000
N  2.48500 -0.83900 43.40800
C  3.87200 -0.56300 43.27100
C  4.15000 0.45900 42.19200
C  2.75800 1.03600 41.98800
C  1.79900 0.07600 42.69900
C  2.69400 2.49800 42.32900
C  4.73000 -0.23800 40.95700
C  6.00900 0.38400 40.44200
H  5.82200 1.22100 39.12700
N  -0.23600 -2.10900 43.80000
C  -0.57600 -1.03200 43.00100
C  -1.99900 -1.04600 42.74100
C  -2.57100 -2.20200 43.40600
C  -1.32800 -2.89100 44.01000
C  -2.76500 0.05300 42.02700
C  -4.08100 -2.57900 43.59300
O  -4.95400 -1.82000 43.21800
C  -4.49400 -3.86000 44.31000
N  1.03100 -4.39300 45.51700
C  -0.28500 -4.75000 45.44000
C  -0.51100 -6.15500 45.98900
C  0.86000 -6.59500 46.50200
C  1.73600 -5.38500 46.02100
C  -1.65900 -6.21200 47.07100
C  1.37900 -8.00100 46.04000
C  1.96100 -8.92300 47.08300
N  3.62500 -3.24500 45.10900
C  4.07000 -4.39400 45.73400
C  5.49600 -4.39300 45.78200
C  5.89500 -3.10900 45.19500
C  4.69000 -2.50600 44.71300
C  6.29800 -5.46900 46.33800
C  6.93100 -2.13600 44.86000
O  8.09400 -2.14000 45.15700
C  6.38500 -1.13700 43.88800
C  6.75200 0.22700 44.15800
O  7.57000 0.88500 43.57200
O  6.06800 0.74500 45.21500
C  6.55300 2.10700 45.56100
H  0.05900 0.61500 41.67900
H  -2.27000 -4.51200 45.24200
H  3.69300 -6.09600 46.78200
H  4.82700 1.21000 42.59700
H  2.49600 0.90400 40.93800
H  2.26100 2.71000 43.30700
H  1.97300 3.02300 41.70300
H  3.68600 2.94600 42.29000
H  4.04000 -0.21500 40.11400
H  5.00000 -1.27100 41.17700
H  6.76700 -0.39600 40.36400
H  6.46000 1.11100 41.11800
H  -2.22600 0.97900 42.22400
H  -3.79400 0.10100 42.38400
H  -2.79300 -0.21300 40.97000
H  -3.79000 -4.64100 44.02300
H  -5.56000 -3.96000 44.10400
H  -4.57800 -3.72700 45.38900
H  -0.86000 -6.85900 45.23300
H  0.87200 -6.53900 47.59000
H  -1.25400 -6.61200 48.00100
H  -2.37700 -6.95200 46.71700
H  -2.10800 -5.24000 47.27400
H  1.98800 -7.88000 45.14400
H  0.60700 -8.51300 45.46500
H  2.95700 -9.27400 46.81500
H  1.24800 -9.74600 47.14100
H  2.14700 -8.44700 48.04600
H  6.00300 -6.28800 45.68300
H  5.93800 -5.58300 47.36100
H  7.36100 -5.23100 46.35600
H  6.73900 -1.48200 42.91600
H  6.33000 2.09200 46.62800
H  5.89700 2.84800 45.10500
H  7.59200 2.39400 45.40000
Mg 34.80300 2.22400 29.94100
C  32.64900 3.31200 32.50300
C  37.45100 2.55900 32.03500
C  36.86800 1.66200 27.26900
C  32.20900 3.05800 27.64200
N  35.02400 3.01400 31.99700
C  33.99100 3.12000 32.89700
C  34.56000 3.15000 34.39800
C  36.11400 3.07500 34.21200
C  36.22300 2.92600 32.66400
C  36.93300 4.27700 34.75600
C  34.01100 1.92300 35.25700
C  33.83900 2.07300 36.72500
H  34.34600 3.33400 37.33000
N  36.85200 1.97600 29.69500
C  37.78100 2.17500 30.73800
C  39.07900 1.95800 30.17800
C  38.97500 1.65200 28.81200
C  37.51300 1.73200 28.54500
C  40.34300 2.10700 31.01200
C  40.03500 1.44000 27.81700
O  39.82500 1.12100 26.62700
C  41.46200 1.48300 28.29400
N  34.53300 2.23000 27.84500
C  35.57800 1.86900 26.94000
C  35.12900 1.85600 25.46200
C  33.55500 2.24000 25.64500
C  33.40000 2.50000 27.14900
C  35.88200 2.87300 24.57800
C  32.58700 1.09700 25.15000
C  32.61000 -0.17800 26.02400
N  32.76300 2.94900 29.99900
C  31.89200 3.22300 28.97800
C  30.55300 3.49300 29.50600
C  30.81100 3.47100 30.92000
C  32.15700 3.26300 31.16900
C  29.29800 3.67700 28.72700
C  30.23300 3.73100 32.25600
O  29.08100 4.03500 32.61500
C  31.30200 3.46900 33.32800
C  31.30500 4.66900 34.25000
O  31.81000 5.74500 34.03000
O  30.68600 4.29200 35.47500
C  30.46200 5.49300 36.32400
H  38.32400 2.66500 32.68300
H  37.46100 1.39500 26.39200
H  31.35900 3.08400 26.95700
H  34.28500 4.06600 34.92000
H  36.43400 2.11200 34.60800
H  36.30100 5.11200 35.05600
H  37.58900 4.59200 33.94500
H  37.60000 4.00700 35.57500
H  34.62800 1.03000 35.16100
H  33.05600 1.59100 34.85000
H  34.27300 1.18900 37.19200
H  32.75200 2.03000 36.77900
H  40.82900 3.00200 30.62400
H  40.95200 1.22400 30.82000
H  40.12000 2.27700 32.06600
H  41.70500 2.41900 28.79700
H  42.06100 1.43000 27.38500
H  41.60000 0.66100 28.99600
H  35.32900 0.82100 25.18500
H  33.18200 3.11000 25.10500
H  35.14800 3.24500 23.86300
H  36.61700 2.55300 23.84000
H  36.23300 3.69900 25.19700
H  32.70600 0.79900 24.10900
H  31.57700 1.44400 25.37200
H  31.58600 -0.54100 26.11400
H  32.95800 0.00100 27.04100
H  33.25000 -0.94300 25.58500
H  29.41100 2.80300 28.08500
H  29.16700 4.55600 28.09700
H  28.43000 3.48000 29.35700
H  31.01000 2.56900 33.86900
H  29.64300 6.04600 35.86500
H  31.42100 6.00000 36.43700
H  30.15500 5.17400 37.32000

