158

Mg 0.07400 7.43400 26.21300
C  1.18100 9.59900 28.68200
C  -0.01300 5.05000 28.59000
C  -0.48300 5.21900 23.79900
C  0.88100 9.95000 23.75700
N  0.65900 7.35100 28.38400
C  0.80200 8.34100 29.23200
C  0.67000 7.91700 30.67500
C  0.74100 6.40800 30.56700
C  0.44700 6.24800 29.08600
C  2.12700 5.82100 31.01300
C  -0.70700 8.51400 31.20900
C  -0.82700 8.31900 32.67400
H  0.40700 8.03100 33.63500
N  -0.36100 5.46300 26.24300
C  -0.37500 4.60500 27.34500
C  -0.79700 3.33000 26.96000
C  -1.00600 3.33400 25.48800
C  -0.60400 4.69100 25.07200
C  -0.83600 2.16800 27.98800
C  -1.45500 2.24800 24.53800
O  -1.35900 2.30400 23.35400
C  -1.99700 0.95300 25.00700
N  0.18300 7.57800 24.05600
C  -0.22000 6.51700 23.32300
C  -0.07100 6.87000 21.86200
C  0.14600 8.37300 21.90500
C  0.51400 8.70200 23.30200
C  1.06000 6.06400 21.08800
C  -1.16800 9.17600 21.42900
C  -0.99400 10.06400 20.20900
N  0.95300 9.35200 26.17700
C  1.16500 10.23100 25.15200
C  1.62000 11.43400 25.69600
C  1.60500 11.26000 27.10700
C  1.26600 9.96700 27.32000
C  1.86900 12.78000 24.96300
C  1.78500 11.87800 28.40200
O  2.11800 13.05600 28.71800
C  1.48400 10.80100 29.47200
C  2.65200 10.70400 30.40100
O  3.64800 10.05000 30.25700
O  2.42300 11.60900 31.44800
C  3.42100 11.43200 32.48900
H  0.06000 4.25000 29.33000
H  -0.78600 4.58500 22.96300
H  1.05700 10.69700 22.98000
H  1.52400 8.39600 31.15500
H  -0.06700 5.96600 31.14900
H  2.88300 6.57700 31.22500
H  2.46100 5.17700 30.19900
H  1.93600 5.19600 31.88500
H  -1.50500 7.98500 30.68900
H  -0.77700 9.57200 30.95600
H  -1.59000 7.63000 33.03900
H  -1.26700 9.23500 33.06800
H  -1.22100 1.16300 27.81400
H  -1.49500 2.52400 28.77900
H  0.15100 2.17800 28.45200
H  -2.59700 0.54800 24.19200
H  -2.58800 1.14100 25.90400
H  -1.17400 0.30500 25.30800
H  -0.95300 6.55300 21.30600
H  0.88500 8.73300 21.19000
H  1.74500 6.85400 20.78100
H  0.71000 5.62400 20.15400
H  1.57000 5.44700 21.82800
H  -1.52600 9.90000 22.16100
H  -2.04300 8.55700 21.22900
H  -1.86500 9.96700 19.56100
H  -0.09400 9.91600 19.61300
H  -0.90900 11.07500 20.60800
H  2.58500 12.70500 24.14400
H  2.22700 13.53800 25.66000
H  0.91200 13.13700 24.58300
H  0.55600 11.05400 29.98400
H  3.36000 10.54800 33.12400
H  3.13700 12.25800 33.14100
H  4.43400 11.62700 32.13500
Mg 40.50900 10.07600 29.44300
C  42.57700 11.37200 31.93900
C  38.51100 8.58500 31.93200
C  38.70400 8.59900 27.03600
C  42.90300 11.12200 27.08200
N  40.64100 9.89400 31.68000
C  41.43300 10.67600 32.45100
C  40.93400 10.66000 33.96000
C  39.78800 9.62800 33.91900
C  39.62200 9.33800 32.37200
C  39.99800 8.33100 34.68300
C  40.49700 12.03400 34.49500
C  39.72900 12.15100 35.87600
H  40.34600 13.11200 36.91100
N  38.82800 8.76000 29.54000
C  38.11200 8.33300 30.63000
C  36.91300 7.57700 30.13400
C  37.00600 7.49900 28.70300
C  38.20700 8.31900 28.33600
C  36.01600 6.91200 31.14300
C  36.02800 6.79600 27.76100
O  36.27500 6.66300 26.54000
C  34.73300 6.15900 28.36400
N  40.78800 9.86000 27.32400
C  39.79000 9.35700 26.56300
C  40.23900 9.43900 25.07900
C  41.46900 10.51100 25.11700
C  41.76800 10.49200 26.63000
C  40.68500 8.02500 24.62800
C  41.15500 11.86000 24.37900
C  40.49700 12.97000 25.24100
N  42.32600 11.10900 29.44300
C  43.21000 11.42700 28.39900
C  44.40800 11.98200 28.93200
C  44.08100 12.18900 30.34300
C  42.88100 11.53300 30.55800
C  45.61900 12.44100 28.25100
C  44.63400 12.68300 31.59200
O  45.66700 13.26600 31.86800
C  43.51500 12.35500 32.63800
C  44.17000 11.82800 33.90800
O  44.78700 10.79900 33.93800
O  43.73100 12.57000 35.00500
C  44.25500 12.04500 36.34700
H  37.84700 8.36300 32.77000
H  38.09500 8.16200 26.24100
H  43.43000 11.66800 26.29700
H  41.62100 10.41300 34.76900
H  38.86100 10.13500 34.18500
H  39.11000 8.00600 35.22500
H  40.82800 8.17800 35.37300
H  40.10300 7.54800 33.93300
H  39.87700 12.50900 33.73400
H  41.41000 12.62900 34.52900
H  39.64000 11.15800 36.31700
H  38.70500 12.49700 35.74300
H  35.09500 7.48200 31.26600
H  36.46600 6.89700 32.13500
H  35.77900 5.89800 30.82300
H  34.03400 5.98400 27.54600
H  34.39500 6.93200 29.05400
H  35.02400 5.28800 28.95200
H  39.37400 9.76500 24.50200
H  42.34800 10.26400 24.52200
H  40.72000 7.29300 25.43500
H  41.69400 8.07100 24.21900
H  40.01300 7.51900 23.93500
H  40.55200 11.65000 23.49500
H  42.14400 12.21400 24.08900
H  40.78100 13.08900 26.28700
H  39.40900 12.92000 25.28800
H  40.61900 13.81300 24.56100
H  46.53600 12.45900 28.84000
H  45.43000 13.46000 27.91200
H  45.76500 11.77700 27.39900
H  42.97200 13.28200 32.82200
H  43.88100 11.04000 36.54400
H  44.01100 12.67300 37.20300
H  45.34300 12.08100 36.30100

