158

Mg 41.01400 8.64600 31.48200
C  43.14600 9.89200 33.88000
C  38.69900 8.13300 33.85000
C  39.12300 7.40400 29.03200
C  43.68300 8.96200 29.08800
N  40.91500 9.09000 33.60500
C  41.91700 9.59800 34.42200
C  41.33000 9.76900 35.85000
C  39.94500 9.11000 35.78000
C  39.85600 8.70700 34.34000
C  39.64900 7.99500 36.83900
C  41.27200 11.26700 36.23800
C  40.25800 11.71700 37.30700
H  40.79300 12.73900 38.25400
N  39.25900 7.82300 31.45800
C  38.41100 7.68000 32.49200
C  37.13600 6.99400 32.11000
C  37.21900 6.85400 30.69800
C  38.55800 7.43000 30.30300
C  36.02600 6.47900 33.06100
C  36.20300 6.21300 29.74000
O  36.38600 6.04300 28.55500
C  34.79500 5.79800 30.23300
N  41.41300 8.04600 29.36500
C  40.39300 7.69700 28.60100
C  40.78500 7.43700 27.20000
C  42.25800 7.90700 27.16800
C  42.57900 8.17300 28.63000
C  40.72100 5.88700 26.63900
C  42.48400 9.18400 26.22000
C  41.74800 10.44900 26.67000
N  43.01700 9.27700 31.46100
C  43.88500 9.48300 30.41600
C  45.05300 10.13900 30.90400
C  44.76100 10.38300 32.26400
C  43.56400 9.82100 32.55700
C  46.35200 10.51200 30.25000
C  45.37400 10.77900 33.52400
O  46.48500 11.20600 33.74300
C  44.34400 10.51300 34.69100
C  44.92300 9.59800 35.62300
O  44.75300 8.36900 35.52600
O  45.53800 10.20000 36.66400
C  45.85000 9.42500 37.84000
H  37.99800 7.85200 34.63900
H  38.36500 7.15800 28.28500
H  44.45300 9.13500 28.33300
H  41.89700 9.20000 36.58700
H  39.15900 9.85700 35.88500
H  38.76800 8.17000 37.45600
H  40.41600 7.90100 37.60700
H  39.53100 7.04900 36.31000
H  40.98900 11.79900 35.33000
H  42.27200 11.58000 36.53700
H  39.72000 10.94200 37.85200
H  39.62200 12.42400 36.77300
H  35.20500 7.18500 32.93400
H  36.31300 6.59000 34.10600
H  35.80400 5.43400 32.84400
H  34.37600 6.74500 30.57400
H  34.94100 5.02600 30.98800
H  34.01400 5.47500 29.54500
H  40.18100 7.93100 26.44000
H  42.99800 7.12800 26.98700
H  40.36900 5.14200 27.35300
H  41.72100 5.53300 26.38900
H  40.03600 5.85600 25.79100
H  41.91800 8.90100 25.33200
H  43.51800 9.46600 26.02200
H  42.38400 11.28300 26.37500
H  41.63700 10.51300 27.75300
H  40.75400 10.46600 26.22300
H  46.78900 9.84000 29.51200
H  47.10400 10.71000 31.01300
H  46.20500 11.47000 29.75000
H  44.09700 11.45800 35.17600
H  46.92200 9.51000 38.02000
H  45.65300 8.36700 37.66100
H  45.26400 9.73300 38.70600
Mg 28.17400 56.54800 40.24200
C  25.99800 53.85200 39.55300
C  30.71600 54.57600 39.11100
C  30.10700 59.41000 39.76500
C  25.41000 58.60100 40.63200
N  28.22900 54.47900 39.23800
C  27.29100 53.53800 39.16300
C  27.81200 52.22000 38.54000
C  29.38100 52.37900 38.81300
C  29.49700 53.90700 39.04500
C  29.99500 51.54600 40.03200
C  27.39100 52.10800 37.00900
C  27.08200 53.35500 36.15000
H  27.30500 53.33400 34.70100
N  30.14900 56.94600 39.69100
C  31.02900 55.93500 39.31700
C  32.36100 56.56600 39.08000
C  32.21100 57.99300 39.29400
C  30.80600 58.19700 39.58900
C  33.54700 55.77700 38.57200
C  33.27800 59.05500 39.05600
O  34.34400 58.75400 38.58400
C  33.14600 60.44800 39.39800
N  27.86900 58.62200 40.23100
C  28.80800 59.62700 39.99800
C  28.20700 60.99300 40.13800
C  26.71900 60.73000 40.13300
C  26.62300 59.19800 40.38100
C  28.78800 61.81800 41.30400
C  25.91800 61.02000 38.78400
C  24.88000 62.16500 38.64000
N  26.09400 56.28300 40.20500
C  25.14000 57.23600 40.52400
C  23.86400 56.45700 40.77400
C  24.13600 55.13900 40.33900
C  25.51800 55.12500 40.01800
C  22.52700 56.95400 41.27300
C  23.67600 53.80000 40.13600
O  22.54500 53.35000 40.26900
C  24.82900 52.98800 39.60800
C  24.97300 51.83700 40.51900
O  24.49700 50.71300 40.44200
O  25.88200 52.11000 41.51800
C  26.19800 51.01700 42.48100
H  31.57000 53.92100 38.92400
H  30.62800 60.35500 39.60200
H  24.53000 59.23700 40.75000
H  27.44200 51.36200 39.10200
H  29.97400 52.08700 37.94700
H  29.97100 50.47100 39.85800
H  29.62000 51.79600 41.02500
H  31.06900 51.71700 39.96500
H  26.52500 51.44800 36.94900
H  28.20600 51.53600 36.56600
H  27.56000 54.21800 36.61400
H  26.01600 53.55700 36.25200
H  34.18100 56.26100 37.82900
H  33.23100 54.85800 38.07700
H  34.19700 55.56600 39.42100
H  32.83200 60.48200 40.44200
H  32.46700 60.94000 38.70100
H  34.03600 61.07100 39.31100
H  28.40300 61.56800 39.23300
H  26.24100 61.34500 40.89600
H  28.95900 62.85800 41.02200
H  29.68400 61.27400 41.60300
H  28.06800 61.58500 42.08700
H  25.34700 60.12300 38.54500
H  26.59900 61.13800 37.94100
H  24.76800 62.72300 39.56900
H  23.90500 61.77300 38.34900
H  25.35400 62.87100 37.95800
H  21.79800 56.93300 40.46200
H  22.75800 57.97400 41.58000
H  22.27100 56.28400 42.09300
H  24.71900 52.47300 38.65400
H  25.38200 50.96400 43.20200
H  27.16900 51.34400 42.85300
H  26.36600 50.02900 42.05300

