158

Mg 1.33400 -1.56000 43.81300
C  4.58800 -0.75300 42.97600
C  0.17300 1.20600 42.21800
C  -1.91500 -2.78300 44.15600
C  2.50600 -4.60800 45.07000
N  2.32800 -0.08800 42.43000
C  3.70700 0.18700 42.45300
C  4.07600 1.52600 41.86900
C  2.62600 2.25300 41.89600
C  1.58300 1.07200 42.22300
C  2.32800 3.45600 42.81200
C  4.65800 1.23100 40.42700
C  6.00300 1.85200 40.16400
H  6.07900 2.58300 38.80700
N  -0.66600 -0.81000 43.34800
C  -0.85800 0.34900 42.65300
C  -2.30600 0.42700 42.45200
C  -2.97600 -0.60200 43.23500
C  -1.86700 -1.46800 43.62800
C  -2.94200 1.44100 41.62100
C  -4.41700 -0.77600 43.38000
O  -5.22100 0.08600 42.94200
C  -4.97500 -2.04500 44.02400
N  0.43700 -3.48200 44.38600
C  -0.90700 -3.69200 44.46000
C  -1.12200 -5.12500 44.96300
C  0.24600 -5.63900 45.33400
C  1.15200 -4.51400 44.91500
C  -2.16600 -5.18500 46.20000
C  0.66400 -7.07900 44.80700
C  1.16100 -8.15700 45.68500
N  3.18000 -2.51300 44.00300
C  3.44500 -3.68600 44.61900
C  4.90700 -3.84000 44.71100
C  5.42200 -2.71800 44.12300
C  4.30300 -1.91900 43.65400
C  5.70200 -4.88600 45.41300
C  6.59000 -1.95100 43.74800
O  7.72400 -2.30200 43.85100
C  6.12700 -0.73500 42.95000
C  6.72500 0.40900 43.59600
O  6.21000 1.01200 44.55900
O  7.89700 0.78600 42.91200
C  8.49400 2.08700 43.17000
H  -0.24700 2.17800 41.95100
H  -2.87700 -3.29900 44.12900
H  2.89100 -5.56100 45.44000
H  4.68100 2.14000 42.53600
H  2.33400 2.66200 40.92800
H  1.82000 4.31900 42.38000
H  3.36000 3.71600 43.04600
H  1.78900 3.11500 43.69600
H  3.96700 1.48300 39.62300
H  4.82300 0.16200 40.29400
H  6.80500 1.11700 40.09800
H  6.15900 2.62200 40.91900
H  -3.72200 1.05300 40.96600
H  -2.35600 1.89500 40.82200
H  -3.33800 2.22200 42.26900
H  -6.05600 -1.92000 44.08400
H  -4.59700 -2.39200 44.98600
H  -4.83200 -2.85300 43.30600
H  -1.56000 -5.70100 44.14800
H  0.36500 -5.64100 46.41800
H  -3.10600 -5.64400 45.89400
H  -2.39000 -4.13200 46.37600
H  -1.69500 -5.67400 47.05300
H  1.44100 -7.00400 44.04600
H  -0.17500 -7.49500 44.25000
H  0.31100 -8.78100 45.96100
H  1.65500 -7.71300 46.55000
H  1.94300 -8.72800 45.18400
H  6.68600 -5.01000 44.96100
H  5.06500 -5.77100 45.42700
H  5.90400 -4.46500 46.39800
H  6.44500 -0.85200 41.91400
H  9.20600 1.99100 43.99000
H  7.76800 2.76800 43.61300
H  8.90900 2.58800 42.29500
Mg 8.60500 4.16500 28.03400
C  10.00200 2.46900 30.76500
C  6.87600 6.10400 30.20500
C  7.37800 5.67800 25.45100
C  10.16400 1.66900 26.01300
N  8.40900 4.17400 30.29100
C  9.15700 3.47300 31.24100
C  8.81800 3.94500 32.63300
C  7.76600 5.06000 32.38300
C  7.68700 5.14200 30.89600
C  6.35500 4.87600 33.09900
C  10.14400 4.43500 33.30700
C  9.87700 5.17700 34.61900
H  10.60200 4.82800 35.91400
N  7.32200 5.73100 27.80600
C  6.72600 6.40700 28.84500
C  5.81200 7.40800 28.24700
C  5.95800 7.32300 26.83600
C  6.91300 6.18500 26.64500
C  4.85600 8.34500 28.99800
C  5.38800 8.26700 25.75200
O  5.71200 8.15300 24.59100
C  4.44400 9.45800 26.08700
N  8.65300 3.63000 26.02900
C  8.20500 4.57300 25.15300
C  8.46400 4.11000 23.70300
C  9.29100 2.80900 23.83800
C  9.40800 2.67200 25.37800
C  7.09000 3.90300 22.85900
C  10.64700 2.66200 22.99900
C  11.05700 1.19800 22.61300
N  9.76200 2.48000 28.27500
C  10.33300 1.53500 27.35700
C  11.20800 0.63700 27.98800
C  11.10200 0.97700 29.35700
C  10.19100 2.02200 29.44700
C  12.02500 -0.50900 27.25400
C  11.63200 0.61100 30.59000
O  12.35400 -0.36600 30.82600
C  10.96600 1.58500 31.60200
C  10.24300 0.73600 32.62200
O  9.11600 0.26800 32.41400
O  10.93800 0.71200 33.84500
C  10.23900 0.07200 34.99400
H  6.24100 6.75700 30.80700
H  6.94200 6.17000 24.58000
H  10.63800 0.93400 25.35900
H  8.44000 3.09800 33.20600
H  8.18900 6.03700 32.61900
H  5.53900 4.81000 32.37900
H  6.32200 5.77900 33.71000
H  6.43500 3.97800 33.71100
H  10.58900 5.03700 32.51400
H  10.80800 3.64500 33.65900
H  8.80200 5.16700 34.79600
H  10.02100 6.24800 34.47700
H  5.10000 9.40500 28.91800
H  4.81500 7.86800 29.97700
H  3.90400 8.21400 28.48300
H  4.04600 10.03000 25.24900
H  5.02400 10.05400 26.79100
H  3.61600 9.11700 26.71000
H  9.11000 4.87700 23.27700
H  8.48300 2.12300 23.58400
H  6.17100 3.72000 23.41500
H  7.28100 3.19200 22.05500
H  6.91800 4.83000 22.31200
H  11.40300 3.18700 23.58300
H  10.44100 3.12400 22.03400
H  11.92900 0.92300 23.20500
H  11.37100 1.13100 21.57100
H  10.31600 0.41100 22.75200
H  12.29500 -1.18100 28.06900
H  12.85400 -0.15300 26.64300
H  11.36400 -0.91100 26.48600
H  11.72800 2.16400 32.12300
H  9.57900 -0.75800 34.74100
H  9.79000 0.82700 35.63900
H  11.01800 -0.43500 35.56500

