158

Mg -2.55600 16.99200 27.10800
C  -3.19800 14.65900 29.73000
C  -2.71300 19.39600 29.45500
C  -2.27300 19.27000 24.64400
C  -2.53900 14.41900 24.80700
N  -3.04100 16.94200 29.39300
C  -3.23100 15.95000 30.29000
C  -3.27100 16.42100 31.75300
C  -3.26600 18.04400 31.48100
C  -2.98500 18.14500 30.00100
C  -4.35600 18.92800 32.14300
C  -2.18800 15.86900 32.77300
C  -2.09000 16.88500 33.93500
H  -1.63900 16.29000 35.26400
N  -2.50900 19.06300 27.10400
C  -2.45900 19.88100 28.18900
C  -2.25700 21.27400 27.70900
C  -2.05200 21.22900 26.32000
C  -2.29100 19.81200 25.97200
C  -2.23000 22.45700 28.73800
C  -1.56400 22.31100 25.46100
O  -1.72800 22.34400 24.25900
C  -1.04800 23.51100 26.00900
N  -2.62500 16.83600 25.03200
C  -2.36200 17.92800 24.25100
C  -2.22700 17.56600 22.79800
C  -2.12400 16.01200 22.87000
C  -2.44600 15.70400 24.30800
C  -3.35800 18.17900 21.91600
C  -0.80300 15.47100 22.31400
C  0.45600 15.58700 23.18800
N  -2.87000 15.03100 27.18600
C  -2.81600 14.13000 26.15300
C  -3.15400 12.82400 26.64600
C  -3.20000 12.96700 28.03400
C  -3.06700 14.35500 28.34200
C  -3.00900 11.49800 25.89900
C  -3.16500 12.17000 29.25900
O  -3.10400 11.00300 29.42100
C  -3.43300 13.28800 30.35800
C  -2.38900 13.04800 31.38900
O  -1.19000 13.27500 31.19900
O  -2.87200 12.53300 32.56900
C  -1.85700 12.32700 33.63600
H  -2.91700 20.21700 30.14600
H  -2.07800 19.98800 23.84500
H  -2.45200 13.58400 24.10900
H  -4.29900 16.21300 32.05100
H  -2.26800 18.42200 31.70100
H  -4.86500 19.48500 31.35600
H  -3.90500 19.54600 32.91900
H  -5.13800 18.35900 32.64500
H  -1.24000 15.96900 32.24500
H  -2.26200 14.86800 33.19800
H  -3.05900 17.32500 34.17400
H  -1.32900 17.59100 33.60400
H  -2.74200 23.28300 28.24500
H  -1.21000 22.82200 28.85400
H  -2.68700 22.10800 29.66500
H  -1.74900 24.14200 26.55500
H  -0.77100 24.13100 25.15700
H  -0.16800 23.34400 26.63100
H  -1.29700 18.00100 22.43100
H  -2.93300 15.60600 22.26300
H  -3.84400 18.97400 22.48000
H  -3.99100 17.39300 21.50100
H  -2.82500 18.54200 21.03700
H  -0.65600 15.93700 21.33900
H  -0.93900 14.41500 22.08100
H  0.34700 16.21100 24.07500
H  1.24000 16.05100 22.59000
H  0.89200 14.61900 23.43800
H  -2.75400 11.68900 24.85600
H  -3.91400 10.92100 26.08200
H  -2.18700 10.99400 26.40700
H  -4.43300 13.24200 30.78900
H  -2.29700 11.43900 34.09000
H  -1.85300 13.07000 34.43400
H  -0.84300 12.01700 33.38400
Mg 1.94700 41.69100 25.03100
C  2.93000 42.09700 28.39500
C  -1.08400 40.43200 26.18900
C  1.20800 40.97100 21.79300
C  5.18000 42.62100 24.08500
N  0.99300 41.55900 27.07000
C  1.58800 41.78500 28.29600
C  0.55100 41.48300 29.40600
C  -0.49600 40.52900 28.72600
C  -0.19400 40.84400 27.23100
C  -0.41100 39.04900 28.98100
C  0.02900 42.80600 29.98300
C  0.01600 42.89100 31.53200
H  -0.81800 41.75800 32.20300
N  0.25000 40.89700 24.13100
C  -0.88000 40.42000 24.75300
C  -1.81800 39.88600 23.77700
C  -1.17200 40.01400 22.52000
C  0.16000 40.62900 22.77100
C  -3.14000 39.30700 24.18900
C  -1.68500 39.67500 21.14200
O  -1.10900 39.94800 20.13000
C  -3.06300 39.09800 20.86200
N  2.98800 41.72800 23.18200
C  2.44500 41.54400 21.95800
C  3.48300 41.82500 20.83800
C  4.57500 42.68000 21.59000
C  4.25500 42.35100 23.06900
C  4.22800 40.50400 20.35100
C  4.40800 44.21300 21.31400
C  3.03700 44.89200 21.70900
N  3.71800 42.21600 25.95900
C  4.93600 42.56900 25.47900
C  5.90000 42.76000 26.53500
C  5.11500 42.58200 27.68900
C  3.83800 42.27500 27.28500
C  7.34300 43.22400 26.29700
C  5.17300 42.64000 29.16400
O  6.14700 42.97900 29.85800
C  3.74700 42.37000 29.64400
C  3.80900 41.17000 30.57200
O  4.17900 40.05100 30.22000
O  3.25800 41.49700 31.81400
C  2.80200 40.32200 32.61300
H  -1.98300 39.96000 26.59000
H  0.99500 40.58600 20.79400
H  6.13800 42.99500 23.72100
H  1.16800 40.93900 30.12200
H  -1.54400 40.74500 28.93600
H  0.44600 39.03200 29.65400
H  -0.39800 38.28400 28.20400
H  -1.29000 38.86500 29.59900
H  -1.02100 42.99100 29.75900
H  0.55800 43.66700 29.57400
H  -0.38400 43.85800 31.83800
H  1.06100 42.86300 31.84000
H  -3.31700 38.29400 23.82700
H  -3.85800 39.89300 23.61500
H  -3.46300 39.38200 25.22800
H  -3.08100 38.80200 19.81300
H  -3.86300 39.82500 21.00800
H  -3.19400 38.22300 21.49900
H  3.01400 42.38900 20.03100
H  5.62400 42.42100 21.44700
H  4.47500 39.90800 21.22900
H  5.19000 40.72700 19.88800
H  3.62200 39.90500 19.67200
H  4.44900 44.45700 20.25200
H  5.24500 44.74700 21.76400
H  2.27800 44.16400 21.99300
H  2.77700 45.61000 20.93200
H  3.20200 45.47500 22.61500
H  8.06900 42.92700 27.05400
H  7.31300 44.30100 26.13100
H  7.66800 42.83000 25.33400
H  3.52500 43.27500 30.21000
H  2.17800 40.65000 33.44400
H  3.67500 39.77500 32.96900
H  2.15800 39.73600 31.95700

