158

Mg 8.32500 4.50600 27.65900
C  9.60000 2.81500 30.51300
C  6.23300 6.17300 29.74500
C  6.93600 5.78600 24.94600
C  9.97400 2.08700 25.73000
N  7.97600 4.48200 29.93300
C  8.63800 3.78500 30.85100
C  8.24500 4.16600 32.28600
C  7.22200 5.29900 31.94500
C  7.11600 5.30200 30.42900
C  5.91000 5.17600 32.77800
C  9.38900 4.73900 33.16300
C  8.91700 5.59100 34.41100
H  9.61900 5.32200 35.76300
N  6.76500 5.73900 27.36000
C  6.10500 6.41100 28.35900
C  5.18100 7.29300 27.81000
C  5.24300 7.16500 26.45200
C  6.36500 6.21300 26.18500
C  4.18900 8.25500 28.66500
C  4.49000 7.79300 25.38200
O  4.75100 7.69300 24.20700
C  3.27400 8.56300 25.78600
N  8.42100 3.98900 25.64300
C  7.82900 4.73900 24.71300
C  8.26900 4.41400 23.29800
C  9.28900 3.23300 23.56000
C  9.17400 3.02200 25.05900
C  7.08300 3.91600 22.43600
C  10.78600 3.43400 23.05400
C  11.75600 4.21300 24.00900
N  9.67100 2.90300 27.97600
C  10.27200 2.08300 27.05200
C  11.13400 1.14700 27.79200
C  10.94600 1.42200 29.14400
C  9.99500 2.48300 29.18800
C  11.84100 -0.05500 27.20800
C  11.28300 0.93200 30.47500
O  11.88100 -0.10800 30.83500
C  10.52800 1.94400 31.42600
C  9.80500 1.17100 32.48400
O  8.71800 0.59300 32.31300
O  10.54200 1.21900 33.63100
C  9.91100 0.51600 34.75600
H  5.60700 6.56200 30.55100
H  6.46200 6.24200 24.07400
H  10.51800 1.39200 25.08700
H  7.82100 3.30900 32.80900
H  7.56900 6.28400 32.25600
H  5.12100 4.74400 32.16200
H  5.59800 6.19400 33.01200
H  5.97100 4.53100 33.65400
H  10.13300 5.32700 32.62500
H  9.89800 3.86100 33.56000
H  7.82700 5.60300 34.40500
H  9.28900 6.57800 34.13700
H  4.49000 9.29600 28.54300
H  4.34900 8.11400 29.73400
H  3.13500 8.01700 28.52000
H  2.52200 8.01600 26.35600
H  2.80600 8.96200 24.88600
H  3.74800 9.35300 26.36800
H  8.71000 5.30000 22.84200
H  9.06300 2.29900 23.04600
H  6.55300 4.71200 21.91300
H  6.36300 3.47300 23.12300
H  7.28000 3.12900 21.70800
H  10.67200 4.12300 22.21800
H  11.20800 2.47100 22.76500
H  11.23300 4.39600 24.94700
H  12.33900 5.02500 23.57400
H  12.60600 3.56600 24.22700
H  12.67500 0.36100 26.64200
H  11.27800 -0.84600 26.71200
H  12.26100 -0.60400 28.05100
H  11.35300 2.49600 31.87500
H  8.98400 1.02400 35.02100
H  10.56500 0.43700 35.62500
H  9.55700 -0.49800 34.57000
Mg 28.32900 56.64200 40.69300
C  26.71800 53.68000 39.81600
C  31.27200 55.34600 39.32300
C  29.83900 59.53000 41.42400
C  25.16600 58.03000 41.36600
N  28.90700 54.70300 39.67900
C  28.05000 53.67700 39.39200
C  28.73800 52.51500 38.78700
C  30.22600 52.92300 38.83300
C  30.17800 54.39600 39.39200
C  31.32500 51.96800 39.58700
C  28.16000 51.93500 37.38100
C  27.67700 53.08600 36.45800
H  27.94400 53.01400 34.94800
N  30.34200 57.37100 40.36200
C  31.34000 56.71300 39.78300
C  32.50400 57.63300 39.70600
C  32.15200 58.83700 40.38500
C  30.73600 58.61300 40.78900
C  33.86100 57.22200 39.09200
C  33.05100 60.01900 40.58300
O  34.22300 59.89900 40.27000
C  32.67000 61.27600 41.32000
N  27.59000 58.54800 41.03400
C  28.41500 59.50400 41.50500
C  27.64800 60.75200 42.06200
C  26.14900 60.36400 41.83900
C  26.24600 58.87500 41.39100
C  28.01500 61.02800 43.52900
C  25.46800 61.20300 40.71100
C  26.31100 61.54500 39.51100
N  26.29200 56.00000 40.75200
C  25.12100 56.65300 41.01500
C  23.92500 55.76100 40.87500
C  24.53700 54.60000 40.45400
C  25.96900 54.79100 40.34300
C  22.53400 56.09400 41.26100
C  24.31600 53.21900 40.05700
O  23.29000 52.59500 39.99000
C  25.72000 52.52400 39.81700
C  25.93000 51.51300 40.87500
O  25.74500 51.69200 42.08200
O  26.58900 50.50900 40.31700
C  27.35000 49.58900 41.20000
H  32.25900 55.00400 39.00200
H  30.36900 60.38700 41.84600
H  24.24200 58.31400 41.87300
H  28.63000 51.66400 39.45900
H  30.51400 53.06200 37.79100
H  32.22000 51.87200 38.97300
H  30.79900 51.06000 39.88200
H  31.66100 52.47900 40.49000
H  27.33500 51.26400 37.62400
H  28.93900 51.35500 36.88600
H  28.21800 54.00500 36.68300
H  26.62700 53.29800 36.65800
H  34.21800 58.01300 38.43300
H  33.80700 56.22400 38.65800
H  34.60800 57.07100 39.87200
H  32.23500 60.97800 42.27400
H  31.97200 61.87300 40.73400
H  33.52900 61.82700 41.70300
H  27.89900 61.67000 41.53100
H  25.59700 60.36900 42.77900
H  27.13100 61.10200 44.16100
H  28.51300 61.98700 43.67400
H  28.54000 60.21500 44.03200
H  25.14200 62.13100 41.17900
H  24.57200 60.77400 40.26100
H  27.15500 60.88300 39.31700
H  26.68300 62.54700 39.72600
H  25.69500 61.53800 38.61200
H  22.25900 57.10500 40.96000
H  22.49400 55.97000 42.34400
H  21.91200 55.32500 40.80400
H  25.53200 51.98600 38.88800
H  28.38000 49.45900 40.86700
H  26.85900 48.63000 41.36200
H  27.47200 50.06300 42.17400

