158

Mg 1.12100 42.30500 26.54400
C  2.57000 42.39500 29.64500
C  -1.71900 41.08500 27.89300
C  0.23100 41.48400 23.47200
C  4.36900 42.96900 25.15500
N  0.55000 41.78100 28.60500
C  1.21200 42.14000 29.74700
C  0.37900 42.01100 30.98000
C  -0.94600 41.30900 30.38100
C  -0.76500 41.38800 28.83600
C  -1.04100 39.75400 30.72500
C  0.05800 43.31600 31.76900
C  0.50800 43.38600 33.22500
H  -0.42700 42.85900 34.32600
N  -0.53800 41.56400 25.78900
C  -1.64900 41.11900 26.49000
C  -2.67100 40.77400 25.52200
C  -2.12600 40.85700 24.22300
C  -0.74700 41.36300 24.46200
C  -4.07000 40.35100 26.00100
C  -2.78800 40.62900 22.91300
O  -2.20700 40.91400 21.86200
C  -4.25400 40.21600 22.80300
N  2.09300 42.45700 24.41000
C  1.51400 41.96300 23.33900
C  2.37700 42.10100 22.05200
C  3.64900 42.67900 22.62300
C  3.39100 42.65400 24.20600
C  2.57400 40.78200 21.19200
C  3.80500 44.13700 22.30500
C  4.40000 44.54300 20.92600
N  3.09100 42.72400 27.20500
C  4.32700 42.87200 26.59600
C  5.36500 43.00100 27.59600
C  4.67800 42.88300 28.83700
C  3.31900 42.70600 28.55300
C  6.84900 43.20000 27.32700
C  4.93800 42.91200 30.13300
O  5.98300 43.07400 30.72700
C  3.58700 42.63000 30.76500
C  3.73900 41.38500 31.61700
O  3.63300 40.25200 31.14400
O  3.90300 41.68900 32.95800
C  3.81900 40.52500 33.86900
H  -2.63800 40.74000 28.37100
H  0.05300 41.15600 22.44600
H  5.35800 43.02700 24.69600
H  0.83700 41.20200 31.54900
H  -1.86500 41.76700 30.74400
H  -1.86400 39.60800 31.42500
H  -0.15900 39.26900 31.14300
H  -1.27000 39.22400 29.80100
H  -0.95500 43.71100 31.69300
H  0.61400 44.05100 31.18800
H  0.81500 44.38400 33.54000
H  1.42000 42.79900 33.11600
H  -4.87200 40.62600 25.31600
H  -4.39300 40.87900 26.89700
H  -4.06800 39.27800 26.19600
H  -4.38700 39.83600 21.79000
H  -5.03400 40.89800 23.14000
H  -4.54800 39.30400 23.32300
H  1.86200 42.84800 21.44800
H  4.50600 42.01300 22.52700
H  3.63300 40.62300 20.98500
H  2.02500 40.93500 20.26300
H  2.13300 39.90900 21.67200
H  4.18900 44.75400 23.11800
H  2.81700 44.59800 22.32600
H  3.62300 44.91100 20.25600
H  4.92800 43.71500 20.45300
H  5.12700 45.32300 21.15100
H  7.29700 42.21400 27.45400
H  7.24400 43.90200 28.06200
H  7.13400 43.58900 26.34900
H  3.29800 43.44500 31.42900
H  4.66900 39.86400 33.70200
H  2.85700 40.04600 33.69000
H  3.83000 40.86100 34.90600
Mg -1.81300 34.16000 27.53400
C  -4.09900 32.40600 29.70200
C  -0.63300 35.86400 30.24200
C  -0.12200 36.03400 25.36700
C  -3.53600 32.59700 24.85900
N  -2.36700 34.22900 29.78400
C  -3.36500 33.37900 30.41100
C  -3.34000 33.65100 31.87000
C  -2.43400 34.97200 31.97500
C  -1.75400 35.06500 30.59100
C  -3.23700 36.27200 32.20100
C  -2.61700 32.53500 32.63800
C  -3.40700 32.11900 33.95000
H  -2.61500 32.29800 35.28000
N  -0.36700 35.67700 27.86900
C  -0.03900 36.27500 29.01500
C  1.05600 37.24000 28.74000
C  1.26000 37.18300 27.33000
C  0.23800 36.24400 26.76300
C  1.82900 38.07000 29.73500
C  2.33000 37.96000 26.46600
O  2.40400 37.72300 25.25700
C  3.24400 38.85000 27.09400
N  -1.76900 34.17500 25.39100
C  -1.04000 35.14400 24.74800
C  -1.25700 35.02200 23.20600
C  -2.24300 33.84400 23.07900
C  -2.61600 33.59300 24.56600
C  -1.77000 36.48200 22.67300
C  -1.81000 32.56100 22.28700
C  -0.78400 31.57500 22.98000
N  -3.40200 32.83800 27.26100
C  -3.88200 32.16500 26.13900
C  -4.71600 31.08600 26.50300
C  -4.80800 31.17100 27.88200
C  -4.04100 32.26400 28.31000
C  -5.43800 30.08600 25.58600
C  -5.55000 30.60500 29.02800
O  -6.29400 29.62200 29.08300
C  -5.00600 31.42400 30.24400
C  -6.05800 31.92800 31.21300
O  -6.88000 32.82200 31.04400
O  -6.06200 31.17800 32.37200
C  -7.19200 31.42500 33.29900
H  -0.21000 36.32500 31.13600
H  0.42700 36.75600 24.75900
H  -4.10100 32.11100 24.06100
H  -4.32700 33.80000 32.30700
H  -1.65900 34.95600 32.74100
H  -3.43600 36.77600 31.25600
H  -2.53800 36.89800 32.75600
H  -4.02700 36.11200 32.93500
H  -1.55500 32.68400 32.83000
H  -2.55400 31.60800 32.06900
H  -3.68200 31.06600 33.88900
H  -4.32700 32.70400 33.95600
H  1.48800 37.89800 30.75600
H  1.79500 39.13400 29.49800
H  2.87300 37.76500 29.65300
H  3.80000 39.53900 26.45800
H  3.89200 38.22800 27.71200
H  2.74600 39.53900 27.77600
H  -0.32900 34.76700 22.69500
H  -3.00700 34.25700 22.42100
H  -1.21300 36.75100 21.77600
H  -1.76700 37.34000 23.34500
H  -2.73400 36.47400 22.16500
H  -1.29500 33.03400 21.45100
H  -2.72700 32.01300 22.06900
H  -0.45200 32.01700 23.91900
H  0.10400 31.32000 22.40200
H  -1.31200 30.64700 23.20000
H  -5.61500 29.17200 26.15400
H  -4.87900 29.81300 24.69200
H  -6.40100 30.49700 25.28100
H  -4.47500 30.59300 30.70700
H  -8.15800 31.23500 32.83200
H  -7.26600 32.46900 33.60400
H  -7.18500 30.73900 34.14600

