158

Mg 53.67100 23.99100 44.90800
C  51.07500 26.06800 43.75700
C  52.02100 21.18800 43.63400
C  56.58900 22.35300 45.00100
C  55.23600 26.90700 45.99000
N  51.71600 23.69600 43.91500
C  50.80500 24.67700 43.56300
C  49.50700 23.99700 43.11500
C  49.72100 22.44300 43.60400
C  51.25800 22.44700 43.62800
C  49.06000 22.08700 44.93700
C  49.43900 24.02300 41.56600
C  47.96500 24.10600 41.10600
H  47.67300 23.83100 39.66800
N  54.22500 22.00200 44.39100
C  53.36500 20.98700 43.97600
C  54.09600 19.73600 43.94900
C  55.47100 20.05000 44.17200
C  55.50200 21.56700 44.51100
C  53.43100 18.39100 43.65100
C  56.62500 19.05800 44.19400
O  56.46000 17.86200 43.99700
C  58.05100 19.39900 44.51000
N  55.56400 24.53900 45.36100
C  56.65300 23.68200 45.30200
C  57.96800 24.34000 45.75700
C  57.39300 25.78600 46.18100
C  55.92700 25.76800 45.79900
C  58.65900 23.57300 46.96300
C  58.10800 27.02400 45.52600
C  58.54000 28.18800 46.38400
N  53.31900 26.05900 44.92600
C  53.93900 27.13800 45.47400
C  53.22300 28.37300 45.36100
C  52.08900 27.98700 44.63400
C  52.15200 26.56900 44.41900
C  53.64500 29.74800 45.85600
C  50.80200 28.38200 44.13700
O  50.28400 29.46100 44.10000
C  50.05200 27.17400 43.56900
C  49.70900 27.49000 42.16300
O  50.53100 27.50900 41.23700
O  48.37700 27.83100 41.91000
C  47.92000 27.79400 40.50900
H  51.36100 20.38400 43.30300
H  57.51700 21.81400 45.20100
H  55.82700 27.77400 46.29400
H  48.57300 24.31800 43.57700
H  49.30700 21.77000 42.85300
H  48.71300 22.99100 45.43600
H  49.70500 21.64000 45.69400
H  48.22900 21.43800 44.66100
H  50.02900 23.23800 41.09200
H  49.91400 24.96400 41.29000
H  47.57800 25.08000 41.40500
H  47.38900 23.37600 41.67400
H  53.81100 17.95600 42.72600
H  52.35000 18.51700 43.70400
H  53.70300 17.75600 44.49300
H  58.26900 20.32000 43.97000
H  58.70900 18.58900 44.19700
H  58.02800 19.37000 45.60000
H  58.66200 24.43500 44.92200
H  57.45400 25.89700 47.26400
H  58.53100 24.03300 47.94300
H  59.70800 23.52500 46.67200
H  58.29200 22.56300 47.14500
H  57.52900 27.41800 44.69100
H  59.05700 26.65700 45.13500
H  57.95300 29.08400 46.18200
H  59.62000 28.31800 46.30800
H  58.36800 27.94600 47.43200
H  53.99400 30.35100 45.01800
H  54.42500 29.80700 46.61400
H  52.75900 30.26100 46.23000
H  49.17800 27.04900 44.20900
H  48.54200 27.12000 39.91900
H  47.74400 28.79900 40.12400
H  46.91600 27.39000 40.63200
Mg 41.39500 41.92900 26.14300
C  40.73800 44.22900 28.63700
C  42.44800 39.65700 28.56100
C  42.63700 39.98500 23.69400
C  40.60200 44.46500 23.80200
N  41.41600 41.86300 28.32800
C  41.13900 42.97400 29.10600
C  41.28100 42.69100 30.61600
C  41.84700 41.21100 30.53500
C  41.88100 40.83800 29.07500
C  43.14400 40.93300 31.34800
C  39.97400 42.73800 31.53100
C  40.24400 43.27000 32.99300
H  40.20500 42.29800 34.10500
N  42.33100 40.00300 26.14800
C  42.70200 39.23400 27.25300
C  43.29100 38.02700 26.76500
C  43.39700 38.11400 25.33100
C  42.81200 39.41800 24.98000
C  43.88700 36.95800 27.63200
C  44.16800 37.17400 24.35000
O  44.36200 37.42900 23.15500
C  44.80300 35.87400 24.83600
N  41.67900 42.20600 24.09800
C  42.17200 41.24700 23.24400
C  42.01200 41.59100 21.76300
C  41.24100 42.99700 21.84000
C  41.12700 43.27200 23.34300
C  43.27100 41.58200 20.89000
C  39.82000 43.12100 21.23500
C  39.42900 44.41600 20.50400
N  40.71900 43.90700 26.14300
C  40.42800 44.76600 25.16700
C  40.09200 46.06700 25.72600
C  40.07200 45.89000 27.10100
C  40.53000 44.57800 27.32600
C  39.87000 47.39800 25.02500
C  39.89400 46.56100 28.44400
O  39.56700 47.69200 28.72300
C  40.29500 45.48100 29.50500
C  41.27300 45.99800 30.34200
O  42.43000 46.03100 30.07000
O  40.70000 46.25500 31.59200
C  41.64200 46.85000 32.54700
H  42.69100 38.95600 29.36200
H  42.94600 39.33700 22.87100
H  40.23000 45.20500 23.09100
H  42.05200 43.39500 30.92900
H  41.05900 40.50400 30.79600
H  43.32500 41.69900 32.10200
H  44.09700 40.84300 30.82600
H  43.14200 40.05800 31.99800
H  39.56500 41.73300 31.63800
H  39.12600 43.21100 31.03600
H  39.51300 44.06500 33.14100
H  41.20600 43.76200 32.84700
H  44.93900 37.21400 27.76000
H  43.78900 36.01700 27.09100
H  43.34600 36.99500 28.57800
H  45.45200 35.98800 25.70500
H  45.49200 35.49800 24.08000
H  44.07400 35.13600 25.17100
H  41.42100 40.80900 21.28500
H  41.86600 43.80700 21.46500
H  44.12600 41.39600 21.54100
H  43.40300 42.48700 20.29600
H  43.23100 40.70800 20.24000
H  39.08700 43.12600 22.04200
H  39.69600 42.37800 20.44700
H  38.44900 44.71100 20.87800
H  39.29900 44.25900 19.43300
H  40.19800 45.17800 20.62800
H  38.89200 47.35800 24.54500
H  40.71900 47.52200 24.35300
H  39.81500 48.21600 25.74300
H  39.44600 45.19100 30.12500
H  42.15700 46.03100 33.04900
H  41.08300 47.39400 33.30800
H  42.39000 47.58400 32.24500

