158

Mg 44.63100 3.81600 47.21500
C  42.66700 6.66500 47.05000
C  41.75400 1.91000 46.29600
C  46.61300 1.21000 46.30700
C  47.47800 5.85400 47.22700
N  42.48600 4.28700 46.66800
C  41.91300 5.52300 46.70900
C  40.42800 5.48700 46.38700
C  40.11100 3.92600 46.27700
C  41.51300 3.31900 46.41300
C  39.12600 3.44900 47.33600
C  39.86500 6.35000 45.23200
C  40.64300 6.34500 43.92000
H  40.07300 6.00000 42.58500
N  44.20600 1.82400 46.77700
C  42.96300 1.19200 46.41800
C  43.14400 -0.18400 46.17000
C  44.55300 -0.41000 46.35100
C  45.22200 0.90700 46.45800
C  42.08800 -1.16200 45.63200
C  45.17600 -1.78700 46.30300
O  44.51500 -2.77300 46.00600
C  46.69000 -1.89100 46.54600
N  46.67400 3.60500 46.60800
C  47.29200 2.43300 46.45400
C  48.80500 2.51300 46.38100
C  49.03700 4.04600 46.64200
C  47.63700 4.54400 46.74200
C  49.65500 1.55100 47.27000
C  49.91000 4.81900 45.63000
C  50.84100 4.03000 44.67400
N  45.08800 5.82400 47.26500
C  46.25900 6.52100 47.32500
C  45.97700 7.94600 47.37300
C  44.54400 7.99100 47.29500
C  44.04500 6.72500 47.25000
C  46.96700 9.10600 47.36800
C  43.38400 8.87200 47.33700
O  43.41900 10.13400 47.46500
C  42.11900 8.02500 47.21200
C  41.23700 8.05700 48.42000
O  41.50700 7.46600 49.50700
O  40.08000 8.67900 48.10300
C  38.88500 8.67300 49.02000
H  40.82300 1.39000 46.06000
H  47.26900 0.39900 45.98400
H  48.36800 6.46600 47.39100
H  39.89500 5.86600 47.26000
H  39.72800 3.69200 45.28300
H  38.32700 4.18100 47.45700
H  39.69400 3.40700 48.26500
H  38.60300 2.50600 47.17700
H  39.64400 7.35100 45.60300
H  38.88000 5.97000 44.96300
H  41.58600 5.80200 43.99200
H  40.85200 7.39400 43.71300
H  41.99000 -2.16300 46.05000
H  42.36100 -1.27600 44.58200
H  41.07600 -0.79800 45.80900
H  46.94200 -1.22700 47.37300
H  47.28200 -1.61400 45.67400
H  46.98400 -2.93800 46.62300
H  48.99400 2.34000 45.32200
H  49.60000 4.12200 47.57200
H  49.03000 1.13600 48.06100
H  50.48700 2.08200 47.73300
H  50.05400 0.69500 46.72700
H  50.39700 5.55400 46.26900
H  49.31100 5.37200 44.90600
H  51.70800 4.66000 44.47500
H  50.21900 3.77400 43.81700
H  51.14100 3.06700 45.08600
H  47.90400 8.72800 47.77800
H  46.50300 10.00800 47.76600
H  47.24200 9.41300 46.35900
H  41.53800 8.40700 46.37300
H  39.11100 8.68600 50.08600
H  38.44500 7.68500 48.88900
H  38.17200 9.44000 48.71600
Mg 47.57800 15.66300 29.14900
C  45.50300 15.28100 31.85300
C  49.58400 17.68400 31.15900
C  49.61700 16.49200 26.61100
C  45.08800 14.54200 27.04400
N  47.46500 16.45000 31.17300
C  46.63300 15.94700 32.16000
C  46.96400 16.58000 33.52100
C  48.15800 17.54600 33.25700
C  48.44500 17.21200 31.74300
C  47.91300 19.03500 33.49200
C  47.30300 15.53600 34.58300
C  47.27300 15.88400 36.02700
H  46.88200 17.27700 36.43700
N  49.50500 16.63400 28.94300
C  50.07400 17.44400 29.89000
C  51.42500 17.79000 29.44900
C  51.44000 17.42300 28.11600
C  50.10900 16.88600 27.79200
C  52.41900 18.53100 30.32100
C  52.54000 17.62100 27.10000
O  52.48200 17.28400 25.98000
C  53.85300 18.36100 27.58900
N  47.38400 15.68500 27.14800
C  48.37400 16.03000 26.26600
C  47.91400 15.80200 24.80800
C  46.53700 14.96200 24.95100
C  46.27100 15.09500 26.44800
C  47.76400 17.18900 24.13200
C  46.63900 13.45900 24.36800
C  46.82100 12.26600 25.34700
N  45.70500 15.07500 29.34500
C  44.76700 14.57500 28.41300
C  43.51600 14.08800 29.14600
C  43.86800 14.28200 30.48100
C  45.13700 14.91700 30.56900
C  42.22400 13.65800 28.58500
C  43.29500 14.19000 31.77500
O  42.18200 13.76600 32.07200
C  44.30200 14.94200 32.76400
C  43.53100 16.12500 33.27000
O  43.04200 16.99000 32.58600
O  43.31100 16.04400 34.61200
C  42.73400 17.17600 35.33800
H  50.20600 18.33100 31.78100
H  50.23800 16.70100 25.73700
H  44.33500 14.25500 26.30600
H  46.04000 17.04400 33.86600
H  49.06900 17.22800 33.76400
H  46.91100 19.13400 33.91000
H  47.97400 19.51700 32.51700
H  48.69900 19.41200 34.14600
H  48.29800 15.19600 34.29500
H  46.60600 14.72100 34.38800
H  48.24000 15.57600 36.42500
H  46.64600 15.20000 36.59800
H  53.22800 17.82200 30.49800
H  52.16200 18.90300 31.31300
H  52.80800 19.37000 29.74500
H  53.59900 19.40300 27.78600
H  54.58200 18.34300 26.77800
H  54.19900 17.87000 28.49800
H  48.76800 15.17400 24.55500
H  45.68100 15.35900 24.40500
H  46.77800 17.26700 23.67300
H  48.44600 17.13500 23.28300
H  48.02300 18.05000 24.74800
H  47.47900 13.39300 23.67600
H  45.68200 13.29500 23.87100
H  45.86800 11.76100 25.50500
H  47.27300 12.65600 26.25800
H  47.50200 11.53800 24.90500
H  42.34400 13.87100 27.52300
H  41.44800 14.29700 29.00700
H  42.04000 12.59300 28.72600
H  44.52100 14.25500 33.58100
H  43.13100 18.09500 34.90700
H  43.08000 17.17200 36.37200
H  41.65000 17.11400 35.24700

