158

Mg 36.01500 2.00000 29.93900
C  33.86000 3.14500 32.35100
C  38.56500 1.95300 32.49300
C  38.32200 1.13900 27.61700
C  33.59200 2.47800 27.54500
N  36.16400 2.44800 32.14400
C  35.10700 2.92400 32.88900
C  35.53600 3.05800 34.35700
C  37.07100 3.00500 34.20600
C  37.28400 2.40500 32.87300
C  37.86500 4.37100 34.39100
C  34.86700 2.04700 35.26600
C  34.45200 2.48100 36.65600
H  35.01800 3.77500 37.32100
N  38.08400 1.51500 30.02300
C  38.92200 1.56000 31.14200
C  40.21600 1.12600 30.68600
C  40.21200 0.79700 29.29400
C  38.84800 1.23400 28.91500
C  41.44700 1.20300 31.63400
C  41.29600 0.31400 28.38000
O  41.09500 0.17400 27.20100
C  42.77300 0.12700 28.92400
N  36.00600 2.00300 27.83000
C  37.09200 1.44300 27.10700
C  36.68600 1.15900 25.63300
C  35.18400 1.67000 25.61700
C  34.87700 2.01000 27.10800
C  37.61100 1.75800 24.54600
C  34.14500 0.52700 25.03100
C  33.04500 1.13300 24.12500
N  34.13300 2.69500 29.93800
C  33.23600 2.77900 28.84600
C  31.92300 3.07900 29.31900
C  32.09400 3.28700 30.73700
C  33.44100 2.99700 31.02200
C  30.66400 3.35200 28.38500
C  31.47900 3.77900 32.02600
O  30.42400 4.24100 32.26100
C  32.66100 3.57500 33.08000
C  32.78900 4.81200 33.85400
O  33.24600 5.88600 33.42400
O  32.16500 4.71900 35.08300
C  31.72800 5.96000 35.75700
H  39.29700 1.89600 33.30100
H  38.98500 0.93400 26.77300
H  32.83000 2.66400 26.78500
H  35.31100 4.06700 34.70200
H  37.52300 2.47000 35.04200
H  38.55500 4.22400 35.22200
H  37.31700 5.27700 34.64700
H  38.48700 4.54500 33.51200
H  35.54700 1.19500 35.24900
H  34.01700 1.62100 34.73500
H  34.81900 1.64200 37.24700
H  33.36600 2.40400 36.60800
H  41.96800 0.24600 31.66900
H  41.07100 1.40300 32.63700
H  42.03500 2.05700 31.29700
H  43.49800 -0.11900 28.14800
H  42.84400 -0.82200 29.45600
H  43.11000 1.01400 29.46100
H  36.63100 0.07200 25.58200
H  35.07800 2.57700 25.02200
H  38.40700 1.02800 24.39500
H  38.05100 2.66800 24.95400
H  37.09800 1.92400 23.59900
H  33.67200 -0.03100 25.83900
H  34.74000 -0.10400 24.37100
H  33.17700 0.77300 23.10500
H  33.12400 2.22000 24.15000
H  32.08600 0.79400 24.51700
H  30.35900 2.44800 27.85700
H  30.99000 4.18000 27.75500
H  29.85400 3.73000 29.00900
H  32.44200 2.71400 33.71200
H  30.69800 5.85000 36.09900
H  31.72400 6.88600 35.18200
H  32.31500 6.14700 36.65600
Mg 50.73400 45.12700 42.62700
C  47.61800 46.28000 41.34800
C  50.10200 42.15200 40.90100
C  53.94000 44.33000 43.18500
C  51.41400 48.51600 43.52900
N  49.12400 44.38500 41.10400
C  47.92100 44.95600 40.96800
C  46.98600 44.05200 40.11300
C  47.73200 42.66500 40.14500
C  49.03600 43.10000 40.73300
C  46.91600 41.53500 40.85300
C  46.71700 44.66200 38.73300
C  45.21400 44.93900 38.46600
H  44.65300 43.89500 37.40400
N  51.88300 43.47700 42.18700
C  51.45400 42.33100 41.42200
C  52.58100 41.42900 41.31300
C  53.63900 41.99100 42.04400
C  53.20000 43.28400 42.56500
C  52.55700 40.13000 40.58200
C  54.96500 41.25600 42.29700
O  55.20200 40.27000 41.60400
C  55.95300 41.65100 43.36700
N  52.38700 46.25500 43.38300
C  53.59100 45.68600 43.42700
C  54.62400 46.71800 43.92000
C  53.77200 48.00300 44.24300
C  52.44600 47.56700 43.63000
C  55.61700 46.33900 45.01100
C  54.41300 49.38400 43.76500
C  55.38600 50.09500 44.71300
N  49.69500 46.94900 42.63900
C  50.11400 48.18700 43.11100
C  49.00200 49.16000 42.91600
C  48.04400 48.42100 42.23600
C  48.44800 47.09500 42.16800
C  48.97500 50.66400 43.27700
C  46.69400 48.54500 41.61300
O  45.89600 49.54200 41.34000
C  46.31300 47.12100 41.02200
C  45.09400 46.59200 41.72100
O  45.01200 45.90000 42.72700
O  44.00200 46.82600 40.94400
C  42.67500 46.38600 41.33600
H  50.03300 41.14600 40.48000
H  54.98700 44.02500 43.24200
H  51.55100 49.53400 43.90000
H  46.09800 43.87700 40.72200
H  47.86400 42.33100 39.11600
H  46.55600 40.85600 40.08000
H  46.09700 41.93400 41.45200
H  47.52700 40.92900 41.52200
H  47.07900 44.08000 37.88500
H  47.29600 45.57600 38.60800
H  45.14500 45.94600 38.05400
H  44.52500 44.82000 39.30200
H  53.27100 39.94500 39.77900
H  51.56300 39.98900 40.15900
H  52.65900 39.30200 41.28300
H  55.39600 42.02900 44.22400
H  56.60900 42.42400 42.96700
H  56.54100 40.74900 43.53900
H  55.30100 46.95300 43.09800
H  53.61400 48.06300 45.32000
H  55.55000 46.72800 46.02700
H  56.60300 46.45400 44.56000
H  55.49700 45.27400 45.20600
H  53.65900 50.08000 43.39900
H  54.90200 49.37000 42.79100
H  55.86600 49.45300 45.45100
H  54.92700 50.84700 45.35500
H  56.00900 50.66900 44.02800
H  48.13300 50.99400 43.88500
H  48.83900 51.13200 42.30200
H  49.90600 51.09000 43.65400
H  46.22900 47.12300 39.93500
H  42.30700 47.02200 42.14100
H  42.72500 45.38800 41.77100
H  41.97800 46.32100 40.50000

