158

Mg 2.08900 -1.27900 44.96800
C  5.41100 -0.39700 44.06100
C  1.04100 0.98500 42.45000
C  -0.93000 -2.51300 45.41900
C  3.47800 -4.10400 46.62200
N  3.17900 0.08500 43.36500
C  4.55900 0.35900 43.28100
C  4.87200 1.54600 42.38900
C  3.39100 2.03100 42.00500
C  2.44800 0.95000 42.59700
C  3.00900 3.42500 42.55800
C  5.73100 1.07500 41.13800
C  6.95100 2.01000 40.86200
H  7.06400 2.55100 39.44600
N  0.27500 -0.71100 44.22700
C  0.03900 0.19400 43.19700
C  -1.36100 0.26900 43.04400
C  -1.97700 -0.65800 43.95800
C  -0.93000 -1.34900 44.63700
C  -2.07300 1.16500 42.10100
C  -3.49500 -0.73600 44.31400
O  -4.38400 -0.16000 43.66300
C  -3.97000 -1.51700 45.48900
N  1.35700 -3.07300 45.90300
C  0.05100 -3.25300 46.05200
C  -0.27500 -4.59000 46.81000
C  1.18000 -5.20300 47.02400
C  2.07400 -4.09100 46.50100
C  -1.02600 -4.27600 48.11400
C  1.34500 -6.58200 46.31500
C  1.43900 -7.83500 47.26200
N  3.98800 -2.03800 45.31800
C  4.34900 -3.13400 46.08600
C  5.83500 -3.19300 46.13200
C  6.29900 -2.06500 45.42000
C  5.13600 -1.44000 44.90400
C  6.60000 -4.26400 46.86400
C  7.43000 -1.28000 45.09000
O  8.55100 -1.30700 45.44600
C  6.88900 -0.14900 44.27000
C  7.17300 1.12100 45.01900
O  6.56300 1.63700 45.96800
O  8.31900 1.66200 44.50800
C  8.74400 2.97000 44.99800
H  0.70100 1.80600 41.81600
H  -1.86400 -3.01700 45.67500
H  3.85700 -5.10200 46.85200
H  5.36600 2.36700 42.90900
H  3.27800 1.90000 40.92900
H  3.80300 3.78400 43.21200
H  2.01900 3.41800 43.01400
H  2.94100 4.18400 41.77900
H  5.23300 1.13800 40.17000
H  6.02100 0.02500 41.18000
H  7.83300 1.42500 41.12400
H  7.02500 2.85600 41.54500
H  -2.68700 0.55400 41.43900
H  -1.42500 1.71300 41.41700
H  -2.67700 1.92200 42.60100
H  -3.37900 -1.46300 46.40300
H  -4.16500 -2.53200 45.14300
H  -4.95900 -1.16800 45.78700
H  -1.05500 -5.11000 46.25300
H  1.30000 -5.33600 48.09900
H  -1.58700 -5.18000 48.34900
H  -1.63700 -3.37800 48.02200
H  -0.20700 -4.14700 48.82100
H  2.32000 -6.69500 45.84000
H  0.56800 -6.68600 45.55700
H  1.63300 -7.56500 48.30000
H  2.25400 -8.49300 46.96200
H  0.46800 -8.33000 47.24000
H  6.63600 -5.14600 46.22400
H  6.21300 -4.55400 47.84100
H  7.60000 -3.85000 46.99400
H  7.35000 0.00600 43.29400
H  8.00100 3.72600 44.74400
H  9.69600 3.27200 44.56200
H  8.81900 3.07100 46.08000
Mg -2.23500 34.99100 26.71500
C  -3.88400 33.40100 29.36600
C  -0.89300 37.19400 28.94300
C  -1.17600 36.80600 24.14800
C  -4.27600 33.02700 24.48100
N  -2.34200 35.21000 28.89300
C  -3.07700 34.39200 29.77700
C  -2.83500 34.85800 31.22700
C  -1.97900 36.18300 31.04300
C  -1.73900 36.27300 29.56200
C  -2.67600 37.46700 31.65000
C  -2.07300 33.84400 32.15900
C  -2.78900 33.32200 33.39200
H  -2.03800 33.32000 34.75600
N  -1.06000 36.64700 26.52300
C  -0.60000 37.41700 27.52300
C  0.25300 38.44200 27.02700
C  0.33300 38.24900 25.69500
C  -0.65700 37.22400 25.41900
C  0.96200 39.38700 27.91100
C  1.33200 38.76400 24.59500
O  1.36400 38.25600 23.47300
C  2.31400 39.86600 25.00500
N  -2.70000 34.97700 24.61400
C  -2.08100 35.81500 23.78400
C  -2.66800 35.72300 22.39400
C  -3.41500 34.36300 22.44100
C  -3.50900 34.09400 23.91100
C  -3.60400 36.95800 22.07300
C  -2.87500 33.18300 21.58000
C  -1.74500 32.21300 22.21300
N  -3.66700 33.52900 26.84000
C  -4.29200 32.71300 25.82900
C  -5.14300 31.75500 26.47800
C  -5.06800 32.00200 27.87600
C  -4.11000 33.02100 28.04400
C  -5.99400 30.74800 25.77200
C  -5.55200 31.68800 29.12500
O  -6.40500 30.88500 29.46500
C  -4.79100 32.54300 30.19900
C  -5.90100 33.29100 30.98200
O  -6.80300 33.90500 30.45600
O  -5.76500 32.89200 32.27000
C  -7.02600 33.15700 33.00700
H  -0.41900 37.77700 29.73500
H  -0.70400 37.28200 23.28600
H  -4.85000 32.33500 23.86200
H  -3.80300 35.03200 31.69800
H  -1.01200 36.00100 31.51200
H  -1.92600 37.97500 32.25600
H  -3.52000 37.17900 32.27700
H  -2.95300 38.22800 30.92000
H  -1.07900 34.18800 32.44300
H  -2.00800 32.98000 31.49700
H  -2.95000 32.25300 33.25300
H  -3.78600 33.76100 33.41100
H  1.04100 40.27400 27.28400
H  2.00100 39.11900 28.10500
H  0.50400 39.62100 28.87200
H  3.05900 39.98300 24.21800
H  2.92100 39.57700 25.86300
H  1.69400 40.74100 25.20000
H  -1.87600 35.81700 21.65100
H  -4.46500 34.49100 22.18100
H  -4.65600 36.72900 21.90200
H  -3.09700 37.46500 21.25200
H  -3.71800 37.64500 22.91100
H  -2.56800 33.62000 20.63000
H  -3.75000 32.54600 21.44600
H  -1.23200 32.75800 23.00600
H  -1.15500 31.91100 21.34800
H  -2.14900 31.27600 22.59500
H  -6.98500 31.08900 25.47200
H  -5.98900 29.89400 26.45000
H  -5.58000 30.39500 24.82800
H  -4.23900 31.92300 30.90600
H  -7.88700 32.65600 32.56600
H  -7.15300 34.23500 32.90800
H  -6.82400 32.78700 34.01200

