158

Mg 40.53100 8.03500 29.17600
C  42.45100 9.43000 31.73800
C  38.34500 6.79400 31.54900
C  38.95600 6.50300 26.70500
C  43.37300 8.50300 26.93500
N  40.47400 7.99000 31.39600
C  41.27000 8.77700 32.18100
C  40.81100 8.76400 33.66000
C  39.58600 7.75200 33.56300
C  39.44700 7.47800 32.10500
C  39.60600 6.43200 34.32100
C  40.44300 10.17700 34.09800
C  39.74300 10.22200 35.50400
H  40.25800 11.10500 36.59600
N  38.88000 6.86100 29.08300
C  38.08200 6.50100 30.20800
C  36.96100 5.69500 29.62500
C  37.13200 5.67200 28.20100
C  38.33900 6.38400 27.91100
C  35.81300 5.13500 30.53000
C  36.12600 5.17400 27.20400
O  36.24800 5.37800 25.99800
C  34.79100 4.60100 27.63400
N  41.09400 7.56300 27.11800
C  40.21400 7.02800 26.29500
C  40.74100 6.72600 24.89400
C  42.13800 7.32300 24.98700
C  42.23700 7.85000 26.41800
C  40.78000 5.20800 24.56100
C  42.40800 8.32800 23.93300
C  41.91500 9.75100 24.20300
N  42.48600 8.89300 29.20300
C  43.48700 9.03400 28.23600
C  44.62200 9.63200 28.81800
C  44.30600 9.84100 30.21400
C  42.97500 9.36200 30.38600
C  45.99800 9.91200 28.17500
C  44.77500 10.34800 31.47100
O  45.86000 10.89700 31.72400
C  43.54600 10.17500 32.51200
C  43.98300 9.39700 33.66900
O  44.47300 8.26300 33.58900
O  43.95300 10.10100 34.83300
C  44.23300 9.36100 36.08900
H  37.70600 6.43200 32.35600
H  38.43100 5.97100 25.90900
H  44.21200 8.52300 26.23600
H  41.56300 8.36300 34.33900
H  38.72500 8.36400 33.83000
H  40.43900 6.37600 35.02200
H  39.56500 5.51800 33.72900
H  38.66800 6.49800 34.87300
H  39.83600 10.61300 33.30400
H  41.28500 10.85400 34.25100
H  39.63400 9.18600 35.82700
H  38.67100 10.40300 35.42300
H  36.09200 5.28400 31.57300
H  35.84100 4.09400 30.20700
H  34.86400 5.63900 30.34800
H  34.08700 5.27200 28.12500
H  35.13600 3.79700 28.28400
H  34.25900 4.16100 26.79100
H  40.13200 7.27200 24.17400
H  43.02100 6.69000 25.06900
H  40.28900 4.53000 25.25900
H  41.80300 4.89700 24.35200
H  40.38700 4.95600 23.57600
H  41.91400 8.00500 23.01700
H  43.48100 8.34300 23.74200
H  42.77000 10.41300 24.34000
H  41.30800 9.82000 25.10600
H  41.37300 10.20200 23.37100
H  46.38400 8.94800 27.84200
H  46.80600 10.11600 28.87800
H  45.94800 10.68500 27.40800
H  43.23100 11.16200 32.85100
H  43.55800 8.51100 36.18200
H  43.91800 10.09400 36.83200
H  45.25500 9.05200 36.30700
Mg 40.98700 41.04300 27.02700
C  40.67000 43.50400 29.61400
C  41.67200 38.71600 29.37300
C  41.71900 38.98400 24.57400
C  40.57000 43.69100 24.80000
N  41.22900 41.13000 29.26700
C  41.00900 42.23900 30.14200
C  41.12500 41.74700 31.64400
C  41.41000 40.18000 31.46800
C  41.46400 39.98600 29.95900
C  42.69500 39.67000 32.29100
C  39.86500 42.27100 32.53300
C  39.56100 41.52400 33.89300
H  39.08500 42.36100 35.09100
N  41.44900 39.00700 26.93000
C  41.67800 38.22300 28.02400
C  42.01100 36.83500 27.54400
C  42.11200 36.98500 26.10900
C  41.73700 38.34700 25.82200
C  42.05300 35.57500 28.38500
C  42.45600 35.96800 25.02800
O  42.52700 36.11200 23.85600
C  42.88500 34.56900 25.44400
N  41.04200 41.29200 24.96900
C  41.32600 40.26800 24.14200
C  41.23600 40.69900 22.67300
C  40.70500 42.10900 22.76200
C  40.73600 42.42100 24.27200
C  42.58100 40.53500 21.84600
C  39.28900 42.16900 22.19000
C  38.12300 41.33100 22.76400
N  40.80800 43.17400 27.09900
C  40.61800 44.08800 26.10700
C  40.26500 45.34300 26.69000
C  40.32800 45.16400 28.02900
C  40.61000 43.82500 28.25000
C  39.96000 46.66800 26.06600
C  40.09400 45.82400 29.28700
O  39.80900 47.02700 29.57800
C  40.32900 44.75100 30.37400
C  41.46400 45.14700 31.25800
O  42.63100 44.83900 31.09900
O  41.02300 45.83400 32.34000
C  41.96500 46.44000 33.32100
H  41.79000 37.99500 30.18400
H  41.98000 38.28100 23.78100
H  40.22300 44.43600 24.08200
H  42.03500 42.15300 32.08500
H  40.51400 39.72500 31.89200
H  43.26900 40.43300 32.81700
H  43.45000 39.12900 31.72100
H  42.39400 38.95000 33.05200
H  39.03600 42.19000 31.83000
H  40.16900 43.28500 32.79000
H  40.44800 40.94900 34.15900
H  38.81200 40.75500 33.70500
H  41.42900 35.78300 29.25400
H  43.11200 35.35400 28.51600
H  41.62400 34.66800 27.95900
H  42.07000 33.98200 25.86600
H  43.75200 34.65400 26.10000
H  43.24800 33.88000 24.68200
H  40.52800 40.01400 22.20500
H  41.39400 42.84300 22.34200
H  43.32700 39.95600 22.39100
H  43.06800 41.50600 21.76800
H  42.34500 40.15300 20.85300
H  39.33200 41.79800 21.16600
H  38.95900 43.19800 22.04800
H  37.41200 40.96000 22.02600
H  37.55500 42.04000 23.36600
H  38.43800 40.59500 23.50400
H  39.31600 47.24600 26.72800
H  39.52400 46.52400 25.07700
H  40.86500 47.27400 26.08600
H  39.41900 44.51800 30.92600
H  42.24300 45.64300 34.01100
H  41.48400 47.32500 33.73700
H  42.82500 46.89300 32.82800

