158

Mg -1.26300 17.47700 26.89100
C  -1.61800 15.22200 29.76000
C  -1.75000 20.06900 29.02300
C  -1.72800 19.48400 24.17500
C  -1.66500 14.64000 24.84600
N  -1.71800 17.60500 29.19500
C  -1.69300 16.60800 30.16100
C  -1.91400 17.20600 31.60700
C  -2.18400 18.72000 31.26400
C  -1.87500 18.83000 29.74300
C  -3.67500 19.04100 31.53100
C  -0.69600 16.98000 32.50400
C  -0.51000 17.66900 33.82600
H  -0.89400 16.96300 35.13700
N  -1.37500 19.48800 26.63900
C  -1.54000 20.38300 27.64400
C  -1.54300 21.70200 27.02400
C  -1.47900 21.54100 25.60200
C  -1.55600 20.12300 25.42600
C  -1.69800 22.93100 27.91200
C  -1.30400 22.55500 24.54000
O  -1.27000 22.32800 23.33500
C  -1.19700 24.01300 24.92300
N  -1.72800 17.11100 24.85000
C  -1.71700 18.11600 23.90300
C  -1.95800 17.53500 22.57200
C  -1.70600 16.03800 22.81300
C  -1.69000 15.88900 24.29700
C  -3.35800 17.97700 22.00100
C  -0.34700 15.49000 22.22600
C  0.98700 16.14200 22.75300
N  -1.49100 15.37700 27.20800
C  -1.56900 14.36500 26.24100
C  -1.51200 13.04400 26.92000
C  -1.56300 13.36800 28.26500
C  -1.47300 14.73400 28.37400
C  -1.58400 11.67400 26.20500
C  -1.61800 12.75100 29.58500
O  -1.73100 11.60300 29.88400
C  -1.73200 13.96500 30.63500
C  -0.71000 13.67000 31.62100
O  0.48700 14.00100 31.71900
O  -1.34900 12.76000 32.41400
C  -0.73100 12.06800 33.52500
H  -1.83400 20.85200 29.78000
H  -2.02600 20.00100 23.26000
H  -1.55300 13.84800 24.10300
H  -2.74000 16.56500 31.91400
H  -1.52400 19.44200 31.74500
H  -3.94200 19.65200 30.66900
H  -3.80300 19.50800 32.50800
H  -4.36600 18.20000 31.47400
H  0.20900 17.15400 31.92100
H  -0.70700 15.92200 32.76500
H  -1.19600 18.49600 33.64300
H  0.44200 18.19800 33.86300
H  -2.04000 22.81100 28.94100
H  -2.38300 23.57100 27.35600
H  -0.72300 23.41100 27.99000
H  -0.29400 23.99700 25.53400
H  -2.04500 24.41700 25.47500
H  -0.95800 24.61800 24.04800
H  -1.15400 17.85400 21.90900
H  -2.53300 15.43400 22.44000
H  -3.64100 18.92700 22.45300
H  -4.00700 17.17200 22.34400
H  -3.27000 18.09800 20.92100
H  -0.42300 15.73000 21.16500
H  -0.31800 14.40100 22.25000
H  1.42500 16.71800 21.93800
H  1.69700 15.40200 23.12200
H  0.73000 16.78400 23.59500
H  -0.62200 11.34100 25.81500
H  -2.32100 11.63400 25.40300
H  -1.94300 10.94200 26.92900
H  -2.70200 13.99500 31.13300
H  -0.87700 12.65500 34.43200
H  0.34900 11.96400 33.42200
H  -1.20300 11.11600 33.76700
Mg 36.06400 1.36200 29.82800
C  33.63700 2.01700 32.35500
C  38.43300 1.50400 32.32900
C  38.22000 0.49100 27.46700
C  33.51000 1.48700 27.46300
N  36.01500 1.71900 32.05700
C  34.93900 1.86400 32.86400
C  35.39600 2.00100 34.32600
C  36.88300 1.97100 34.24900
C  37.14400 1.82100 32.77400
C  37.53600 3.18900 34.82700
C  34.61200 0.89600 35.18400
C  34.33000 1.16500 36.72000
H  34.95400 2.41600 37.34500
N  38.06000 0.95200 29.90300
C  38.79700 1.09700 31.02600
C  40.14900 0.75900 30.64500
C  40.18200 0.47100 29.23100
C  38.77100 0.59400 28.78400
C  41.25800 0.64900 31.68400
C  41.39600 0.13700 28.32100
O  41.26100 -0.03700 27.07600
C  42.81700 -0.09000 28.83300
N  35.87800 0.99300 27.82400
C  36.91100 0.53500 27.02500
C  36.54500 0.22600 25.53100
C  35.07300 0.70300 25.55900
C  34.77000 1.04800 27.08200
C  37.38700 1.01700 24.45100
C  34.10200 -0.30300 24.78300
C  33.42700 -1.49400 25.58600
N  33.97700 1.97000 29.76300
C  33.05600 1.78900 28.78100
C  31.78500 2.13600 29.22300
C  31.93000 2.11200 30.62800
C  33.28400 2.06400 30.95600
C  30.50700 2.15400 28.47600
C  31.25900 2.22100 31.90400
O  30.09100 2.43500 32.03100
C  32.28200 2.12500 33.04700
C  32.15300 3.39000 33.90300
O  32.35400 4.54400 33.53100
O  31.69700 2.98700 35.09700
C  31.19700 4.03800 35.93900
H  39.23300 1.45200 33.07100
H  38.84200 0.11600 26.65100
H  32.77900 1.61700 26.66200
H  35.00800 2.97500 34.62200
H  37.30000 1.14000 34.81800
H  36.80800 3.98900 34.68900
H  38.44100 3.32900 34.23600
H  37.83300 2.92500 35.84200
H  35.22300 -0.00000 35.08000
H  33.68700 0.46900 34.79600
H  34.74100 0.36500 37.33500
H  33.25900 1.14400 36.92300
H  41.66300 -0.36300 31.71800
H  41.04100 0.88500 32.72600
H  42.08600 1.31100 31.43500
H  42.85600 -1.08400 29.28000
H  43.12100 0.68400 29.53700
H  43.56700 -0.00400 28.04600
H  36.60400 -0.86300 25.54400
H  34.92900 1.62800 25.00100
H  38.07700 1.76100 24.84800
H  36.82800 1.54000 23.67400
H  37.79400 0.23400 23.81200
H  34.66400 -0.76900 23.97400
H  33.23500 0.15200 24.30600
H  32.35300 -1.37200 25.72900
H  33.76900 -1.57900 26.61700
H  33.60300 -2.44600 25.08400
H  29.84200 1.29800 28.59100
H  30.64500 2.44300 27.43400
H  29.95800 3.03000 28.82300
H  32.03000 1.27200 33.67600
H  31.14500 5.00200 35.43300
H  31.73200 4.15900 36.88100
H  30.16500 3.74500 36.13200

