158

Mg 45.29200 4.35800 47.64400
C  43.27200 7.11300 47.24400
C  42.48200 2.40100 46.89100
C  47.25500 1.71700 47.71400
C  48.12200 6.41600 47.42100
N  43.05100 4.75400 47.34600
C  42.50000 5.98400 47.15100
C  40.99200 5.79000 46.56100
C  40.81300 4.23500 46.69800
C  42.16000 3.74600 46.99700
C  39.73100 3.84900 47.82800
C  40.87500 6.40100 45.14700
C  39.69200 7.38500 44.92100
H  38.83700 7.07500 43.71500
N  44.92000 2.31700 47.36500
C  43.74200 1.73300 47.03300
C  44.00800 0.25200 46.88900
C  45.39800 0.02000 47.18300
C  45.90900 1.36600 47.48000
C  42.98800 -0.76900 46.42300
C  46.18200 -1.39200 47.08900
O  45.55200 -2.38300 46.78600
C  47.68200 -1.51600 47.37700
N  47.41100 4.05500 47.43800
C  47.93700 2.88800 47.72400
C  49.47300 2.89300 48.07700
C  49.63300 4.49900 48.23400
C  48.31800 5.05400 47.56800
C  49.82700 2.14000 49.33300
C  50.91800 4.99700 47.47600
C  52.26300 4.24100 47.53100
N  45.68600 6.30800 47.46000
C  46.86600 7.03500 47.39400
C  46.52500 8.50300 47.37100
C  45.16600 8.54500 47.30200
C  44.70500 7.21800 47.43200
C  47.39100 9.68200 47.10700
C  44.00100 9.46800 47.24000
O  43.94900 10.69600 47.11500
C  42.74500 8.55400 47.08500
C  41.64900 8.89700 48.00600
O  41.47700 8.45300 49.18300
O  40.61600 9.66100 47.45400
C  39.42900 9.83800 48.32200
H  41.62500 1.74400 46.72400
H  47.92600 0.85700 47.75400
H  48.99100 7.04000 47.63900
H  40.31600 6.23900 47.28800
H  40.36200 3.79000 45.81100
H  38.99800 4.65000 47.92200
H  40.20700 3.75800 48.80400
H  39.32300 2.91700 47.43700
H  40.87600 5.52600 44.49600
H  41.80800 6.92800 44.94700
H  40.01800 8.42400 44.97500
H  38.97700 7.31600 45.74100
H  43.49800 -1.11700 45.52500
H  42.07000 -0.35600 46.00600
H  42.87500 -1.63900 47.06900
H  47.97600 -2.55600 47.23100
H  47.99200 -1.29800 48.39900
H  48.13600 -0.90000 46.60100
H  49.95800 2.47100 47.19700
H  49.59500 4.72000 49.30100
H  50.11400 2.76700 50.17700
H  50.71700 1.56000 49.09200
H  49.05400 1.47100 49.71200
H  51.00400 5.99000 47.91800
H  50.70000 5.14600 46.41800
H  53.13100 4.89400 47.44100
H  52.33500 3.57500 46.67200
H  52.37600 3.71000 48.47600
H  47.83100 9.61700 46.11200
H  48.23200 9.70200 47.80000
H  46.82300 10.60800 47.20200
H  42.41800 8.68400 46.05300
H  38.85200 10.61200 47.81700
H  39.77500 10.16200 49.30400
H  38.83700 8.92800 48.41600
Mg 36.15500 2.57900 30.34600
C  33.87200 3.34600 32.95700
C  38.76900 3.03900 32.66000
C  38.42600 2.39000 27.94000
C  33.59900 2.71500 28.02900
N  36.22600 3.10200 32.60900
C  35.20800 3.36600 33.42300
C  35.67200 3.52400 34.89300
C  37.24700 3.50800 34.70000
C  37.43000 3.26900 33.19700
C  37.84900 4.96300 35.11800
C  35.27700 2.31800 35.80800
C  34.78200 2.68300 37.25600
H  35.59400 3.78000 37.99100
N  38.30100 2.37700 30.34100
C  39.13000 2.51500 31.37700
C  40.38300 1.97300 31.01500
C  40.34000 1.81500 29.62400
C  39.00500 2.24200 29.21200
C  41.43500 1.61700 31.99300
C  41.39600 1.32200 28.72000
O  41.23300 1.25900 27.51300
C  42.81900 0.86700 29.13800
N  35.97100 2.69200 28.22800
C  37.10200 2.50600 27.46200
C  36.66900 2.31800 25.96000
C  35.09900 2.27600 25.99900
C  34.87500 2.48800 27.50900
C  37.27500 3.22200 24.87100
C  34.46600 0.97000 25.59300
C  33.04600 1.09300 24.96200
N  34.12300 2.88100 30.43800
C  33.20300 2.92200 29.43300
C  31.87000 3.33800 29.97700
C  32.06700 3.43600 31.37100
C  33.45300 3.15800 31.58200
C  30.62700 3.80000 29.25500
C  31.52200 3.85500 32.61300
O  30.38800 4.19400 32.88300
C  32.56700 3.65300 33.77300
C  32.60500 4.91600 34.54000
O  33.13900 5.94900 34.10600
O  32.13000 4.76100 35.83600
C  32.16300 5.87500 36.71400
H  39.58000 3.10000 33.38900
H  39.10100 2.27600 27.09000
H  32.88000 2.72700 27.20700
H  35.31700 4.45800 35.32700
H  37.71800 2.68500 35.23700
H  38.44300 5.31400 34.27500
H  38.55600 4.73600 35.91600
H  37.07300 5.68600 35.36800
H  36.11700 1.64200 35.96500
H  34.39000 1.79200 35.45400
H  34.73400 1.73200 37.78700
H  33.74200 2.97700 37.11800
H  41.83200 0.61100 31.85600
H  41.10500 1.71800 33.02700
H  42.29200 2.27800 31.86200
H  43.40400 0.43700 28.32600
H  42.76700 0.03200 29.83700
H  43.36300 1.67600 29.62700
H  36.91800 1.30300 25.65000
H  34.71800 3.15400 25.47700
H  37.65300 2.66900 24.01200
H  38.07500 3.78300 25.35400
H  36.50800 3.89400 24.48700
H  34.52100 0.28100 26.43600
H  35.13800 0.53800 24.85100
H  32.86900 0.29700 24.23900
H  32.87000 2.14000 24.71200
H  32.35300 0.72900 25.72000
H  30.01600 3.72800 30.15500
H  30.43600 3.06400 28.47400
H  30.73900 4.76700 28.76500
H  32.23800 2.85000 34.43300
H  32.09800 5.63500 37.77600
H  31.47300 6.65900 36.40200
H  33.15000 6.32800 36.61900

