158

Mg 24.65200 -7.43100 46.51500
C  26.86600 -4.80700 45.31500
C  22.34000 -6.28700 44.13700
C  22.84700 -10.08700 47.17700
C  27.41000 -8.82200 48.05500
N  24.60000 -5.74500 44.97800
C  25.65800 -4.85600 44.59200
C  25.26100 -4.07700 43.39500
C  23.71200 -4.31900 43.39600
C  23.46800 -5.52700 44.23200
C  22.75400 -3.12100 43.74400
C  26.07000 -4.41200 42.08700
C  26.80100 -3.28100 41.32300
H  26.54400 -3.20100 39.81000
N  22.69400 -7.88200 46.05300
C  21.94300 -7.32900 45.04700
C  20.67100 -8.04900 45.04300
C  20.76700 -9.16900 45.95300
C  22.17100 -9.11400 46.45700
C  19.49800 -7.69900 44.10700
C  19.72100 -10.15500 46.17600
O  18.63400 -9.97900 45.66800
C  19.95500 -11.31800 47.10000
N  25.09800 -9.27400 47.49600
C  24.15300 -10.14600 47.71100
C  24.70100 -11.34300 48.68400
C  26.16500 -10.92500 48.82200
C  26.24700 -9.60100 48.10300
C  23.97500 -11.48200 50.09000
C  27.27600 -11.89800 48.45500
C  28.48400 -12.02800 49.45200
N  26.70200 -6.80100 46.84900
C  27.61900 -7.50500 47.53100
C  28.79600 -6.67300 47.65800
C  28.55200 -5.63700 46.75600
C  27.22900 -5.75500 46.28100
C  30.02500 -7.14600 48.38700
C  29.06500 -4.38600 46.11100
O  30.14500 -3.84100 46.19900
C  28.05200 -3.99200 45.04900
C  27.60800 -2.57200 45.41500
O  27.74500 -1.57600 44.67500
O  26.81000 -2.61800 46.52200
C  26.29000 -1.38100 46.98000
H  21.66300 -6.01100 43.32500
H  22.21700 -10.92200 47.49300
H  28.25500 -9.18000 48.64700
H  25.50200 -3.04900 43.66500
H  23.36900 -4.50500 42.37800
H  22.13500 -3.31100 44.62100
H  22.16800 -2.88100 42.85700
H  23.48200 -2.33800 43.95200
H  25.47300 -4.94400 41.34600
H  26.83300 -5.11700 42.41400
H  27.85500 -3.46500 41.53100
H  26.47200 -2.34600 41.77700
H  18.99900 -8.61000 43.77800
H  19.85300 -7.05900 43.29900
H  18.80400 -7.17300 44.76300
H  20.29700 -10.99400 48.08300
H  20.60100 -12.07400 46.65500
H  18.97700 -11.78900 47.19300
H  24.77000 -12.34900 48.27100
H  26.30000 -10.67400 49.87400
H  24.33800 -12.27000 50.74900
H  22.89600 -11.60200 49.98700
H  24.14900 -10.49300 50.51300
H  27.65900 -11.64700 47.46600
H  26.85500 -12.89900 48.36700
H  28.19000 -11.57100 50.39600
H  29.33000 -11.47700 49.03900
H  28.72700 -13.07400 49.64000
H  30.71100 -6.31600 48.55900
H  30.48600 -7.98100 47.85900
H  29.66800 -7.41400 49.38100
H  28.37200 -4.02000 44.00700
H  27.12700 -0.92900 47.51300
H  25.44800 -1.39000 47.67100
H  25.91200 -0.64800 46.26700
Mg -9.65300 40.78300 41.46500
C  -8.62100 37.40400 40.96700
C  -6.80500 41.74900 39.83500
C  -10.73800 43.98300 41.62800
C  -12.55600 39.58600 42.74400
N  -7.95400 39.66700 40.49900
C  -7.76800 38.27300 40.40800
C  -6.42300 37.97700 39.72000
C  -5.70800 39.37800 39.72400
C  -6.88300 40.35400 40.01800
C  -4.54200 39.54300 40.65800
C  -6.74200 37.48800 38.26700
C  -5.92300 36.18500 37.84900
H  -4.95900 36.42000 36.75700
N  -8.96800 42.63200 40.67100
C  -7.64000 42.85100 40.21600
C  -7.34800 44.25000 40.10600
C  -8.58400 44.91700 40.57900
C  -9.51400 43.82500 40.96100
C  -5.98100 44.78800 39.70500
C  -8.68300 46.40200 40.57100
O  -7.77900 47.18200 40.24700
C  -9.94100 47.06200 41.12100
N  -11.50300 41.57600 41.92900
C  -11.67500 43.00200 42.03500
C  -13.09000 43.33000 42.53300
C  -13.71700 41.91900 42.65300
C  -12.52100 40.95300 42.48800
C  -13.12100 44.22900 43.75500
C  -14.95800 41.57500 41.70700
C  -16.19600 41.05400 42.37600
N  -10.41400 38.88200 41.91000
C  -11.62400 38.53400 42.45500
C  -11.68300 37.18900 42.76300
C  -10.49800 36.68300 42.20000
C  -9.80300 37.74200 41.65900
C  -12.82500 36.51500 43.43600
C  -9.69500 35.45400 42.06400
O  -9.82300 34.23900 42.45300
C  -8.50700 35.89800 41.09500
C  -7.20600 35.53400 41.76600
O  -6.92600 35.70300 42.92200
O  -6.45600 34.80400 40.83800
C  -5.26300 34.24100 41.47400
H  -5.83600 42.02500 39.41300
H  -11.03500 45.00600 41.87100
H  -13.56000 39.32000 43.08100
H  -5.73900 37.39400 40.33700
H  -5.37500 39.63400 38.71900
H  -3.68900 39.12300 40.12400
H  -4.72400 38.77200 41.40700
H  -4.39300 40.56000 41.02000
H  -6.59000 38.25300 37.50600
H  -7.75000 37.07500 38.25200
H  -6.63400 35.40300 37.58300
H  -5.33700 35.78600 38.67600
H  -5.54500 45.30200 40.56200
H  -6.14100 45.50000 38.89500
H  -5.38200 43.92900 39.40300
H  -9.99100 46.95500 42.20500
H  -10.90400 46.69900 40.76400
H  -9.83500 48.13600 40.96900
H  -13.50700 43.78000 41.63200
H  -14.01100 41.77700 43.69300
H  -13.60900 45.16400 43.47900
H  -12.12800 44.35500 44.18500
H  -13.74100 43.73100 44.50000
H  -14.73000 40.97600 40.82500
H  -15.31100 42.56400 41.41500
H  -15.85200 40.46400 43.22600
H  -16.81400 40.53500 41.64400
H  -16.85600 41.79100 42.83200
H  -12.47300 35.61200 43.93400
H  -13.54000 36.36400 42.62700
H  -13.28500 37.15500 44.18900
H  -8.61000 35.43700 40.11300
H  -4.70100 33.71800 40.70000
H  -5.41500 33.61000 42.35000
H  -4.62100 35.03000 41.86500

