158

Mg 8.83900 3.72500 27.84500
C  10.00500 1.99600 30.73100
C  6.89900 5.56000 29.83900
C  7.63900 5.15500 25.04300
C  10.56000 1.39700 25.83400
N  8.53800 3.70600 30.08400
C  9.16000 3.08200 30.98500
C  8.66100 3.46200 32.38400
C  7.69000 4.63500 32.14900
C  7.70600 4.62400 30.60300
C  6.25100 4.57700 32.90600
C  9.81000 3.87400 33.37200
C  9.64200 5.10200 34.32400
H  10.29900 5.26900 35.68300
N  7.51400 5.14500 27.46700
C  6.85600 5.85300 28.44200
C  6.09100 6.92900 27.81200
C  6.33000 6.80600 26.42700
C  7.18000 5.65100 26.27600
C  5.18000 7.84400 28.61200
C  5.92400 7.72100 25.36700
O  6.10500 7.49000 24.17000
C  5.17200 8.96000 25.75400
N  9.10200 3.34100 25.78300
C  8.43900 4.07300 24.79600
C  8.83700 3.65300 23.38800
C  9.77900 2.45900 23.63800
C  9.87500 2.39300 25.17100
C  7.62700 3.35700 22.47600
C  11.14300 2.47900 22.89200
C  11.22700 1.28300 21.82300
N  10.02200 2.00900 28.13800
C  10.63300 1.18500 27.23900
C  11.27900 0.13600 27.99100
C  11.05800 0.37800 29.30700
C  10.29300 1.51200 29.40000
C  12.17400 -0.91800 27.30600
C  11.47500 -0.03300 30.70700
O  12.14600 -0.93000 31.12000
C  10.72300 1.05800 31.70100
C  9.87400 0.29900 32.74100
O  8.83300 -0.23500 32.51900
O  10.53100 0.37200 33.98000
C  9.97700 -0.18800 35.26100
H  6.33100 6.24400 30.47200
H  7.42100 5.67300 24.10700
H  11.16300 0.82200 25.12800
H  8.08000 2.61800 32.75800
H  8.07800 5.64900 32.24100
H  5.49600 4.21600 32.20800
H  6.04000 5.59200 33.24100
H  6.26000 3.91200 33.76900
H  10.72700 4.11000 32.83300
H  10.07200 3.01600 33.99100
H  8.61300 5.43900 34.45400
H  10.21500 5.88000 33.82000
H  4.26200 8.14300 28.10500
H  5.71000 8.72900 28.96400
H  4.73800 7.34500 29.47400
H  5.80500 9.57200 26.39600
H  4.16500 8.69600 26.08000
H  5.08500 9.45700 24.78800
H  9.35100 4.39800 22.78100
H  9.26600 1.52500 23.41000
H  7.70300 2.31700 22.15800
H  7.43500 4.01800 21.63100
H  6.80100 3.44900 23.18100
H  11.99500 2.37500 23.56400
H  11.26500 3.38900 22.30400
H  10.29800 0.74100 21.64400
H  12.05900 0.60100 22.00000
H  11.36100 1.70400 20.82600
H  13.19000 -0.52500 27.30600
H  11.76100 -1.22900 26.34600
H  12.05400 -1.79300 27.94400
H  11.57800 1.60000 32.10500
H  9.74500 0.55900 36.02000
H  10.72400 -0.83100 35.72600
H  9.08700 -0.75500 34.98800
Mg -4.38800 25.50100 26.02300
C  -3.48200 27.34900 28.98600
C  -6.32600 23.57200 28.08100
C  -5.01300 23.75800 23.37500
C  -2.23100 27.57000 24.25100
N  -4.78700 25.40900 28.25500
C  -4.32500 26.23900 29.28000
C  -5.03700 25.89300 30.55900
C  -5.75000 24.50000 30.31600
C  -5.54400 24.42100 28.80400
C  -5.08800 23.29700 31.06200
C  -5.89900 27.12700 31.06900
C  -6.51900 26.90600 32.45100
H  -6.02300 25.86500 33.51400
N  -5.56200 23.92100 25.72300
C  -6.35700 23.31100 26.67100
C  -7.15900 22.32700 26.00500
C  -6.71300 22.24900 24.66200
C  -5.70300 23.27700 24.53200
C  -8.17500 21.48100 26.75600
C  -7.26800 21.42400 23.52400
O  -6.85700 21.51000 22.37000
C  -8.40900 20.53500 23.77100
N  -3.66000 25.56400 24.13200
C  -4.10400 24.78200 23.17700
C  -3.35500 25.04800 21.84800
C  -2.77800 26.43600 22.12600
C  -2.87200 26.51700 23.60300
C  -2.31300 23.93700 21.51400
C  -3.63900 27.55000 21.37900
C  -3.04700 27.93300 20.06100
N  -3.15800 27.28300 26.49200
C  -2.24700 27.97100 25.64400
C  -1.61700 29.08200 26.39200
C  -2.04600 28.88300 27.73500
C  -2.91100 27.74700 27.72600
C  -0.71000 30.18300 25.83300
C  -2.00300 29.40200 29.10600
O  -1.42100 30.37700 29.56100
C  -2.89100 28.38500 29.98800
C  -2.02500 27.69200 30.93800
O  -1.02700 27.09200 30.59400
O  -2.54900 27.67400 32.22000
C  -1.87500 26.84000 33.18800
H  -6.92100 22.88100 28.68100
H  -5.28000 23.13600 22.51900
H  -1.64800 28.27000 23.64900
H  -4.24200 25.73400 31.28700
H  -6.81500 24.43900 30.53800
H  -4.32000 22.84500 30.43500
H  -5.80200 22.52200 31.34100
H  -4.67300 23.53600 32.04100
H  -6.69200 27.14700 30.32100
H  -5.25700 28.00300 31.16100
H  -7.58600 26.85400 32.23800
H  -6.32200 27.84400 32.97100
H  -9.10400 21.44600 26.18700
H  -8.45600 21.87500 27.73300
H  -7.76000 20.48300 26.89800
H  -8.31700 19.82400 24.59200
H  -8.41600 19.95800 22.84600
H  -9.34000 21.09600 23.85600
H  -4.10900 25.06500 21.06100
H  -1.74400 26.62900 21.84100
H  -1.24900 24.16400 21.44800
H  -2.71700 23.56100 20.57400
H  -2.36800 23.11500 22.22700
H  -3.76300 28.38600 22.06800
H  -4.60200 27.08300 21.17200
H  -3.73600 27.78400 19.23000
H  -2.27300 27.18500 19.88900
H  -2.70500 28.96700 20.03500
H  -0.24200 29.79200 24.92900
H  0.13300 30.41500 26.48400
H  -1.31400 31.08200 25.71000
H  -3.69400 28.89200 30.52300
H  -2.44000 26.71800 34.11200
H  -0.90900 27.28200 33.43500
H  -1.91500 25.82100 32.80300

