158

Mg 24.82500 -7.86800 47.50500
C  26.95700 -5.23400 46.25900
C  22.46600 -6.94300 45.28000
C  23.24400 -10.70000 48.24400
C  27.75400 -9.06900 49.17900
N  24.84500 -6.36700 45.78000
C  25.71800 -5.31800 45.58800
C  25.16900 -4.25100 44.62200
C  23.66500 -4.75700 44.52200
C  23.64500 -6.09100 45.21500
C  22.74300 -3.68100 45.03500
C  26.02100 -4.17600 43.29600
C  26.58200 -2.76000 42.99000
H  26.28200 -2.26700 41.58700
N  23.05300 -8.67500 46.89900
C  22.17800 -8.09200 46.00200
C  20.98300 -8.83800 45.79000
C  21.15200 -9.93300 46.72600
C  22.48000 -9.81700 47.38200
C  19.86900 -8.47100 44.75700
C  20.05600 -11.04100 47.00900
O  19.03400 -11.02300 46.39600
C  20.42500 -12.04600 48.08400
N  25.46400 -9.66000 48.44100
C  24.53700 -10.61700 48.71300
C  25.15700 -11.67900 49.60400
C  26.52400 -11.09600 50.10300
C  26.61300 -9.87900 49.16400
C  24.27600 -12.28600 50.71000
C  27.79900 -12.04300 50.05100
C  28.76200 -12.16700 51.21000
N  26.88000 -7.25800 47.84000
C  27.93000 -7.82200 48.55000
C  29.05100 -6.96600 48.58800
C  28.72800 -5.90700 47.76100
C  27.41100 -6.20100 47.24500
C  30.29100 -7.28500 49.42700
C  29.12800 -4.62500 47.30100
O  30.16300 -3.95900 47.43800
C  28.03200 -4.21000 46.21300
C  27.56600 -2.81700 46.51600
O  26.58200 -2.45100 47.14500
O  28.37000 -1.89500 45.89400
C  27.90600 -0.53000 45.80700
H  21.74200 -6.54300 44.56700
H  22.78900 -11.64700 48.54100
H  28.41300 -9.46400 49.95400
H  25.15900 -3.27700 45.11100
H  23.31400 -4.90800 43.50100
H  23.28000 -2.79200 45.36600
H  22.12000 -4.04700 45.85100
H  22.07000 -3.45700 44.20700
H  25.47000 -4.49800 42.41300
H  26.90400 -4.81200 43.35700
H  27.65600 -2.93800 43.04100
H  26.34000 -1.91800 43.63800
H  20.15900 -8.66000 43.72400
H  19.51300 -7.44200 44.70900
H  18.93100 -9.00800 44.89600
H  21.19500 -12.69400 47.66700
H  19.57700 -12.70300 48.27900
H  20.71900 -11.47500 48.96500
H  25.43300 -12.53000 48.98100
H  26.52700 -10.74000 51.13300
H  23.31600 -11.80200 50.89100
H  24.85300 -12.18300 51.62900
H  24.10600 -13.34700 50.52600
H  28.44000 -11.74900 49.22000
H  27.31600 -12.99400 49.82600
H  29.75100 -12.20100 50.75400
H  28.53800 -13.05400 51.80300
H  28.73700 -11.21700 51.74400
H  29.98100 -7.52700 50.44400
H  30.89700 -6.37900 49.42200
H  30.75900 -8.20600 49.07700
H  28.46900 -4.14600 45.21700
H  26.83600 -0.59300 45.60700
H  28.45700 -0.07700 44.98300
H  28.03800 0.01000 46.74400
Mg 25.75400 51.13900 26.51300
C  23.39600 52.44000 28.92800
C  27.94700 50.52200 29.03700
C  28.07600 51.09200 24.23600
C  23.34000 52.37400 24.15000
N  25.66300 51.47000 28.62100
C  24.64600 51.98900 29.48600
C  25.04100 51.93700 30.95200
C  26.60200 51.56200 30.90500
C  26.77600 51.25000 29.44600
C  27.56400 52.55700 31.56500
C  24.09400 51.10700 31.91700
C  24.54200 50.42500 33.25300
H  25.00100 51.42000 34.37800
N  27.77500 50.75200 26.64100
C  28.48500 50.44400 27.73700
C  29.85300 50.16900 27.35600
C  29.87300 50.32100 25.92000
C  28.52400 50.71100 25.53300
C  30.83900 49.76800 28.40000
C  31.00300 50.04400 24.94200
O  30.83600 49.90900 23.74000
C  32.37600 49.82400 25.58000
N  25.76600 51.85500 24.60700
C  26.89100 51.65200 23.82900
C  26.60300 52.07300 22.40200
C  25.09400 52.11500 22.27200
C  24.63800 52.08400 23.74900
C  27.35300 53.27200 21.95700
C  24.38400 51.00900 21.45400
C  22.85900 51.25300 21.09900
N  23.60000 51.99300 26.43100
C  22.82700 52.42000 25.41300
C  21.61700 53.00700 25.90700
C  21.79200 53.01500 27.30100
C  23.00600 52.41700 27.56000
C  20.57400 53.68600 25.00300
C  21.25300 53.48900 28.63200
O  20.28900 54.18700 28.89600
C  22.27000 52.96400 29.70400
C  22.70200 54.25100 30.45500
O  23.05500 55.31600 29.93700
O  22.67900 54.06500 31.82400
C  22.65500 55.29800 32.61700
H  28.56000 50.06700 29.81700
H  28.89000 51.17800 23.51300
H  22.63600 52.86300 23.47400
H  24.91100 52.95900 31.30700
H  26.67400 50.60400 31.42000
H  28.22200 53.05800 30.85500
H  28.17000 51.99800 32.27800
H  26.98800 53.32000 32.08800
H  23.49100 50.43800 31.30300
H  23.38600 51.83600 32.31200
H  25.36300 49.74400 33.02900
H  23.75000 49.81800 33.69200
H  30.63200 49.96300 29.45200
H  31.77700 50.28000 28.18500
H  30.95500 48.73000 28.08600
H  33.07100 49.42300 24.84200
H  32.39600 49.08000 26.37600
H  32.71700 50.78900 25.95500
H  26.87200 51.26800 21.71800
H  24.74800 53.02100 21.77600
H  27.62700 53.13000 20.91200
H  28.18600 53.51600 22.61700
H  26.69500 54.13400 22.06600
H  24.45000 50.09400 22.04300
H  24.98000 50.94700 20.54400
H  22.65700 52.27400 21.42300
H  22.20000 50.52600 21.57300
H  22.66900 51.26200 20.02500
H  20.56300 53.50000 23.92900
H  20.86800 54.73000 25.10600
H  19.61800 53.40800 25.44700
H  21.93900 52.22500 30.43400
H  23.23900 55.18700 33.53100
H  21.58200 55.37400 32.79300
H  22.92800 56.28400 32.24000

