158

Mg 9.00600 4.13500 27.97500
C  10.31700 2.44300 30.70300
C  7.00400 6.03300 30.01000
C  7.57700 5.60700 25.25100
C  10.53000 1.79900 25.77200
N  8.75000 4.15500 30.10200
C  9.41000 3.47200 31.08200
C  8.97300 3.76200 32.46100
C  7.86700 4.87600 32.19400
C  7.84500 5.06200 30.66700
C  6.46900 4.60700 32.83200
C  10.11200 4.15000 33.40600
C  9.61600 4.78100 34.75000
H  10.73700 5.04100 35.79100
N  7.66100 5.68400 27.65800
C  6.95800 6.34100 28.65500
C  6.13100 7.42700 28.12900
C  6.30100 7.41100 26.64200
C  7.17100 6.16700 26.45500
C  5.30200 8.42100 28.87200
C  5.77700 8.32900 25.55000
O  5.99300 8.18700 24.34500
C  5.14700 9.46300 25.93500
N  9.02200 3.70100 25.76100
C  8.44900 4.50700 24.87700
C  8.51900 3.92100 23.43200
C  9.58900 2.76200 23.70600
C  9.73300 2.75500 25.21300
C  7.07500 3.42100 22.92100
C  10.89900 2.80700 22.87200
C  11.43800 1.59800 22.14800
N  10.22700 2.44800 28.15300
C  10.73200 1.61900 27.17600
C  11.58900 0.66900 27.91200
C  11.40700 0.87200 29.28200
C  10.62800 2.05300 29.33300
C  12.31100 -0.50800 27.26800
C  11.79600 0.48800 30.60500
O  12.46300 -0.52300 30.88600
C  11.05000 1.43500 31.58000
C  10.01000 0.68400 32.31400
O  8.94600 0.30400 31.88800
O  10.54600 0.47500 33.58000
C  9.47600 -0.06100 34.48000
H  6.51600 6.66900 30.75200
H  7.04100 5.97600 24.37400
H  11.03700 1.10600 25.09700
H  8.53500 2.82500 32.80200
H  8.28500 5.76100 32.67400
H  6.38500 5.33700 33.63700
H  6.45700 3.59700 33.24100
H  5.60100 4.64400 32.17400
H  10.78000 4.78800 32.82700
H  10.63800 3.22900 33.65700
H  8.81900 4.21000 35.22600
H  9.26100 5.79600 34.57300
H  5.62300 9.45700 28.76000
H  5.39800 8.16100 29.92600
H  4.23700 8.44000 28.64100
H  4.12000 9.24600 26.23000
H  4.96800 10.15400 25.11100
H  5.67300 9.94100 26.76100
H  9.03700 4.50600 22.67200
H  9.21900 1.73900 23.63500
H  7.00900 2.33800 23.02800
H  6.76800 3.78000 21.93900
H  6.36100 3.81900 23.64200
H  11.69600 3.17800 23.51600
H  10.81200 3.54600 22.07600
H  12.46500 1.58700 22.51300
H  11.38200 1.69400 21.06400
H  10.99300 0.70400 22.58500
H  12.12400 -0.59100 26.19800
H  12.03300 -1.45800 27.72500
H  13.39700 -0.48300 27.35600
H  11.80300 1.92600 32.19700
H  8.88300 0.84600 34.59800
H  9.89300 -0.30300 35.45700
H  8.90600 -0.92600 34.14300
Mg 24.56800 -5.77300 46.14300
C  26.67200 -3.64400 44.54400
C  22.02900 -4.64500 44.20800
C  22.79500 -8.60700 46.98600
C  27.35900 -7.14200 47.95100
N  24.43400 -4.20500 44.56600
C  25.41800 -3.47600 44.06000
C  24.91600 -2.44600 43.05700
C  23.30700 -2.67100 43.15800
C  23.24600 -3.95000 44.02200
C  22.46800 -1.50200 43.67100
C  25.56300 -2.61500 41.67000
C  25.70900 -1.28600 40.92900
H  25.10800 -1.21800 39.44800
N  22.59400 -6.47800 45.71900
C  21.69200 -5.83400 44.87600
C  20.51300 -6.63100 44.78600
C  20.73700 -7.82000 45.53300
C  22.08300 -7.73900 46.09900
C  19.30100 -6.27300 43.96800
C  19.68300 -8.90600 45.72800
O  18.64900 -8.84700 45.10000
C  19.86100 -10.05900 46.64900
N  24.96400 -7.62400 47.24700
C  24.12200 -8.61700 47.47600
C  24.69700 -9.75000 48.37300
C  26.10200 -9.20200 48.75000
C  26.17400 -7.89300 47.86100
C  23.78000 -10.02000 49.58800
C  27.39800 -10.11900 48.70200
C  28.14800 -10.20200 49.95200
N  26.61400 -5.36700 46.32800
C  27.61100 -5.95800 47.16700
C  28.83700 -5.25500 46.96900
C  28.57700 -4.30700 45.88000
C  27.15400 -4.50900 45.51800
C  30.13100 -5.54200 47.71800
C  29.16200 -3.28600 45.02000
O  30.27600 -2.76100 45.14600
C  27.96300 -2.85900 44.06200
C  27.85800 -1.35200 44.24500
O  27.23700 -0.70300 45.07600
O  28.81800 -0.82900 43.37200
C  28.68900 0.68500 43.18100
H  21.16600 -4.19700 43.71100
H  22.27800 -9.49700 47.35200
H  28.17300 -7.60400 48.51300
H  25.29800 -1.49600 43.43000
H  22.84100 -2.83100 42.18600
H  21.89000 -1.19600 42.79900
H  23.08500 -0.75700 44.17300
H  21.72500 -1.87000 44.37800
H  24.79900 -3.07900 41.04500
H  26.41400 -3.29600 41.69900
H  26.75900 -0.99400 40.91800
H  25.08200 -0.53800 41.41400
H  19.05700 -7.06100 43.25600
H  19.37900 -5.28600 43.51300
H  18.35400 -6.16600 44.49700
H  19.81900 -9.80000 47.70700
H  20.76600 -10.60100 46.37300
H  18.94500 -10.61200 46.44300
H  24.79100 -10.72700 47.89800
H  26.07300 -8.74400 49.73900
H  24.25600 -9.64200 50.49300
H  23.65900 -11.10300 49.59100
H  22.89700 -9.41700 49.37500
H  28.07100 -9.78400 47.91200
H  27.06600 -11.07800 48.30500
H  29.07300 -9.66900 49.73500
H  28.22400 -11.24900 50.24400
H  27.62300 -9.68800 50.75700
H  30.83200 -4.73400 47.50700
H  30.52800 -6.46100 47.28800
H  29.91000 -5.61300 48.78300
H  28.17000 -2.94000 42.99500
H  27.60900 0.82300 43.13100
H  28.96300 1.02600 42.18200
H  29.04100 1.26300 44.03500

