158

Mg 46.67000 24.77100 28.28400
C  47.55700 27.11600 30.87200
C  45.24200 22.85000 30.71500
C  46.64900 22.23500 25.94200
C  48.42800 26.73000 26.03200
N  46.49600 24.92500 30.56100
C  46.90500 25.99300 31.34600
C  46.38800 25.89100 32.75400
C  45.79300 24.36200 32.76700
C  45.84000 23.97400 31.25800
C  46.52400 23.27500 33.69600
C  45.39800 26.98600 33.08900
C  45.28200 27.23800 34.67100
H  43.92500 27.80400 35.20800
N  46.02300 22.85900 28.24800
C  45.38800 22.26200 29.38000
C  44.80000 20.98600 28.89600
C  45.14100 20.82600 27.53000
C  45.98300 22.00000 27.17500
C  44.13700 20.12100 29.91900
C  44.82200 19.72300 26.61300
O  45.09800 19.70900 25.36400
C  44.18600 18.41300 27.25200
N  47.60400 24.42700 26.37800
C  47.39700 23.34700 25.56800
C  48.29500 23.49500 24.31000
C  48.26600 25.06000 24.16700
C  48.10800 25.44300 25.59700
C  49.71500 22.89500 24.50300
C  47.16200 25.49700 23.23700
C  47.62800 26.22500 21.95600
N  47.70900 26.57600 28.35500
C  48.25300 27.26100 27.28200
C  48.63000 28.60200 27.77000
C  48.39500 28.53500 29.13600
C  47.86200 27.30600 29.49300
C  49.40200 29.62700 27.04800
C  48.64800 29.23600 30.38700
O  49.18600 30.35600 30.53700
C  48.06500 28.38200 31.54700
C  49.09600 28.23000 32.66500
O  50.13400 27.60700 32.52200
O  48.68700 28.76800 33.88500
C  49.47300 28.43500 35.08800
H  44.66100 22.48300 31.56400
H  46.63300 21.46100 25.17200
H  48.91500 27.37100 25.29400
H  47.22100 25.89600 33.45700
H  44.77400 24.45000 33.14300
H  46.70100 22.36000 33.13000
H  46.03900 23.08000 34.65200
H  47.46700 23.72500 34.00500
H  44.38300 26.72800 32.78800
H  45.51200 27.92200 32.54100
H  46.06200 27.93300 34.98200
H  45.56300 26.33200 35.20900
H  43.27000 19.53500 29.61500
H  43.64200 20.71600 30.68600
H  44.87800 19.59400 30.52100
H  43.12900 18.50000 27.50300
H  44.84200 18.18500 28.09200
H  44.26800 17.54300 26.60100
H  47.81400 23.02700 23.45100
H  49.24600 25.37600 23.81100
H  49.64300 22.33300 25.43400
H  50.53700 23.60700 24.57700
H  50.01800 22.12400 23.79400
H  46.59600 26.29100 23.72600
H  46.60000 24.58400 23.04100
H  47.33300 27.27200 22.01800
H  47.07100 25.76900 21.13700
H  48.70600 26.21800 21.79600
H  49.73900 30.37700 27.76300
H  48.70400 30.13800 26.38400
H  50.29300 29.20900 26.57900
H  47.30800 28.86200 32.16800
H  49.57500 29.29000 35.75600
H  50.48100 28.08000 34.87000
H  49.04300 27.64400 35.70200
Mg 9.72700 48.37600 25.63700
C  7.93000 48.62600 28.64500
C  12.50000 49.52300 27.21500
C  11.27900 48.30200 22.72400
C  6.60500 47.49900 23.94800
N  10.09700 49.03900 27.62000
C  9.28300 48.96500 28.72600
C  10.06600 49.29000 29.89300
C  11.31900 50.03400 29.37300
C  11.28900 49.53500 27.96900
C  11.17700 51.56900 29.46900
C  10.31300 48.17600 30.90700
C  9.72200 48.47200 32.24600
H  9.79000 47.29700 33.22300
N  11.71300 48.70300 25.09200
C  12.72600 49.07700 25.88200
C  13.96900 49.11000 25.15800
C  13.60000 48.88000 23.76400
C  12.14900 48.62500 23.80300
C  15.30500 49.26300 25.93400
C  14.45900 48.87600 22.59200
O  14.02900 48.59600 21.43700
C  15.94200 49.04600 22.79600
N  8.97200 48.01400 23.66400
C  9.91200 48.00900 22.59100
C  9.15900 47.80900 21.22200
C  7.84700 47.14100 21.80100
C  7.78000 47.63900 23.18400
C  8.82000 49.02600 20.34400
C  7.85500 45.56400 21.76600
C  8.93800 44.85100 22.61800
N  7.67300 48.21600 26.11200
C  6.52800 47.80000 25.35600
C  5.33900 47.87600 26.20200
C  5.84600 48.15400 27.50800
C  7.29200 48.33700 27.40200
C  3.86500 47.69700 25.81900
C  5.49100 48.29100 28.93400
O  4.48300 48.08600 29.56000
C  6.82500 48.66700 29.68100
C  7.06300 47.57300 30.68400
O  7.49700 46.47900 30.49000
O  6.60300 47.95200 31.92200
C  6.48700 46.90200 32.99200
H  13.35200 49.88100 27.79700
H  11.68800 48.40400 21.71700
H  5.69900 47.08600 23.49900
H  9.42500 50.02500 30.37800
H  12.21200 49.94900 29.99100
H  10.44700 51.97800 30.16700
H  11.02600 51.97200 28.46800
H  12.14500 52.03600 29.65100
H  11.37400 48.09400 31.14200
H  9.97800 47.18400 30.60400
H  8.82500 49.09100 32.22200
H  10.40400 49.21400 32.66100
H  15.88700 48.37500 25.68800
H  15.17200 49.40600 27.00600
H  15.82300 50.16000 25.59400
H  16.55700 48.78400 21.93600
H  16.22500 48.32900 23.56700
H  16.15300 50.06400 23.12400
H  9.80800 47.14800 20.64700
H  7.01000 47.56900 21.24900
H  9.44500 49.87500 20.62100
H  7.79700 49.38600 20.46100
H  9.06600 48.87800 19.29300
H  8.12400 45.34800 20.73200
H  6.86700 45.17200 22.00700
H  9.55900 45.56700 23.15700
H  9.52100 44.20000 21.96800
H  8.50100 44.20800 23.38200
H  3.56900 48.10100 24.85000
H  3.30000 48.25000 26.56900
H  3.54800 46.66200 25.94500
H  6.74300 49.62500 30.19400
H  7.03700 47.15100 33.89900
H  6.69200 45.90500 32.60300
H  5.43400 47.02400 33.24700

