158

Mg -0.69900 18.36200 28.11900
C  -1.21300 16.20900 30.74500
C  -1.49500 21.07000 30.05600
C  -0.39800 20.59800 25.37500
C  -0.34100 15.74900 25.86200
N  -1.11000 18.59800 30.20100
C  -1.26800 17.54300 31.11100
C  -1.47400 18.09400 32.46800
C  -1.83900 19.61400 32.22800
C  -1.35800 19.87900 30.74500
C  -3.29400 20.00000 32.51800
C  -0.30000 17.83300 33.49700
C  -0.73500 17.61300 34.95600
H  0.38600 17.28800 35.91000
N  -0.90200 20.51500 27.76300
C  -1.29900 21.45400 28.71900
C  -1.25800 22.79900 28.17000
C  -0.96300 22.69100 26.76200
C  -0.74300 21.22300 26.58000
C  -1.52200 24.09100 28.98900
C  -0.88200 23.66300 25.64400
O  -0.89000 23.36400 24.46000
C  -0.77700 25.12700 26.01600
N  -0.42300 18.16000 25.98700
C  -0.34400 19.22800 25.10600
C  -0.20200 18.67200 23.63400
C  0.14200 17.23300 23.84900
C  -0.26200 16.99000 25.31100
C  -1.56100 18.85900 22.85400
C  1.65300 16.80800 23.58300
C  2.70200 17.46700 24.50100
N  -0.79100 16.39300 28.19400
C  -0.58100 15.43600 27.23300
C  -0.84400 14.13700 27.79500
C  -1.05000 14.37900 29.14600
C  -1.01400 15.80900 29.34600
C  -0.77200 12.84000 27.11000
C  -1.31500 13.75400 30.46500
O  -1.41300 12.56200 30.73400
C  -1.40100 14.87900 31.56000
C  -0.43400 14.55900 32.65400
O  0.76900 14.69300 32.52400
O  -1.07700 13.83800 33.64300
C  -0.29600 13.27400 34.75000
H  -1.70700 21.98400 30.61500
H  -0.33600 21.28600 24.52900
H  -0.34800 14.98200 25.08400
H  -2.38100 17.56700 32.76500
H  -1.24100 20.34600 32.77100
H  -3.81900 19.17700 33.00200
H  -3.62600 20.18700 31.49600
H  -3.37900 20.92400 33.09100
H  0.34500 18.70900 33.43000
H  0.33000 17.00000 33.18200
H  -1.57100 16.91900 35.04300
H  -0.99500 18.54800 35.45200
H  -1.97200 24.88700 28.39600
H  -0.60800 24.44900 29.46400
H  -2.28500 23.81400 29.71600
H  -0.24000 25.28200 26.95200
H  -1.80600 25.48600 26.02400
H  -0.37900 25.64000 25.14000
H  0.65900 19.12600 23.14400
H  -0.45200 16.67100 23.12900
H  -1.99800 19.80000 23.18900
H  -2.25600 18.02500 22.95700
H  -1.22100 18.92500 21.82000
H  1.88700 17.06400 22.54900
H  1.72500 15.72700 23.70200
H  3.31400 16.75000 25.04600
H  2.37100 18.26600 25.16500
H  3.48300 17.90300 23.87800
H  -1.80200 12.48500 27.14900
H  -0.11800 12.15300 27.64900
H  -0.45600 12.92900 26.07100
H  -2.41200 14.90800 31.96700
H  -0.08100 13.98600 35.54700
H  0.66400 12.93100 34.36200
H  -0.89400 12.41800 35.06200
Mg -10.69400 38.74000 40.62700
C  -9.06500 35.64000 39.80000
C  -8.02600 40.31500 39.12500
C  -12.56700 41.55000 40.40500
C  -13.47700 36.92100 41.27900
N  -8.76700 38.01000 39.68100
C  -8.33500 36.71800 39.36300
C  -6.91700 36.61800 38.70400
C  -6.59800 38.15200 38.61000
C  -7.84700 38.89600 39.22300
C  -5.18200 38.51900 39.29100
C  -6.92300 35.74700 37.42100
C  -6.45900 36.38900 36.11100
H  -7.45900 37.22300 35.28500
N  -10.27600 40.75900 40.12000
C  -9.11000 41.17200 39.49400
C  -9.11900 42.59200 39.32300
C  -10.39000 43.05500 39.75200
C  -11.16900 41.78500 40.14700
C  -7.94100 43.38700 38.79700
C  -10.81500 44.53100 39.81000
O  -10.09000 45.43900 39.43400
C  -12.12200 44.86300 40.36700
N  -12.73900 39.21700 40.57200
C  -13.22500 40.40200 40.76900
C  -14.77700 40.38000 41.03000
C  -15.04000 38.82800 41.27100
C  -13.67700 38.29300 41.02800
C  -15.16900 41.20500 42.24900
C  -16.10300 38.21800 40.29400
C  -17.48300 38.00100 40.89700
N  -11.20500 36.67600 40.71300
C  -12.42200 36.10200 41.08700
C  -12.23100 34.66100 41.27100
C  -10.94800 34.39400 40.72500
C  -10.36600 35.67100 40.41500
C  -13.23100 33.63300 41.79600
C  -10.01200 33.37300 40.39900
O  -10.01700 32.14700 40.50100
C  -8.72300 34.16600 39.81400
C  -7.44600 33.93200 40.67700
O  -7.39400 33.95000 41.89200
O  -6.32100 33.75500 39.86000
C  -5.01100 33.59500 40.57200
H  -7.17000 40.78500 38.63700
H  -13.26100 42.38500 40.51700
H  -14.28100 36.31100 41.69600
H  -6.34800 36.10700 39.48200
H  -6.41000 38.52000 37.60200
H  -4.79600 37.59900 39.73200
H  -5.21500 39.33100 40.01700
H  -4.55200 38.80100 38.44700
H  -7.97100 35.47600 37.29600
H  -6.32300 34.86700 37.65600
H  -6.12100 35.61800 35.42000
H  -5.60700 37.04700 36.28500
H  -8.23400 43.59300 37.76800
H  -7.04800 42.76800 38.71200
H  -7.65600 44.18500 39.48200
H  -12.22500 44.53800 41.40300
H  -12.86100 44.39400 39.71700
H  -12.30400 45.90800 40.11600
H  -15.29100 40.76600 40.15000
H  -15.37700 38.60500 42.28400
H  -15.81500 41.99000 41.85600
H  -14.31700 41.72000 42.69200
H  -15.65700 40.58000 42.99700
H  -15.64800 37.34600 39.82600
H  -16.28700 38.89500 39.46000
H  -18.20500 38.44200 40.21000
H  -17.60600 38.31100 41.93500
H  -17.54300 36.91600 40.80800
H  -14.22100 33.75200 41.35700
H  -13.25200 33.81300 42.87100
H  -12.94400 32.58300 41.73800
H  -8.68400 33.83200 38.77700
H  -4.87100 32.63200 41.06300
H  -4.85200 34.39200 41.29900
H  -4.29000 33.70600 39.76200

