158

Mg 40.81000 8.82700 29.83900
C  42.77900 9.89300 32.61400
C  38.72100 7.48000 31.96400
C  39.00300 7.88100 27.23800
C  43.22200 10.23900 27.67000
N  40.73700 8.80300 32.08500
C  41.60200 9.27300 33.01900
C  41.09500 9.01900 34.49000
C  39.74800 8.34000 34.23800
C  39.74900 8.10200 32.65900
C  39.50400 7.14600 35.01300
C  40.96000 10.36000 35.29000
C  40.03400 10.28100 36.58800
H  40.37600 11.13900 37.76800
N  39.12800 7.78100 29.63400
C  38.41200 7.27000 30.64900
C  37.26600 6.47200 30.23900
C  37.10200 6.84000 28.87700
C  38.46300 7.53700 28.50200
C  36.35600 5.68200 31.19300
C  36.00100 6.67200 27.87800
O  36.05800 7.24100 26.77800
C  34.76500 5.95400 28.25300
N  40.96700 9.21900 27.76000
C  40.16300 8.61400 26.86400
C  40.63800 8.80800 25.42200
C  41.91300 9.64500 25.63400
C  42.03500 9.73300 27.09600
C  40.91400 7.41900 24.66400
C  41.99000 11.05600 25.01100
C  41.47000 12.26800 25.76800
N  42.66200 9.80300 30.05900
C  43.50900 10.28200 29.08300
C  44.68500 10.88200 29.76900
C  44.43300 10.68300 31.16000
C  43.16600 10.12700 31.24300
C  45.87600 11.48300 29.05000
C  45.05300 10.85000 32.49100
O  46.17100 11.19500 32.78600
C  43.89800 10.47100 33.46400
C  44.47900 9.48900 34.39400
O  45.02900 8.46400 34.10000
O  44.39400 9.88500 35.68500
C  44.79700 8.98300 36.73600
H  37.96600 7.06100 32.63300
H  38.53900 7.45200 26.34800
H  44.00500 10.54200 26.97200
H  41.64400 8.25200 35.03700
H  38.96400 9.07800 34.40500
H  39.57500 6.27300 34.36500
H  38.49200 7.17100 35.41700
H  40.22500 6.88400 35.78800
H  40.48000 11.03000 34.57700
H  41.91400 10.76500 35.62700
H  39.93400 9.32200 37.09600
H  39.08800 10.48200 36.08400
H  35.69300 6.46100 31.56900
H  37.01800 5.24300 31.93900
H  35.75400 4.89800 30.73200
H  35.01000 4.98200 28.67900
H  34.20700 5.98600 27.31700
H  34.14100 6.45400 28.99300
H  39.86500 9.34800 24.87400
H  42.73700 8.99900 25.33100
H  41.67000 6.93200 25.28000
H  41.19900 7.61300 23.63000
H  40.06100 6.74100 24.69500
H  41.40300 11.05000 24.09300
H  43.06800 11.15400 24.88600
H  40.95300 12.03900 26.70000
H  40.79200 12.78400 25.08800
H  42.34100 12.89900 25.94700
H  46.73400 10.81600 28.96800
H  46.02000 12.33900 29.71000
H  45.56400 11.91600 28.09900
H  43.56400 11.36200 33.99600
H  45.33200 8.05300 36.54500
H  43.91900 8.74900 37.33800
H  45.42200 9.51300 37.45500
Mg 47.53400 35.44100 26.61800
C  46.04300 33.75800 29.17900
C  48.09000 38.12700 28.60400
C  49.15000 37.00600 24.06900
C  46.74400 32.76900 24.54100
N  47.07600 35.90500 28.67800
C  46.53500 35.01900 29.57400
C  46.66000 35.60500 31.02300
C  47.14800 37.11900 30.77900
C  47.49600 37.03300 29.25700
C  46.12500 38.25000 31.10700
C  47.72200 34.77900 31.76200
C  47.58400 34.84100 33.28800
H  46.73100 35.92500 33.98000
N  48.55400 37.30200 26.37400
C  48.67500 38.29700 27.31800
C  49.28800 39.45200 26.80800
C  49.65800 39.16900 25.42300
C  49.14000 37.77400 25.22400
C  49.47400 40.76700 27.52800
C  50.35200 40.07400 24.44300
O  50.63800 39.64800 23.32600
C  50.56400 41.59300 24.63900
N  47.71100 34.98600 24.54300
C  48.58400 35.70600 23.78800
C  48.78000 35.09400 22.41100
C  48.12200 33.71700 22.62300
C  47.42800 33.77800 23.94100
C  48.11200 35.95700 21.29300
C  49.13600 32.48500 22.45700
C  49.10700 31.68600 21.13000
N  46.41000 33.70600 26.76200
C  46.17000 32.75000 25.82500
C  45.59700 31.58400 26.45500
C  45.39800 31.89300 27.78000
C  46.01700 33.21000 27.93300
C  45.30900 30.24900 25.81500
C  44.94900 31.47100 29.10600
O  44.25000 30.53600 29.45200
C  45.20000 32.76400 30.02000
C  45.58400 32.28200 31.30800
O  46.48000 31.41500 31.48500
O  44.78000 32.80000 32.29800
C  44.75400 32.13400 33.55100
H  48.12000 39.01000 29.24600
H  49.72600 37.35900 23.21100
H  46.56000 31.94200 23.85200
H  45.69800 35.47100 31.51700
H  48.06100 37.33000 31.33600
H  45.76900 38.86300 30.27900
H  46.65900 38.99700 31.69400
H  45.36100 37.83400 31.76400
H  48.70400 35.15000 31.46900
H  47.81300 33.78800 31.31800
H  48.59500 34.85600 33.69500
H  47.30000 33.84500 33.62900
H  49.24600 41.65900 26.94400
H  50.50800 40.76200 27.87400
H  48.89800 40.85300 28.45000
H  50.77700 42.10900 23.70300
H  51.27500 41.92800 25.39500
H  49.61100 41.98700 24.99000
H  49.81700 34.94600 22.10900
H  47.25000 33.51400 22.00100
H  47.26400 35.43800 20.84500
H  48.80700 36.24900 20.50600
H  47.57100 36.78900 21.74200
H  48.94700 31.68300 23.17100
H  50.15600 32.84200 22.59700
H  48.13300 31.79600 20.65300
H  49.23700 30.62500 21.34600
H  49.93400 31.94800 20.46900
H  44.69400 30.38300 24.92500
H  44.93700 29.63000 26.63100
H  46.23300 29.80300 25.44600
H  44.20600 33.19200 30.14500
H  44.84500 32.76000 34.43900
H  45.47600 31.33300 33.71200
H  43.76600 31.67600 33.60100

