158

Mg 41.30200 41.26300 26.40300
C  40.37500 43.33200 28.99400
C  42.32100 38.89100 28.81200
C  42.53400 39.39000 23.89400
C  40.77000 43.82900 24.10000
N  41.58400 41.25400 28.64600
C  40.89400 42.09800 29.45500
C  40.83400 41.62200 30.92400
C  41.68700 40.33400 30.80500
C  41.93500 40.10000 29.29000
C  43.05400 40.36600 31.57500
C  39.39800 41.54500 31.56700
C  39.06100 42.59100 32.59300
H  38.39200 42.12400 33.97000
N  42.30600 39.39700 26.32800
C  42.56400 38.57200 27.46400
C  43.07800 37.38700 26.95600
C  43.10100 37.39300 25.44900
C  42.70500 38.77700 25.14700
C  43.60500 36.21000 27.90000
C  43.42900 36.29900 24.49000
O  43.56400 36.49000 23.28600
C  43.50600 34.83500 25.06600
N  41.64600 41.55800 24.36600
C  42.13000 40.64300 23.54200
C  42.21900 41.16200 22.04600
C  41.23100 42.38800 22.06800
C  41.19500 42.62800 23.59700
C  43.63600 41.36600 21.49300
C  39.79000 42.18800 21.45100
C  39.14200 40.89100 21.83900
N  40.60600 43.18900 26.43600
C  40.44800 44.15800 25.44000
C  40.06700 45.36700 26.02900
C  39.91800 45.12200 27.44100
C  40.25500 43.73900 27.61700
C  39.98800 46.69200 25.30500
C  39.58600 45.64900 28.71400
O  39.28300 46.80000 28.98900
C  39.79900 44.50900 29.77600
C  40.75200 45.03700 30.65400
O  41.98600 45.10900 30.49100
O  40.14400 45.66600 31.70200
C  41.07100 46.21800 32.68600
H  42.38100 38.14700 29.60900
H  42.76000 38.76700 23.02600
H  40.70700 44.58400 23.31400
H  41.34900 42.36000 31.53800
H  41.18200 39.55100 31.37000
H  42.97300 39.56300 32.30700
H  43.21000 41.31800 32.08300
H  43.89700 40.13500 30.92400
H  39.29800 40.56100 32.02700
H  38.71600 41.51300 30.71700
H  38.36900 43.29300 32.12800
H  39.93500 43.17800 32.87700
H  43.36300 36.35600 28.95200
H  44.68500 36.24600 27.75100
H  43.27000 35.19200 27.70600
H  42.61300 34.66000 25.66600
H  44.37500 34.70800 25.71000
H  43.60500 34.10500 24.26200
H  41.81600 40.41300 21.36400
H  41.78400 43.24700 21.68800
H  44.38900 41.35300 22.28100
H  43.73400 42.30900 20.95600
H  43.87700 40.52000 20.85000
H  39.89200 42.29400 20.37100
H  39.24700 43.05700 21.82100
H  38.88800 40.37200 20.91400
H  38.19500 41.11300 22.33100
H  39.79500 40.26100 22.44200
H  40.08800 47.47700 26.05500
H  38.97300 46.85700 24.94500
H  40.78500 46.80800 24.57100
H  38.84400 44.21900 30.21300
H  41.64800 47.05900 32.30300
H  41.64900 45.42400 33.15900
H  40.49500 46.58700 33.53400
Mg 16.39900 52.45800 25.21800
C  18.09700 51.00100 27.98100
C  13.67100 52.94900 27.29700
C  14.55200 53.27800 22.54000
C  19.02600 51.21700 23.20600
N  15.96500 52.09000 27.33400
C  16.85900 51.53100 28.30400
C  16.24500 51.71200 29.77400
C  14.79900 52.23400 29.52300
C  14.80700 52.45300 27.96600
C  13.59000 51.33900 29.90200
C  17.14100 52.69400 30.66000
C  17.32800 52.27600 32.09600
H  16.25000 51.30600 32.61400
N  14.36600 53.12600 24.95600
C  13.39400 53.21800 25.95000
C  12.18600 53.81800 25.26300
C  12.44800 53.83900 23.85400
C  13.82800 53.40800 23.74500
C  10.94200 54.12500 26.01900
C  11.53400 54.29900 22.71900
O  11.87000 54.33700 21.55900
C  10.13400 54.79300 22.97500
N  16.70400 52.17400 23.24100
C  15.82800 52.67000 22.33200
C  16.37400 52.76600 20.95800
C  17.79100 52.06200 21.03600
C  17.90500 51.85800 22.58100
C  15.49900 52.39100 19.71700
C  18.98200 52.89500 20.34900
C  19.86300 52.12100 19.37200
N  18.19800 51.37100 25.45200
C  19.16700 50.92400 24.57900
C  20.15400 50.15000 25.21800
C  19.75900 50.14300 26.55900
C  18.57100 50.87300 26.65400
C  21.28200 49.29300 24.57400
C  20.11700 49.70400 27.89400
O  21.04000 49.02300 28.36600
C  19.11500 50.32100 28.81200
C  18.45000 49.16800 29.58700
O  17.50200 48.45200 29.17500
O  18.99400 49.05500 30.90200
C  18.65400 47.93600 31.69600
H  12.79200 53.20000 27.89400
H  14.06600 53.64000 21.63200
H  19.89800 50.96000 22.60100
H  16.26100 50.72300 30.23200
H  14.60500 53.22000 29.94700
H  13.96300 50.37300 30.24200
H  12.95700 51.23800 29.02000
H  13.03300 51.77500 30.73200
H  16.62300 53.64300 30.79300
H  18.07100 52.84000 30.11000
H  17.38800 53.17000 32.71800
H  18.26600 51.72300 32.14400
H  10.17500 53.49000 25.57600
H  10.78900 55.17100 25.75400
H  11.04800 54.09500 27.10300
H  10.16200 55.69900 23.58200
H  9.50500 53.96700 23.30300
H  9.68700 55.12200 22.03700
H  16.74400 53.78900 20.88600
H  17.87600 51.03800 20.67300
H  14.57300 51.90800 20.03000
H  15.99800 51.79500 18.95300
H  15.13000 53.27000 19.18900
H  19.57400 53.32300 21.15800
H  18.63400 53.78200 19.81900
H  19.77800 51.03900 19.46800
H  20.88700 52.43500 19.57300
H  19.67100 52.38700 18.33300
H  22.11700 49.94100 24.30600
H  21.10000 48.84900 23.59500
H  21.62600 48.65700 25.38900
H  19.70700 50.90800 29.51300
H  17.57000 47.84300 31.75800
H  19.00500 48.08100 32.71800
H  19.13300 47.05100 31.27800

