158

Mg 0.93300 43.54200 25.76700
C  3.08900 43.36500 28.43200
C  -1.68300 43.52700 28.02800
C  -1.04600 42.73900 23.32200
C  3.57600 43.96300 23.65700
N  0.73200 43.41900 27.97200
C  1.75700 43.31000 28.85000
C  1.29300 43.39200 30.29700
C  -0.30400 43.23700 30.16600
C  -0.38100 43.45300 28.64200
C  -0.94600 41.79900 30.50700
C  1.67900 44.66700 31.08300
C  1.76000 44.68200 32.65900
H  1.27100 43.46700 33.39200
N  -1.07000 43.31500 25.64300
C  -1.99600 43.38600 26.64100
C  -3.29700 43.16000 26.11400
C  -3.23700 42.77600 24.71400
C  -1.76600 42.92400 24.48300
C  -4.50100 43.12200 27.05800
C  -4.32800 42.22900 23.82400
O  -4.06700 41.79700 22.71700
C  -5.75000 42.06300 24.29500
N  1.22900 43.16300 23.67500
C  0.22400 42.89800 22.85900
C  0.81000 42.76800 21.40000
C  2.13000 43.66800 21.59900
C  2.35000 43.60700 23.07300
C  1.12100 41.24100 20.96800
C  2.02900 45.12000 21.23100
C  3.31000 45.72800 20.48100
N  2.92200 43.59000 25.95700
C  3.94300 43.85300 25.05100
C  5.26700 43.78900 25.65000
C  4.91400 43.49900 26.97500
C  3.57000 43.45500 27.11800
C  6.59800 43.89600 24.92900
C  5.49700 43.29800 28.26800
O  6.65000 43.10600 28.64900
C  4.25300 43.39200 29.31500
C  4.39000 42.17600 30.19500
O  4.06700 41.04700 29.82200
O  5.01000 42.43900 31.38400
C  5.07300 41.26900 32.24400
H  -2.43900 43.70200 28.79600
H  -1.67800 42.44000 22.48300
H  4.42800 44.19800 23.01600
H  1.83500 42.57400 30.77300
H  -0.86400 44.02000 30.67800
H  -1.56400 41.42900 29.68900
H  -1.63500 41.89200 31.34700
H  -0.08800 41.15600 30.70300
H  0.95100 45.45700 30.90000
H  2.68600 44.95600 30.78100
H  1.36300 45.60600 33.07800
H  2.79600 44.76100 32.98800
H  -5.24400 43.74000 26.55400
H  -4.36100 43.60100 28.02700
H  -4.89100 42.11100 27.17400
H  -5.79200 41.31000 25.08200
H  -6.27500 41.67800 23.42100
H  -6.10600 43.00900 24.70500
H  0.15400 43.23200 20.66400
H  2.91000 43.18400 21.01100
H  2.18700 41.11000 20.78300
H  0.48500 41.02600 20.10900
H  0.88700 40.52500 21.75600
H  1.65800 45.69900 22.07700
H  1.29100 45.21900 20.43600
H  3.24500 46.78900 20.72100
H  3.41500 45.49600 19.42100
H  4.19000 45.30200 20.96300
H  7.42100 43.56900 25.56500
H  6.69100 44.90700 24.53400
H  6.53900 43.27800 24.03300
H  4.50300 44.24000 29.95200
H  5.65600 40.54000 31.68200
H  4.04500 40.96100 32.43200
H  5.62500 41.61800 33.11700
Mg -13.20500 16.42000 42.13100
C  -10.16800 14.68100 41.84300
C  -11.61700 19.18300 40.96200
C  -16.31500 17.81100 41.70800
C  -14.79100 13.27600 42.86400
N  -11.17400 16.79900 41.43800
C  -10.10200 15.97100 41.42300
C  -8.83500 16.65400 40.98800
C  -9.23400 18.17100 40.95700
C  -10.78000 18.01900 41.16000
C  -8.51300 19.04400 42.03700
C  -8.31800 16.08800 39.60900
C  -6.85900 15.68800 39.54700
H  -6.40600 14.53400 38.70300
N  -13.86500 18.29400 41.46400
C  -13.05800 19.29600 41.04400
C  -13.87900 20.40500 40.61000
C  -15.21800 20.03300 40.88700
C  -15.20400 18.62100 41.30800
C  -13.28100 21.65600 40.02300
C  -16.45100 21.05100 40.59500
O  -16.23800 22.15900 40.04000
C  -17.83700 20.56100 40.96100
N  -15.28000 15.61500 42.21800
C  -16.33400 16.44300 42.09800
C  -17.69300 15.68300 42.24200
C  -17.22400 14.23300 42.65500
C  -15.69500 14.34700 42.59600
C  -18.80200 16.24000 43.20000
C  -17.75500 13.02400 41.73900
C  -18.74900 12.04600 42.40900
N  -12.65900 14.39900 42.39300
C  -13.36400 13.27700 42.73500
C  -12.53100 12.11400 42.75600
C  -11.27200 12.62200 42.45400
C  -11.38700 14.00900 42.28700
C  -12.85700 10.69500 43.16600
C  -9.89900 12.25600 42.31100
O  -9.33800 11.20900 42.38600
C  -9.05000 13.62900 41.94200
C  -7.96600 13.87600 42.90200
O  -8.05100 14.25800 44.07700
O  -6.77800 13.66300 42.21900
C  -5.54600 13.72200 42.93600
H  -10.94600 20.02300 40.76900
H  -17.32400 18.04400 41.36200
H  -15.36700 12.39100 43.14000
H  -8.03000 16.63800 41.72200
H  -9.11300 18.58100 39.95400
H  -7.89200 19.86900 41.68600
H  -7.78500 18.45300 42.59300
H  -9.21800 19.39600 42.79000
H  -8.52000 16.74600 38.76400
H  -8.94700 15.20500 39.49600
H  -6.39800 15.66300 40.53500
H  -6.33700 16.48100 39.01200
H  -13.63300 22.37700 40.76000
H  -13.62200 21.92600 39.02300
H  -12.19300 21.71800 40.02600
H  -18.11200 19.78500 40.24600
H  -18.53500 21.39500 40.88800
H  -17.78800 20.26700 42.01000
H  -18.07200 15.79400 41.22600
H  -17.52400 13.96700 43.66800
H  -18.46000 16.96900 43.93500
H  -19.25400 15.35200 43.64200
H  -19.56700 16.68500 42.56300
H  -16.86600 12.50700 41.37700
H  -18.13100 13.56400 40.87000
H  -19.27200 12.46600 43.26700
H  -18.09000 11.26200 42.78300
H  -19.38400 11.68700 41.59900
H  -13.12200 10.04500 42.33200
H  -13.71300 10.80200 43.83200
H  -11.95600 10.23800 43.57600
H  -8.59900 13.41800 40.97200
H  -5.48700 12.81100 43.53300
H  -5.53600 14.65000 43.50800
H  -4.67300 13.62900 42.29100

