158

Mg 45.71300 4.96800 47.11500
C  43.64100 7.72300 46.66300
C  43.07800 2.90100 46.35200
C  47.98600 2.35000 46.95500
C  48.45800 7.16800 47.34000
N  43.75600 5.30600 46.33700
C  43.09100 6.51800 46.29900
C  41.58800 6.28600 45.80900
C  41.32900 4.79300 46.06600
C  42.81700 4.25400 46.34000
C  40.34400 4.55500 47.20300
C  41.33400 6.74900 44.34200
C  39.84200 7.21200 43.96900
H  39.53800 7.72900 42.57100
N  45.48200 2.90000 46.77500
C  44.31800 2.19700 46.59100
C  44.55500 0.78300 46.38700
C  45.98700 0.59000 46.48200
C  46.62500 1.97000 46.72100
C  43.53400 -0.27000 45.98600
C  46.70800 -0.66700 46.17900
O  46.20700 -1.75100 46.21700
C  48.15200 -0.69300 45.73300
N  47.94000 4.76400 47.24100
C  48.55900 3.56500 47.24200
C  50.07000 3.70100 47.32600
C  50.17600 5.32000 47.33400
C  48.77600 5.79600 47.35400
C  50.65000 2.94800 48.51600
C  50.87500 5.94300 46.10800
C  52.18900 6.73200 46.35200
N  46.01400 7.00700 47.11200
C  47.13200 7.74600 47.31100
C  46.84400 9.15000 47.29100
C  45.40800 9.18800 47.11600
C  45.02600 7.85900 46.97100
C  47.78200 10.32900 47.42000
C  44.24200 10.04900 46.93600
O  44.16100 11.23300 47.10100
C  43.08600 9.19300 46.55000
C  41.99600 9.29800 47.59800
O  41.94400 8.66200 48.66400
O  41.01200 10.18700 47.13700
C  39.90500 10.59900 48.04700
H  42.14400 2.37500 46.14600
H  48.66300 1.50200 46.83700
H  49.20900 7.95100 47.21400
H  41.06200 6.94800 46.49600
H  40.82000 4.25400 45.26800
H  39.62600 5.37600 47.20900
H  40.75500 4.44600 48.20600
H  39.75100 3.69500 46.89100
H  41.63500 5.90700 43.71800
H  41.95900 7.63300 44.21700
H  39.68500 8.10200 44.57800
H  39.10200 6.46100 44.24500
H  43.58600 -1.22500 46.50900
H  43.53300 -0.38400 44.90200
H  42.55500 0.17000 46.17700
H  48.34800 -1.61300 45.18200
H  48.60500 -0.59600 46.72000
H  48.50100 0.17300 45.17100
H  50.62300 3.27700 46.48700
H  50.62700 5.53700 48.30300
H  49.88800 2.51200 49.16100
H  51.41600 3.45000 49.10600
H  51.21100 2.10100 48.12000
H  50.22000 6.70500 45.68500
H  50.99600 5.20700 45.31400
H  52.31700 6.62000 47.42900
H  52.05200 7.80300 46.20200
H  53.02900 6.37700 45.75400
H  47.34100 11.26900 47.08700
H  48.66100 10.24800 46.78100
H  48.16500 10.25700 48.43800
H  42.60800 9.26000 45.57300
H  38.98000 10.11100 47.74100
H  39.72300 11.65900 47.87300
H  40.14300 10.38700 49.08900
Mg 0.74600 42.71400 25.95500
C  1.77200 42.70200 29.21000
C  -2.38900 41.38900 26.96100
C  0.04500 41.90500 22.78000
C  4.06300 43.77200 24.99400
N  -0.16300 42.06600 27.88700
C  0.42200 42.29600 29.10700
C  -0.53300 41.90000 30.25800
C  -1.71100 41.25400 29.50200
C  -1.43000 41.58200 27.97100
C  -1.97800 39.68000 29.74300
C  -0.88400 43.07700 31.18000
C  -0.98700 42.68900 32.67100
H  -1.65900 41.31600 33.11300
N  -1.00900 41.94300 24.98900
C  -2.20600 41.55700 25.56100
C  -3.21800 41.42800 24.55000
C  -2.50200 41.46500 23.27100
C  -1.04700 41.71700 23.61700
C  -4.63200 41.23800 24.85300
C  -2.99500 41.18100 21.87600
O  -2.19100 41.17700 20.90700
C  -4.40200 40.99200 21.56700
N  1.84600 42.77700 24.20200
C  1.36400 42.34500 23.02700
C  2.27500 42.79000 21.90800
C  3.44600 43.58200 22.52300
C  3.11000 43.44900 24.00600
C  2.74900 41.62200 21.08600
C  3.43500 45.08300 22.08900
C  3.60500 45.32500 20.59200
N  2.52400 43.19400 26.87600
C  3.76900 43.63300 26.40000
C  4.68400 43.80100 27.44500
C  3.95600 43.39300 28.57000
C  2.62300 43.11400 28.16600
C  6.14800 44.28000 27.32900
C  4.07100 43.23300 29.98400
O  4.98200 43.39700 30.71400
C  2.67000 42.82700 30.44300
C  2.84900 41.46900 31.03000
O  3.57600 40.55800 30.66000
O  2.15800 41.48400 32.19400
C  2.45300 40.25200 32.96900
H  -3.37000 41.08600 27.33200
H  -0.12300 41.92500 21.70200
H  5.02200 44.19000 24.68000
H  -0.07300 41.18600 30.94100
H  -2.60600 41.77700 29.83900
H  -1.29300 39.23300 30.46300
H  -1.92500 39.23100 28.75100
H  -3.02500 39.53900 30.01000
H  -1.84500 43.53300 30.94600
H  -0.20400 43.91600 31.02800
H  -1.58400 43.50000 33.08700
H  0.06000 42.69900 32.97300
H  -5.27000 42.09400 24.63200
H  -4.77700 40.98000 25.90200
H  -5.03100 40.40000 24.28300
H  -4.70900 39.94900 21.65300
H  -4.61400 41.33000 20.55300
H  -4.94500 41.67900 22.21600
H  1.77900 43.46300 21.21000
H  4.37600 43.05600 22.30600
H  1.94600 41.28600 20.42900
H  2.95400 40.79600 21.76600
H  3.62700 41.86000 20.48500
H  4.18300 45.58800 22.70000
H  2.43300 45.43700 22.33100
H  2.68400 45.51200 20.03900
H  4.12500 44.49500 20.11300
H  4.25300 46.19800 20.51500
H  6.37900 44.42500 26.27400
H  6.85000 43.55300 27.73900
H  6.09800 45.22000 27.87900
H  2.22000 43.50200 31.17100
H  3.49800 40.39600 33.24400
H  2.26100 39.31300 32.45100
H  1.87900 40.37400 33.88800

