158

Mg 42.75600 3.32300 46.19000
C  40.91000 6.27200 46.49400
C  39.92700 1.61100 46.27000
C  44.55800 0.70100 45.18900
C  45.54900 5.43500 45.61200
N  40.64200 3.94100 46.30600
C  40.12100 5.18400 46.57000
C  38.56500 5.08200 46.88900
C  38.40500 3.54500 46.97600
C  39.73600 2.98000 46.47800
C  37.97000 3.05100 48.35100
C  37.63000 5.85500 45.81500
C  38.02400 5.53900 44.45500
H  38.44200 6.56400 43.40400
N  42.30200 1.38000 45.92500
C  41.05000 0.89200 46.07600
C  41.07500 -0.53000 45.78800
C  42.36100 -0.78100 45.18500
C  43.14600 0.45000 45.43700
C  39.92600 -1.43500 46.03700
C  42.81700 -2.06000 44.56100
O  41.92200 -2.92300 44.51800
C  44.13200 -2.17800 43.79500
N  44.72400 3.11300 45.10900
C  45.28100 1.91800 45.11000
C  46.80700 2.06400 45.05300
C  47.05700 3.57900 44.90000
C  45.66800 4.12800 45.14900
C  47.64900 1.30400 46.20300
C  47.46200 4.00500 43.40500
C  48.86600 4.00700 43.04200
N  43.20700 5.40200 45.99900
C  44.37400 6.09200 45.93300
C  44.14800 7.52200 46.16100
C  42.81300 7.60500 46.33800
C  42.27400 6.32200 46.21800
C  45.13500 8.58500 46.07600
C  41.77200 8.51500 46.69000
O  41.78600 9.70300 46.95500
C  40.51100 7.71700 46.74600
C  39.86300 7.88300 48.10200
O  40.27100 7.74700 49.24100
O  38.56600 8.28700 47.81400
C  37.64900 8.41800 48.90700
H  39.02600 0.99400 46.28400
H  45.31500 -0.07400 45.04900
H  46.40500 6.11200 45.63900
H  38.42300 5.63300 47.81900
H  37.64200 3.33400 46.22700
H  37.15800 2.32900 48.26600
H  37.66700 3.94200 48.90100
H  38.74500 2.47900 48.86100
H  37.68700 6.94200 45.88700
H  36.57400 5.65600 46.00000
H  37.04000 5.26400 44.07400
H  38.52900 4.59500 44.25400
H  39.26400 -1.14800 46.85400
H  40.08600 -2.50600 46.16600
H  39.44900 -1.31900 45.06400
H  44.84000 -2.36500 44.60300
H  44.25500 -1.18400 43.36600
H  44.06700 -2.95600 43.03500
H  47.01900 1.65000 44.06700
H  47.68000 4.03200 45.67100
H  47.14900 0.96300 47.11000
H  48.32500 2.05400 46.61300
H  48.15900 0.40400 45.85900
H  47.13800 5.03600 43.26700
H  46.95100 3.36300 42.68700
H  49.32800 3.46900 43.87000
H  49.17100 5.05300 43.06600
H  49.12600 3.43600 42.15100
H  44.76500 9.22000 45.27100
H  46.05000 8.19700 45.62900
H  45.20300 9.12000 47.02300
H  39.84500 7.98200 45.92500
H  38.04300 8.97800 49.75600
H  37.38900 7.43300 49.29300
H  36.79600 8.91100 48.44200
Mg 17.40800 51.01000 26.20700
C  19.03500 49.61000 28.89600
C  14.99800 52.14100 28.26800
C  15.60300 52.04900 23.43100
C  19.71400 49.51100 24.07900
N  17.00100 50.75500 28.34600
C  17.87800 50.28400 29.26800
C  17.38300 50.71800 30.62900
C  15.99000 51.27900 30.34900
C  15.99500 51.42200 28.92900
C  14.81300 50.53600 30.99400
C  18.46500 51.73300 31.27100
C  18.18900 52.28100 32.69800
H  17.28800 51.39300 33.60000
N  15.68000 52.09000 25.93000
C  14.82900 52.38900 26.92700
C  13.71000 53.21700 26.38100
C  13.86800 53.15200 24.96600
C  15.11400 52.41900 24.72700
C  12.58800 53.79800 27.20900
C  12.79600 53.68000 23.87500
O  12.96900 53.63300 22.64200
C  11.55100 54.28100 24.33800
N  17.58200 50.89100 24.05400
C  16.73100 51.33100 23.16500
C  17.17600 51.10800 21.74100
C  18.57300 50.34900 21.96200
C  18.64800 50.25700 23.49900
C  16.25600 50.25300 20.87700
C  19.83700 51.07100 21.33200
C  20.70200 52.03700 22.15600
N  19.07700 49.82700 26.40200
C  19.93100 49.28300 25.44800
C  20.94100 48.49300 26.05900
C  20.66300 48.57900 27.45800
C  19.50800 49.40400 27.58100
C  21.89900 47.63400 25.31600
C  21.01600 48.16300 28.79300
O  21.82000 47.37100 29.22200
C  20.08500 48.95200 29.75700
C  19.52200 48.12600 30.77800
O  18.62300 47.28000 30.70800
O  20.03400 48.44500 31.94700
C  19.58500 47.71700 33.09600
H  14.25900 52.51000 28.98200
H  14.95400 52.24000 22.57400
H  20.51500 49.09000 23.46800
H  17.26500 49.79500 31.19700
H  16.01900 52.33800 30.60700
H  14.97900 50.47200 32.06900
H  14.65700 49.52500 30.61900
H  13.87600 51.09300 30.97300
H  18.44700 52.58500 30.59100
H  19.46700 51.33900 31.10400
H  17.90700 53.31600 32.50400
H  19.16900 52.31500 33.17300
H  12.66200 53.66300 28.28800
H  11.58600 53.44700 26.96500
H  12.65600 54.84500 26.91400
H  11.85700 55.06200 25.03300
H  11.02200 53.54800 24.94600
H  10.95200 54.59500 23.48300
H  17.33400 52.08200 21.27700
H  18.48700 49.30700 21.65400
H  16.78400 49.60100 20.18100
H  15.51500 50.90400 20.41300
H  15.92200 49.56500 21.65300
H  19.38700 51.54000 20.45600
H  20.57300 50.36800 20.94200
H  20.99500 52.87900 21.53000
H  21.51000 51.51500 22.66900
H  20.11500 52.55100 22.91800
H  21.48700 47.04300 24.49700
H  22.44000 46.88100 25.89000
H  22.51600 48.43800 24.91500
H  20.58900 49.74300 30.31100
H  19.79500 46.65800 32.94500
H  18.52000 47.78300 33.31600
H  20.11700 48.07100 33.97900

