158

Mg 48.28300 34.46500 26.64300
C  46.54600 32.96500 29.25700
C  48.23800 37.46500 28.65800
C  49.61700 36.17800 24.13400
C  47.79900 31.64500 24.64800
N  47.49000 35.11800 28.66000
C  47.03000 34.26000 29.63700
C  47.09800 34.86300 31.04300
C  47.16300 36.34700 30.71600
C  47.75700 36.32100 29.28300
C  45.90000 37.13900 30.85200
C  48.25400 34.36900 31.90800
C  48.05600 34.03000 33.39400
H  47.25100 34.93800 34.31600
N  48.88700 36.48800 26.44600
C  48.80600 37.52900 27.34500
C  49.36300 38.69500 26.69400
C  49.80000 38.31100 25.38100
C  49.49700 36.92200 25.31800
C  49.46500 40.08000 27.26200
C  50.59300 39.14500 24.24100
O  51.03300 38.68800 23.17600
C  50.78800 40.61700 24.51200
N  48.69900 33.94600 24.74100
C  49.24700 34.82700 23.89400
C  49.38800 34.26400 22.49100
C  48.90000 32.78300 22.72100
C  48.44200 32.75500 24.11800
C  48.62200 34.96600 21.29400
C  49.94000 31.67300 22.45900
C  51.27300 31.83200 23.13100
N  47.36300 32.62500 26.83000
C  47.28000 31.54000 25.96100
C  46.32800 30.61000 26.56800
C  46.02600 31.07300 27.87200
C  46.73900 32.32300 27.99200
C  45.78200 29.41400 25.95900
C  45.44100 30.70200 29.13800
O  44.75400 29.76400 29.43800
C  45.53500 32.06200 29.93900
C  45.69300 31.75500 31.35800
O  46.48500 30.93600 31.71900
O  44.80500 32.40800 32.12900
C  44.78900 31.94000 33.56400
H  48.21300 38.36100 29.28100
H  49.87900 36.71100 23.21800
H  47.51800 30.78300 24.04000
H  46.23500 34.63100 31.66700
H  47.91300 36.87700 31.30400
H  45.93900 38.06000 30.27100
H  45.91800 37.47400 31.88900
H  45.03700 36.48300 30.73800
H  49.08600 35.06500 31.80200
H  48.56300 33.43600 31.43700
H  49.07500 34.05400 33.78000
H  47.85400 32.96700 33.52200
H  48.97900 40.03700 28.23600
H  49.09300 40.85300 26.58900
H  50.47000 40.30100 27.62100
H  49.76800 40.92900 24.74000
H  50.91900 41.11300 23.55100
H  51.52900 40.96900 25.22900
H  50.42700 34.25600 22.16200
H  48.00800 32.71400 22.09700
H  48.12100 35.80100 21.78300
H  47.90900 34.33700 20.76200
H  49.29800 35.34400 20.52600
H  50.06400 31.66900 21.37700
H  49.55700 30.66400 22.61100
H  52.07300 32.06700 22.42900
H  51.66400 30.97400 23.67600
H  51.28500 32.57700 23.92700
H  45.77400 29.56900 24.88000
H  44.80200 29.08800 26.30800
H  46.48700 28.58600 26.03800
H  44.54700 32.51100 29.83500
H  44.40900 32.69800 34.24900
H  45.76100 31.70100 33.99600
H  44.26400 30.98900 33.65900
Mg -6.21100 25.21500 26.30700
C  -4.74300 27.10400 28.99900
C  -7.59600 23.07000 28.49300
C  -7.38900 23.42600 23.67200
C  -4.26400 27.21500 24.11600
N  -6.19300 25.19500 28.45300
C  -5.49300 25.98800 29.38700
C  -5.66900 25.45300 30.84900
C  -6.22700 23.97000 30.61700
C  -6.76000 24.11100 29.11000
C  -5.19600 22.92600 30.94600
C  -6.59300 26.37800 31.76200
C  -6.02700 26.86000 33.11900
H  -6.25700 26.04300 34.36900
N  -7.53800 23.67200 26.11800
C  -8.01400 22.94800 27.16900
C  -8.96800 21.94100 26.67200
C  -8.92700 22.02400 25.24200
C  -7.95500 23.09900 24.92000
C  -9.89200 21.23400 27.62300
C  -9.60500 21.18800 24.17600
O  -9.56400 21.50900 22.96900
C  -10.36800 19.99300 24.72100
N  -5.81000 25.27400 24.23800
C  -6.48900 24.45500 23.32900
C  -6.23000 24.91500 21.90000
C  -5.46100 26.24300 21.92300
C  -5.18600 26.27800 23.53400
C  -5.59800 23.79500 21.05800
C  -6.08000 27.46500 21.28000
C  -5.28300 28.14400 20.07500
N  -4.69000 26.79600 26.48100
C  -4.03200 27.48700 25.50600
C  -3.40100 28.65000 26.07700
C  -3.57600 28.49100 27.44900
C  -4.40700 27.39000 27.65500
C  -2.69800 29.74500 25.29900
C  -3.30200 29.12700 28.75500
O  -2.69700 30.15100 29.15500
C  -3.99300 28.14100 29.80200
C  -2.85800 27.42700 30.40900
O  -1.98600 26.89300 29.77500
O  -2.76800 27.69700 31.74700
C  -1.50800 27.40600 32.43500
H  -8.00200 22.35400 29.21100
H  -7.71600 22.91000 22.76600
H  -3.77200 27.89100 23.41400
H  -4.73000 25.41800 31.40100
H  -7.06300 23.82600 31.30100
H  -4.34600 23.31700 31.50600
H  -4.92300 22.39400 30.03500
H  -5.62000 22.19600 31.63500
H  -7.42200 25.79800 32.16700
H  -7.03700 27.18500 31.17900
H  -6.35900 27.88700 33.26500
H  -4.95200 26.74500 32.97700
H  -10.90400 21.00900 27.28500
H  -10.05200 21.69700 28.59600
H  -9.48900 20.26300 27.91100
H  -9.71500 19.45600 25.40900
H  -10.67400 19.36100 23.88700
H  -11.27300 20.27100 25.26100
H  -7.20800 25.02500 21.43200
H  -4.48300 26.02900 21.49200
H  -5.06800 23.07300 21.67800
H  -4.80400 24.20500 20.43300
H  -6.37100 23.34400 20.43600
H  -6.07700 28.23400 22.05300
H  -7.03800 27.15900 20.86100
H  -6.07100 28.02600 19.33100
H  -4.43500 27.58600 19.67800
H  -5.16300 29.21000 20.26500
H  -3.42100 30.53400 25.09500
H  -2.27300 29.44600 24.34100
H  -1.81700 30.06800 25.85500
H  -4.48600 28.47400 30.71500
H  -0.64600 27.99700 32.12500
H  -1.35800 26.34200 32.25400
H  -1.68400 27.60500 33.49200

