158

Mg -2.95600 17.58100 25.85300
C  -3.18600 15.06500 28.26800
C  -3.47300 19.91800 28.15800
C  -2.84500 19.70800 23.34500
C  -3.08300 14.92700 23.41200
N  -3.14100 17.44400 28.01200
C  -3.39600 16.37300 28.74700
C  -3.69700 16.79200 30.20700
C  -3.84900 18.35200 30.04000
C  -3.38200 18.61400 28.66200
C  -5.28300 18.98700 30.38800
C  -2.76600 16.41800 31.38300
C  -2.72500 17.29500 32.64300
H  -2.73500 16.51200 33.95300
N  -3.04900 19.52600 25.77500
C  -3.12600 20.36100 26.87800
C  -3.12500 21.69400 26.48200
C  -2.95100 21.72900 25.06700
C  -2.91700 20.29900 24.64500
C  -3.07100 22.85000 27.40800
C  -2.86000 22.92900 24.13200
O  -2.90100 22.74800 22.91500
C  -2.80900 24.28900 24.63300
N  -3.21900 17.33500 23.69400
C  -3.00100 18.39200 22.96200
C  -2.80700 18.03700 21.51100
C  -3.04400 16.51600 21.45900
C  -3.10600 16.19900 22.93600
C  -3.60000 18.93100 20.46600
C  -1.96700 15.71200 20.66300
C  -2.40900 15.21600 19.29400
N  -2.92800 15.35400 25.78600
C  -2.94400 14.48500 24.74700
C  -2.87700 13.14700 25.26100
C  -2.94800 13.31500 26.68800
C  -2.92600 14.68500 26.94600
C  -2.82400 11.95700 24.39600
C  -3.05200 12.61700 27.95800
O  -2.99000 11.37000 28.17800
C  -3.16400 13.75800 29.06400
C  -2.00900 13.57600 29.85900
O  -0.89600 14.01900 29.64500
O  -2.43000 12.79900 30.92300
C  -1.34800 12.70600 31.90000
H  -3.82700 20.58200 28.95000
H  -2.43200 20.35300 22.56600
H  -3.20700 14.10700 22.70200
H  -4.59900 16.24600 30.48200
H  -3.04800 18.80200 30.62700
H  -5.95300 18.12700 30.38400
H  -5.70400 19.72900 29.70900
H  -5.11500 19.42100 31.37300
H  -1.80800 16.42500 30.86300
H  -2.84800 15.39600 31.75200
H  -3.53700 18.01600 32.73800
H  -1.80000 17.86700 32.57100
H  -4.00200 23.41500 27.37000
H  -2.28400 23.56400 27.16700
H  -2.85300 22.68300 28.46300
H  -2.59400 25.06000 23.89400
H  -2.01300 24.43500 25.36300
H  -3.79300 24.46100 25.07100
H  -1.76800 18.23900 21.24700
H  -4.03700 16.22000 21.12200
H  -4.49700 19.37300 20.89900
H  -3.92000 18.31900 19.62300
H  -3.01400 19.72300 20.00000
H  -1.58000 14.99200 21.38400
H  -1.08700 16.32100 20.45700
H  -3.38700 15.64100 19.07200
H  -2.47000 14.13100 19.20100
H  -1.71200 15.63700 18.56900
H  -2.53000 11.07300 24.96300
H  -2.24400 12.10500 23.48500
H  -3.78200 11.93700 23.87700
H  -3.95800 13.71000 29.80900
H  -1.65000 12.11900 32.76800
H  -1.12900 13.68600 32.32400
H  -0.45600 12.22800 31.49600
Mg 49.01100 44.60200 43.15700
C  45.67100 45.41300 42.06900
C  48.60400 41.62200 41.35900
C  52.34400 44.27200 43.10300
C  49.26500 47.82100 44.37400
N  47.43200 43.75000 41.75300
C  46.13300 44.27200 41.50900
C  45.31500 43.31000 40.66400
C  46.05300 42.03100 40.78900
C  47.49000 42.45100 41.27500
C  45.33900 41.00400 41.70700
C  45.25000 43.87800 39.20700
C  43.98200 43.67300 38.41400
H  44.03900 42.79000 37.15700
N  50.30500 43.14100 42.41900
C  49.91600 41.96000 41.80000
C  51.12100 41.23600 41.47200
C  52.21500 41.89700 42.10300
C  51.61600 43.17800 42.53800
C  51.04800 39.88700 40.67400
C  53.60300 41.42900 42.15500
O  53.89200 40.35600 41.64000
C  54.64800 42.12400 42.87800
N  50.57900 45.90700 43.58600
C  51.90000 45.45900 43.54300
C  52.89700 46.52300 44.09600
C  51.87400 47.59200 44.69600
C  50.45100 47.10500 44.21400
C  53.99600 46.12000 45.09100
C  52.24800 49.16700 44.48300
C  52.61500 50.02500 45.65300
N  47.67900 46.22900 43.43000
C  47.95000 47.46800 43.95800
C  46.66500 48.23000 44.02100
C  45.82400 47.46000 43.29900
C  46.46000 46.24500 42.90300
C  46.43500 49.57800 44.66300
C  44.50100 47.45100 42.72500
O  43.58700 48.28700 42.62400
C  44.39300 46.08200 41.90200
C  43.15500 45.28600 42.34900
O  42.24100 44.87900 41.63400
O  43.18200 45.08900 43.68300
C  42.04100 44.45100 44.33900
H  48.43600 40.60900 40.98600
H  53.43200 44.31600 43.02100
H  49.35300 48.78600 44.87700
H  44.31300 43.24700 41.09000
H  46.22000 41.56600 39.81700
H  44.51800 41.49900 42.22600
H  45.96400 40.55700 42.47900
H  44.91200 40.16000 41.16400
H  46.01800 43.38500 38.61100
H  45.46600 44.94600 39.17500
H  43.58900 44.62500 38.05500
H  43.23400 43.22900 39.07100
H  51.82000 39.84300 39.90500
H  50.04900 39.66900 40.29600
H  51.14900 39.07700 41.39500
H  54.88300 42.94300 42.20000
H  55.42300 41.43200 43.20900
H  54.30800 42.64800 43.77100
H  53.29100 47.05400 43.22900
H  51.73900 47.41800 45.76300
H  53.97100 46.74300 45.98500
H  54.93800 46.27300 44.56600
H  53.95400 45.05700 45.32900
H  51.33200 49.69200 44.21300
H  52.93000 49.32300 43.64700
H  51.92900 50.84400 45.86700
H  53.61900 50.38100 45.42000
H  52.62000 49.42600 46.56400
H  47.32600 50.17000 44.87500
H  46.11700 49.48400 45.70100
H  45.67500 50.15000 44.13100
H  44.18900 46.23500 40.84200
H  41.73100 44.98400 45.23800
H  42.19000 43.40400 44.60400
H  41.14100 44.56700 43.73500

