158

Mg -1.26500 18.12400 27.08000
C  -1.85900 16.00100 29.80600
C  -1.60500 20.87700 29.26900
C  -1.28800 20.33100 24.43100
C  -1.36300 15.40800 24.89200
N  -1.86600 18.34900 29.30300
C  -1.82200 17.37500 30.21500
C  -1.97400 17.91900 31.65200
C  -1.98300 19.50200 31.41200
C  -1.76100 19.63200 29.93200
C  -3.38900 20.01300 32.00600
C  -0.90600 17.59000 32.71400
C  -1.38500 17.23200 34.13900
H  -0.37800 17.35700 35.33100
N  -1.23800 20.32500 26.87000
C  -1.42100 21.23500 27.89100
C  -1.23900 22.52000 27.31100
C  -1.25300 22.42100 25.88700
C  -1.23500 20.98100 25.64300
C  -1.32200 23.74100 28.26000
C  -1.39700 23.55400 24.83700
O  -1.55500 23.31400 23.60800
C  -1.42800 25.03400 25.27900
N  -1.15900 17.88700 24.97100
C  -1.31400 18.93300 24.09800
C  -1.09800 18.44200 22.66500
C  -0.85600 16.91700 22.84600
C  -1.10500 16.72400 24.29600
C  -2.16300 18.87400 21.62800
C  0.45600 16.37700 22.21800
C  1.78600 16.58700 23.01200
N  -1.53400 16.11500 27.19300
C  -1.52800 15.07600 26.22000
C  -1.70000 13.77800 26.91000
C  -1.79300 14.11000 28.29700
C  -1.72700 15.50700 28.41000
C  -1.67200 12.49600 26.22600
C  -1.91300 13.49600 29.59000
O  -1.92700 12.30900 29.92000
C  -1.81000 14.65300 30.61800
C  -0.53300 14.46900 31.33400
O  0.58000 14.68900 30.87100
O  -0.86600 13.99100 32.57600
C  0.35000 13.81100 33.42400
H  -1.55300 21.69300 29.99200
H  -1.40400 20.92700 23.52300
H  -1.42900 14.57300 24.19100
H  -2.96600 17.54100 31.89700
H  -1.17300 19.99400 31.95000
H  -3.80000 19.51400 32.88400
H  -4.19000 19.89800 31.27500
H  -3.35600 21.07300 32.25500
H  -0.06600 18.28400 32.75600
H  -0.55100 16.62300 32.35600
H  -1.65000 16.18100 34.01700
H  -2.25300 17.86100 34.33800
H  -2.35000 24.02600 28.03700
H  -0.60200 24.54900 28.13200
H  -1.37700 23.66800 29.34600
H  -2.36200 25.19600 25.81600
H  -1.40300 25.53900 24.31300
H  -0.54800 25.21500 25.89600
H  -0.07200 18.78700 22.53300
H  -1.73900 16.40200 22.46900
H  -2.62400 18.00300 21.16400
H  -1.68100 19.60400 20.97800
H  -3.02100 19.42700 22.01200
H  0.53800 16.78800 21.21100
H  0.33700 15.29500 22.27000
H  2.54300 16.88800 22.28800
H  2.02800 15.67800 23.56200
H  1.70100 17.38000 23.75500
H  -0.81700 11.86100 26.45900
H  -1.65000 12.70900 25.15700
H  -2.60400 11.95300 26.38300
H  -2.65500 14.74300 31.30000
H  0.76000 14.80400 33.60900
H  1.14900 13.29900 32.88700
H  -0.00000 13.27100 34.30300
Mg 26.63700 0.67800 29.39600
C  28.56100 0.33800 32.17400
C  23.78300 1.17800 31.38800
C  24.66600 0.63300 26.59100
C  29.48100 -0.09500 27.31000
N  26.25700 0.68100 31.55000
C  27.22200 0.69300 32.52900
C  26.61500 0.89400 33.92000
C  25.08800 1.01000 33.60200
C  25.00900 1.02300 32.09300
C  24.25100 -0.02700 34.27600
C  27.19600 2.25200 34.53500
C  28.08700 2.01400 35.74900
H  27.81600 2.87900 37.03000
N  24.58000 0.88900 28.99400
C  23.61900 1.10900 29.96800
C  22.30600 1.30900 29.28300
C  22.53600 1.04100 27.88200
C  23.96200 0.86800 27.79900
C  20.99100 1.54500 30.00200
C  21.52900 1.07800 26.70100
O  21.89300 0.93900 25.52200
C  20.07400 1.29200 26.94500
N  27.03700 0.23700 27.31900
C  25.99800 0.33900 26.40700
C  26.55200 0.35900 24.92800
C  28.17000 0.23100 25.13400
C  28.23100 0.10400 26.70600
C  25.99700 -0.68500 24.10500
C  28.97800 1.56500 24.72500
C  30.03600 1.28600 23.68600
N  28.54800 0.13500 29.64500
C  29.59100 -0.09100 28.70400
C  30.79200 -0.33800 29.50900
C  30.43200 -0.18200 30.85400
C  29.07300 0.10800 30.87000
C  32.14800 -0.69000 28.93900
C  30.91400 -0.34700 32.19500
O  31.91600 -0.86000 32.70800
C  29.71000 0.10400 33.11200
C  29.40000 -0.99600 34.11400
O  28.63500 -1.97600 33.91800
O  30.07400 -0.74700 35.27800
C  30.09000 -1.81700 36.25800
H  22.81700 1.32800 31.87600
H  24.23100 0.69500 25.59200
H  30.42000 -0.34200 26.81100
H  26.82600 0.06100 34.59000
H  24.74000 1.94400 34.04300
H  23.55900 0.42600 34.98500
H  24.94200 -0.73500 34.73400
H  23.64500 -0.53900 33.52800
H  26.47500 2.97100 34.92500
H  27.81400 2.78100 33.80900
H  29.10600 2.31200 35.49900
H  28.05400 0.96400 36.03800
H  20.39900 0.65300 29.79800
H  20.50800 2.39200 29.51600
H  21.02000 1.68600 31.08200
H  19.48700 1.11600 26.04300
H  20.02100 2.36700 27.12200
H  19.73900 0.62200 27.73700
H  26.34400 1.25800 24.34900
H  28.49400 -0.64700 24.57600
H  26.66800 -1.14900 23.38300
H  25.37400 -0.19900 23.35300
H  25.39600 -1.45200 24.59300
H  29.56200 2.03700 25.51600
H  28.32200 2.34800 24.34500
H  31.05000 1.32600 24.08200
H  30.05800 2.05900 22.91700
H  29.86700 0.32100 23.20700
H  32.93700 -0.46700 29.65900
H  32.36400 -0.15900 28.01200
H  32.12400 -1.77200 28.80900
H  29.91200 1.06200 33.58900
H  30.12500 -2.85200 35.91700
H  29.25100 -1.63800 36.93000
H  31.02000 -1.76100 36.82300

