158

Mg 34.80300 2.22400 29.94100
C  32.64900 3.31200 32.50300
C  37.45100 2.55900 32.03500
C  36.86800 1.66200 27.26900
C  32.20900 3.05800 27.64200
N  35.02400 3.01400 31.99700
C  33.99100 3.12000 32.89700
C  34.56000 3.15000 34.39800
C  36.11400 3.07500 34.21200
C  36.22300 2.92600 32.66400
C  36.93300 4.27700 34.75600
C  34.01100 1.92300 35.25700
C  33.83900 2.07300 36.72500
H  34.34600 3.33400 37.33000
N  36.85200 1.97600 29.69500
C  37.78100 2.17500 30.73800
C  39.07900 1.95800 30.17800
C  38.97500 1.65200 28.81200
C  37.51300 1.73200 28.54500
C  40.34300 2.10700 31.01200
C  40.03500 1.44000 27.81700
O  39.82500 1.12100 26.62700
C  41.46200 1.48300 28.29400
N  34.53300 2.23000 27.84500
C  35.57800 1.86900 26.94000
C  35.12900 1.85600 25.46200
C  33.55500 2.24000 25.64500
C  33.40000 2.50000 27.14900
C  35.88200 2.87300 24.57800
C  32.58700 1.09700 25.15000
C  32.61000 -0.17800 26.02400
N  32.76300 2.94900 29.99900
C  31.89200 3.22300 28.97800
C  30.55300 3.49300 29.50600
C  30.81100 3.47100 30.92000
C  32.15700 3.26300 31.16900
C  29.29800 3.67700 28.72700
C  30.23300 3.73100 32.25600
O  29.08100 4.03500 32.61500
C  31.30200 3.46900 33.32800
C  31.30500 4.66900 34.25000
O  31.81000 5.74500 34.03000
O  30.68600 4.29200 35.47500
C  30.46200 5.49300 36.32400
H  38.32400 2.66500 32.68300
H  37.46100 1.39500 26.39200
H  31.35900 3.08400 26.95700
H  34.28500 4.06600 34.92000
H  36.43400 2.11200 34.60800
H  36.30100 5.11200 35.05600
H  37.58900 4.59200 33.94500
H  37.60000 4.00700 35.57500
H  34.62800 1.03000 35.16100
H  33.05600 1.59100 34.85000
H  34.27300 1.18900 37.19200
H  32.75200 2.03000 36.77900
H  40.82900 3.00200 30.62400
H  40.95200 1.22400 30.82000
H  40.12000 2.27700 32.06600
H  41.70500 2.41900 28.79700
H  42.06100 1.43000 27.38500
H  41.60000 0.66100 28.99600
H  35.32900 0.82100 25.18500
H  33.18200 3.11000 25.10500
H  35.14800 3.24500 23.86300
H  36.61700 2.55300 23.84000
H  36.23300 3.69900 25.19700
H  32.70600 0.79900 24.10900
H  31.57700 1.44400 25.37200
H  31.58600 -0.54100 26.11400
H  32.95800 0.00100 27.04100
H  33.25000 -0.94300 25.58500
H  29.41100 2.80300 28.08500
H  29.16700 4.55600 28.09700
H  28.43000 3.48000 29.35700
H  31.01000 2.56900 33.86900
H  29.64300 6.04600 35.86500
H  31.42100 6.00000 36.43700
H  30.15500 5.17400 37.32000
Mg 7.07700 53.82400 41.50400
C  6.89900 50.40900 40.64700
C  10.11100 53.77800 39.80000
C  7.12300 57.03900 41.83000
C  3.92600 53.56000 42.89800
N  8.19800 52.33700 40.15700
C  7.96300 51.01500 39.96000
C  8.83100 50.46400 38.81100
C  10.09000 51.36000 38.91400
C  9.42100 52.55000 39.69100
C  11.27700 50.88300 39.64100
C  8.20100 50.34500 37.40800
C  8.33800 49.02400 36.49500
H  7.89400 48.92700 35.04200
N  8.41000 55.23000 40.88700
C  9.57600 55.04600 40.21700
C  10.20200 56.36300 40.02500
C  9.35700 57.38400 40.54300
C  8.24500 56.58400 41.14700
C  11.44600 56.56900 39.27800
C  9.52900 58.96900 40.57900
O  10.46800 59.40700 39.95100
C  8.65100 59.90100 41.29100
N  5.68500 55.14500 42.11700
C  5.94800 56.44900 42.28100
C  4.79500 57.22400 42.89800
C  3.80000 56.08200 43.26700
C  4.51600 54.82000 42.75600
C  5.26600 58.26500 43.97400
C  2.27600 56.22500 42.82100
C  1.77900 57.60600 42.59900
N  5.66700 52.32300 41.74900
C  4.53700 52.35400 42.52400
C  3.97500 51.00500 42.61600
C  4.96400 50.18300 41.98800
C  5.91100 51.07000 41.43600
C  2.63300 50.59100 43.26700
C  5.24300 48.87500 41.66700
O  4.68100 47.75300 41.84700
C  6.61800 48.95000 40.93900
C  6.43800 48.07200 39.73700
O  5.80900 48.41400 38.71800
O  7.07700 46.85800 39.91300
C  6.79000 45.86500 38.85700
H  11.12400 53.76700 39.39300
H  7.00000 58.08900 42.10500
H  2.96900 53.52000 43.42300
H  9.10300 49.44600 39.09100
H  10.43600 51.69600 37.93600
H  12.04900 51.64800 39.55300
H  11.65600 49.88600 39.41600
H  11.07800 50.87600 40.71200
H  8.60900 51.14100 36.78500
H  7.11400 50.32900 37.48200
H  7.69400 48.28600 36.97300
H  9.39300 48.75000 36.52200
H  11.43600 55.93500 38.39200
H  12.16700 56.24900 40.03000
H  11.67500 57.55700 38.88000
H  8.60500 59.63200 42.34600
H  7.68800 59.76300 40.79800
H  8.94200 60.95100 41.31300
H  4.41500 57.86300 42.10000
H  3.82300 55.93400 44.34600
H  4.96100 57.99100 44.98400
H  4.70100 59.16200 43.72100
H  6.29700 58.61800 43.96300
H  1.84100 55.83300 43.74000
H  2.05500 55.52700 42.01300
H  0.90100 57.58800 43.24400
H  1.50600 57.68500 41.54600
H  2.43300 58.40300 42.95300
H  1.89900 51.22200 42.76600
H  2.64300 50.92200 44.30600
H  2.33900 49.57400 43.00800
H  7.32900 48.60900 41.69100
H  6.82900 46.24600 37.83600
H  5.78500 45.46500 38.98900
H  7.45300 45.00500 38.95400

