158

Mg 35.61600 2.25900 30.19200
C  33.31200 3.25600 32.51100
C  38.05100 2.62400 32.80700
C  38.05900 1.31900 28.06900
C  33.50200 2.73300 27.71700
N  35.65800 2.99600 32.41400
C  34.54800 3.12100 33.13800
C  34.86500 3.15200 34.64000
C  36.36000 3.18800 34.61200
C  36.75500 2.85600 33.21900
C  36.98600 4.56900 35.13400
C  34.19100 1.95000 35.45100
C  33.69500 2.38700 36.86200
H  34.43500 3.47200 37.62800
N  37.75200 1.96900 30.39100
C  38.50900 2.14400 31.55600
C  39.84600 1.86300 31.18900
C  39.96700 1.49700 29.78600
C  38.56500 1.52300 29.36500
C  41.06000 2.04900 32.11100
C  41.10800 1.04800 28.89200
O  40.91600 0.63600 27.76200
C  42.59200 1.05400 29.40200
N  35.84400 2.29700 28.15200
C  36.85200 1.65200 27.53000
C  36.54500 1.43700 26.04300
C  34.97900 1.56700 25.95200
C  34.71800 2.25500 27.32400
C  37.18300 2.47500 25.01900
C  34.27600 0.12600 25.97200
C  32.99600 0.07700 25.14700
N  33.71400 2.81700 30.13200
C  32.96800 3.01800 28.98300
C  31.61900 3.40100 29.38400
C  31.63700 3.40500 30.80600
C  33.03000 3.18100 31.16700
C  30.47600 3.52600 28.49300
C  30.87200 3.63700 31.97600
O  29.69600 3.98300 32.23000
C  31.96800 3.60800 33.15300
C  32.05400 5.00100 33.76700
O  32.52600 5.98100 33.22300
O  31.41000 4.97100 34.99100
C  31.45300 6.26300 35.80500
H  38.76800 2.70700 33.62600
H  38.71500 0.93000 27.28600
H  32.73600 2.76300 26.93900
H  34.43300 4.08100 35.01200
H  36.64700 2.36400 35.26600
H  36.18500 5.30700 35.18500
H  37.80500 4.84000 34.46700
H  37.31800 4.30400 36.13800
H  34.82900 1.07500 35.57900
H  33.28100 1.54200 35.01200
H  33.76600 1.58200 37.59300
H  32.64500 2.67500 36.82800
H  41.59500 1.11900 32.30100
H  40.68200 2.54600 33.00500
H  41.72200 2.78600 31.65500
H  42.62300 0.39000 30.26500
H  42.76500 2.03300 29.84900
H  43.26100 0.79900 28.58100
H  36.76000 0.38100 25.88300
H  34.62500 2.09200 25.06400
H  36.61800 2.65200 24.10400
H  38.15600 2.04000 24.79100
H  37.37300 3.41600 25.53600
H  34.13900 -0.22000 26.99600
H  34.97400 -0.56000 25.49200
H  32.74400 1.06100 24.75100
H  32.20600 -0.34200 25.77100
H  33.07600 -0.60400 24.30000
H  30.16200 2.57400 28.06200
H  30.66400 4.29900 27.74900
H  29.70800 3.89100 29.17500
H  31.79000 2.83900 33.90400
H  30.56600 6.25600 36.43800
H  31.41700 7.03500 35.03600
H  32.41400 6.24500 36.31900
Mg -2.66600 34.87500 26.90100
C  -4.32700 33.14200 29.52900
C  -1.81200 37.30000 29.02700
C  -1.20100 36.39000 24.24800
C  -4.26900 32.66900 24.64700
N  -3.09400 35.25800 29.07500
C  -3.67200 34.30500 29.94900
C  -3.33700 34.77400 31.34000
C  -2.74600 36.20200 31.21100
C  -2.51700 36.31900 29.69100
C  -3.73300 37.39300 31.60700
C  -2.47400 33.76200 32.07900
C  -3.27400 33.06400 33.26800
H  -2.28100 32.99000 34.59100
N  -1.57400 36.57200 26.66400
C  -1.36000 37.48200 27.70600
C  -0.50900 38.53800 27.17100
C  -0.41100 38.36500 25.74100
C  -1.13900 37.05100 25.50600
C  0.14400 39.63100 28.00800
C  0.21000 39.27000 24.67700
O  0.11500 39.01100 23.50000
C  1.00000 40.46000 25.02500
N  -2.81100 34.63200 24.77400
C  -2.02100 35.32100 23.87700
C  -2.09900 34.73900 22.47800
C  -2.84800 33.36400 22.73800
C  -3.37100 33.55100 24.16200
C  -2.77400 35.76600 21.53000
C  -2.13800 31.96200 22.73000
C  -0.93900 31.65800 23.66200
N  -3.97300 33.21100 27.01300
C  -4.57900 32.47700 26.02900
C  -5.22100 31.38600 26.55400
C  -5.26700 31.56100 27.93700
C  -4.46000 32.75000 28.15700
C  -5.98400 30.33800 25.69700
C  -5.67000 31.13600 29.29800
O  -6.34700 30.21900 29.72600
C  -5.02800 32.10700 30.34200
C  -6.11700 32.66500 31.19300
O  -6.75000 33.71600 30.98400
O  -6.26300 31.89900 32.37200
C  -7.41700 32.29200 33.22600
H  -1.30700 38.01400 29.68000
H  -0.53600 36.73100 23.45200
H  -4.60700 31.87800 23.97500
H  -4.32300 35.01100 31.74000
H  -1.81900 36.37700 31.75800
H  -4.14600 37.91500 30.74400
H  -3.20000 38.16300 32.16400
H  -4.47700 37.08200 32.34100
H  -1.61000 34.28100 32.49500
H  -2.16200 32.92600 31.45300
H  -3.57100 32.07900 32.90900
H  -4.17500 33.65300 33.43500
H  0.11100 39.36800 29.06500
H  -0.39400 40.54700 27.76700
H  1.20800 39.70700 27.78300
H  1.79100 40.01800 25.63000
H  0.27500 40.97100 25.65900
H  1.41300 40.94900 24.14300
H  -1.07400 34.59600 22.13900
H  -3.71700 33.22600 22.09400
H  -2.82700 36.77100 21.94800
H  -3.80600 35.47600 21.33500
H  -2.21300 35.87400 20.60100
H  -1.70400 31.76200 21.75000
H  -2.85800 31.14500 22.77100
H  -1.35800 30.87600 24.29600
H  -0.68800 32.59100 24.16600
H  -0.07700 31.22700 23.15300
H  -5.54400 30.20400 24.70900
H  -7.03600 30.61700 25.63500
H  -5.92900 29.36300 26.18100
H  -4.27700 31.61800 30.96100
H  -8.25800 32.68400 32.65300
H  -7.15400 33.17800 33.80400
H  -7.64600 31.50600 33.94500

