158

Mg 17.37600 53.51900 26.39100
C  19.23200 51.74100 28.81100
C  15.15400 54.29600 28.97700
C  15.39200 54.93400 24.02100
C  19.44500 52.20200 23.95700
N  17.20500 53.03900 28.65800
C  18.11500 52.35100 29.47200
C  17.88900 52.65500 30.91700
C  16.42100 53.15500 30.94400
C  16.26200 53.54000 29.39600
C  15.32200 52.22100 31.43100
C  18.95900 53.58600 31.56300
C  19.26000 53.34600 33.06200
H  18.10100 52.67900 33.87000
N  15.57500 54.57400 26.45800
C  14.84700 54.78300 27.62100
C  13.72600 55.55600 27.27000
C  13.74600 55.83100 25.88100
C  14.94500 55.15500 25.34300
C  12.69100 56.06200 28.40700
C  12.81400 56.60100 25.09800
O  12.92200 56.71400 23.89700
C  11.64700 57.34500 25.76900
N  17.28700 53.38200 24.23800
C  16.48500 54.19900 23.53500
C  16.89500 54.27200 22.03700
C  18.30900 53.53400 22.06900
C  18.34200 52.91000 23.51200
C  15.90900 53.74000 20.96900
C  19.58300 54.37600 21.70200
C  20.54600 53.85600 20.63800
N  18.97700 52.18500 26.36300
C  19.71900 51.82000 25.27400
C  20.80400 50.98000 25.79300
C  20.60200 50.87800 27.17800
C  19.49100 51.62700 27.44900
C  21.95400 50.52600 24.88000
C  21.15000 50.38700 28.37300
O  22.09000 49.64800 28.62100
C  20.29200 50.95800 29.44800
C  19.73300 49.93900 30.27200
O  18.97400 49.06700 29.87200
O  20.04500 50.10800 31.60400
C  19.66000 48.91900 32.41200
H  14.40000 54.62000 29.69800
H  14.99000 55.47800 23.16300
H  20.24800 51.97100 23.25400
H  17.84800 51.71600 31.46900
H  16.40800 54.05700 31.55600
H  15.04400 51.47600 30.68500
H  14.46800 52.80000 31.78200
H  15.82200 51.62900 32.19800
H  18.58400 54.60800 31.61800
H  19.88500 53.56100 30.98800
H  19.49000 54.32200 33.48800
H  20.14000 52.70900 32.96800
H  12.50000 57.12400 28.24800
H  12.96800 55.92800 29.45300
H  11.76800 55.48300 28.39000
H  12.05300 57.99300 26.54700
H  11.11900 56.54900 26.29300
H  11.05300 57.86200 25.01600
H  17.09500 55.33800 21.93100
H  18.30700 52.71700 21.34700
H  14.88100 53.71200 21.33000
H  16.24500 52.74900 20.66500
H  15.88600 54.39800 20.10000
H  20.23400 54.42600 22.57500
H  19.30600 55.42600 21.60800
H  21.49200 53.68200 21.15100
H  20.78300 54.58600 19.86500
H  20.12700 52.97300 20.15600
H  22.09600 51.10100 23.96500
H  21.87900 49.45300 24.70400
H  22.83500 50.58100 25.51900
H  20.90100 51.63700 30.04500
H  19.87500 49.05500 33.47200
H  20.14400 48.09400 31.89000
H  18.59100 48.71600 32.48200
Mg -12.28400 38.14600 41.49400
C  -9.89200 35.86500 41.03100
C  -10.32600 40.49500 39.84900
C  -14.99100 40.17900 41.09000
C  -14.52200 35.59700 42.57700
N  -10.35500 38.06100 40.48400
C  -9.60700 37.00100 40.33000
C  -8.36000 37.32400 39.54300
C  -8.47600 38.85500 39.26300
C  -9.82600 39.18300 39.85200
C  -7.36400 39.72300 39.87900
C  -8.09600 36.34200 38.42400
C  -6.75100 35.71800 38.39900
H  -5.86700 36.33400 37.19600
N  -12.53500 40.11800 40.75600
C  -11.59500 40.94900 40.29800
C  -12.11700 42.26100 40.19300
C  -13.46900 42.21400 40.43200
C  -13.71400 40.79000 40.85100
C  -11.33200 43.47700 39.66100
C  -14.47600 43.42100 40.35400
O  -14.16000 44.47400 39.74600
C  -15.83800 43.34100 40.97800
N  -14.55900 37.88300 41.64800
C  -15.40200 38.91500 41.54500
C  -16.90300 38.45000 41.57400
C  -16.74600 36.99600 42.06100
C  -15.17700 36.80000 42.16000
C  -18.00400 39.31600 42.28200
C  -17.31200 35.86900 41.11000
C  -18.04000 34.71600 41.86800
N  -12.31300 36.10800 41.73100
C  -13.16800 35.24500 42.39800
C  -12.48900 34.03800 42.74000
C  -11.17300 34.18300 42.21400
C  -11.14300 35.48800 41.54900
C  -13.04000 32.84200 43.44500
C  -9.95000 33.56100 41.96500
O  -9.54000 32.45800 42.38300
C  -9.05100 34.62800 41.18800
C  -7.75200 34.81500 41.85400
O  -6.82400 34.03200 41.85300
O  -7.72000 36.08100 42.45900
C  -6.42400 36.48300 43.06900
H  -9.70900 41.17600 39.26000
H  -15.85300 40.82200 40.89900
H  -15.19400 34.88000 43.05400
H  -7.55600 37.27600 40.27700
H  -8.45900 39.12300 38.20700
H  -7.62600 40.28300 40.77600
H  -6.87100 40.34300 39.13100
H  -6.53900 39.05000 40.11300
H  -8.44400 36.78900 37.49300
H  -8.87900 35.59000 38.52000
H  -6.81100 34.65300 38.17200
H  -6.17300 35.87500 39.31000
H  -11.37500 44.28400 40.39300
H  -11.61900 43.80700 38.66300
H  -10.27700 43.26800 39.48500
H  -15.91800 42.93500 41.98600
H  -16.48400 42.84600 40.25200
H  -16.16200 44.38100 41.00100
H  -17.13800 38.35400 40.51400
H  -17.23200 36.99400 43.03600
H  -17.49200 40.01600 42.94100
H  -18.61600 38.70100 42.94200
H  -18.60200 39.84500 41.53900
H  -16.48400 35.37200 40.60500
H  -18.02100 36.20900 40.35500
H  -19.04800 34.71700 41.45500
H  -18.13600 34.84400 42.94600
H  -17.60600 33.74900 41.61400
H  -13.80000 32.45600 42.76600
H  -13.57200 33.12000 44.35500
H  -12.27500 32.09000 43.63800
H  -8.76700 34.00500 40.33900
H  -6.42300 37.55300 42.86000
H  -5.52200 36.08300 42.60700
H  -6.37700 36.36100 44.15100

