158

Mg 47.57100 15.37200 28.44000
C  45.22800 15.03800 31.22300
C  49.37000 17.49900 30.45600
C  49.34700 16.18100 25.67200
C  45.03800 13.88400 26.49500
N  47.15400 16.28700 30.53100
C  46.33700 15.86800 31.48800
C  46.84800 16.30100 32.81500
C  47.85100 17.44300 32.54300
C  48.15300 17.06400 31.12100
C  47.29400 18.89500 32.40900
C  47.50100 15.20000 33.66800
C  47.43400 15.36100 35.18700
H  48.73400 15.47600 35.96300
N  49.27000 16.43100 28.19900
C  49.86700 17.27300 29.12300
C  51.00900 17.88400 28.60200
C  51.03300 17.57500 27.24800
C  49.84000 16.70100 26.95200
C  51.93600 18.87900 29.36800
C  52.03300 18.05300 26.17900
O  51.92300 17.65000 25.03100
C  53.18900 18.98600 26.40900
N  47.23100 15.03600 26.38300
C  48.20200 15.44900 25.45000
C  47.85400 14.82000 24.12700
C  46.50000 14.08700 24.40500
C  46.25500 14.24400 25.87600
C  47.89900 15.82900 23.00500
C  46.26100 12.67100 23.85600
C  47.14600 11.54300 24.33600
N  45.61700 14.57300 28.75100
C  44.73400 13.95500 27.86400
C  43.54400 13.37300 28.55600
C  43.80200 13.70700 29.89300
C  44.99100 14.49500 29.96400
C  42.46500 12.56400 27.88600
C  43.27800 13.51000 31.18400
O  42.24400 12.98200 31.53700
C  44.26200 14.41100 32.19300
C  43.36300 15.38900 32.78700
O  42.46100 15.96600 32.20500
O  43.65200 15.43000 34.12900
C  42.69300 16.24100 34.95400
H  49.90900 18.04000 31.23700
H  49.91400 16.43100 24.77300
H  44.31600 13.33600 25.88700
H  46.06100 16.76500 33.40900
H  48.83400 17.43600 33.01500
H  47.48300 19.38400 31.45300
H  47.80000 19.46200 33.19100
H  46.22000 18.90600 32.59200
H  48.55000 15.18400 33.37500
H  47.06200 14.21800 33.48700
H  46.79300 14.53400 35.49400
H  46.91200 16.30600 35.33700
H  51.83700 19.86400 28.91300
H  52.91100 18.44000 29.15800
H  51.73700 18.93800 30.43800
H  53.84000 18.95800 25.53500
H  53.70900 18.56600 27.27100
H  52.86600 20.00300 26.62900
H  48.66600 14.10800 23.97700
H  45.65700 14.60600 23.94800
H  47.00900 15.69900 22.39000
H  48.73400 15.60800 22.34000
H  47.96000 16.83200 23.42700
H  46.50100 12.73000 22.79500
H  45.24800 12.30000 24.01500
H  46.46200 10.82000 24.78000
H  47.87700 11.89500 25.06500
H  47.61900 11.08000 23.47000
H  42.66300 12.03300 26.95500
H  41.69400 13.29600 27.64600
H  42.31800 11.83900 28.68600
H  44.71200 13.81400 32.98700
H  42.20700 17.07600 34.44900
H  43.40500 16.61300 35.69100
H  41.92000 15.62900 35.41800
Mg -3.28400 34.32500 26.83200
C  -3.90600 32.36700 29.68800
C  -1.80800 36.73000 28.86400
C  -3.31000 36.54600 24.34100
C  -5.04300 32.07800 24.89500
N  -2.90800 34.45600 28.95900
C  -3.16300 33.50400 29.91500
C  -2.67800 33.93200 31.41100
C  -2.07300 35.32100 31.01600
C  -2.27400 35.55800 29.52500
C  -2.37600 36.54100 31.98700
C  -1.82100 32.91800 32.25500
C  -2.26000 32.54000 33.65200
H  -1.21300 32.56100 34.75300
N  -2.49200 36.30200 26.57200
C  -1.93300 37.12000 27.51700
C  -1.50700 38.40400 26.91700
C  -1.96100 38.35400 25.55500
C  -2.63800 37.01300 25.42500
C  -0.84100 39.44100 27.70300
C  -1.86100 39.41900 24.48100
O  -2.32600 39.27200 23.37300
C  -1.21400 40.77200 24.76600
N  -4.32500 34.37100 24.98300
C  -4.06200 35.38000 24.10800
C  -4.49100 35.06300 22.65100
C  -4.89800 33.56200 22.84000
C  -4.67500 33.26500 24.33900
C  -5.58500 35.96200 21.96300
C  -4.12200 32.63700 21.85100
C  -2.73800 32.03800 22.32100
N  -4.31900 32.58800 27.11400
C  -5.02600 31.76700 26.20600
C  -5.47300 30.65400 26.97200
C  -5.08100 30.87900 28.34300
C  -4.39300 32.08900 28.37200
C  -6.29800 29.53900 26.38600
C  -5.13100 30.36400 29.69500
O  -5.68300 29.34300 30.17100
C  -4.34200 31.32900 30.63600
C  -5.33100 31.89900 31.55900
O  -6.11600 32.74600 31.27500
O  -5.12900 31.49900 32.89300
C  -6.21300 31.81700 33.85700
H  -1.51500 37.45900 29.62300
H  -3.03200 37.17200 23.49100
H  -5.50400 31.36400 24.20900
H  -3.59400 34.06700 31.98500
H  -0.99300 35.18000 30.97000
H  -2.73400 36.26400 32.97800
H  -3.30800 37.01200 31.67700
H  -1.62800 37.32500 32.11200
H  -0.82000 33.34100 32.33300
H  -1.77600 32.03400 31.62000
H  -2.48100 31.47500 33.57900
H  -3.09800 33.18900 33.90700
H  -0.23300 39.00400 28.49500
H  -1.59700 40.03500 28.21600
H  -0.14200 39.97900 27.06100
H  -2.01200 41.32000 25.26800
H  -1.09000 41.30100 23.82100
H  -0.22100 40.77600 25.21600
H  -3.63200 35.18600 21.99100
H  -5.96600 33.44200 22.65600
H  -5.89300 36.68000 22.72400
H  -6.49700 35.48600 21.60400
H  -5.15000 36.54700 21.15400
H  -4.01500 33.08800 20.86400
H  -4.72700 31.76000 21.62000
H  -2.56500 32.12100 23.39400
H  -1.91500 32.46800 21.75000
H  -2.72400 30.96800 22.11500
H  -5.82000 29.15200 25.48600
H  -7.27000 29.97600 26.15600
H  -6.36000 28.79800 27.18300
H  -3.53600 30.80000 31.14400
H  -7.10400 32.10100 33.29700
H  -5.96100 32.53000 34.64200
H  -6.55600 30.90100 34.33800

