158

Mg -2.33600 17.72200 26.26400
C  -2.70400 15.42200 28.89600
C  -2.31200 20.17700 28.60100
C  -2.26300 20.01800 23.69200
C  -2.09100 15.16700 23.96600
N  -2.45100 17.80800 28.51700
C  -2.65000 16.72400 29.34100
C  -2.66800 17.21200 30.88500
C  -2.62200 18.77400 30.72300
C  -2.45400 18.95900 29.21400
C  -3.89900 19.52500 31.28000
C  -1.49400 16.55800 31.73300
C  -1.07600 17.24100 33.00500
H  -0.96300 16.50300 34.35200
N  -2.30000 19.76000 26.11700
C  -2.29000 20.59000 27.18200
C  -2.31300 21.98900 26.75900
C  -2.23300 21.97600 25.35500
C  -2.25400 20.54900 24.98900
C  -2.52900 23.11600 27.67100
C  -2.00600 23.16200 24.35300
O  -1.87600 22.93900 23.15100
C  -1.92500 24.59100 24.85900
N  -2.32400 17.61400 24.16000
C  -2.40700 18.68200 23.34900
C  -2.45200 18.25600 21.89800
C  -2.19400 16.76000 21.94900
C  -2.12900 16.46900 23.43200
C  -3.88300 18.53700 21.33100
C  -0.93800 16.35000 21.23700
C  0.42200 16.69400 21.79100
N  -2.56300 15.67000 26.30600
C  -2.41000 14.73800 25.26500
C  -2.42700 13.46400 25.84000
C  -2.59800 13.65000 27.23000
C  -2.56600 15.03000 27.50800
C  -2.34800 12.13300 25.02200
C  -2.73800 12.92300 28.44900
O  -2.78600 11.68800 28.54500
C  -2.79100 14.07500 29.57100
C  -1.57600 13.73100 30.32800
O  -0.44200 13.95400 30.00400
O  -1.82700 13.03200 31.47000
C  -0.72300 12.71100 32.37900
H  -2.13200 20.98800 29.30900
H  -2.22100 20.67500 22.82000
H  -2.08400 14.41000 23.17900
H  -3.64000 16.92200 31.28400
H  -1.79300 19.32600 31.16600
H  -3.56800 20.43400 31.78300
H  -4.47500 18.81000 31.86700
H  -4.48400 19.93700 30.45700
H  -0.61500 16.25500 31.16400
H  -2.02800 15.72400 32.18800
H  -1.72200 18.05900 33.32500
H  -0.15200 17.77900 32.79500
H  -1.65800 23.77100 27.65900
H  -2.74100 22.77900 28.68500
H  -3.37100 23.71200 27.31700
H  -1.07900 24.60800 25.54600
H  -2.88900 24.80900 25.31800
H  -1.66800 25.28900 24.06100
H  -1.70600 18.88200 21.40900
H  -3.00500 16.10800 21.62300
H  -4.31700 17.65300 20.86300
H  -3.88200 19.30400 20.55700
H  -4.66400 18.92600 21.98500
H  -0.94900 16.69100 20.20100
H  -1.07500 15.26900 21.19100
H  1.00700 17.00500 20.92400
H  0.91200 15.76800 22.09000
H  0.47500 17.54900 22.46500
H  -2.61100 12.30200 23.97800
H  -2.97900 11.36200 25.46500
H  -1.32100 11.79700 24.87800
H  -3.68500 13.87700 30.16300
H  -1.12900 12.24800 33.27800
H  -0.35800 13.69100 32.68700
H  -0.00800 11.98800 31.98600
Mg -12.00500 16.45300 41.30200
C  -8.81000 15.12100 40.93500
C  -11.04000 19.37300 39.81700
C  -15.25400 17.40300 41.34900
C  -13.11400 13.23600 42.44000
N  -10.17300 17.06800 40.29400
C  -8.93600 16.42100 40.30800
C  -7.83000 17.22200 39.62400
C  -8.54500 18.62100 39.26200
C  -10.03100 18.33000 39.78600
C  -7.93300 19.87000 39.84500
C  -7.04200 16.48300 38.48500
C  -6.03700 17.33600 37.69600
H  -6.06700 17.27100 36.15200
N  -13.04700 18.17900 40.70300
C  -12.45400 19.31100 40.23400
C  -13.42900 20.39600 40.25100
C  -14.58800 19.82500 40.82500
C  -14.34500 18.44000 41.05800
C  -13.13400 21.86500 39.87300
C  -15.83000 20.62300 41.24200
O  -15.98000 21.84500 40.96400
C  -16.94300 19.95600 42.03100
N  -13.91900 15.33400 41.75900
C  -15.10300 15.99000 41.62800
C  -16.33400 15.18700 42.03200
C  -15.59100 13.87200 42.56100
C  -14.10200 14.14000 42.26200
C  -17.32000 15.80000 43.03800
C  -16.10300 12.54600 41.81300
C  -16.04900 11.23000 42.63300
N  -11.19300 14.50600 41.57700
C  -11.68800 13.33600 42.16900
C  -10.65900 12.40000 42.34600
C  -9.55100 13.01600 41.83200
C  -9.88900 14.28100 41.34000
C  -10.76400 10.95500 42.86500
C  -8.14400 12.95900 41.63800
O  -7.38500 12.02600 41.86600
C  -7.63500 14.24600 41.03300
C  -6.65500 14.77400 41.99700
O  -6.89900 15.54700 42.91600
O  -5.37400 14.21300 41.76200
C  -4.43900 14.59600 42.81900
H  -10.76900 20.35700 39.42900
H  -16.32100 17.63300 41.36700
H  -13.46200 12.26200 42.79000
H  -7.07900 17.33600 40.40700
H  -8.55700 18.72600 38.17700
H  -8.56100 20.30200 40.62400
H  -7.83400 20.56600 39.01200
H  -6.97000 19.67200 40.31500
H  -7.72400 15.83100 37.94000
H  -6.42200 15.74400 38.99300
H  -5.08600 16.98600 38.09800
H  -6.15900 18.34800 38.08300
H  -13.66300 22.31100 39.03000
H  -12.08300 21.99300 39.61400
H  -13.32300 22.46700 40.76200
H  -17.56400 20.79200 42.35000
H  -16.51600 19.53600 42.94200
H  -17.45600 19.32300 41.30700
H  -16.80200 15.01000 41.06400
H  -15.68600 13.72100 43.63700
H  -17.87700 14.86600 43.11500
H  -17.81500 16.69800 42.66900
H  -16.70000 16.07100 43.89300
H  -15.54600 12.43600 40.88300
H  -17.13000 12.79200 41.54400
H  -17.09500 10.97700 42.80700
H  -15.54200 11.39600 43.58400
H  -15.63800 10.43200 42.01400
H  -11.71800 10.53800 42.54500
H  -10.68200 11.05500 43.94800
H  -9.96800 10.33700 42.45000
H  -7.11000 14.02500 40.10400
H  -4.14200 15.63400 42.66800
H  -3.52900 13.99900 42.75700
H  -4.73800 14.54300 43.86500

