158

Mg 1.87500 -1.17300 43.48700
C  5.32200 -0.51800 42.74600
C  1.09000 1.84000 41.79700
C  -1.36400 -1.88100 43.60800
C  2.74000 -4.22600 44.59200
N  3.09800 0.40600 42.37600
C  4.47200 0.54500 42.32700
C  4.84900 1.74500 41.44900
C  3.60000 2.64500 41.62200
C  2.44100 1.57400 41.88600
C  3.68400 3.64800 42.73000
C  5.22000 1.27700 39.94200
C  6.72100 1.60200 39.64900
H  7.41300 0.82900 38.53100
N  0.07800 -0.17100 42.86400
C  -0.03400 1.09300 42.21000
C  -1.40200 1.35900 41.93600
C  -2.15700 0.23400 42.28900
C  -1.17500 -0.69000 42.95300
C  -1.84700 2.62500 41.27900
C  -3.68300 0.14000 42.23700
O  -4.29200 0.90000 41.51200
C  -4.44700 -0.93400 42.92300
N  0.88000 -2.87600 43.70000
C  -0.47000 -2.89500 43.91000
C  -0.93200 -4.27100 44.37000
C  0.44300 -5.16300 44.37300
C  1.42900 -4.03600 44.21100
C  -1.77200 -4.28600 45.67000
C  0.68000 -6.25800 43.32500
C  0.67300 -7.66300 43.85200
N  3.64500 -2.18900 43.79200
C  3.83600 -3.45400 44.29700
C  5.22400 -3.67100 44.46200
C  5.77600 -2.53700 43.88900
C  4.83100 -1.68900 43.43300
C  5.91800 -4.83400 45.11300
C  7.12500 -1.90300 43.70100
O  8.23900 -2.28400 43.97200
C  6.85100 -0.63900 42.81600
C  7.61400 0.54500 43.30600
O  8.48900 1.11200 42.67300
O  7.19000 0.82400 44.60700
C  7.92500 2.01200 45.03700
H  0.82000 2.75200 41.26000
H  -2.41000 -2.18000 43.70100
H  3.04600 -5.22300 44.91600
H  5.72000 2.09600 42.00200
H  3.53700 3.23500 40.70700
H  3.56200 4.68400 42.41600
H  4.63500 3.64300 43.26200
H  2.91100 3.54300 43.49100
H  4.76500 1.86900 39.14800
H  5.01900 0.21500 39.80700
H  7.30300 1.52000 40.56700
H  6.63200 2.61000 39.24600
H  -2.28400 2.38200 40.31000
H  -1.10300 3.37200 41.00100
H  -2.68300 3.00900 41.86300
H  -5.53300 -0.85100 42.96500
H  -4.09200 -1.05200 43.94700
H  -4.27500 -1.75900 42.23200
H  -1.63100 -4.49400 43.56400
H  0.49500 -5.69000 45.32600
H  -2.45100 -3.43300 45.66600
H  -1.04200 -4.23900 46.47900
H  -2.34400 -5.20100 45.82100
H  1.69700 -6.10100 42.96800
H  -0.13500 -6.25300 42.60200
H  0.36300 -7.60900 44.89600
H  1.67800 -8.05000 43.68300
H  -0.08300 -8.30700 43.40300
H  5.32300 -5.45000 45.78700
H  6.84100 -4.61100 45.64700
H  6.26200 -5.50900 44.32900
H  7.25300 -0.91000 41.84000
H  8.92700 1.83700 45.42900
H  7.43900 2.33100 45.95900
H  7.96200 2.85800 44.35100
Mg 17.56600 -1.13600 27.80600
C  16.60700 0.96300 30.51700
C  19.29600 -3.05100 29.80900
C  18.84100 -2.60800 24.97100
C  15.87300 1.12300 25.62900
N  18.05000 -0.93100 30.04100
C  17.45600 -0.08800 30.94300
C  17.78700 -0.62900 32.38900
C  18.71400 -1.90100 32.10900
C  18.71200 -1.95600 30.55400
C  20.13600 -1.77600 32.78500
C  16.44700 -1.10000 33.02100
C  16.37100 -0.80000 34.57300
H  17.56300 -0.26200 35.42700
N  18.84100 -2.65400 27.40500
C  19.43900 -3.35600 28.42400
C  20.25400 -4.40600 27.94000
C  20.26700 -4.17600 26.48600
C  19.27700 -3.15900 26.24700
C  21.11800 -5.33100 28.77200
C  21.05000 -4.93200 25.43800
O  20.85900 -4.80100 24.22900
C  21.91800 -6.00900 25.88600
N  17.36800 -0.79400 25.58000
C  18.04800 -1.53900 24.64300
C  17.69400 -1.03300 23.20900
C  16.42000 -0.11200 23.48300
C  16.52600 0.07300 24.99500
C  18.85700 -0.28600 22.56800
C  15.05000 -0.67200 23.02200
C  13.96700 0.30100 22.70200
N  16.49400 0.64600 28.01700
C  15.87000 1.41100 27.04100
C  15.27300 2.51800 27.71100
C  15.42100 2.35000 29.02900
C  16.17300 1.18200 29.19200
C  14.44400 3.59800 27.10000
C  15.14400 2.95100 30.33500
O  14.53400 4.03000 30.62200
C  15.79400 1.94000 31.33000
C  16.62000 2.66600 32.35800
O  17.82700 2.80600 32.29400
O  15.68500 3.16200 33.26800
C  16.28900 3.78200 34.47600
H  19.84000 -3.60100 30.58000
H  19.08000 -3.19100 24.07900
H  15.40800 1.96100 25.10600
H  18.27800 0.12900 33.00000
H  18.27200 -2.82300 32.48600
H  20.22600 -1.00200 33.54700
H  20.83600 -1.55000 31.98100
H  20.45500 -2.75400 33.14500
H  16.28500 -2.17800 33.04700
H  15.58900 -0.64400 32.52900
H  15.99300 -1.67600 35.10000
H  15.67100 0.03500 34.55900
H  22.09800 -5.44200 28.30700
H  20.65500 -6.31200 28.88700
H  21.39400 -4.93000 29.74700
H  21.40100 -6.73000 26.51800
H  22.83100 -5.61700 26.33500
H  22.31500 -6.46400 24.97800
H  17.48800 -1.86200 22.53200
H  16.52300 0.83600 22.95400
H  18.76000 0.75100 22.89200
H  18.92400 -0.35200 21.48200
H  19.80400 -0.63100 22.98200
H  14.60000 -1.29900 23.79300
H  15.26000 -1.29200 22.15100
H  13.67300 0.24900 21.65300
H  14.38800 1.30300 22.61700
H  13.09800 0.24200 23.35800
H  13.42500 3.23300 26.97100
H  14.86400 3.86800 26.13100
H  14.42700 4.54800 27.63400
H  14.91400 1.51000 31.80800
H  16.10500 3.19100 35.37300
H  15.85100 4.73900 34.75900
H  17.35800 3.98500 34.54500

