158

Mg -1.40400 17.27800 26.53600
C  -1.84900 15.33000 29.29600
C  -2.08200 20.07900 28.61800
C  -1.30600 19.37800 23.78200
C  -1.09700 14.59100 24.52000
N  -1.99900 17.71300 28.71900
C  -1.93200 16.70200 29.66000
C  -1.90800 17.24600 31.06700
C  -2.18800 18.72500 30.80500
C  -2.14300 18.84700 29.31800
C  -3.49200 19.32800 31.43500
C  -0.66100 16.82500 32.02100
C  -0.41200 17.65000 33.24000
H  -0.42300 16.93100 34.55800
N  -1.65900 19.42400 26.25200
C  -1.83600 20.35500 27.26800
C  -1.77200 21.68000 26.70600
C  -1.60400 21.53900 25.32100
C  -1.45500 20.08700 25.05700
C  -2.03500 23.01300 27.45100
C  -1.70100 22.58700 24.13000
O  -1.88500 22.28700 22.95600
C  -1.64300 24.02100 24.47700
N  -1.47000 17.01900 24.43400
C  -1.30100 18.00700 23.50900
C  -1.28900 17.37600 22.07200
C  -0.89500 15.89100 22.36400
C  -1.08000 15.80400 23.88400
C  -2.51300 17.61800 21.23600
C  0.60000 15.54300 22.05200
C  1.85100 16.26200 22.79500
N  -1.45000 15.38300 26.79900
C  -1.33900 14.34900 25.90000
C  -1.37800 13.08500 26.50100
C  -1.54800 13.43900 27.78100
C  -1.63200 14.82700 27.97700
C  -1.47000 11.82400 25.80500
C  -1.65200 12.83400 29.03100
O  -1.59800 11.62000 29.27500
C  -1.72500 14.02500 30.11900
C  -0.50200 13.83800 31.00000
O  0.66500 14.20300 30.82800
O  -0.91700 13.18400 32.13700
C  0.20100 12.96000 33.07100
H  -2.20600 20.91800 29.30400
H  -1.12300 20.02600 22.92200
H  -1.01900 13.65000 23.97200
H  -2.74000 16.78400 31.59700
H  -1.30700 19.22700 31.20400
H  -4.13600 19.70100 30.63800
H  -3.21800 20.04800 32.20600
H  -4.01800 18.56800 32.01300
H  0.24400 16.74700 31.41900
H  -0.93200 15.83200 32.38000
H  -1.15900 18.44300 33.25800
H  0.59500 18.05000 33.12200
H  -1.12100 23.60600 27.41300
H  -2.47200 22.91100 28.44400
H  -2.67700 23.69100 26.88800
H  -1.17800 24.49200 23.61100
H  -0.88700 24.21200 25.24000
H  -2.57200 24.48100 24.81300
H  -0.53000 17.90700 21.49700
H  -1.55100 15.09500 22.01200
H  -2.26500 17.93800 20.22400
H  -3.07600 18.44800 21.66300
H  -3.19200 16.76700 21.17900
H  0.74200 15.95300 21.05200
H  0.59600 14.45900 21.93400
H  2.53900 15.68200 23.41000
H  1.51900 17.02500 23.49900
H  2.41400 16.67600 21.95700
H  -0.99500 11.84100 24.82400
H  -2.48500 11.45200 25.65900
H  -0.98500 11.05600 26.40800
H  -2.68000 13.97000 30.64100
H  0.30400 13.72200 33.84400
H  1.17200 12.80500 32.60000
H  0.02200 12.04600 33.63700
Mg 30.00100 58.31400 40.66000
C  27.07700 56.64900 39.41200
C  31.94900 55.83000 39.63300
C  32.49100 60.40500 40.92000
C  27.79100 61.14800 41.16900
N  29.48100 56.54100 39.48100
C  28.31200 55.95500 39.16900
C  28.62600 54.52000 38.62700
C  30.06400 54.19200 39.30400
C  30.56500 55.70300 39.45100
C  30.03800 53.32000 40.64900
C  28.50200 54.54100 37.12600
C  27.32100 53.92300 36.42200
H  26.43700 54.81400 35.47500
N  32.02100 58.08000 40.49900
C  32.65600 56.94100 40.09100
C  34.08200 57.15800 40.03400
C  34.24500 58.55800 40.37600
C  32.91100 59.11000 40.58200
C  35.05700 56.15200 39.49900
C  35.59300 59.23200 40.41400
O  36.57900 58.59900 40.04800
C  35.78200 60.69900 40.73800
N  30.05500 60.47800 41.19700
C  31.26300 61.06400 41.20300
C  31.17600 62.54700 41.33300
C  29.65800 62.77800 41.59400
C  29.13400 61.38500 41.26900
C  32.11700 63.19600 42.42300
C  29.04900 63.93900 40.74700
C  28.71200 65.17200 41.60400
N  27.84000 58.81900 40.45400
C  27.16100 59.96300 40.76000
C  25.81600 59.79300 40.60400
C  25.74200 58.52200 40.01200
C  26.96500 57.90900 39.95500
C  24.74400 60.73300 40.88100
C  24.82500 57.54800 39.56800
O  23.61700 57.62600 39.48500
C  25.66000 56.27600 39.05600
C  25.05600 55.16900 39.87500
O  25.14600 55.01100 41.09200
O  24.44400 54.32100 38.98800
C  23.51000 53.30900 39.60600
H  32.57700 55.00400 39.29100
H  33.37000 61.03000 40.74900
H  27.31100 62.12600 41.25500
H  27.94000 53.72200 38.91100
H  30.67000 53.65200 38.57600
H  30.24100 54.06300 41.42100
H  30.82100 52.56500 40.57700
H  29.03300 52.92500 40.79800
H  29.31100 53.89100 36.79500
H  28.74900 55.51500 36.70200
H  26.64700 53.61600 37.22200
H  27.55200 52.97000 35.94700
H  35.57700 56.31700 38.55500
H  34.65400 55.14000 39.55100
H  35.89800 55.91800 40.15300
H  35.35400 60.82900 41.73200
H  35.37700 61.38800 39.99700
H  36.85700 60.88200 40.73500
H  31.39700 63.00700 40.37000
H  29.42900 62.97000 42.64200
H  32.88400 62.46100 42.66600
H  31.50400 63.28500 43.32000
H  32.60100 64.13300 42.15200
H  28.17100 63.68700 40.15200
H  29.74500 64.31700 39.99900
H  29.54500 65.87200 41.54400
H  28.79100 64.80800 42.62900
H  27.75700 65.62000 41.33100
H  23.85100 60.13800 41.07200
H  24.57800 61.29700 39.96300
H  24.99800 61.39000 41.71300
H  25.58500 56.09000 37.98500
H  23.70700 53.01800 40.63800
H  23.59200 52.43700 38.95700
H  22.49000 53.66900 39.47400

