158

Mg 25.61600 1.58800 29.57100
C  27.40800 1.46500 32.56800
C  22.69800 1.67000 31.52200
C  23.89700 1.76900 26.88300
C  28.55200 0.94300 27.87500
N  25.08900 1.45500 31.79400
C  26.03000 1.64400 32.79100
C  25.33000 1.73500 34.17600
C  23.80900 1.44200 33.84100
C  23.83800 1.49100 32.32100
C  23.05900 0.12700 34.28900
C  25.62600 3.09500 34.93100
C  26.11000 2.91300 36.41000
H  25.86200 3.97300 37.43200
N  23.59200 1.72300 29.24400
C  22.59500 1.81500 30.13900
C  21.34300 1.96200 29.41600
C  21.69700 1.89600 28.05700
C  23.11200 1.85100 28.00400
C  19.96800 2.12100 30.00500
C  20.77700 1.81800 26.87600
O  21.18000 1.79100 25.70800
C  19.25800 1.68700 27.02700
N  26.20700 1.45100 27.65700
C  25.27400 1.71600 26.66800
C  25.91800 1.73800 25.25400
C  27.49400 1.64700 25.62000
C  27.42700 1.34200 27.14900
C  25.47100 0.49800 24.40100
C  28.29200 2.88600 25.25000
C  27.96800 4.21000 25.96800
N  27.56500 1.17100 30.05900
C  28.66700 0.82300 29.28800
C  29.82000 0.46500 30.10200
C  29.39700 0.81900 31.38000
C  28.01700 1.19700 31.31900
C  31.09300 -0.07900 29.56200
C  29.77500 0.93100 32.79100
O  30.84400 0.66500 33.30300
C  28.51900 1.43800 33.56700
C  28.39600 0.48800 34.65700
O  27.92700 -0.64000 34.59500
O  29.11100 0.98900 35.72800
C  28.93000 0.13100 36.90900
H  21.72600 1.84500 31.98700
H  23.51300 1.88000 25.86700
H  29.45600 0.71600 27.30400
H  25.55900 0.84800 34.76800
H  23.24500 2.30700 34.19100
H  22.05400 0.38200 34.62500
H  23.57000 -0.26100 35.17000
H  22.99300 -0.68100 33.56100
H  24.81400 3.82000 34.98200
H  26.44100 3.55300 34.37000
H  27.11000 2.50000 36.28500
H  25.62400 2.04400 36.85400
H  19.25500 2.81900 29.56600
H  20.08300 2.38500 31.05700
H  19.51200 1.13200 30.03600
H  18.80400 1.40600 26.07600
H  18.96000 2.69300 27.32300
H  19.00500 1.01100 27.84400
H  25.69500 2.64700 24.69500
H  27.88300 0.77300 25.09800
H  24.38500 0.43300 24.33200
H  25.64900 -0.35300 25.05900
H  25.94100 0.49200 23.41800
H  28.03800 3.08800 24.20900
H  29.35500 2.69600 25.40100
H  27.37800 4.88600 25.34900
H  28.74700 4.84500 26.39100
H  27.28800 3.94700 26.77800
H  31.73500 0.60800 29.01100
H  30.84700 -1.01900 29.06800
H  31.48600 -0.37200 30.53600
H  28.71200 2.47300 33.85000
H  29.05300 -0.93700 36.73100
H  28.06100 0.44200 37.48800
H  29.75000 0.37100 37.58600
Mg -2.28200 34.36000 27.61300
C  -3.88900 32.54800 30.11900
C  -0.80200 36.27100 30.12300
C  -0.84800 36.26700 25.15300
C  -4.17300 32.60200 25.19500
N  -2.38000 34.37800 29.82200
C  -3.16800 33.63700 30.65000
C  -2.91700 33.91600 32.22900
C  -2.04900 35.21900 32.10400
C  -1.61800 35.27500 30.60700
C  -2.58700 36.63800 32.50100
C  -2.34500 32.67700 33.00000
C  -3.08800 32.14600 34.27600
H  -2.33200 32.14700 35.63500
N  -1.04600 36.07000 27.66700
C  -0.51600 36.66700 28.75900
C  0.38700 37.69800 28.34100
C  0.48500 37.67400 26.89500
C  -0.52200 36.66400 26.49900
C  1.15500 38.54800 29.29400
C  1.34900 38.54900 25.98900
O  1.34700 38.40600 24.75700
C  2.00400 39.74800 26.47600
N  -2.51800 34.48800 25.46900
C  -1.75700 35.28700 24.71000
C  -2.15000 35.12600 23.25400
C  -2.93000 33.78600 23.25800
C  -3.23100 33.60800 24.73700
C  -3.00700 36.36000 22.81600
C  -2.05600 32.68600 22.77500
C  -2.22400 32.27800 21.31600
N  -3.62000 32.84000 27.57500
C  -4.36800 32.26000 26.51200
C  -5.24400 31.26600 27.03500
C  -5.08100 31.31700 28.45300
C  -4.08900 32.29200 28.75100
C  -6.14000 30.39000 26.18700
C  -5.60500 30.79600 29.71800
O  -6.36600 29.89500 29.98500
C  -4.82000 31.58600 30.83800
C  -5.87400 32.19000 31.73500
O  -6.76600 32.95400 31.36800
O  -5.67100 31.73000 33.02800
C  -6.82600 31.76400 33.90900
H  -0.38900 36.90200 30.91200
H  -0.45100 36.83800 24.31000
H  -4.81200 32.21700 24.39700
H  -3.89700 34.23100 32.58600
H  -1.25900 35.08400 32.84300
H  -1.79400 37.14200 33.05400
H  -3.46000 36.61900 33.15300
H  -2.79000 37.12000 31.54400
H  -1.36600 32.91000 33.41800
H  -2.20200 31.79800 32.37100
H  -3.31000 31.10500 34.04400
H  -3.99300 32.73400 34.43200
H  0.53400 38.75800 30.16500
H  1.56700 39.50000 28.95800
H  1.97700 37.94600 29.68000
H  1.35400 40.38200 27.07900
H  2.38200 40.31200 25.62400
H  2.81100 39.34300 27.08700
H  -1.29700 35.11300 22.57600
H  -3.93100 33.87600 22.83700
H  -2.59100 36.93600 21.99000
H  -3.06500 37.01700 23.68500
H  -3.98800 35.99200 22.51500
H  -2.09200 31.87600 23.50400
H  -1.00400 32.96900 22.81800
H  -1.26700 32.56200 20.87900
H  -3.07800 32.81800 20.90700
H  -2.47500 31.22500 21.19000
H  -5.42400 29.75100 25.67100
H  -6.56700 30.94600 25.35200
H  -6.80600 29.86100 26.86900
H  -4.24200 30.78800 31.30400
H  -7.07800 30.85300 34.45200
H  -7.66900 31.98700 33.25500
H  -6.74300 32.60600 34.59600

