158

Mg -2.63300 17.11800 26.28500
C  -3.25900 14.89700 28.72600
C  -3.30600 19.78100 28.46300
C  -2.12100 19.38700 23.79800
C  -2.15600 14.52400 23.95400
N  -3.08800 17.34800 28.41300
C  -3.25300 16.22400 29.16600
C  -3.66100 16.71100 30.58700
C  -4.13600 18.20600 30.32700
C  -3.40700 18.47300 29.04900
C  -5.58700 18.39200 30.25200
C  -2.47900 16.53600 31.53700
C  -2.70200 16.00800 32.97900
H  -1.53300 15.63500 33.80900
N  -2.57900 19.34700 26.20600
C  -2.83800 20.18400 27.21600
C  -2.63500 21.53200 26.70700
C  -2.36200 21.46200 25.32100
C  -2.37700 20.02800 25.03100
C  -2.83900 22.85300 27.62900
C  -2.09700 22.56500 24.32800
O  -1.95100 22.43800 23.11300
C  -2.04900 23.98100 24.83200
N  -2.25600 16.97100 24.12900
C  -2.09200 18.06200 23.39100
C  -1.78800 17.71200 21.97700
C  -1.57000 16.14400 21.96700
C  -2.10300 15.81300 23.41000
C  -2.71600 18.23100 20.87200
C  -0.08700 15.83600 21.78500
C  0.83700 16.25300 22.96600
N  -2.81800 15.11700 26.27400
C  -2.53600 14.18700 25.32300
C  -2.75600 12.84600 25.84200
C  -3.11000 13.10700 27.20900
C  -3.08100 14.47700 27.37400
C  -2.49400 11.55000 25.08900
C  -3.54600 12.40500 28.41600
O  -3.69500 11.21200 28.60900
C  -3.43900 13.58200 29.52600
C  -2.15900 13.19300 30.23200
O  -1.11800 13.83100 30.23700
O  -2.40400 12.13600 31.04600
C  -1.59300 12.07600 32.24100
H  -3.40400 20.54300 29.23900
H  -1.89600 20.06900 22.97500
H  -2.09700 13.64200 23.31300
H  -4.53000 16.20000 31.00100
H  -3.72200 18.87200 31.08400
H  -6.10800 17.53700 30.68300
H  -5.82600 18.46700 29.19100
H  -5.87100 19.32000 30.74900
H  -2.14000 17.55600 31.71700
H  -1.69600 15.92800 31.08300
H  -3.26600 15.07800 32.90100
H  -3.40000 16.63700 33.53000
H  -3.23800 22.64100 28.62100
H  -3.65900 23.48700 27.29000
H  -1.94000 23.47000 27.63700
H  -1.24400 24.08500 25.56100
H  -2.96200 24.25200 25.36100
H  -1.89700 24.66600 23.99800
H  -0.82200 18.18500 21.79700
H  -2.18100 15.58200 21.26200
H  -2.09100 18.63200 20.07500
H  -3.27300 19.04300 21.34000
H  -3.40500 17.48800 20.47100
H  0.22700 16.29400 20.84700
H  -0.00800 14.76200 21.61600
H  1.45500 15.51800 23.48100
H  0.36500 16.87400 23.72700
H  1.56600 16.93200 22.52400
H  -3.31400 11.19400 24.46500
H  -2.28700 10.85300 25.90000
H  -1.60000 11.61700 24.47000
H  -4.27000 13.66100 30.22600
H  -0.93800 12.92000 32.45700
H  -1.02600 11.14900 32.32400
H  -2.37700 12.05300 32.99800
Mg 54.48100 23.68600 44.27600
C  51.65800 25.68500 43.40100
C  52.75700 21.03700 42.78400
C  57.23100 21.87300 44.43100
C  55.97300 26.52000 45.48800
N  52.48800 23.47900 43.01100
C  51.56100 24.40900 42.82200
C  50.33600 23.84100 42.11900
C  50.47000 22.31900 42.42800
C  51.99300 22.25900 42.75900
C  49.61000 21.74200 43.65000
C  50.29800 24.04600 40.53700
C  48.82300 23.95300 39.96500
H  48.52200 23.31500 38.66700
N  54.92100 21.74600 43.75100
C  54.02100 20.77000 43.21400
C  54.75000 19.52700 43.08300
C  56.09200 19.77800 43.42000
C  56.13400 21.21300 43.84000
C  54.12300 18.21500 42.67400
C  57.30200 18.77200 43.24200
O  57.03800 17.58700 42.99900
C  58.74800 19.10100 43.55500
N  56.42100 24.07100 44.82300
C  57.40100 23.18900 44.95700
C  58.73200 23.87600 45.35300
C  58.37400 25.46000 45.34200
C  56.80800 25.38800 45.26100
C  59.09100 23.39800 46.76900
C  58.96500 26.18000 44.07700
C  58.06000 26.40300 42.81600
N  53.92400 25.73000 44.55800
C  54.58500 26.72100 45.14700
C  53.70500 27.86000 45.33900
C  52.49100 27.45800 44.70000
C  52.67800 26.19800 44.24700
C  54.07000 29.19400 45.98000
C  51.13800 27.92200 44.33900
O  50.43000 28.90500 44.62900
C  50.54900 26.68100 43.44300
C  50.04700 27.24100 42.15500
O  50.56300 27.88700 41.30000
O  48.68800 27.15300 42.13000
C  47.92700 28.06800 41.22400
H  52.10200 20.17800 42.61900
H  58.20400 21.37700 44.44300
H  56.39900 27.38000 46.00700
H  49.46200 24.29000 42.58900
H  50.27100 21.64400 41.59500
H  49.01000 20.86400 43.40800
H  49.12500 22.56800 44.17100
H  50.44700 21.28100 44.17400
H  50.87500 23.30000 39.99000
H  50.68600 25.04900 40.35900
H  48.52500 25.00100 39.92200
H  48.21300 23.42900 40.70200
H  54.49000 17.97300 41.67600
H  53.05500 18.37200 42.52900
H  54.39200 17.38400 43.32600
H  59.13500 19.91800 42.94600
H  59.30200 18.18700 43.33700
H  58.82800 19.37800 44.60600
H  59.39100 23.60500 44.52900
H  58.73300 25.96300 46.24000
H  58.97000 22.31900 46.86700
H  58.27500 23.76200 47.39300
H  60.10900 23.62800 47.08100
H  59.84200 25.65100 43.70300
H  59.39500 27.12700 44.40300
H  57.78500 27.45800 42.81800
H  57.10800 25.87200 42.84000
H  58.47900 26.05500 41.87200
H  54.57900 29.07500 46.93600
H  53.12000 29.72900 46.00100
H  54.72400 29.58400 45.20000
H  49.65800 26.30000 43.94200
H  48.37500 29.04100 41.42300
H  46.91000 28.14400 41.61000
H  47.84800 27.76500 40.18000

