158

Mg 25.76500 0.21800 29.57100
C  27.50300 0.09300 32.60000
C  22.86200 0.60500 31.38300
C  24.06400 0.37200 26.61600
C  28.54500 -0.85700 27.79100
N  25.26400 0.26800 31.76500
C  26.14700 0.27300 32.83100
C  25.46300 0.42600 34.15800
C  23.95100 0.47000 33.64900
C  23.99600 0.39800 32.19900
C  22.86300 -0.49300 34.32000
C  25.99700 1.70500 34.98100
C  25.11300 2.20200 36.11700
H  25.54500 1.80700 37.53000
N  23.76600 0.44800 29.12000
C  22.71900 0.63900 29.98600
C  21.48200 0.84000 29.27100
C  21.82900 0.74500 27.86500
C  23.26800 0.52800 27.83900
C  20.17300 1.08100 30.03800
C  20.95500 0.82700 26.61600
O  21.45100 0.86500 25.48100
C  19.46000 0.81300 26.74700
N  26.27100 -0.09200 27.41300
C  25.35700 0.04600 26.45700
C  25.92100 -0.33800 25.01900
C  27.41600 -0.73600 25.41200
C  27.46600 -0.54200 26.94300
C  25.16000 -1.45500 24.28800
C  28.48500 0.19100 24.68800
C  28.24800 0.36000 23.17100
N  27.61500 -0.26700 29.96900
C  28.66300 -0.67300 29.18600
C  29.83800 -0.67000 29.93900
C  29.45200 -0.41400 31.26500
C  28.09300 -0.17500 31.30400
C  31.19500 -0.99100 29.41400
C  29.89800 -0.33500 32.58500
O  31.03100 -0.49900 33.04300
C  28.68200 -0.08500 33.44200
C  28.52800 -1.19300 34.37300
O  28.09200 -2.29400 34.13400
O  29.01700 -0.85500 35.59200
C  28.76200 -1.79900 36.73000
H  21.95200 0.71800 31.97500
H  23.64100 0.45200 25.61200
H  29.47600 -1.12100 27.28500
H  25.69500 -0.46300 34.74400
H  23.52500 1.45700 33.83000
H  23.23200 -0.97100 35.22800
H  22.64300 -1.29000 33.61000
H  22.03000 0.17800 34.52900
H  26.04000 2.55800 34.30500
H  26.97400 1.43100 35.37900
H  24.08900 1.84100 36.02400
H  25.08300 3.28000 35.96000
H  19.75600 2.00000 29.62400
H  20.23300 1.26200 31.11100
H  19.48900 0.25700 29.83500
H  19.15600 0.01300 27.42300
H  18.89100 0.90800 25.82300
H  19.06500 1.60300 27.38500
H  25.80100 0.50800 24.34300
H  27.66300 -1.77300 25.18300
H  25.59100 -2.45400 24.35200
H  25.05600 -1.22800 23.22700
H  24.11600 -1.50200 24.59600
H  29.40500 -0.36100 24.87900
H  28.64100 1.09900 25.26900
H  28.97500 -0.03700 22.46200
H  28.01000 1.39800 22.94000
H  27.30100 -0.13500 22.95500
H  31.87100 -1.12100 30.25900
H  31.59000 -0.16700 28.81900
H  31.12300 -2.01500 29.04800
H  29.01600 0.83900 33.91600
H  29.67000 -2.21500 37.16600
H  28.01800 -2.55600 36.48300
H  28.31200 -1.29100 37.58400
Mg 0.55700 43.44100 26.47200
C  2.94100 43.31800 29.06800
C  -1.91500 42.68000 28.70600
C  -1.47100 43.04600 23.85300
C  3.37800 43.89400 24.21500
N  0.58800 43.14500 28.61100
C  1.66600 43.14500 29.49100
C  1.09900 43.35200 30.92700
C  -0.34700 42.73600 30.83100
C  -0.64500 42.82400 29.28900
C  -0.40700 41.28000 31.30900
C  1.08900 44.82600 31.45300
C  1.08900 44.95900 32.99200
H  0.73300 43.75100 33.81300
N  -1.49200 43.02700 26.33900
C  -2.37800 42.81700 27.36000
C  -3.68500 42.69800 26.87000
C  -3.59900 42.64700 25.42200
C  -2.16000 42.97800 25.10100
C  -4.94100 42.49600 27.77400
C  -4.68500 42.49300 24.35000
O  -4.37600 42.63000 23.16600
C  -6.13000 42.26000 24.69200
N  0.85000 43.68700 24.33100
C  -0.17000 43.34600 23.47800
C  0.33000 43.31400 22.03700
C  1.77300 43.80700 22.15100
C  2.05100 43.76500 23.66800
C  0.15800 41.92800 21.26400
C  2.10600 45.12900 21.39000
C  2.08800 46.44700 22.19600
N  2.73000 43.56400 26.51000
C  3.74900 43.78000 25.54000
C  5.01700 43.67800 26.15500
C  4.76000 43.52400 27.52500
C  3.37300 43.42200 27.68200
C  6.33100 43.82700 25.30900
C  5.41600 43.33700 28.85000
O  6.54800 43.15000 29.11400
C  4.22800 43.39300 29.90800
C  4.25900 42.36900 30.96300
O  4.31500 41.13500 30.76000
O  4.37800 42.92900 32.23600
C  4.55500 42.08300 33.38700
H  -2.74600 42.42100 29.36500
H  -2.00000 42.56300 23.02800
H  4.15600 43.93500 23.45000
H  1.74700 42.70000 31.51300
H  -1.09300 43.33800 31.35000
H  0.43700 41.04500 31.95700
H  -0.47200 40.62300 30.44100
H  -1.31300 41.10800 31.88900
H  0.18300 45.24000 31.01100
H  1.86900 45.49000 31.08100
H  0.31000 45.70500 33.15300
H  2.06100 45.32600 33.32000
H  -4.95100 41.48800 28.19000
H  -5.82400 42.71700 27.17500
H  -4.82000 43.24300 28.55900
H  -6.06900 41.41900 25.38400
H  -6.64500 42.05100 23.75500
H  -6.50300 43.15200 25.19600
H  -0.20300 44.11400 21.52300
H  2.46200 43.05400 21.77000
H  1.11100 41.40400 21.18900
H  -0.18700 42.15700 20.25600
H  -0.52200 41.23800 21.76300
H  1.35400 45.26200 20.61200
H  3.09500 44.96900 20.95900
H  3.06600 46.91500 22.31000
H  1.48600 46.37000 23.10100
H  1.65300 47.15000 21.48600
H  6.48200 44.90200 25.41100
H  6.21000 43.47800 24.28400
H  7.20300 43.43300 25.83100
H  4.21700 44.37900 30.37400
H  4.40200 42.63000 34.31700
H  5.52400 41.59100 33.30300
H  3.82900 41.27000 33.42600

