158

Mg 46.48900 4.47400 48.27300
C  44.16100 6.71700 47.44100
C  44.26500 1.94000 47.29400
C  48.90700 2.06200 48.49700
C  48.99400 6.86200 48.25400
N  44.49000 4.36800 47.25400
C  43.63600 5.45800 47.17000
C  42.26200 5.08000 46.62700
C  42.23100 3.49000 46.77100
C  43.76700 3.20900 47.07900
C  41.20400 2.96800 47.80600
C  41.83200 5.66800 45.18600
C  40.77700 6.83500 45.09200
H  39.89000 6.64100 43.91600
N  46.53800 2.34700 48.10300
C  45.51300 1.51200 47.68700
C  45.90700 0.14600 47.69100
C  47.24900 0.09000 48.01700
C  47.64800 1.57900 48.19300
C  44.90000 -1.00200 47.35000
C  48.08200 -1.18900 48.24500
O  47.54200 -2.28700 48.25800
C  49.56300 -1.20800 48.45500
N  48.70600 4.51100 48.33100
C  49.43900 3.37900 48.59700
C  50.95700 3.70700 48.76300
C  50.82500 5.26200 48.92000
C  49.38900 5.56000 48.45200
C  51.70000 2.94100 49.88500
C  51.87400 5.96800 47.96600
C  53.32300 5.43400 47.77800
N  46.59000 6.40100 48.01700
C  47.65700 7.28500 48.00600
C  47.13300 8.62200 47.85600
C  45.77600 8.48800 47.69800
C  45.50600 7.06600 47.70000
C  48.07500 9.82800 47.83100
C  44.54800 9.11500 47.52000
O  44.34400 10.30400 47.45300
C  43.41800 8.00500 47.43400
C  42.50100 8.07800 48.69600
O  42.57500 7.34700 49.61200
O  41.48100 9.00700 48.46000
C  40.33800 8.53300 49.19600
H  43.49900 1.24200 46.95000
H  49.60500 1.22900 48.60500
H  49.72300 7.63300 48.51200
H  41.63000 5.50800 47.40600
H  42.05900 3.09200 45.77100
H  40.52100 2.35500 47.21900
H  40.65800 3.86500 48.09900
H  41.71900 2.55800 48.67500
H  41.52500 4.85500 44.52700
H  42.80400 6.00100 44.82300
H  41.42800 7.69400 44.93100
H  40.25600 6.89300 46.04800
H  44.82100 -1.69500 48.18700
H  45.36900 -1.57100 46.54700
H  43.93100 -0.84300 46.87700
H  49.78900 -0.70900 49.39700
H  50.04500 -0.81000 47.56200
H  49.99200 -2.19600 48.62400
H  51.33600 3.60500 47.74600
H  51.02900 5.60600 49.93400
H  52.24500 2.12400 49.41100
H  51.04700 2.62800 50.70000
H  52.49600 3.53700 50.33100
H  51.89600 7.02600 48.22700
H  51.49400 5.99200 46.94500
H  53.99700 6.28000 47.91500
H  53.41800 4.92400 46.81900
H  53.62200 4.79100 48.60700
H  48.29900 10.03800 48.87700
H  47.59700 10.73600 47.46300
H  48.86600 9.49000 47.16200
H  42.78600 8.22200 46.57200
H  39.77400 7.78700 48.63700
H  39.59400 9.32900 49.19300
H  40.44000 8.25800 50.24600
Mg 50.15300 44.53300 41.72600
C  46.82700 45.14300 40.46300
C  49.91600 41.46700 40.48200
C  53.46500 44.29500 42.23000
C  50.34000 47.98500 42.38500
N  48.50800 43.49100 40.76700
C  47.31400 43.83900 40.27000
C  46.57600 42.84600 39.42800
C  47.44500 41.60100 39.72700
C  48.70300 42.22100 40.35200
C  46.94800 40.43200 40.50700
C  46.40500 43.41400 37.92700
C  45.01100 43.19700 37.28000
H  44.67000 44.05300 36.06600
N  51.52300 43.08300 41.35200
C  51.22400 41.83100 40.91200
C  52.35600 40.97200 40.96200
C  53.39000 41.71900 41.56800
C  52.91600 43.09200 41.77900
C  52.22800 39.55900 40.62900
C  54.75500 41.23200 41.96100
O  55.13200 40.06700 41.74200
C  55.73200 42.10400 42.82000
N  51.61800 45.95800 42.17200
C  52.92500 45.59800 42.45700
C  53.79300 46.80000 42.99900
C  52.80000 48.00800 42.89500
C  51.50000 47.29700 42.43000
C  54.40500 46.48700 44.38600
C  53.24900 49.11600 41.86400
C  52.97200 50.53000 42.21600
N  48.79700 46.20500 41.66800
C  49.04100 47.53000 41.96200
C  47.87500 48.32700 41.80100
C  46.91100 47.42400 41.16400
C  47.54000 46.13500 41.13800
C  47.71500 49.75000 41.94300
C  45.59300 47.30100 40.62700
O  44.67500 48.13300 40.51500
C  45.50600 45.80200 40.17000
C  44.22200 45.22300 40.82000
O  43.30900 44.69900 40.16300
O  44.17900 45.56000 42.11000
C  42.87500 45.35100 42.69000
H  49.86200 40.47300 40.03200
H  54.53200 44.34100 42.45900
H  50.42600 49.05800 42.56400
H  45.60700 42.75000 39.91700
H  47.78500 41.21900 38.76500
H  47.15800 39.44600 40.09500
H  45.86000 40.43600 40.56000
H  47.39500 40.50700 41.49900
H  47.09600 42.76700 37.38700
H  46.81800 44.41200 37.77800
H  44.28300 43.43700 38.05600
H  44.92600 42.17600 36.90800
H  51.69200 39.33700 39.70600
H  51.60800 39.04300 41.36300
H  53.18200 39.04700 40.50400
H  55.28200 42.83600 43.49100
H  56.34000 42.80700 42.25000
H  56.46400 41.44900 43.29200
H  54.62200 46.79300 42.29200
H  52.81700 48.49300 43.87100
H  55.49500 46.45800 44.37700
H  54.16600 45.50200 44.78600
H  53.94400 47.13700 45.13000
H  52.85000 48.78300 40.90600
H  54.33700 49.14300 41.91000
H  52.37300 50.54300 43.12700
H  52.44700 51.07300 41.43000
H  53.86200 51.07800 42.52400
H  48.27900 50.32100 41.20600
H  48.02400 50.08000 42.93500
H  46.68100 50.06900 41.81200
H  45.27500 45.69000 39.11000
H  42.50400 44.33000 42.59200
H  42.11800 46.00100 42.25100
H  42.92000 45.76300 43.69800

