158

Mg 44.45800 4.02700 46.45800
C  42.46400 6.83800 46.50300
C  41.52400 2.01200 46.45100
C  46.36100 1.36100 45.98900
C  47.23500 6.13300 46.05400
N  42.27400 4.38000 46.23200
C  41.77100 5.66200 46.22300
C  40.19800 5.53400 46.21200
C  39.92200 4.00200 46.49700
C  41.28900 3.39400 46.31600
C  39.17900 3.68000 47.90400
C  39.45000 6.03800 44.86200
C  39.85400 5.43400 43.47800
H  39.84400 6.33100 42.26100
N  44.03600 1.92100 46.10100
C  42.75600 1.35000 46.21100
C  42.97100 -0.11000 46.21900
C  44.37700 -0.30100 45.89700
C  44.98900 1.03500 46.02400
C  41.95700 -1.15900 46.52700
C  45.05000 -1.60100 45.56000
O  44.29600 -2.60400 45.62300
C  46.51400 -1.78100 45.34500
N  46.46000 3.81300 45.83300
C  47.02400 2.58100 45.86500
C  48.55800 2.71100 45.86200
C  48.83300 4.29000 45.87000
C  47.43000 4.82100 45.87000
C  49.28800 1.91000 47.03200
C  49.64800 4.83800 44.62200
C  50.89300 3.99800 44.35800
N  44.83700 6.05900 46.35000
C  46.01800 6.79500 46.19900
C  45.68400 8.23200 46.39200
C  44.28700 8.26200 46.49400
C  43.82300 6.93600 46.44000
C  46.74900 9.34000 46.37500
C  43.12800 9.15000 46.59200
O  43.13200 10.36100 46.53100
C  41.87500 8.24700 46.61000
C  41.18500 8.48600 47.87800
O  41.41800 7.88900 48.93000
O  40.42700 9.57900 47.79800
C  39.72600 10.16200 48.97300
H  40.72600 1.29000 46.63700
H  47.07900 0.53900 45.97100
H  48.08200 6.82200 46.08600
H  39.77000 6.16300 46.99200
H  39.30900 3.58000 45.70100
H  39.00300 4.65800 48.35300
H  39.85700 2.95600 48.35600
H  38.22600 3.16200 47.79300
H  39.50900 7.11400 44.70000
H  38.41000 5.78900 45.06900
H  39.09100 4.68000 43.28600
H  40.84300 4.97600 43.46800
H  41.45500 -1.46700 45.61000
H  41.25000 -0.72500 47.23300
H  42.44000 -2.05800 46.91100
H  47.17900 -1.52700 46.17000
H  46.68500 -1.03500 44.56900
H  46.70900 -2.79500 44.99700
H  48.90800 2.25000 44.93800
H  49.29900 4.61500 46.80000
H  48.52200 1.59000 47.73900
H  49.90500 2.56900 47.64200
H  49.83700 1.05900 46.62900
H  49.86300 5.87800 44.86500
H  49.00700 4.89400 43.74200
H  51.04200 3.25500 45.14100
H  51.75200 4.66200 44.45000
H  51.00700 3.62900 43.33900
H  47.66600 9.04500 46.88500
H  46.31900 10.15900 46.95100
H  47.08500 9.58900 45.36800
H  41.20500 8.47600 45.78200
H  38.67600 10.10800 48.68600
H  40.02400 11.19300 49.16400
H  39.85300 9.59700 49.89600
Mg 41.06600 8.31400 29.93200
C  43.06200 9.24500 32.66100
C  38.65000 7.19700 31.99400
C  39.53400 7.02600 27.23200
C  43.72600 9.21200 27.89300
N  41.00100 8.05900 32.02400
C  41.84900 8.64400 33.00200
C  41.24300 8.48900 34.44400
C  39.86600 7.64300 34.20100
C  39.83800 7.52700 32.66300
C  39.54200 6.40700 35.01900
C  40.98300 9.97300 35.06800
C  40.24700 9.94800 36.39100
H  40.81200 10.73600 37.49500
N  39.34200 7.25600 29.63000
C  38.48500 7.00400 30.61100
C  37.37900 6.15200 30.08200
C  37.49300 6.07800 28.67100
C  38.80200 6.88500 28.39700
C  36.28500 5.49300 30.95600
C  36.64200 5.42100 27.59900
O  36.76200 5.62000 26.38200
C  35.49700 4.64700 28.02700
N  41.51000 8.18000 27.80100
C  40.70500 7.61200 26.91300
C  41.26000 7.64800 25.45800
C  42.57600 8.54800 25.72200
C  42.59100 8.69500 27.22900
C  41.63600 6.29900 24.85700
C  42.67200 9.88400 25.04100
C  41.80700 11.06900 25.55400
N  43.03900 9.12200 30.18900
C  44.00500 9.48300 29.28400
C  45.22800 9.92800 29.94800
C  44.83800 10.01300 31.28900
C  43.55200 9.42900 31.37300
C  46.45400 10.35400 29.23500
C  45.28100 10.46000 32.59600
O  46.28800 11.04000 32.98100
C  44.19100 9.87100 33.56800
C  44.91400 8.89200 34.40700
O  45.00000 7.71800 34.18400
O  45.50100 9.53000 35.45600
C  46.35800 8.80100 36.36700
H  37.84100 6.92800 32.67600
H  39.00600 6.56400 26.39600
H  44.59900 9.46300 27.28800
H  42.01700 7.98200 35.02000
H  39.06700 8.36000 34.39000
H  38.51600 6.13200 35.26100
H  40.13400 6.35900 35.93400
H  39.93600 5.52900 34.50700
H  40.34700 10.52400 34.37500
H  41.95300 10.39200 35.33500
H  40.22700 8.89500 36.67100
H  39.25500 10.36600 36.22100
H  35.30200 5.74800 30.56000
H  36.31900 5.66300 32.03200
H  36.24900 4.40700 30.87200
H  34.79700 5.34900 28.48000
H  35.83300 3.84100 28.67900
H  35.09100 4.36200 27.05700
H  40.57000 8.14100 24.77300
H  43.42800 7.94100 25.41500
H  42.63000 6.41800 24.42700
H  40.93100 6.01600 24.07600
H  41.62700 5.69000 25.76100
H  42.44400 9.57300 24.02200
H  43.73400 10.12400 25.07900
H  42.40800 11.93300 25.83800
H  41.07200 10.81000 26.31600
H  41.17600 11.37900 24.72100
H  46.80000 9.66400 28.46500
H  47.18700 10.20500 30.02800
H  46.47900 11.32400 28.73800
H  43.79200 10.56900 34.30400
H  46.64800 7.84000 35.94300
H  45.84500 8.67800 37.32100
H  47.27800 9.38100 36.43800

