158

Mg 5.73200 52.75700 41.88700
C  5.23900 49.30100 41.23100
C  9.05700 52.28400 40.73400
C  6.27400 56.09600 42.04400
C  2.40800 53.08200 42.64700
N  6.91000 51.02300 40.89000
C  6.52700 49.71300 40.84400
C  7.68200 48.85500 40.27400
C  8.92300 49.73600 40.75300
C  8.30100 51.14300 40.79400
C  9.50000 49.28900 42.16900
C  7.61600 48.44500 38.79000
C  6.45400 49.07500 37.98400
H  5.76900 48.26100 36.84800
N  7.41400 54.02200 41.61900
C  8.62400 53.65700 41.03800
C  9.45600 54.83000 40.79700
C  8.71500 55.96200 41.16900
C  7.37800 55.41500 41.65500
C  10.80800 54.76800 40.07700
C  9.24200 57.38400 41.05100
O  10.39800 57.64300 40.65900
C  8.36200 58.51700 41.48200
N  4.45400 54.32600 42.22400
C  4.97300 55.62400 42.37200
C  3.67100 56.48900 42.74000
C  2.46300 55.52800 42.87600
C  3.17100 54.25900 42.61500
C  3.90100 57.65300 43.73200
C  1.29600 55.85800 41.98800
C  -0.11000 55.94900 42.65800
N  4.05100 51.45700 41.87700
C  2.77300 51.72100 42.33200
C  2.00500 50.42100 42.54000
C  2.97400 49.45100 42.20300
C  4.20100 50.12100 41.67500
C  0.65300 50.30400 43.06700
C  3.19700 48.03500 42.10300
O  2.40600 47.12100 42.35200
C  4.71600 47.91500 41.50100
C  4.59200 47.07800 40.29200
O  3.92100 47.37000 39.32700
O  5.34900 45.95900 40.38000
C  5.03100 44.93500 39.44200
H  10.13600 52.14800 40.64600
H  6.33200 57.17900 42.17800
H  1.41100 53.29800 43.03700
H  7.68600 47.91700 40.82800
H  9.63700 49.61100 39.93900
H  9.12200 48.31900 42.49200
H  9.19000 49.89200 43.02300
H  10.59000 49.29500 42.17500
H  7.39200 47.37800 38.75700
H  8.59700 48.45900 38.31500
H  7.07800 49.80000 37.46300
H  5.69800 49.72300 38.42900
H  11.23500 53.77100 39.97200
H  11.56500 55.39300 40.55000
H  10.73600 55.13800 39.05400
H  8.98500 59.41100 41.46400
H  8.06200 58.46900 42.52900
H  7.54900 58.61900 40.76300
H  3.58900 57.06500 41.81800
H  2.10800 55.43400 43.90200
H  3.78200 58.66200 43.33600
H  4.91700 57.59500 44.12300
H  3.18500 57.58000 44.55000
H  1.28600 55.13800 41.16900
H  1.50800 56.89000 41.70900
H  -0.56400 56.93600 42.56800
H  0.04800 55.82000 43.72900
H  -0.86300 55.20200 42.40600
H  0.56700 49.30000 43.48300
H  -0.02000 50.54400 42.24400
H  0.49000 51.05300 43.84200
H  5.51400 47.45900 42.08600
H  5.50100 44.03600 39.84100
H  5.42100 45.18000 38.45400
H  3.95000 44.78900 39.44500
Mg -12.58200 37.30800 42.29900
C  -10.11400 34.86000 41.49700
C  -10.66500 39.58700 40.60000
C  -15.26100 39.29000 42.24500
C  -14.55800 34.65200 43.55500
N  -10.60900 37.21400 41.17100
C  -9.84700 36.09700 40.92300
C  -8.48500 36.53200 40.35100
C  -8.52800 38.11400 40.29200
C  -10.04100 38.28100 40.64000
C  -7.57200 38.92200 41.25200
C  -8.28600 35.81600 39.03900
C  -6.96000 35.01500 38.84400
H  -6.04700 35.57100 37.79400
N  -12.96500 39.22900 41.62400
C  -12.00400 40.00100 40.89700
C  -12.59700 41.26800 40.61100
C  -13.93800 41.10100 40.97500
C  -14.13600 39.84600 41.68400
C  -11.87700 42.34200 39.88900
C  -14.91100 42.08900 40.60800
O  -14.62700 43.08600 39.95100
C  -16.36600 41.97100 40.85300
N  -14.63200 37.00600 42.76300
C  -15.50700 37.99900 42.79700
C  -16.92700 37.47800 43.25800
C  -16.59200 36.05600 43.83100
C  -15.15400 35.85800 43.36200
C  -17.68000 38.35700 44.26700
C  -17.53300 34.84500 43.46100
C  -17.79900 33.85400 44.60700
N  -12.38200 35.22100 42.56300
C  -13.22900 34.29900 43.19500
C  -12.62700 32.99400 43.30700
C  -11.38000 33.18800 42.62200
C  -11.30900 34.51200 42.18400
C  -13.22900 31.71200 43.87000
C  -10.26300 32.49000 42.16900
O  -10.00100 31.26000 42.32000
C  -9.32400 33.54600 41.46600
C  -7.98200 33.51800 42.12300
O  -7.08900 32.83900 41.73100
O  -8.03200 34.33300 43.29500
C  -6.75700 34.66100 43.86200
H  -10.02300 40.28500 40.05700
H  -16.12400 39.95900 42.27700
H  -15.07200 33.85900 44.10100
H  -7.80500 36.19500 41.13400
H  -8.46300 38.50200 39.27600
H  -8.17500 39.39100 42.03000
H  -7.07800 39.63100 40.58900
H  -6.86100 38.26900 41.75700
H  -8.29800 36.55300 38.23600
H  -9.04300 35.07700 38.77800
H  -7.09200 33.95100 38.64700
H  -6.43400 34.98900 39.79800
H  -12.03700 43.35600 40.25500
H  -12.12600 42.29400 38.82800
H  -10.79000 42.26400 39.89500
H  -16.71600 40.98100 40.56000
H  -16.95000 42.77200 40.39800
H  -16.53200 41.93700 41.92900
H  -17.57200 37.34200 42.38900
H  -16.33100 36.07000 44.88900
H  -18.59900 38.78400 43.86500
H  -16.92200 39.13000 44.39300
H  -18.01400 37.75400 45.11100
H  -17.08400 34.31500 42.62100
H  -18.44500 35.31800 43.09800
H  -17.16900 34.04200 45.47700
H  -17.63600 32.86600 44.17800
H  -18.85200 33.93500 44.87900
H  -12.72700 30.92100 43.31300
H  -14.28100 31.84200 43.61800
H  -13.03200 31.55700 44.93100
H  -9.05300 33.25100 40.45200
H  -6.53300 35.72600 43.80600
H  -5.90400 34.23900 43.33000
H  -6.77500 34.22900 44.86300

