158

Mg 8.60500 4.16500 28.03400
C  10.00200 2.46900 30.76500
C  6.87600 6.10400 30.20500
C  7.37800 5.67800 25.45100
C  10.16400 1.66900 26.01300
N  8.40900 4.17400 30.29100
C  9.15700 3.47300 31.24100
C  8.81800 3.94500 32.63300
C  7.76600 5.06000 32.38300
C  7.68700 5.14200 30.89600
C  6.35500 4.87600 33.09900
C  10.14400 4.43500 33.30700
C  9.87700 5.17700 34.61900
H  10.60200 4.82800 35.91400
N  7.32200 5.73100 27.80600
C  6.72600 6.40700 28.84500
C  5.81200 7.40800 28.24700
C  5.95800 7.32300 26.83600
C  6.91300 6.18500 26.64500
C  4.85600 8.34500 28.99800
C  5.38800 8.26700 25.75200
O  5.71200 8.15300 24.59100
C  4.44400 9.45800 26.08700
N  8.65300 3.63000 26.02900
C  8.20500 4.57300 25.15300
C  8.46400 4.11000 23.70300
C  9.29100 2.80900 23.83800
C  9.40800 2.67200 25.37800
C  7.09000 3.90300 22.85900
C  10.64700 2.66200 22.99900
C  11.05700 1.19800 22.61300
N  9.76200 2.48000 28.27500
C  10.33300 1.53500 27.35700
C  11.20800 0.63700 27.98800
C  11.10200 0.97700 29.35700
C  10.19100 2.02200 29.44700
C  12.02500 -0.50900 27.25400
C  11.63200 0.61100 30.59000
O  12.35400 -0.36600 30.82600
C  10.96600 1.58500 31.60200
C  10.24300 0.73600 32.62200
O  9.11600 0.26800 32.41400
O  10.93800 0.71200 33.84500
C  10.23900 0.07200 34.99400
H  6.24100 6.75700 30.80700
H  6.94200 6.17000 24.58000
H  10.63800 0.93400 25.35900
H  8.44000 3.09800 33.20600
H  8.18900 6.03700 32.61900
H  5.53900 4.81000 32.37900
H  6.32200 5.77900 33.71000
H  6.43500 3.97800 33.71100
H  10.58900 5.03700 32.51400
H  10.80800 3.64500 33.65900
H  8.80200 5.16700 34.79600
H  10.02100 6.24800 34.47700
H  5.10000 9.40500 28.91800
H  4.81500 7.86800 29.97700
H  3.90400 8.21400 28.48300
H  4.04600 10.03000 25.24900
H  5.02400 10.05400 26.79100
H  3.61600 9.11700 26.71000
H  9.11000 4.87700 23.27700
H  8.48300 2.12300 23.58400
H  6.17100 3.72000 23.41500
H  7.28100 3.19200 22.05500
H  6.91800 4.83000 22.31200
H  11.40300 3.18700 23.58300
H  10.44100 3.12400 22.03400
H  11.92900 0.92300 23.20500
H  11.37100 1.13100 21.57100
H  10.31600 0.41100 22.75200
H  12.29500 -1.18100 28.06900
H  12.85400 -0.15300 26.64300
H  11.36400 -0.91100 26.48600
H  11.72800 2.16400 32.12300
H  9.57900 -0.75800 34.74100
H  9.79000 0.82700 35.63900
H  11.01800 -0.43500 35.56500
Mg 9.42800 47.84000 25.60900
C  6.94700 48.22100 28.22700
C  11.71200 48.82100 28.14700
C  11.72100 47.87800 23.36200
C  6.88200 47.59400 23.30200
N  9.29500 48.53000 27.92300
C  8.22300 48.44900 28.74800
C  8.62600 48.64800 30.23100
C  10.14500 49.07400 30.15000
C  10.43900 48.71300 28.68800
C  10.37500 50.56500 30.60000
C  8.42700 47.32800 31.05800
C  9.30600 46.87400 32.21000
H  8.55700 46.27800 33.41300
N  11.41200 48.23800 25.74400
C  12.19100 48.61800 26.81300
C  13.56100 48.72700 26.45700
C  13.65700 48.24300 25.11800
C  12.24500 48.09800 24.65800
C  14.57800 49.20700 27.39500
C  14.82200 47.91800 24.25600
O  14.76700 47.63300 23.07600
C  16.21700 48.06400 24.83800
N  9.36700 47.67700 23.63900
C  10.39400 47.74900 22.84300
C  10.12500 47.29100 21.41100
C  8.56500 47.20000 21.38700
C  8.15700 47.50200 22.87800
C  10.71100 48.14900 20.21500
C  8.16000 45.75800 20.97300
C  8.34800 44.64400 22.04300
N  7.38000 47.96600 25.69300
C  6.46600 47.74300 24.65400
C  5.06600 47.58900 25.16300
C  5.24600 47.80600 26.57200
C  6.62000 48.04300 26.83200
C  3.81600 47.38400 24.41100
C  4.51500 47.88000 27.79700
O  3.29300 47.80500 28.00100
C  5.55800 48.13300 28.88700
C  5.49100 46.92200 29.73900
O  5.95700 45.83600 29.51500
O  4.59900 47.23200 30.74000
C  4.40700 46.23900 31.85200
H  12.40900 49.11500 28.93400
H  12.42100 47.82500 22.52500
H  6.07700 47.50000 22.57100
H  8.00500 49.37100 30.75900
H  10.75000 48.36700 30.71800
H  9.40900 51.06300 30.52700
H  10.96600 51.11000 29.86400
H  10.81400 50.51400 31.59600
H  8.55600 46.51000 30.34900
H  7.42900 47.43500 31.48200
H  9.92200 47.71700 32.52500
H  9.96600 46.08600 31.84900
H  15.31600 49.89400 26.98100
H  15.00200 48.48500 28.09300
H  14.10100 49.96000 28.02300
H  17.06800 48.02400 24.15800
H  16.33800 47.24700 25.55100
H  16.55900 48.95500 25.36500
H  10.56600 46.29800 21.32500
H  8.19300 47.93400 20.67300
H  11.31300 48.96500 20.61500
H  9.94000 48.52100 19.54000
H  11.43100 47.52500 19.68500
H  8.76100 45.35100 20.16000
H  7.12300 45.90600 20.67200
H  7.35500 44.28700 22.31700
H  8.82400 45.09400 22.91400
H  8.98300 43.80100 21.76900
H  3.80100 46.40900 23.92500
H  3.76300 48.06800 23.56400
H  2.99000 47.59200 25.09100
H  5.26200 49.03800 29.41600
H  3.53900 45.60400 31.67900
H  4.19600 46.75100 32.79000
H  5.34100 45.69800 32.00700

