158

Mg 2.19900 -3.38200 45.33000
C  5.53700 -2.75500 44.54500
C  1.36500 -0.71700 43.25200
C  -0.97400 -4.53400 45.30700
C  3.12100 -6.20000 46.96600
N  3.32600 -2.02600 43.99100
C  4.70200 -1.95000 43.85700
C  5.08500 -0.88600 42.92200
C  3.80900 0.01300 42.87000
C  2.74600 -0.95700 43.36300
C  3.85900 1.21300 43.80100
C  5.64900 -1.40100 41.50700
C  6.99000 -1.01500 41.10300
H  7.18700 -0.47400 39.66800
N  0.45400 -2.68400 44.40900
C  0.31000 -1.53500 43.59000
C  -1.00900 -1.45100 43.11700
C  -1.72900 -2.48200 43.74000
C  -0.72600 -3.33500 44.54700
C  -1.39200 -0.42900 42.09400
C  -3.19700 -2.73200 43.50100
O  -3.89200 -1.98800 42.81200
C  -3.88600 -3.83300 44.04100
N  1.21000 -5.09800 46.04300
C  -0.09200 -5.35000 45.91500
C  -0.55000 -6.57500 46.64100
C  0.77500 -7.17500 47.19000
C  1.79300 -6.12800 46.71300
C  -1.65200 -6.29300 47.68400
C  1.07500 -8.63400 46.60300
C  0.06900 -9.78500 46.85500
N  3.97200 -4.28000 45.82600
C  4.21200 -5.39600 46.54600
C  5.60900 -5.68200 46.68800
C  6.22600 -4.64400 45.88500
C  5.16900 -3.81700 45.38900
C  6.09300 -6.90400 47.30300
C  7.46300 -4.15200 45.34000
O  8.59000 -4.47800 45.56700
C  7.03400 -2.94500 44.40200
C  7.93500 -1.87200 44.75300
O  8.93500 -1.58000 44.07000
O  7.45600 -1.09700 45.79500
C  8.03900 0.24700 45.96100
H  1.07100 0.13900 42.64200
H  -2.00400 -4.87100 45.44200
H  3.38300 -7.10500 47.51900
H  5.83400 -0.39100 43.54000
H  3.71800 0.43600 41.87000
H  3.93100 2.14100 43.23500
H  4.54700 1.10300 44.64000
H  2.85800 1.25300 44.23100
H  4.91400 -1.18200 40.73300
H  5.70800 -2.48100 41.64400
H  7.62400 -1.85700 41.38000
H  7.39400 -0.24800 41.76400
H  -2.05600 -0.83400 41.33000
H  -0.65900 0.14900 41.53100
H  -1.90400 0.35000 42.66000
H  -3.33600 -4.77200 43.98500
H  -4.88000 -4.02900 43.64000
H  -3.96800 -3.54600 45.08900
H  -0.95200 -7.16200 45.81600
H  0.86400 -7.07800 48.27200
H  -1.19000 -6.38000 48.66700
H  -2.49100 -6.97900 47.57000
H  -2.00900 -5.26400 47.62800
H  2.10700 -8.94600 46.76500
H  1.10600 -8.48100 45.52500
H  0.58500 -10.58100 47.38900
H  -0.17300 -10.16300 45.86100
H  -0.85700 -9.55800 47.38300
H  5.65100 -7.78000 46.82700
H  5.88700 -6.91400 48.37300
H  7.17500 -6.91700 47.17000
H  7.25900 -3.27400 43.38700
H  7.39700 0.89900 46.55200
H  8.07400 0.73800 44.98800
H  9.07600 0.27400 46.29500
Mg 10.36200 46.41000 25.40800
C  8.23300 46.80800 28.11800
C  12.69400 48.37300 27.09700
C  12.24700 46.18000 22.71000
C  7.37900 45.67000 23.48100
N  10.39400 47.57100 27.27500
C  9.50800 47.37800 28.33200
C  10.01100 48.03900 29.64400
C  11.19200 48.93700 29.06200
C  11.46100 48.23200 27.75000
C  10.85700 50.38200 28.74200
C  10.48300 46.99700 30.62900
C  9.93900 47.14800 32.12500
H  9.93000 45.90000 33.10400
N  12.31300 47.05000 25.07000
C  13.10400 47.84400 25.84800
C  14.43700 48.01900 25.07100
C  14.27600 47.36900 23.81300
C  12.89900 46.86900 23.80100
C  15.58700 48.79500 25.67500
C  15.25700 47.21200 22.70500
O  15.06700 46.53100 21.66800
C  16.60800 47.86500 22.81900
N  9.92000 45.97400 23.41700
C  10.88800 45.81600 22.49200
C  10.24300 45.34300 21.06300
C  8.71200 45.21700 21.34600
C  8.64100 45.67300 22.86100
C  10.72600 46.22600 19.94800
C  8.17800 43.79200 21.02900
C  6.79300 43.60800 20.30300
N  8.23900 46.16300 25.67500
C  7.18400 45.84200 24.87800
C  5.96400 45.70500 25.60900
C  6.35500 46.05900 26.86400
C  7.73200 46.30500 26.89900
C  4.57700 45.43200 25.07100
C  5.85200 46.27500 28.23500
O  4.72400 46.20800 28.66800
C  7.03400 46.76300 29.08000
C  7.22600 45.93300 30.16700
O  7.88600 44.88800 30.14800
O  6.43500 46.19900 31.29800
C  6.41600 45.09600 32.30600
H  13.26400 49.14100 27.62500
H  12.90100 45.89200 21.88400
H  6.59200 45.23100 22.86500
H  9.20200 48.61800 30.08900
H  12.00000 48.93200 29.79400
H  9.76800 50.36000 28.69700
H  11.25100 50.49400 27.73200
H  11.32100 51.14100 29.37300
H  11.57000 47.05100 30.57900
H  10.17200 46.00800 30.29000
H  8.98200 47.66800 32.14000
H  10.67400 47.89100 32.43600
H  15.29200 49.33300 26.57500
H  15.90800 49.47600 24.88700
H  16.46200 48.20000 25.94000
H  17.09700 47.48800 23.71700
H  16.34900 48.91700 22.93800
H  17.19000 47.73700 21.90700
H  10.78100 44.42000 20.84800
H  8.20700 45.96300 20.73200
H  11.00300 47.23800 20.24300
H  10.06900 46.27000 19.07900
H  11.63200 45.82700 19.49300
H  8.07700 43.28300 21.98800
H  8.90400 43.40400 20.31400
H  6.88600 43.72700 19.22400
H  6.16800 44.43700 20.63400
H  6.35000 42.65400 20.58800
H  3.95300 46.31700 24.95000
H  4.09400 44.72500 25.74600
H  4.71300 44.86600 24.15000
H  6.76100 47.71100 29.54400
H  5.42000 44.65400 32.31300
H  6.44400 45.57100 33.28700
H  7.07200 44.23000 32.21900

