158

Mg 24.39900 -6.39300 46.61300
C  26.40900 -3.77500 45.27300
C  21.81300 -5.34800 44.34700
C  22.58400 -9.20600 47.25600
C  27.14100 -7.73800 48.15600
N  24.18500 -4.73300 45.14800
C  25.11800 -3.80200 44.74200
C  24.62900 -2.91700 43.59100
C  23.11200 -3.27800 43.48100
C  23.04000 -4.58100 44.37700
C  22.14700 -2.08400 43.80000
C  25.48200 -3.04600 42.33400
C  25.77800 -1.79500 41.57000
H  24.83900 -1.65300 40.36100
N  22.41600 -7.07100 45.99600
C  21.59200 -6.50700 45.05100
C  20.31400 -7.21000 45.07500
C  20.49900 -8.37100 45.91500
C  21.82800 -8.20800 46.46900
C  19.09500 -6.82300 44.24500
C  19.47000 -9.43900 46.21900
O  18.41400 -9.50100 45.60100
C  19.66700 -10.32100 47.35200
N  24.83400 -8.21200 47.48000
C  23.85300 -9.16900 47.81400
C  24.49300 -10.38400 48.60100
C  25.93700 -9.89100 48.88700
C  26.01000 -8.53900 48.14000
C  23.76000 -10.86100 49.86800
C  27.03600 -10.84900 48.48500
C  28.04100 -11.19500 49.68300
N  26.34100 -5.81500 46.85100
C  27.31700 -6.43000 47.56700
C  28.50100 -5.68200 47.52300
C  28.24600 -4.60100 46.61600
C  26.88400 -4.72700 46.20200
C  29.70500 -5.92600 48.36500
C  28.84200 -3.48700 45.95000
O  30.02900 -3.08800 45.94300
C  27.61100 -2.83200 45.06100
C  27.33500 -1.42200 45.45900
O  28.01600 -0.42200 45.23900
O  26.13100 -1.36400 46.23200
C  25.76200 0.02200 46.68200
H  21.00000 -5.03800 43.68800
H  22.11000 -10.18400 47.36200
H  27.98400 -8.20100 48.67300
H  24.94300 -1.97600 44.04100
H  22.91300 -3.55900 42.44700
H  22.79500 -1.32800 44.24300
H  21.38100 -2.31800 44.54000
H  21.60700 -1.75900 42.91200
H  25.06400 -3.88300 41.77400
H  26.48800 -3.35600 42.61500
H  26.82700 -1.67100 41.30100
H  25.52500 -0.85900 42.06800
H  18.16700 -7.20700 44.66800
H  19.32100 -7.26100 43.27300
H  18.94100 -5.78600 43.94600
H  20.23900 -11.21300 47.09500
H  18.66100 -10.64000 47.62400
H  20.15400 -9.84400 48.20300
H  24.56200 -11.17900 47.85900
H  26.03200 -9.69100 49.95500
H  22.95900 -11.48600 49.47400
H  23.31500 -9.97500 50.32200
H  24.39600 -11.38900 50.57700
H  27.53500 -10.44100 47.60500
H  26.57300 -11.78400 48.17000
H  27.99900 -12.23600 50.00400
H  28.05900 -10.45500 50.48400
H  29.02200 -11.04500 49.23300
H  29.32100 -6.00400 49.38200
H  30.44900 -5.14300 48.21700
H  30.23400 -6.80100 47.99000
H  28.01400 -2.67100 44.06100
H  25.62500 0.59900 45.76800
H  26.45600 0.44600 47.40800
H  24.78700 -0.10600 47.15300
Mg 44.98800 3.13200 46.65200
C  42.63900 5.54500 45.81200
C  42.30900 0.84300 46.43500
C  47.04600 0.61300 46.85200
C  47.39400 5.52600 46.71800
N  42.82400 3.12700 45.95600
C  42.07200 4.29500 45.78400
C  40.53100 4.01200 45.43800
C  40.43900 2.60000 46.15300
C  41.94100 2.14200 46.23800
C  39.50900 2.59300 47.40100
C  40.41700 4.07800 43.82700
C  39.45200 5.17600 43.16400
H  39.99000 5.88900 41.85600
N  44.69600 0.99900 46.65800
C  43.52500 0.21400 46.54100
C  43.84800 -1.20800 46.62700
C  45.23000 -1.26100 46.76900
C  45.74700 0.12300 46.67800
C  42.83000 -2.26300 46.55800
C  46.07400 -2.56100 46.81500
O  45.42100 -3.57700 46.84300
C  47.55600 -2.61900 46.87600
N  47.05600 3.06100 46.74500
C  47.65500 1.89300 46.97900
C  49.20100 2.07800 46.95700
C  49.23100 3.66900 47.12700
C  47.84200 4.13700 46.83600
C  49.88500 1.31900 48.12900
C  50.33700 4.35400 46.23200
C  51.71900 4.33300 46.92700
N  45.11300 5.15800 46.30000
C  46.10700 6.00600 46.52600
C  45.62800 7.41700 46.31000
C  44.27600 7.23400 46.00900
C  44.02400 5.86500 45.99400
C  46.43000 8.69900 46.50500
C  43.03200 7.97400 45.68700
O  42.77300 9.10700 45.49600
C  41.96400 6.87600 45.59400
C  40.90700 7.24600 46.60800
O  40.78300 6.79500 47.71300
O  39.98200 8.01700 45.92400
C  38.86900 8.47400 46.77500
H  41.37300 0.29000 46.33000
H  47.80400 -0.16100 46.98500
H  48.10800 6.35100 46.70400
H  39.85600 4.68700 45.96600
H  40.06400 1.86900 45.43700
H  38.93400 3.51900 47.42300
H  40.13700 2.60100 48.29200
H  38.87900 1.70300 47.39200
H  40.09600 3.07100 43.55900
H  41.43700 4.20200 43.46400
H  39.21000 5.92400 43.91900
H  38.51000 4.68300 42.92500
H  41.92800 -1.89100 47.04400
H  42.95900 -3.22600 47.05100
H  42.55300 -2.41800 45.51500
H  47.89200 -2.21000 45.92300
H  47.88700 -3.65600 46.92300
H  47.84900 -2.04800 47.75700
H  49.67600 1.68100 46.06100
H  49.46100 4.00600 48.13700
H  50.72800 0.73800 47.75600
H  49.28600 0.59700 48.68500
H  50.29300 2.05500 48.82100
H  50.04000 5.39600 46.11500
H  50.55200 3.83900 45.29600
H  51.68800 3.75400 47.85100
H  52.11600 5.31400 47.18900
H  52.49700 4.01600 46.23200
H  47.11000 9.00600 45.71100
H  46.87000 8.72300 47.50200
H  45.70800 9.50700 46.62800
H  41.62200 6.97100 44.56300
H  38.33000 9.32300 46.35400
H  39.26600 8.88200 47.70500
H  38.29700 7.56200 46.94300

