158

Mg 1.78900 -2.87200 44.84300
C  5.09500 -2.21700 44.45500
C  1.00300 -0.33800 42.81000
C  -1.41500 -3.99200 44.75300
C  2.74500 -5.87100 46.46400
N  2.90000 -1.52800 43.52600
C  4.21900 -1.46200 43.56900
C  4.74100 -0.42500 42.47300
C  3.38600 0.29900 42.13500
C  2.35800 -0.54700 42.89000
C  3.25300 1.79800 42.42100
C  5.42200 -1.02500 41.18900
C  6.95000 -0.65700 41.10400
H  7.55100 -0.31900 39.74400
N  0.04700 -2.16500 44.01000
C  -0.08200 -1.01100 43.26500
C  -1.50000 -0.75500 43.04900
C  -2.23600 -1.75200 43.71700
C  -1.26500 -2.64400 44.19900
C  -2.00800 0.43200 42.26500
C  -3.74200 -1.83700 43.89100
O  -4.48800 -0.95600 43.47500
C  -4.34700 -2.88400 44.76200
N  0.79500 -4.83000 45.31900
C  -0.51900 -4.94800 45.37900
C  -0.94000 -6.38200 45.77200
C  0.38700 -6.94200 46.37700
C  1.40000 -5.78600 46.03500
C  -2.15200 -6.53800 46.74600
C  0.77600 -8.37300 45.86000
C  -0.22600 -9.47900 46.07700
N  3.56700 -3.80300 45.53500
C  3.79700 -4.92600 46.24000
C  5.27800 -5.00600 46.48800
C  5.81900 -3.91800 45.87000
C  4.76800 -3.28500 45.21900
C  6.03500 -6.25200 46.94200
C  7.04100 -3.19400 45.59800
O  8.18000 -3.48800 45.86700
C  6.56700 -2.12700 44.53600
C  7.13000 -0.82000 44.87400
O  8.11600 -0.39400 44.37600
O  6.26900 -0.08100 45.67400
C  6.59300 1.31100 45.81500
H  0.78600 0.53700 42.19300
H  -2.44200 -4.35700 44.81900
H  3.19800 -6.71600 46.98700
H  5.37400 0.16200 43.13800
H  3.15500 0.15700 41.07900
H  4.25000 2.23500 42.37000
H  2.80600 1.92100 43.40800
H  2.61300 2.26100 41.66900
H  4.91800 -0.75500 40.26100
H  5.29900 -2.10000 41.32700
H  7.53800 -1.46600 41.53800
H  7.14300 0.20300 41.74500
H  -2.90200 0.19500 41.68800
H  -1.23000 0.77000 41.58100
H  -2.35200 1.18300 42.97700
H  -4.58100 -3.75500 44.15000
H  -5.29900 -2.40600 44.99600
H  -3.80900 -3.08200 45.68900
H  -1.20000 -6.94600 44.87600
H  0.30500 -7.00800 47.46200
H  -1.83300 -6.64100 47.78300
H  -2.70500 -7.42800 46.44600
H  -2.80000 -5.66300 46.80800
H  1.75800 -8.58700 46.28200
H  1.02200 -8.21600 44.81000
H  -0.48600 -9.91500 45.11200
H  -1.14700 -9.15800 46.56400
H  0.16000 -10.31600 46.65900
H  6.75300 -5.83600 47.64800
H  6.50000 -6.71300 46.07000
H  5.35300 -6.90700 47.48400
H  6.95400 -2.44500 43.56800
H  7.50000 1.42500 46.40800
H  5.75300 1.83800 46.26800
H  6.75200 1.87100 44.89300
Mg 47.03000 26.04700 28.93900
C  48.26800 27.95300 31.67000
C  45.93000 23.71900 31.38300
C  46.55700 23.83200 26.46600
C  48.49400 28.30400 26.68000
N  47.03100 25.93000 31.24500
C  47.54800 26.84400 32.07200
C  47.18500 26.48400 33.49400
C  46.75900 25.02300 33.45000
C  46.62900 24.78000 31.91600
C  47.74600 24.00100 34.07600
C  45.97300 27.39500 34.04700
C  45.92100 27.92300 35.48500
H  46.51100 27.09900 36.63000
N  46.30100 24.15900 28.92700
C  45.80500 23.45600 29.98000
C  45.18600 22.26000 29.48900
C  45.36700 22.22200 28.07100
C  46.13000 23.47000 27.74400
C  44.56400 21.19800 30.38000
C  44.83300 21.18700 27.06900
O  45.06800 21.28900 25.86900
C  44.13800 19.89100 27.53600
N  47.67800 26.06500 26.85000
C  47.15100 25.07500 26.06900
C  47.43700 25.43500 24.57000
C  47.89100 26.91500 24.61400
C  48.01900 27.13000 26.12300
C  48.45400 24.47400 23.80000
C  47.12700 27.94800 23.76300
C  47.33700 27.74000 22.28600
N  47.91400 27.93600 29.10900
C  48.50600 28.71300 28.10200
C  49.10600 29.89700 28.67400
C  48.89300 29.68600 30.10200
C  48.27700 28.43200 30.28400
C  49.89200 30.99100 28.00200
C  49.16200 30.23500 31.44000
O  49.68600 31.31300 31.74000
C  48.75000 29.13700 32.47000
C  49.86900 28.70900 33.31800
O  50.92500 28.30300 32.94400
O  49.54100 29.03700 34.62200
C  50.58200 28.76400 35.70300
H  45.68700 22.99500 32.16300
H  46.58500 23.09700 25.65800
H  48.88800 28.93500 25.88100
H  47.99000 26.76400 34.17300
H  45.75000 24.97100 33.86000
H  48.22700 24.50000 34.91700
H  48.42300 23.66600 33.29000
H  47.18500 23.11800 34.38200
H  45.04500 26.85300 33.86500
H  45.89400 28.26500 33.39500
H  44.88700 28.02100 35.81800
H  46.50400 28.83000 35.64500
H  44.43800 21.60300 31.38400
H  45.25200 20.36200 30.51200
H  43.65400 20.81800 29.91500
H  44.57700 19.51800 28.46200
H  44.39300 19.01900 26.93300
H  43.06100 20.05600 27.51500
H  46.39800 25.35600 24.25200
H  48.91600 27.00400 24.25400
H  49.16600 23.99900 24.47400
H  48.85800 25.03200 22.95500
H  47.74000 23.68500 23.56400
H  47.51300 28.94300 23.98400
H  46.09200 27.81200 24.07800
H  46.38200 27.45700 21.84300
H  47.94800 26.86000 22.08900
H  47.71200 28.56600 21.68000
H  49.94300 30.67500 26.96000
H  50.87600 31.01800 28.46900
H  49.41700 31.95300 28.19400
H  47.96900 29.52300 33.12400
H  50.00600 28.59200 36.61200
H  51.14200 29.69800 35.75100
H  51.06500 27.87600 35.29600

