158

Mg 16.40800 52.25500 25.31800
C  18.04100 51.21500 28.19700
C  13.59000 52.94200 27.08600
C  15.00200 53.15700 22.36000
C  19.02300 50.73700 23.43800
N  15.99300 52.16900 27.43600
C  16.83400 51.86300 28.45000
C  16.22300 52.14000 29.86700
C  14.78900 52.61700 29.46500
C  14.74200 52.51600 27.86200
C  13.59900 51.81900 30.20300
C  17.07900 53.20800 30.69900
C  17.73000 52.80200 32.05100
H  16.88300 52.01800 33.02400
N  14.57300 52.95600 24.80900
C  13.51000 53.20500 25.66600
C  12.36800 53.72900 24.92400
C  12.76700 53.87700 23.53100
C  14.20700 53.35900 23.49100
C  11.01500 54.01900 25.62900
C  12.03000 54.36700 22.28800
O  12.52300 54.62200 21.16000
C  10.65200 54.77900 22.40900
N  16.98000 52.07400 23.26500
C  16.23800 52.57600 22.20700
C  16.86300 52.20800 20.81500
C  18.28300 51.73100 21.26700
C  18.08700 51.42700 22.75400
C  16.02800 51.11300 20.10200
C  19.37700 52.79800 20.95200
C  20.06700 52.57900 19.62600
N  18.19100 51.14800 25.67100
C  19.11500 50.57300 24.83700
C  20.08000 49.86200 25.58100
C  19.65900 50.10200 26.94000
C  18.54600 50.92100 26.93000
C  21.37600 49.16200 25.21500
C  20.05400 49.73400 28.28200
O  20.96800 49.05000 28.71600
C  18.90300 50.45100 29.25800
C  18.20500 49.31600 29.88300
O  17.17600 48.83400 29.51000
O  18.83200 48.96500 31.05900
C  18.12100 48.00300 31.88500
H  12.73000 53.21000 27.70300
H  14.58500 53.46100 21.39800
H  19.91700 50.53600 22.84200
H  16.07700 51.19600 30.39100
H  14.59800 53.65500 29.73600
H  14.01900 51.15400 30.95800
H  13.03600 51.26500 29.45100
H  12.91700 52.52400 30.67600
H  16.52600 54.14700 30.71700
H  17.87900 53.52500 30.03000
H  18.17600 53.59900 32.64500
H  18.65600 52.26800 31.84000
H  10.34400 53.16400 25.54100
H  10.55000 54.91300 25.21300
H  11.09000 54.20800 26.70000
H  10.16000 55.10200 21.49200
H  10.59800 55.68100 23.01900
H  10.23300 54.00500 23.05300
H  17.06300 53.00400 20.09900
H  18.68900 50.84200 20.78500
H  15.70200 51.41900 19.10900
H  15.22900 50.71900 20.73000
H  16.68300 50.25200 19.97100
H  20.03700 52.94600 21.80600
H  18.91400 53.77600 20.82100
H  21.13500 52.41500 19.77000
H  19.99800 53.44000 18.96200
H  19.51200 51.80000 19.10300
H  21.74600 49.53600 24.26100
H  21.37100 48.07200 25.20400
H  22.15800 49.44600 25.92000
H  19.45100 51.00900 30.01700
H  17.89900 48.48100 32.83900
H  18.84700 47.22500 32.12200
H  17.16600 47.58400 31.56900
Mg -0.33800 43.86800 26.35200
C  1.82400 43.51700 29.03500
C  -2.80400 42.26100 28.22200
C  -2.09300 43.71600 23.55100
C  2.41100 45.00300 24.44700
N  -0.42100 43.00100 28.38500
C  0.49600 43.12300 29.38100
C  -0.00000 42.72800 30.74700
C  -1.38800 42.04000 30.35800
C  -1.58800 42.42800 28.86500
C  -1.51500 40.53600 30.81700
C  -0.21100 43.94300 31.73500
C  0.73900 43.94500 32.94200
H  0.62300 42.92100 34.04400
N  -2.28700 43.18600 26.01300
C  -3.12300 42.56400 26.85500
C  -4.34800 42.24500 26.17200
C  -4.09600 42.59400 24.75100
C  -2.77300 43.17900 24.67700
C  -5.41000 41.40500 26.69200
C  -5.02000 42.35100 23.57400
O  -4.55000 42.35900 22.46700
C  -6.41800 41.97800 23.60500
N  0.06500 44.44400 24.29900
C  -0.89400 44.32800 23.37500
C  -0.42900 45.06500 22.14500
C  1.00300 45.59700 22.53000
C  1.15800 44.99400 23.83200
C  -0.53700 44.27100 20.79600
C  0.95700 47.20800 22.50400
C  1.11900 47.85600 21.08500
N  1.74300 44.19700 26.61500
C  2.70200 44.57400 25.74300
C  3.88300 44.55100 26.40200
C  3.69100 44.25900 27.72800
C  2.30000 43.91900 27.79300
C  5.31800 44.78200 25.86300
C  4.33600 44.01300 28.96100
O  5.46600 44.15500 29.39700
C  3.06400 43.68200 29.97100
C  3.41600 42.41300 30.57500
O  3.26800 41.27300 30.18800
O  4.18000 42.68400 31.72500
C  4.65900 41.54800 32.55800
H  -3.56500 41.87200 28.90200
H  -2.75700 43.83900 22.69300
H  3.29600 45.37900 23.92800
H  0.69800 42.01200 31.17900
H  -2.24100 42.59800 30.74300
H  -0.65700 40.12300 31.34700
H  -1.52100 39.90600 29.92700
H  -2.44400 40.33600 31.35100
H  -1.25400 43.97100 32.04900
H  -0.01500 44.82200 31.12000
H  0.87600 44.89500 33.45800
H  1.72200 43.96500 32.47200
H  -6.39100 41.87900 26.72800
H  -5.23300 41.08300 27.71800
H  -5.37100 40.53700 26.03300
H  -7.03700 42.43800 24.37600
H  -6.41100 40.89700 23.74900
H  -6.85100 42.14400 22.61900
H  -1.14300 45.88900 22.14100
H  1.79900 45.18500 21.91000
H  -1.15800 44.87500 20.13500
H  -0.97900 43.31100 21.06500
H  0.39600 44.09500 20.26100
H  1.82800 47.46300 23.10600
H  0.06800 47.57500 23.01700
H  1.18400 47.11000 20.29400
H  2.07100 48.38700 21.06100
H  0.37900 48.63200 20.88700
H  5.45800 45.86200 25.80700
H  5.43900 44.43400 24.83700
H  6.07300 44.25500 26.44700
H  2.99200 44.52500 30.65800
H  4.97900 41.83300 33.56000
H  5.42600 41.06300 31.95400
H  3.86500 40.81700 32.71000

