158

Mg 17.51900 -0.42800 28.31100
C  16.70600 1.35700 31.16200
C  19.55400 -2.55700 30.27500
C  18.88200 -1.81700 25.38900
C  15.78800 1.87600 26.32600
N  18.19600 -0.43500 30.37200
C  17.66500 0.30200 31.37400
C  18.04900 -0.25600 32.79900
C  19.27800 -1.13500 32.48000
C  19.05600 -1.38600 30.92300
C  20.68300 -0.65500 32.71600
C  16.81100 -0.88100 33.51000
C  16.76900 -0.93200 35.07000
H  17.83200 -0.25600 35.85100
N  18.80100 -2.04500 27.90700
C  19.43900 -2.83700 28.86700
C  20.03100 -4.01700 28.19800
C  19.94300 -3.73600 26.81700
C  19.14600 -2.48300 26.63200
C  20.49000 -5.17000 29.06200
C  20.27500 -4.62100 25.75700
O  20.02800 -4.44800 24.57800
C  21.10700 -5.79500 26.02900
N  17.32800 0.04000 26.18800
C  18.01600 -0.68200 25.16700
C  17.59300 -0.15900 23.76900
C  16.54500 0.97600 24.06100
C  16.47000 0.88400 25.63600
C  18.89000 0.31000 22.88200
C  15.20900 0.91400 23.28700
C  14.79400 2.12700 22.45400
N  16.41700 1.26600 28.62400
C  15.72900 2.05100 27.74400
C  15.01800 3.03900 28.52600
C  15.36500 2.74300 29.83600
C  16.25500 1.68500 29.81500
C  14.20400 4.18300 28.09600
C  15.15100 3.22200 31.23300
O  14.46900 4.11500 31.69300
C  16.05400 2.33300 32.10200
C  16.94900 3.13600 33.03800
O  18.09000 3.51400 32.82600
O  16.23000 3.44500 34.13300
C  16.87600 4.32400 35.10400
H  20.16700 -3.31300 30.77100
H  19.20700 -2.24500 24.43800
H  15.19500 2.63000 25.80500
H  18.40000 0.59000 33.39000
H  19.10200 -2.07800 32.99700
H  21.23900 -0.73300 31.78200
H  21.19400 -1.25500 33.46900
H  20.58100 0.39700 32.98100
H  16.72000 -1.90700 33.15300
H  15.88900 -0.44700 33.12200
H  16.70600 -1.94600 35.46600
H  15.88300 -0.30900 35.19300
H  20.17600 -6.12600 28.64300
H  20.05000 -5.01300 30.04700
H  21.56700 -5.05600 29.18700
H  21.84200 -5.42500 26.74400
H  21.58200 -6.26700 25.16900
H  20.34600 -6.47600 26.41000
H  17.16100 -1.04200 23.30000
H  16.96900 1.97000 23.91500
H  19.21400 -0.42200 22.14200
H  19.72600 0.67700 23.47700
H  18.60200 1.17500 22.28500
H  14.43300 0.65500 24.00800
H  15.28600 0.04200 22.63700
H  14.87600 1.83000 21.40800
H  15.38100 3.02500 22.64200
H  13.76200 2.34800 22.72600
H  13.68300 3.98700 27.15800
H  14.79100 5.10100 28.07500
H  13.38700 4.31500 28.80600
H  15.34300 1.82700 32.75400
H  16.45700 4.02700 36.06500
H  16.74000 5.40000 34.98800
H  17.95900 4.23300 35.18400
Mg -10.49200 40.05500 39.79700
C  -9.19100 36.88200 39.19600
C  -7.36800 41.34400 39.17100
C  -11.85400 43.10500 39.73200
C  -13.75500 38.62200 39.85900
N  -8.59900 39.21200 39.13500
C  -8.26500 37.88400 38.97700
C  -6.77500 37.70700 38.43800
C  -6.21900 39.13700 38.74300
C  -7.47300 39.96200 39.08600
C  -5.01500 39.12400 39.78800
C  -6.63800 37.18200 36.99800
C  -7.40300 37.90400 35.88900
H  -8.67500 37.30900 35.30600
N  -9.71200 41.96200 39.58400
C  -8.39400 42.25400 39.38200
C  -8.25600 43.67600 39.32700
C  -9.48200 44.27700 39.51200
C  -10.43000 43.12600 39.68400
C  -6.88800 44.31400 39.05200
C  -9.82100 45.80400 39.58500
O  -8.91900 46.64700 39.46400
C  -11.18100 46.25700 40.04600
N  -12.50700 40.75500 39.66100
C  -12.82500 42.07200 39.80400
C  -14.29000 42.33100 40.00900
C  -14.87300 40.89800 40.16100
C  -13.64900 40.01700 39.85200
C  -14.74200 43.36900 41.09400
C  -16.11500 40.48500 39.27800
C  -17.38600 41.32600 39.56200
N  -11.33600 38.24200 39.66700
C  -12.69600 37.78300 39.79200
C  -12.72600 36.34900 39.68600
C  -11.37400 35.99000 39.45700
C  -10.59300 37.17200 39.46500
C  -13.93900 35.45300 39.64800
C  -10.63200 34.77700 39.11100
O  -10.93800 33.62100 38.89500
C  -9.17500 35.30300 39.02200
C  -8.41200 34.63100 40.12000
O  -8.75800 34.52200 41.24600
O  -7.19400 34.18200 39.70400
C  -6.41600 33.31000 40.58600
H  -6.34200 41.70900 39.10200
H  -12.34600 44.07800 39.79000
H  -14.75800 38.21300 39.99900
H  -6.30800 36.96300 39.08300
H  -5.78600 39.68400 37.90600
H  -4.95200 38.22600 40.40300
H  -5.22100 39.86500 40.56000
H  -4.03100 39.33000 39.36500
H  -6.91400 36.12700 36.97900
H  -5.59500 37.19200 36.68300
H  -6.68700 37.98900 35.07200
H  -7.66400 38.91200 36.21000
H  -6.53700 43.95900 38.08300
H  -6.25500 44.08900 39.91100
H  -6.97900 45.39000 38.90600
H  -11.63200 45.66200 40.84100
H  -11.72900 46.33600 39.10700
H  -11.06800 47.29300 40.36700
H  -14.58600 42.67600 39.01700
H  -15.08800 40.71900 41.21400
H  -15.29800 44.20400 40.66800
H  -13.90300 43.85900 41.58800
H  -15.43500 42.91200 41.80000
H  -16.39000 39.48700 39.62000
H  -15.82000 40.56600 38.23100
H  -18.15200 40.55400 39.62700
H  -17.42600 42.03100 38.73200
H  -17.34500 41.99600 40.42100
H  -14.90000 35.95100 39.52400
H  -13.90100 34.95000 40.61500
H  -13.80800 34.72400 38.84800
H  -8.75600 35.06900 38.04400
H  -6.11500 32.39000 40.08500
H  -6.92000 33.07400 41.52300
H  -5.51000 33.71600 41.03500

