158

Mg 40.88000 40.84100 27.01900
C  40.21300 43.22700 29.53700
C  42.10300 38.77600 29.43100
C  41.90100 38.85800 24.56300
C  40.12600 43.45800 24.64100
N  40.93000 40.98300 29.23600
C  40.57500 42.03200 30.05400
C  40.70900 41.73400 31.59600
C  41.43900 40.34100 31.49000
C  41.46000 39.94200 29.92900
C  42.81300 40.22100 32.21900
C  39.37700 41.70600 32.39500
C  39.37100 42.68700 33.61400
H  38.73900 42.10900 34.86400
N  41.81000 39.06300 27.03000
C  42.25900 38.31600 28.05800
C  42.91300 37.06800 27.63500
C  42.66700 36.97200 26.23700
C  42.08600 38.31900 25.88700
C  43.57000 36.02900 28.66500
C  43.02500 35.89500 25.19700
O  42.87100 36.03100 23.96600
C  43.53200 34.55300 25.63200
N  40.99000 41.08200 24.92800
C  41.35000 40.06300 24.08600
C  41.36900 40.48000 22.63200
C  40.60100 41.84500 22.68300
C  40.53800 42.20200 24.17500
C  42.75100 40.53800 21.87500
C  39.28600 41.77400 21.91900
C  38.12900 40.99800 22.59400
N  40.23500 42.87000 27.02000
C  39.95000 43.77400 25.96500
C  39.55200 45.06200 26.50700
C  39.63000 44.88500 27.95800
C  40.02700 43.54100 28.13200
C  39.08300 46.21500 25.61400
C  39.33500 45.55600 29.15800
O  38.97900 46.71500 29.33700
C  39.84200 44.53900 30.31400
C  40.91300 45.15900 31.05700
O  42.01600 45.43500 30.62900
O  40.53000 45.26600 32.35800
C  41.41500 45.91000 33.34000
H  42.61600 38.22100 30.22000
H  42.19800 38.15100 23.78600
H  39.91500 44.20300 23.87100
H  41.42200 42.46200 31.98400
H  40.83500 39.62000 32.04000
H  43.71900 40.39500 31.63800
H  42.86100 39.20500 32.61100
H  42.75200 40.95500 33.02300
H  39.28200 40.78600 32.97200
H  38.44500 41.84400 31.84500
H  38.69800 43.50800 33.36600
H  40.37000 42.97600 33.94200
H  44.26100 35.33900 28.18000
H  42.67200 35.49300 28.97000
H  44.04800 36.63900 29.43100
H  44.59100 34.76100 25.78200
H  43.48100 33.83900 24.81000
H  42.91100 34.17600 26.44400
H  40.83800 39.65100 22.16500
H  41.23200 42.57200 22.17100
H  43.60800 40.23400 22.47400
H  43.06900 41.45400 21.37700
H  42.79400 39.76800 21.10500
H  39.47000 41.21500 21.00200
H  38.87300 42.72900 21.59300
H  38.14100 40.79800 23.66500
H  38.13800 40.00900 22.13700
H  37.14200 41.39800 22.36000
H  38.01400 46.24800 25.40400
H  39.55300 46.25400 24.63200
H  39.36500 47.13100 26.13400
H  39.08100 44.20900 31.02100
H  41.71600 45.26300 34.16400
H  40.71900 46.56600 33.86200
H  42.30200 46.37400 32.91000
Mg 30.10700 57.84100 38.75400
C  27.54100 55.84900 37.64800
C  32.33500 55.33200 38.24800
C  32.58800 60.18400 39.30900
C  27.78300 60.58500 38.89900
N  29.91400 55.88100 37.85600
C  28.71500 55.21500 37.66500
C  28.98700 53.72100 37.15900
C  30.52700 53.63700 37.44300
C  31.00500 55.02600 37.84500
C  30.98400 52.47300 38.31700
C  28.61700 53.49200 35.61300
C  29.03400 54.68600 34.72300
H  27.99000 55.22600 33.70700
N  32.15200 57.74600 38.86400
C  32.87100 56.59800 38.65800
C  34.29500 56.86000 39.02600
C  34.39500 58.25500 39.39000
C  32.99300 58.78600 39.17400
C  35.35800 55.72400 38.81800
C  35.72900 58.89100 39.87300
O  36.66800 58.13700 40.21000
C  35.83600 60.33200 40.01800
N  30.12200 60.10300 38.98000
C  31.37000 60.76300 39.27600
C  31.08700 62.24300 39.34800
C  29.49500 62.43000 39.37300
C  29.11300 60.95700 39.04200
C  31.98800 63.11500 40.34600
C  29.07400 63.48500 38.39100
C  27.81600 64.23000 38.75300
N  28.09200 58.18500 38.49800
C  27.26600 59.34300 38.50100
C  25.94700 59.00800 38.04700
C  25.95400 57.62700 37.88700
C  27.30600 57.19500 37.98400
C  24.75800 59.92000 37.87100
C  25.17200 56.48400 37.52200
O  23.94600 56.32400 37.33200
C  26.17700 55.24500 37.45300
C  25.72400 54.12900 38.38700
O  26.18500 53.88900 39.46700
O  24.78700 53.39400 37.69000
C  24.05600 52.51900 38.60400
H  33.04900 54.50700 38.29400
H  33.37600 60.88800 39.58900
H  27.17100 61.46000 39.12400
H  28.44300 53.04400 37.81700
H  31.09600 53.54100 36.51800
H  31.40700 52.78700 39.27100
H  31.69900 51.78300 37.86800
H  30.12400 51.84200 38.54100
H  27.60700 53.12500 35.43000
H  29.26200 52.67100 35.30100
H  29.86900 54.32400 34.12200
H  29.34500 55.57600 35.27000
H  35.16900 55.13400 37.92100
H  35.15800 54.99800 39.60600
H  36.39400 56.06400 38.81900
H  35.09600 60.80300 40.66500
H  35.58300 60.79500 39.06400
H  36.84500 60.67800 40.24300
H  31.46800 62.66800 38.41900
H  29.14300 62.72900 40.36000
H  32.53600 63.94400 39.89700
H  32.70400 62.44600 40.82300
H  31.32700 63.52700 41.10800
H  28.93500 62.96700 37.44100
H  29.80300 64.29300 38.33000
H  27.15000 64.14700 37.89400
H  27.94300 65.23500 39.15500
H  27.35700 63.75800 39.62100
H  24.11300 59.63500 38.70200
H  24.18800 59.84600 36.94400
H  24.96300 60.94900 38.16700
H  26.22100 54.88100 36.42700
H  23.03200 52.84200 38.79500
H  24.57100 52.22100 39.51700
H  23.96400 51.60100 38.02400

