158

Mg 23.96400 -5.31200 46.10200
C  25.90000 -2.94200 44.27200
C  21.43500 -4.53600 43.78600
C  22.46000 -8.05400 47.10400
C  26.98200 -6.20400 47.83600
N  23.64100 -3.86600 44.29300
C  24.60200 -3.04800 43.76300
C  24.05300 -2.26100 42.60200
C  22.51300 -2.53000 42.64400
C  22.49300 -3.71400 43.66600
C  21.61100 -1.41900 43.12000
C  24.68300 -2.42800 41.20600
C  24.96000 -1.09900 40.42000
H  24.84300 -1.14800 38.84500
N  22.13100 -6.13800 45.65200
C  21.20300 -5.60600 44.76400
C  20.04000 -6.36600 44.83100
C  20.24100 -7.46400 45.77100
C  21.62300 -7.21900 46.24700
C  18.81100 -5.91500 43.96500
C  19.24400 -8.59900 46.07500
O  18.09500 -8.63900 45.56600
C  19.52500 -9.74800 47.02800
N  24.66800 -7.01500 47.26900
C  23.77800 -7.99300 47.63900
C  24.51300 -9.02300 48.54200
C  25.79400 -8.32300 48.97300
C  25.88900 -7.11600 47.93900
C  23.68600 -9.57300 49.72900
C  26.95900 -9.28000 48.93800
C  27.53500 -9.57400 50.33400
N  25.93400 -4.64600 46.23600
C  27.01600 -5.10800 47.00200
C  28.07100 -4.20700 46.79600
C  27.75700 -3.40600 45.76800
C  26.41200 -3.72700 45.41200
C  29.32700 -4.12700 47.54500
C  28.23000 -2.28500 45.03800
O  29.32900 -1.71100 45.13000
C  27.13700 -2.02500 43.91400
C  26.84000 -0.51700 44.03200
O  25.97100 -0.05200 44.75100
O  27.73000 0.15600 43.19600
C  27.74700 1.60400 43.26800
H  20.56700 -4.31800 43.16100
H  21.91100 -8.94400 47.41800
H  27.85200 -6.35700 48.47700
H  24.25600 -1.24200 42.93000
H  22.19800 -2.94900 41.68800
H  21.30400 -1.63800 44.14300
H  20.72500 -1.40600 42.48500
H  21.98100 -0.39400 43.07600
H  24.20600 -3.19200 40.59300
H  25.68300 -2.78800 41.44800
H  25.97800 -0.76200 40.61400
H  24.28300 -0.31900 40.77000
H  18.90000 -6.32600 42.95900
H  18.71600 -4.83100 43.90400
H  17.94500 -6.35100 44.46100
H  18.71800 -10.47700 46.96900
H  19.57400 -9.42400 48.06700
H  20.43100 -10.33200 46.86900
H  24.64000 -9.92500 47.94300
H  25.75200 -7.81300 49.93600
H  24.15400 -9.22600 50.65000
H  23.75700 -10.66100 49.69900
H  22.68900 -9.15800 49.57700
H  27.71700 -8.91700 48.24400
H  26.75400 -10.25600 48.49800
H  28.44700 -8.98900 50.45100
H  27.72000 -10.64800 50.35000
H  26.90100 -9.40800 51.20500
H  29.96300 -4.89500 47.10500
H  29.10800 -4.28200 48.60100
H  29.87400 -3.18900 47.44100
H  27.47000 -2.27500 42.90700
H  27.60300 2.02800 44.26200
H  26.97500 2.06500 42.65200
H  28.70900 1.95700 42.89600
Mg 4.49100 53.55300 42.35500
C  4.29500 50.04100 41.93200
C  7.20400 53.37200 40.01600
C  4.76200 56.81900 42.45300
C  1.58100 53.48100 44.25100
N  5.45200 51.91600 40.94000
C  5.22300 50.54000 41.01100
C  6.06600 49.80200 39.96700
C  7.19200 50.91500 39.63000
C  6.56800 52.14600 40.17200
C  8.53200 50.56400 40.37100
C  5.28900 49.37700 38.67800
C  5.23400 47.84900 38.23400
H  5.81200 47.50800 36.83400
N  5.89400 54.92100 41.44800
C  6.91300 54.64700 40.61900
C  7.69900 55.84700 40.50900
C  7.09400 56.86500 41.21700
C  5.85700 56.25600 41.74900
C  8.92200 55.85000 39.74500
C  7.40500 58.36200 41.16900
O  8.44000 58.74900 40.59100
C  6.61300 59.52700 41.87200
N  3.33200 54.87700 43.15200
C  3.63800 56.20300 43.05000
C  2.61100 57.13000 43.74900
C  1.67100 56.12400 44.44000
C  2.22800 54.68500 43.96400
C  3.38000 57.95600 44.74800
C  0.13800 56.39500 43.94900
C  -0.97400 56.33800 44.97600
N  3.14700 52.03100 42.97300
C  2.05500 52.21900 43.78000
C  1.67900 50.87100 44.17400
C  2.51100 49.98900 43.45900
C  3.37700 50.74900 42.71600
C  0.65800 50.45600 45.30600
C  2.86200 48.61200 43.39000
O  2.44500 47.61900 44.00000
C  4.09700 48.60700 42.33500
C  3.57700 47.71900 41.28800
O  2.78200 48.07900 40.42000
O  3.95900 46.41500 41.51600
C  3.55200 45.32300 40.61700
H  8.03900 53.16200 39.34500
H  4.83100 57.90000 42.58900
H  0.75800 53.49200 44.96900
H  6.49100 48.94700 40.49200
H  7.46200 51.04700 38.58300
H  9.33200 50.58100 39.63100
H  8.51900 49.62000 40.91500
H  8.80300 51.36300 41.06100
H  5.63000 49.91400 37.79300
H  4.27200 49.68200 38.92500
H  4.25000 47.38500 38.30800
H  5.97000 47.47600 38.94600
H  9.09800 56.77400 39.19500
H  9.06100 55.08100 38.98400
H  9.70500 55.89900 40.50200
H  5.70400 59.65200 41.28400
H  7.19800 60.43300 41.71200
H  6.45800 59.42200 42.94600
H  2.15500 57.76700 42.99000
H  1.82200 56.17000 45.51900
H  3.31500 59.02400 44.54100
H  4.39500 57.57700 44.86500
H  2.91500 57.82600 45.72500
H  -0.17100 55.68000 43.18700
H  0.09300 57.31700 43.36900
H  -1.67100 55.55800 44.67100
H  -1.61900 57.20800 45.10300
H  -0.55000 56.05100 45.93900
H  -0.36300 50.48100 44.92400
H  0.67500 50.87400 46.31200
H  0.99300 49.43800 45.50500
H  4.95300 48.18700 42.86300
H  4.34200 44.57300 40.65400
H  3.35100 45.63800 39.59300
H  2.69000 44.88800 41.12300

