158

Mg 1.06500 -1.79700 44.80000
C  4.47300 -1.39100 44.01900
C  0.41000 0.78100 42.53900
C  -2.23700 -2.61900 44.97000
C  1.87000 -4.78300 46.36000
N  2.32900 -0.62500 43.17900
C  3.68900 -0.57700 43.22800
C  4.21500 0.44000 42.13100
C  2.82800 1.22200 41.78600
C  1.78400 0.47400 42.50800
C  2.96100 2.76000 41.99600
C  4.88700 -0.32100 40.94100
C  6.27300 0.30900 40.55000
H  6.35000 1.50800 39.53100
N  -0.70200 -0.97900 43.88400
C  -0.71200 0.10300 43.08200
C  -2.09300 0.54900 42.89600
C  -3.00400 -0.42500 43.60000
C  -1.99100 -1.38900 44.23200
C  -2.50100 1.79100 42.06600
C  -4.53900 -0.44600 43.69300
O  -5.12300 0.48500 43.12300
C  -5.32000 -1.42500 44.40000
N  0.00700 -3.46600 45.66000
C  -1.36500 -3.52700 45.61600
C  -1.87600 -4.82300 46.35200
C  -0.55900 -5.54900 46.88500
C  0.47300 -4.62900 46.16700
C  -3.00100 -4.48700 47.45100
C  -0.36500 -7.10700 46.75500
C  -1.47200 -8.01500 47.31800
N  2.73800 -2.82900 45.24100
C  2.97800 -4.05600 45.86200
C  4.40200 -4.27600 46.16000
C  4.96900 -3.21400 45.46600
C  3.96900 -2.44300 44.90100
C  5.09700 -5.38700 46.90200
C  6.34000 -2.63600 45.09100
O  7.46800 -3.01200 45.36400
C  5.96200 -1.46900 44.13600
C  6.45100 -0.15200 44.67500
O  6.21300 0.19600 45.80700
O  7.29800 0.45700 43.79000
C  7.90500 1.72000 44.20500
H  0.14200 1.66700 41.95900
H  -3.28600 -2.80300 45.21100
H  2.25000 -5.56500 47.02100
H  4.93100 1.14400 42.55300
H  2.67800 1.18800 40.70700
H  3.89700 2.97200 42.51300
H  2.13500 3.09400 42.62300
H  2.95200 3.38800 41.10500
H  4.19200 -0.28700 40.10200
H  5.11700 -1.37700 41.07600
H  6.76700 -0.58300 40.16400
H  6.77400 0.58500 41.47800
H  -2.81500 1.46500 41.07500
H  -1.77500 2.60100 41.99400
H  -3.38200 2.18000 42.57700
H  -6.39700 -1.36800 44.24000
H  -5.11900 -1.28300 45.46100
H  -5.00200 -2.44600 44.18700
H  -2.26300 -5.49100 45.58200
H  -0.54600 -5.43700 47.96900
H  -3.86700 -5.13100 47.29400
H  -3.26500 -3.43300 47.36500
H  -2.71100 -4.61600 48.49400
H  0.55000 -7.39800 47.27200
H  -0.23200 -7.38700 45.71000
H  -1.83100 -8.60500 46.47500
H  -2.22400 -7.40600 47.81900
H  -1.09000 -8.77300 48.00200
H  5.31800 -6.22200 46.23900
H  4.56200 -5.68400 47.80500
H  6.00300 -4.87400 47.22600
H  6.46700 -1.62800 43.18300
H  8.93100 1.43300 44.43700
H  7.46700 2.03000 45.15300
H  7.73800 2.49500 43.45700
Mg 23.37200 -6.00200 46.88500
C  25.65000 -3.86800 45.29800
C  20.91900 -4.66400 44.87400
C  21.59800 -8.75500 47.28200
C  26.11900 -7.45900 48.50100
N  23.36100 -4.68500 45.05800
C  24.38700 -3.82500 44.72600
C  23.94900 -2.81900 43.69500
C  22.35400 -2.80400 43.88600
C  22.19000 -4.13200 44.62800
C  21.74900 -1.58500 44.60100
C  24.39200 -3.22600 42.24800
C  24.83300 -2.09800 41.41400
H  24.94000 -2.31000 39.93400
N  21.48200 -6.61800 46.28700
C  20.60800 -5.87200 45.47900
C  19.39400 -6.56900 45.31200
C  19.63200 -7.88400 45.88000
C  20.94200 -7.81800 46.49800
C  18.22400 -6.13900 44.49300
C  18.61700 -8.98000 45.83400
O  17.56600 -8.79000 45.25500
C  18.81800 -10.27800 46.50300
N  23.83500 -7.81700 47.75900
C  22.88200 -8.73900 47.88100
C  23.36900 -10.02200 48.66300
C  24.79400 -9.56700 49.10500
C  24.90900 -8.22000 48.42600
C  22.41200 -10.66700 49.75100
C  26.00900 -10.48600 48.96100
C  26.94400 -10.60000 50.13400
N  25.47700 -5.66000 47.04600
C  26.45600 -6.29800 47.82400
C  27.71500 -5.65200 47.70000
C  27.46100 -4.65100 46.74600
C  26.09600 -4.79000 46.31100
C  28.90700 -6.01500 48.40000
C  27.99700 -3.53200 45.97300
O  29.13000 -3.06900 45.92000
C  26.87700 -3.08900 45.01500
C  26.86800 -1.61900 45.15500
O  27.07000 -0.82100 44.27200
O  26.75400 -1.28700 46.51000
C  27.26300 -0.00200 46.88400
H  20.04300 -4.20800 44.40800
H  21.03400 -9.69000 47.30500
H  26.96300 -7.84200 49.07800
H  24.38000 -1.82300 43.80300
H  21.97200 -2.77600 42.86500
H  22.54300 -0.92800 44.95500
H  21.20900 -1.89100 45.49700
H  21.11700 -1.05500 43.88900
H  23.53000 -3.67200 41.75200
H  25.15900 -3.99200 42.36500
H  25.81100 -1.73000 41.72400
H  24.21300 -1.21900 41.59000
H  18.46000 -5.31000 43.82700
H  17.40600 -5.91800 45.17900
H  17.79400 -6.84700 43.78500
H  18.66000 -10.24400 47.58100
H  19.73900 -10.68200 46.08200
H  18.06200 -10.98100 46.15200
H  23.43300 -10.76200 47.86500
H  24.68200 -9.28900 50.15300
H  22.51400 -11.73800 49.57700
H  21.38800 -10.29800 49.69600
H  22.78500 -10.47800 50.75800
H  26.58000 -10.22200 48.07100
H  25.55300 -11.46500 48.80900
H  26.84900 -9.74600 50.80400
H  27.97200 -10.58900 49.77200
H  26.77700 -11.53900 50.66300
H  29.65200 -5.22300 48.31500
H  29.36700 -6.86700 47.90000
H  28.65100 -6.25400 49.43200
H  27.17700 -3.25600 43.98100
H  26.50300 0.77800 46.89800
H  28.11500 0.35500 46.30500
H  27.71800 0.08000 47.87100

