158

Mg 1.53100 -1.67800 44.17100
C  4.67400 -0.55300 43.41100
C  0.14400 0.89500 42.59700
C  -1.43400 -3.47600 43.98200
C  3.06300 -4.70200 45.29100
N  2.32200 -0.19900 42.82800
C  3.59500 0.19200 42.88700
C  3.76700 1.63400 42.40100
C  2.25200 2.19500 42.54900
C  1.50900 0.87700 42.62000
C  2.06700 3.08900 43.81800
C  4.41300 1.70400 40.94300
C  5.79100 2.17200 40.76900
H  6.57800 1.57900 39.61400
N  -0.46800 -1.21800 43.57100
C  -0.81200 -0.08400 42.88600
C  -2.31500 -0.10300 42.70300
C  -2.73700 -1.33600 43.15700
C  -1.53900 -2.09000 43.55000
C  -3.05900 1.09700 42.34300
C  -4.20700 -1.83500 43.16200
O  -5.20000 -1.10800 42.93600
C  -4.54000 -3.32500 43.44100
N  0.95800 -3.76900 44.56500
C  -0.37900 -4.16400 44.49200
C  -0.52500 -5.64800 44.81900
C  0.89400 -5.97700 45.39100
C  1.74900 -4.75400 45.09800
C  -1.61200 -5.98800 45.85200
C  1.48100 -7.36300 44.87000
C  1.85400 -8.36400 46.00100
N  3.47200 -2.49600 44.36800
C  3.89600 -3.64600 44.97100
C  5.36200 -3.59000 45.12500
C  5.68100 -2.41700 44.46900
C  4.50300 -1.79100 44.02400
C  6.25400 -4.51000 45.77400
C  6.76300 -1.55300 44.11200
O  7.97400 -1.64500 44.31900
C  6.14100 -0.25200 43.49500
C  6.41200 0.89500 44.43300
O  5.56900 1.23300 45.23000
O  7.66500 1.54200 44.26900
C  7.79200 2.73100 45.12900
H  -0.35100 1.79900 42.23400
H  -2.34000 -4.08400 43.93000
H  3.56000 -5.60700 45.64400
H  4.38200 2.20500 43.09700
H  1.90500 2.70800 41.65200
H  1.40100 2.58200 44.51700
H  1.53500 3.94900 43.41000
H  2.95100 3.35600 44.39700
H  3.68400 2.24000 40.33500
H  4.48200 0.69900 40.52700
H  6.35100 2.08800 41.70000
H  5.71600 3.25000 40.62400
H  -4.14000 0.96200 42.36400
H  -2.84500 1.32000 41.29700
H  -2.86100 1.90300 43.04800
H  -4.32900 -3.51200 44.49400
H  -4.09800 -4.07200 42.78100
H  -5.60500 -3.54000 43.34400
H  -0.71700 -6.20900 43.90400
H  0.92400 -5.80200 46.46700
H  -2.31700 -5.16400 45.74100
H  -1.26500 -6.15900 46.87100
H  -2.20200 -6.82300 45.47400
H  2.32400 -7.19100 44.20100
H  0.71600 -7.86500 44.27700
H  2.94100 -8.42800 46.05700
H  1.56400 -9.38300 45.74800
H  1.42400 -7.98200 46.92700
H  5.82900 -5.00700 46.64500
H  7.07300 -3.83500 46.02500
H  6.53800 -5.25000 45.02500
H  6.60200 -0.07900 42.52200
H  8.25400 2.47000 46.08100
H  6.90900 3.27600 45.46300
H  8.43200 3.51200 44.71900
Mg -2.50100 33.87200 27.88700
C  -4.13200 31.98400 30.23600
C  -1.54300 35.96600 30.45800
C  -1.16000 35.81400 25.56700
C  -4.03700 31.89100 25.38300
N  -2.73000 33.86000 30.18400
C  -3.47600 33.04200 30.96300
C  -3.46900 33.42100 32.38000
C  -2.89600 34.92800 32.31700
C  -2.36900 34.91300 30.91600
C  -3.89100 36.08600 32.55600
C  -2.82200 32.50800 33.46500
C  -3.58500 32.27600 34.82300
H  -2.76900 32.22800 36.14100
N  -1.41400 35.67800 27.95200
C  -1.05600 36.29200 29.18300
C  -0.11600 37.34500 28.80900
C  0.03200 37.32400 27.39300
C  -0.88200 36.28200 26.87200
C  0.44400 38.39800 29.75200
C  1.01400 38.08800 26.56800
O  1.18100 37.88700 25.37300
C  1.94700 39.03700 27.24900
N  -2.63400 33.87800 25.70300
C  -1.92800 34.82400 25.00700
C  -2.12400 34.66200 23.48100
C  -2.85700 33.29700 23.42300
C  -3.18900 32.94700 24.89800
C  -2.94100 35.80500 22.78100
C  -2.00500 32.20500 22.71500
C  -0.99000 31.40400 23.61100
N  -3.86600 32.33900 27.77800
C  -4.28000 31.54200 26.73900
C  -5.14800 30.48300 27.21200
C  -5.10300 30.65300 28.57300
C  -4.19700 31.68900 28.85100
C  -5.99200 29.49600 26.40900
C  -5.69400 30.04300 29.74400
O  -6.56500 29.21800 29.84400
C  -5.07000 30.98100 30.83300
C  -6.10400 31.73300 31.68000
O  -6.70600 32.75100 31.30900
O  -6.27400 31.21700 32.95200
C  -7.11400 32.04600 33.86600
H  -1.11000 36.57000 31.25800
H  -0.64200 36.37100 24.78300
H  -4.44700 31.34000 24.53400
H  -4.52700 33.52600 32.62000
H  -2.04300 35.15500 32.95600
H  -3.55000 36.82300 33.28300
H  -4.86100 35.75500 32.92500
H  -3.96800 36.75100 31.69600
H  -1.90900 32.97700 33.83200
H  -2.54900 31.53400 33.05900
H  -3.86000 31.24500 34.60300
H  -4.50700 32.83400 34.98900
H  -0.12400 38.32800 30.68000
H  0.35400 39.42800 29.40900
H  1.50400 38.28500 29.98100
H  2.76000 39.34700 26.59300
H  2.50500 38.61800 28.08600
H  1.43000 39.93800 27.58000
H  -1.12100 34.56600 23.06500
H  -3.85900 33.38000 23.00300
H  -3.78100 35.41300 22.20800
H  -2.32800 36.45300 22.15500
H  -3.29600 36.51600 23.52700
H  -1.40900 32.53000 21.86300
H  -2.72200 31.54500 22.22700
H  -1.24100 30.34300 23.59000
H  -1.04700 31.80000 24.62500
H  0.03700 31.51600 23.26100
H  -5.58400 29.31200 25.41500
H  -6.97400 29.94100 26.24800
H  -6.00300 28.56300 26.97300
H  -4.47700 30.38100 31.52300
H  -7.97600 32.38000 33.28800
H  -6.64100 32.94300 34.26600
H  -7.50300 31.45100 34.69300

