158

Mg 49.37500 45.85000 42.64200
C  45.95000 46.84700 41.94300
C  48.79700 43.12300 40.70800
C  52.55900 45.33300 42.90600
C  49.74800 49.31400 43.80300
N  47.59300 45.16400 41.59000
C  46.28400 45.60100 41.48700
C  45.43500 44.76300 40.57300
C  46.29300 43.43400 40.33600
C  47.65900 43.92800 40.94900
C  45.68200 42.14100 40.98200
C  44.95400 45.39900 39.23800
C  43.41100 45.35300 39.06600
H  42.97400 45.52800 37.59500
N  50.53700 44.39200 42.10300
C  50.11800 43.33000 41.30100
C  51.15000 42.43200 41.24000
C  52.28500 42.94200 41.97200
C  51.85500 44.26900 42.39800
C  51.13600 41.13100 40.37400
C  53.64900 42.32200 42.15200
O  53.92800 41.30800 41.59600
C  54.69700 42.94700 43.00700
N  50.91300 47.12400 43.12000
C  52.17300 46.61500 43.34100
C  53.16800 47.76400 43.55800
C  52.29000 49.03600 43.88900
C  50.91600 48.47900 43.59600
C  54.28200 47.48600 44.66000
C  52.61500 50.29500 43.18600
C  52.68000 51.60500 44.01100
N  48.14300 47.72800 42.90800
C  48.41500 48.93900 43.46800
C  47.25200 49.68100 43.55700
C  46.19100 48.86400 43.07200
C  46.80200 47.68600 42.59700
C  47.06800 51.04000 44.14200
C  44.82400 48.77100 42.77800
O  43.95600 49.54900 42.99000
C  44.58600 47.46600 41.95200
C  43.60700 46.78500 42.74800
O  43.54300 46.71600 43.99000
O  42.80300 46.08500 41.89500
C  41.95000 45.16600 42.61900
H  48.76200 42.23200 40.07700
H  53.64800 45.26300 42.90100
H  49.98400 50.31400 44.17300
H  44.51300 44.53300 41.10600
H  46.47800 43.19500 39.28900
H  44.62500 42.21600 41.23700
H  46.14700 41.86500 41.92900
H  45.78300 41.31500 40.27700
H  45.46100 44.88700 38.42000
H  45.29700 46.43000 39.14900
H  43.01200 46.24000 39.55900
H  42.87500 44.52600 39.53300
H  51.93300 40.46700 40.70900
H  51.41900 41.46000 39.37500
H  50.16000 40.64900 40.42900
H  54.23000 43.36600 43.89800
H  55.23300 43.73600 42.47800
H  55.45000 42.18200 43.19600
H  53.65200 47.93000 42.59500
H  52.20400 49.29300 44.94500
H  55.32800 47.50500 44.35400
H  54.11100 46.42600 44.84800
H  54.25000 48.09100 45.56600
H  51.88300 50.61500 42.44400
H  53.57400 50.13300 42.69300
H  52.86900 51.44700 45.07200
H  51.71600 52.10400 43.91100
H  53.46500 52.17900 43.52000
H  47.13400 51.79100 43.35600
H  47.89300 51.16100 44.84500
H  46.09200 51.11200 44.62000
H  44.14500 47.74900 40.99600
H  42.44900 44.22200 42.83700
H  41.08500 44.82600 42.04900
H  41.58800 45.63600 43.53300
Mg 5.97200 54.35100 40.81300
C  5.05100 51.01900 40.36600
C  9.11400 53.63100 39.39200
C  6.63500 57.55500 41.02500
C  2.58200 55.03700 41.85000
N  6.93600 52.56700 40.03800
C  6.38400 51.33600 39.89600
C  7.42000 50.30000 39.40500
C  8.81300 51.06000 39.52300
C  8.25700 52.49900 39.52100
C  9.56700 50.60700 40.81000
C  7.04700 49.99400 37.96300
C  7.67600 48.77800 37.28400
H  6.86300 48.13800 36.11100
N  7.55800 55.43100 40.22500
C  8.78200 54.96400 39.73900
C  9.63800 56.08300 39.53700
C  9.08900 57.23700 40.05800
C  7.69000 56.78600 40.48600
C  10.91900 56.00800 38.78400
C  9.72700 58.53300 40.09700
O  10.85700 58.71600 39.60800
C  9.07400 59.59000 40.79900
N  4.79100 56.06800 41.28200
C  5.33400 57.26300 41.39500
C  4.34600 58.37100 41.85400
C  3.03000 57.59200 41.88400
C  3.45600 56.10500 41.64200
C  4.64600 59.03400 43.27200
C  1.97900 57.96800 40.83200
C  0.93000 59.08200 41.20100
N  4.17200 53.26600 41.08200
C  2.94100 53.64400 41.58500
C  2.17800 52.44800 41.84800
C  3.00400 51.38500 41.34300
C  4.16100 51.91800 40.88800
C  0.85900 52.40000 42.50200
C  3.03300 49.94600 41.25300
O  2.31200 49.03800 41.65400
C  4.42500 49.70800 40.66300
C  4.36100 48.69200 39.56100
O  3.81400 48.75500 38.43900
O  5.09100 47.57800 39.98000
C  4.75200 46.35800 39.18100
H  10.16800 53.40500 39.21700
H  6.69200 58.64100 41.13400
H  1.62200 55.37000 42.25000
H  7.30400 49.39200 39.99600
H  9.36000 50.99200 38.58200
H  9.17900 49.72200 41.31300
H  9.45300 51.43400 41.51100
H  10.63200 50.60000 40.57500
H  7.26500 50.87500 37.35800
H  5.96800 49.90800 37.84000
H  8.00000 48.04400 38.02200
H  8.55000 49.18900 36.77700
H  11.79000 56.13900 39.42600
H  10.93300 56.83800 38.07700
H  11.01000 55.07200 38.23300
H  8.28700 59.97800 40.15200
H  9.72000 60.38200 41.17700
H  8.69200 59.02100 41.64700
H  4.55500 59.14700 41.11800
H  2.56000 57.58500 42.86700
H  3.66300 59.33100 43.63900
H  5.15500 59.94400 42.95300
H  5.35100 58.55800 43.95300
H  1.40600 57.16800 40.36400
H  2.56100 58.36200 39.99900
H  0.94100 59.79600 40.37700
H  1.26800 59.54900 42.12600
H  -0.06800 58.67000 41.35300
H  0.15700 52.32200 41.67200
H  0.66600 53.31900 43.05500
H  0.94300 51.48100 43.08300
H  5.05300 49.27400 41.44100
H  3.70000 46.08200 39.25100
H  5.38900 45.58400 39.61000
H  5.01300 46.51600 38.13400

