158

Mg 47.25900 35.72200 27.84100
C  45.37900 33.86500 30.37100
C  47.30300 38.29500 29.96900
C  48.48600 37.46100 25.43700
C  46.73700 32.89600 25.70500
N  46.53500 35.91900 29.97700
C  45.88200 35.02800 30.86700
C  45.95600 35.57700 32.31100
C  46.22700 37.10300 31.98900
C  46.81100 37.08900 30.53700
C  44.85600 37.85400 32.23700
C  47.05000 34.84200 33.13300
C  46.97600 34.77300 34.67100
H  46.00600 35.67100 35.41400
N  47.84100 37.66400 27.66500
C  47.81000 38.53700 28.64700
C  48.38600 39.79700 28.27800
C  48.90200 39.52300 26.94700
C  48.39000 38.15600 26.62200
C  48.51500 40.98900 29.21500
C  49.60700 40.33500 25.96900
O  49.90800 39.95600 24.87400
C  49.86600 41.76200 26.22300
N  47.53500 35.15900 25.83000
C  48.03500 36.12800 25.06800
C  48.41200 35.50200 23.70600
C  48.26700 33.98500 23.92900
C  47.36600 34.00300 25.15600
C  47.48300 35.99900 22.53700
C  49.60400 33.22500 24.27400
C  49.90500 31.86800 23.50300
N  46.20200 33.77600 27.91800
C  46.07200 32.77300 26.93600
C  45.43200 31.70200 27.50000
C  45.08700 32.07600 28.81900
C  45.59400 33.37300 29.05900
C  45.09300 30.34900 26.89700
C  44.48300 31.61900 30.04900
O  43.99700 30.56900 30.37000
C  44.46200 32.87700 31.04400
C  44.82300 32.30200 32.41900
O  45.77700 31.52500 32.66900
O  43.83700 32.66500 33.31900
C  43.87000 32.05700 34.63600
H  47.29800 39.16100 30.63400
H  48.87900 37.93100 24.53300
H  47.06100 32.02100 25.13700
H  45.02700 35.38100 32.84500
H  46.98800 37.45500 32.68600
H  44.91000 38.47400 33.13200
H  44.04300 37.12900 32.26000
H  44.72400 38.51800 31.38300
H  48.02900 35.24100 32.86700
H  47.09200 33.82300 32.74800
H  47.97000 34.84700 35.11100
H  46.68700 33.74100 34.87000
H  49.11700 41.82000 28.84800
H  48.88100 40.72100 30.20600
H  47.55400 41.48000 29.37100
H  49.76100 42.41600 25.35700
H  50.85500 41.93600 26.64700
H  49.12600 42.24000 26.86500
H  49.44600 35.57500 23.37000
H  47.89700 33.45100 23.05400
H  46.97200 36.92000 22.81600
H  46.74600 35.23500 22.28700
H  48.11900 36.12700 21.66000
H  49.74400 33.07200 25.34400
H  50.50000 33.82800 24.12500
H  50.05200 31.10600 24.26900
H  50.72200 31.96100 22.78800
H  49.04100 31.57000 22.90900
H  44.66700 30.23500 25.90000
H  44.40200 29.81300 27.54800
H  46.04700 29.82400 26.93100
H  43.46400 33.31500 31.00700
H  44.54500 31.20700 34.73500
H  42.91200 31.60000 34.88200
H  44.17000 32.79800 35.37700
Mg -1.21600 35.36800 26.80000
C  -2.98300 33.79200 29.39000
C  -0.09600 37.68800 29.12400
C  0.45500 36.86100 24.45800
C  -2.49500 32.96100 24.58500
N  -1.55900 35.68200 28.95900
C  -2.19000 34.88200 29.83400
C  -2.00900 35.26200 31.29700
C  -1.36200 36.68400 31.15800
C  -0.95100 36.67300 29.62700
C  -2.24100 37.83500 31.59500
C  -1.10100 34.19500 31.99200
C  -0.67100 34.58800 33.41300
H  -0.57800 33.64100 34.63300
N  -0.03800 37.13000 26.78900
C  0.26000 37.94100 27.81600
C  1.10700 38.99200 27.30100
C  1.07900 38.91700 25.88900
C  0.47200 37.62700 25.64600
C  1.71600 39.93300 28.23600
C  1.78600 39.85900 24.90300
O  1.98800 39.44800 23.78700
C  2.39300 41.10100 25.35900
N  -1.16600 35.01000 24.81700
C  -0.15700 35.67900 24.07700
C  -0.18600 35.23600 22.62300
C  -1.01300 33.91800 22.73300
C  -1.64800 33.94400 24.11500
C  -0.81700 36.20400 21.65000
C  -0.07000 32.61900 22.54700
C  0.91200 32.23900 23.68300
N  -2.60200 33.66100 26.87200
C  -3.00600 32.84500 25.88200
C  -4.04500 31.98400 26.44000
C  -3.96500 32.26800 27.84400
C  -3.14300 33.33400 28.04800
C  -4.99800 31.05400 25.75400
C  -4.45300 31.85200 29.13600
O  -5.19500 30.92000 29.43500
C  -3.87200 32.85100 30.21300
C  -5.01600 33.61800 30.78400
O  -5.76100 34.40700 30.19500
O  -5.25000 33.17800 32.10600
C  -6.46300 33.66000 32.77700
H  0.30300 38.20600 29.99900
H  1.11300 37.15100 23.63500
H  -2.84100 32.23200 23.84900
H  -2.98500 35.32300 31.77800
H  -0.42200 36.86500 31.67800
H  -1.87200 38.28700 32.51600
H  -3.26000 37.51500 31.81400
H  -2.43800 38.53900 30.78700
H  -0.32000 33.88700 31.29700
H  -1.74300 33.33100 32.16600
H  -1.22100 35.43100 33.83200
H  0.29600 35.05600 33.22300
H  1.54400 39.78500 29.30300
H  1.69800 40.97200 27.90700
H  2.75400 39.76400 27.94900
H  3.12900 41.50300 24.66200
H  3.07800 40.99500 26.20100
H  1.63600 41.87300 25.49600
H  0.86700 35.07000 22.39300
H  -1.75300 33.86300 21.93400
H  -1.81100 35.93300 21.29500
H  -0.10300 36.44600 20.86300
H  -0.96600 37.12700 22.21100
H  0.60100 32.84500 21.71800
H  -0.80600 31.83800 22.36000
H  0.80600 31.15500 23.73400
H  0.66400 32.67100 24.65300
H  1.93000 32.44100 23.35200
H  -4.71400 30.07800 26.14800
H  -4.85100 30.96900 24.67700
H  -5.98200 31.43200 26.03100
H  -3.34300 32.30500 30.99500
H  -6.83700 32.76800 33.28000
H  -7.31600 33.87500 32.13300
H  -6.31900 34.33800 33.61800

