158

Mg 0.34700 7.36500 26.45000
C  0.69900 9.61800 29.11200
C  0.25500 4.94200 28.77700
C  -0.08700 5.21700 23.96100
C  0.63900 10.04200 24.24600
N  0.47600 7.35200 28.69400
C  0.47900 8.36700 29.57500
C  0.36000 7.90800 31.03200
C  0.58200 6.33500 30.84700
C  0.49000 6.18600 29.33400
C  1.81200 5.78500 31.56100
C  -0.95200 8.25000 31.68600
C  -0.86900 8.44100 33.24800
H  0.40200 8.11600 34.01300
N  0.18500 5.34100 26.34600
C  0.14100 4.51600 27.39700
C  -0.21000 3.18900 26.95800
C  -0.07100 3.10900 25.55700
C  -0.00100 4.59100 25.20000
C  -0.60600 2.07400 27.99300
C  -0.26200 2.03300 24.62900
O  -0.16400 2.19300 23.43200
C  -0.52400 0.74000 25.09500
N  0.34300 7.54400 24.43200
C  -0.00300 6.54700 23.56600
C  -0.16300 7.07200 22.15800
C  -0.30400 8.52900 22.45000
C  0.28100 8.74700 23.79700
C  1.18500 6.79600 21.40000
C  -1.86100 8.90800 22.53300
C  -2.27300 10.13900 21.68100
N  0.79700 9.44200 26.58100
C  0.93100 10.41100 25.61700
C  1.15800 11.70800 26.19800
C  1.04700 11.51100 27.61900
C  0.81800 10.09800 27.73600
C  1.35200 12.93000 25.40700
C  1.02500 12.04700 28.88700
O  1.34400 13.16000 29.23000
C  0.81000 10.90300 29.90700
C  1.86700 10.98400 30.90300
O  3.06000 10.81000 30.71000
O  1.39200 11.50900 32.08000
C  2.44100 11.83500 33.12800
H  -0.06600 4.23800 29.54800
H  -0.23500 4.52900 23.12500
H  0.62500 10.88500 23.55300
H  1.16200 8.29000 31.66300
H  -0.28500 5.83000 31.27300
H  2.47800 6.57400 31.91100
H  2.41000 5.13800 30.92000
H  1.48900 5.20400 32.42500
H  -1.75500 7.52500 31.55300
H  -1.32700 9.19200 31.28700
H  -1.69500 7.98500 33.79400
H  -1.04100 9.49800 33.45300
H  0.12100 1.26600 27.92700
H  -1.60100 1.78400 27.65500
H  -0.64900 2.31600 29.05500
H  -1.38800 0.77200 25.75900
H  0.35300 0.43600 25.66700
H  -0.67600 -0.02700 24.33600
H  -1.07200 6.63100 21.74800
H  0.34100 9.17300 21.85100
H  0.95100 6.12600 20.57200
H  1.85300 6.16700 21.98800
H  1.83700 7.64400 21.19000
H  -2.17100 9.13900 23.55200
H  -2.41800 8.02400 22.22400
H  -3.15600 9.75700 21.16900
H  -1.50000 10.46000 20.98200
H  -2.53500 10.98500 22.31600
H  1.47400 13.79400 26.06000
H  0.44300 13.03100 24.81300
H  2.14000 12.82900 24.66100
H  -0.16600 11.04700 30.37100
H  3.00000 12.70200 32.77600
H  3.01200 10.93800 33.37000
H  1.81800 12.10900 33.97900
Mg 24.83200 -5.20200 45.28900
C  26.22000 -2.22600 44.02800
C  21.93700 -4.35500 43.74100
C  23.86500 -8.37100 45.78500
C  28.07700 -6.02100 46.48700
N  24.18700 -3.51900 43.93300
C  24.89600 -2.38500 43.57600
C  24.10300 -1.47900 42.62600
C  22.61800 -1.98400 43.01600
C  22.89900 -3.40000 43.53400
C  21.86900 -1.12600 44.07100
C  24.59100 -1.67400 41.11600
C  25.06800 -0.39800 40.43600
H  26.15100 -0.51200 39.43500
N  23.12900 -6.17100 44.99600
C  22.03700 -5.61700 44.40000
C  20.97400 -6.61600 44.46200
C  21.44800 -7.76200 45.18100
C  22.85400 -7.50200 45.35800
C  19.51800 -6.46300 43.86800
C  20.58800 -8.99100 45.50500
O  19.35800 -9.07100 45.35500
C  21.24000 -10.24500 46.09200
N  25.79900 -6.96300 46.10000
C  25.16600 -8.15300 46.22000
C  26.13400 -9.21100 46.88700
C  27.35000 -8.32300 47.38300
C  27.08800 -7.02600 46.60400
C  25.58600 -10.15300 47.98900
C  28.76200 -8.94900 47.05300
C  29.65400 -9.12000 48.25900
N  26.84500 -4.35900 45.29900
C  27.99700 -4.73000 45.90500
C  29.01500 -3.65600 45.73700
C  28.30600 -2.69600 45.01100
C  27.03800 -3.15500 44.73200
C  30.42200 -3.54000 46.31500
C  28.54700 -1.40900 44.42000
O  29.53200 -0.70900 44.42400
C  27.17100 -1.08900 43.71600
C  26.68600 0.21900 44.26700
O  26.34500 0.52200 45.41100
O  26.67200 1.17900 43.25200
C  26.34700 2.57600 43.60800
H  20.95600 -4.02400 43.39300
H  23.56800 -9.41900 45.86700
H  28.95400 -6.44800 46.97900
H  24.33400 -0.49000 43.02100
H  22.06800 -2.17100 42.09300
H  22.12000 -0.07500 43.92400
H  22.06900 -1.47900 45.08200
H  20.79800 -1.30500 43.97700
H  23.64300 -1.95000 40.65400
H  25.36900 -2.43700 41.08100
H  25.45300 0.16500 41.28600
H  24.29300 0.08600 39.84200
H  18.82000 -6.27400 44.68300
H  19.06400 -7.39100 43.51800
H  19.42800 -5.65500 43.14200
H  20.51900 -11.06100 46.12900
H  21.65200 -9.96900 47.06300
H  21.98400 -10.61200 45.38500
H  26.59300 -9.86900 46.14900
H  27.15500 -8.07300 48.42600
H  25.72100 -11.19100 47.68500
H  24.52300 -9.92000 48.04900
H  25.99100 -10.08700 48.99900
H  29.32100 -8.32700 46.35300
H  28.71700 -9.97200 46.68100
H  29.83900 -10.19400 48.29600
H  29.04500 -8.82300 49.11200
H  30.56400 -8.55500 48.05500
H  30.76700 -4.52600 46.62700
H  30.27100 -3.06200 47.28300
H  31.16600 -3.03900 45.69500
H  27.24700 -1.18000 42.63200
H  27.25400 2.84800 44.14800
H  25.50500 2.73000 44.28400
H  26.18100 3.08100 42.65700

