158

Mg 23.81700 -5.43500 46.49600
C  26.09700 -3.42800 44.79200
C  21.32500 -4.58700 44.35100
C  22.14400 -8.18900 47.42600
C  26.69900 -7.12300 47.85600
N  23.78800 -4.16100 44.84500
C  24.76000 -3.33600 44.36400
C  24.22100 -2.44400 43.26200
C  22.62200 -2.80800 43.23500
C  22.59300 -3.89500 44.27800
C  21.71900 -1.56100 43.50700
C  25.01000 -2.69300 41.83600
C  25.48600 -1.49200 41.06100
H  25.44400 -1.61600 39.55000
N  21.95000 -6.17400 46.11600
C  21.04500 -5.65900 45.21800
C  19.79600 -6.38100 45.29800
C  20.02900 -7.44700 46.17500
C  21.44000 -7.30400 46.64400
C  18.53700 -6.07200 44.52200
C  18.93600 -8.42400 46.64300
O  17.89700 -8.48000 46.06900
C  19.24500 -9.45600 47.75300
N  24.40400 -7.39200 47.62000
C  23.38600 -8.27100 47.93600
C  23.99300 -9.46200 48.71100
C  25.54600 -9.03900 48.93500
C  25.57000 -7.81200 48.06200
C  23.21800 -9.90800 49.97000
C  26.56300 -10.23300 48.70100
C  27.10800 -10.48500 47.38600
N  25.91400 -5.19600 46.57900
C  26.90600 -5.89400 47.19700
C  28.17400 -5.27400 46.92100
C  27.88000 -4.25400 46.06600
C  26.48900 -4.25100 45.81600
C  29.47300 -5.82200 47.38000
C  28.51700 -3.30300 45.18900
O  29.70500 -3.01000 45.04500
C  27.32500 -2.69300 44.35200
C  27.16500 -1.21300 44.68200
O  26.78900 -0.79300 45.75200
O  27.56800 -0.42700 43.61100
C  27.77100 0.98500 43.85700
H  20.58100 -4.36800 43.58300
H  21.70500 -9.12400 47.78100
H  27.59100 -7.59900 48.26700
H  24.38200 -1.43100 43.63100
H  22.43300 -3.12600 42.21000
H  21.95000 -1.20900 44.51200
H  20.69400 -1.91700 43.40100
H  22.09900 -0.84400 42.78000
H  24.34600 -3.12400 41.08700
H  25.85600 -3.37000 41.95500
H  26.50300 -1.45100 41.45200
H  24.87200 -0.71200 41.51100
H  18.57400 -5.12200 43.98900
H  17.66700 -6.07900 45.17900
H  18.29000 -6.78900 43.74000
H  18.28600 -9.91800 47.98700
H  19.54700 -8.97700 48.68500
H  19.99400 -10.20900 47.50900
H  23.86500 -10.33000 48.06400
H  25.59900 -8.69500 49.96800
H  23.84400 -10.06300 50.84900
H  22.66600 -10.79700 49.66600
H  22.49900 -9.09200 50.04800
H  26.06400 -11.17700 48.92000
H  27.43000 -10.14800 49.35500
H  28.18200 -10.65800 47.31100
H  26.85600 -9.77500 46.59900
H  26.72100 -11.46500 47.10600
H  29.68000 -6.73100 46.81600
H  29.45400 -5.94500 48.46300
H  30.35900 -5.22900 47.15100
H  27.54800 -2.90800 43.30600
H  27.28400 1.47600 43.01400
H  28.81000 1.31200 43.89000
H  27.27600 1.32600 44.76600
Mg 53.44600 24.29200 44.33400
C  50.62100 26.33100 43.25400
C  52.07800 21.72000 42.61200
C  56.45000 22.67500 44.46000
C  55.10500 27.24400 45.11600
N  51.61600 24.20300 42.95000
C  50.55000 25.07100 42.70900
C  49.45800 24.37500 41.92200
C  49.85400 22.92200 42.02400
C  51.24700 22.90500 42.69900
C  48.83500 22.01700 42.76000
C  49.31800 24.86400 40.41400
C  50.71100 25.06400 39.69300
H  50.50800 25.80000 38.33200
N  54.07400 22.41200 43.80200
C  53.37300 21.47300 43.17600
C  54.05300 20.23400 43.12900
C  55.29000 20.45600 43.69800
C  55.35600 21.90100 44.02000
C  53.49800 18.97300 42.54500
C  56.34000 19.39100 43.95300
O  56.13500 18.31800 43.50100
C  57.58100 19.63900 44.74600
N  55.46900 24.84400 44.77100
C  56.50500 23.98300 44.90300
C  57.87300 24.72100 45.07900
C  57.40500 26.19700 44.96000
C  55.88900 26.10900 45.02000
C  58.47100 24.45300 46.50100
C  57.88400 26.84700 43.68400
C  58.90900 27.99300 43.65400
N  52.96200 26.41700 44.41300
C  53.73100 27.35600 44.84800
C  52.84900 28.50700 44.98200
C  51.66900 28.22400 44.31500
C  51.75000 26.88000 43.98800
C  53.18200 29.67000 45.88300
C  50.45600 28.75100 43.85800
O  50.05400 29.89500 43.98900
C  49.70400 27.53400 43.16300
C  49.34200 28.09700 41.78300
O  50.08000 28.69300 40.98200
O  47.97000 28.04500 41.63400
C  47.36700 28.73400 40.45700
H  51.56600 20.86000 42.17500
H  57.42700 22.18800 44.47200
H  55.63000 28.14600 45.43700
H  48.47700 24.67700 42.29100
H  49.88400 22.59400 40.98500
H  48.25500 21.42400 42.05300
H  48.11700 22.71600 43.19000
H  49.32700 21.45000 43.55000
H  48.78100 25.80400 40.28800
H  48.67900 24.18800 39.84500
H  50.87000 24.04900 39.33000
H  51.54300 25.47800 40.26300
H  54.10400 18.59900 41.72000
H  52.56600 19.20700 42.03000
H  53.24300 18.24400 43.31400
H  57.87700 18.65800 45.11900
H  57.36200 20.33600 45.55500
H  58.36600 20.07200 44.12600
H  58.59700 24.45300 44.30900
H  57.73600 26.82800 45.78500
H  59.51900 24.15900 46.45300
H  57.80500 23.74900 46.99900
H  58.45900 25.40200 47.03800
H  56.96100 27.20600 43.22900
H  58.20200 26.03200 43.03300
H  59.38900 28.29000 44.58600
H  58.44700 28.87900 43.21700
H  59.66400 27.69300 42.92600
H  54.09100 30.21000 45.61700
H  53.18300 29.35000 46.92500
H  52.38700 30.41600 45.88800
H  48.81000 27.21400 43.69900
H  46.48100 29.28700 40.77100
H  46.97000 27.97500 39.78300
H  48.00300 29.35800 39.82800

