158

Mg 1.63000 -2.92200 44.84100
C  4.87000 -1.70900 44.14000
C  0.29800 -0.43100 42.74600
C  -1.37900 -4.61400 44.47900
C  3.05100 -5.79400 46.30700
N  2.48000 -1.17900 43.58900
C  3.87500 -0.97100 43.43300
C  4.02100 0.11500 42.33400
C  2.62500 0.84500 42.50300
C  1.69100 -0.25400 42.99900
C  2.61800 2.04600 43.53400
C  4.37900 -0.50200 40.92500
C  5.73800 -0.03000 40.28900
H  5.59300 0.59900 38.96200
N  -0.39200 -2.51000 43.88400
C  -0.68200 -1.43200 43.10900
C  -2.05300 -1.40300 42.68800
C  -2.61300 -2.68400 43.15800
C  -1.43700 -3.36300 43.80600
C  -2.78000 -0.32900 41.94600
C  -3.97400 -3.24800 43.07900
O  -4.84400 -2.55500 42.56400
C  -4.33300 -4.63900 43.51700
N  1.00000 -5.06300 45.10200
C  -0.30800 -5.34400 45.13500
C  -0.58900 -6.63000 46.03900
C  0.90600 -7.05600 46.48100
C  1.70000 -5.93800 45.92100
C  -1.56200 -6.40800 47.24900
C  1.22500 -8.49200 45.92300
C  1.39200 -9.65500 46.97100
N  3.57100 -3.59400 45.29700
C  3.98000 -4.72700 45.93400
C  5.43000 -4.62400 46.24700
C  5.81500 -3.47900 45.56300
C  4.63700 -2.86200 44.92700
C  6.27700 -5.58800 47.03900
C  6.93200 -2.68000 45.15400
O  8.18800 -2.78700 45.45100
C  6.39900 -1.60000 44.07400
C  6.96000 -0.27900 44.62100
O  8.00900 0.20000 44.15600
O  6.27100 0.15200 45.81400
C  6.43800 1.58800 46.03100
H  -0.05900 0.43400 42.18200
H  -2.17000 -5.36100 44.57200
H  3.40400 -6.66700 46.86000
H  4.84200 0.70600 42.74000
H  2.30900 1.19300 41.51900
H  3.64100 2.35200 43.75200
H  2.17100 1.79600 44.49600
H  2.09800 2.95800 43.24200
H  3.53200 -0.18000 40.31900
H  4.28800 -1.58400 41.01900
H  6.37600 -0.91400 40.30800
H  6.29100 0.72700 40.84500
H  -2.18600 0.58200 41.87400
H  -3.75600 -0.07100 42.35800
H  -2.90900 -0.57900 40.89300
H  -4.09700 -4.72700 44.57800
H  -3.74900 -5.36800 42.95600
H  -5.36700 -4.87600 43.26500
H  -1.13400 -7.38200 45.46700
H  1.07800 -6.96700 47.55400
H  -1.14900 -6.64000 48.23100
H  -2.50600 -6.94000 47.13200
H  -1.95700 -5.39300 47.21600
H  2.16800 -8.40900 45.38300
H  0.44500 -8.89200 45.27500
H  1.12500 -9.20900 47.93000
H  2.44500 -9.87700 47.14600
H  0.85700 -10.55300 46.66400
H  6.83900 -6.31000 46.44600
H  5.66500 -6.19100 47.70900
H  6.96800 -5.09700 47.72500
H  6.84500 -1.74400 43.09000
H  7.10000 2.10600 45.33800
H  6.73300 1.69000 47.07600
H  5.46400 2.07200 46.11100
Mg 26.89600 50.39800 26.73900
C  24.64300 51.43700 29.22700
C  29.31900 49.71900 29.25600
C  29.24300 49.92100 24.24200
C  24.64600 51.41000 24.32300
N  26.98700 50.74000 29.01200
C  25.88800 50.89300 29.79500
C  26.19300 50.62600 31.25800
C  27.67200 50.10200 31.24400
C  28.04800 50.16100 29.73700
C  28.63800 50.84000 32.16800
C  25.17800 49.68300 31.88900
C  24.64000 49.97800 33.31200
H  24.72700 48.96400 34.42700
N  28.92900 49.88600 26.73300
C  29.71300 49.58600 27.86700
C  31.00000 49.08800 27.43700
C  31.06500 49.24600 26.01100
C  29.73900 49.72600 25.56500
C  32.02800 48.71400 28.48600
C  32.19000 48.86300 25.09500
O  32.13800 49.03400 23.87300
C  33.50000 48.19200 25.60200
N  26.97800 50.69000 24.60100
C  27.95600 50.23800 23.77500
C  27.60500 50.42000 22.27100
C  26.05100 50.63900 22.38100
C  25.87600 50.97100 23.87000
C  28.42200 51.60100 21.60800
C  25.16700 49.47600 21.90100
C  24.11700 49.84000 20.83400
N  25.12200 51.38300 26.71500
C  24.29000 51.67000 25.67300
C  23.11700 52.32000 26.10500
C  23.19500 52.19700 27.51900
C  24.38300 51.56000 27.83900
C  21.96900 52.96400 25.26900
C  22.44400 52.46000 28.76100
O  21.35000 53.02800 28.90100
C  23.39700 51.95400 29.97100
C  23.79200 53.10400 30.74400
O  24.14500 54.16900 30.34700
O  23.75300 52.79800 32.03500
C  24.33800 53.83700 32.96400
H  29.88600 49.30200 30.09200
H  29.97200 49.75200 23.44700
H  24.02200 51.73500 23.48800
H  26.07000 51.53200 31.85100
H  27.59300 49.05300 31.52900
H  28.56600 50.55500 33.21800
H  28.22600 51.84200 32.28600
H  29.63300 51.04400 31.77300
H  25.71600 48.74600 32.02600
H  24.31300 49.59800 31.23000
H  23.57200 50.16300 33.19900
H  24.97500 50.94500 33.68700
H  32.77200 49.50900 28.43400
H  32.37500 47.69900 28.28700
H  31.63100 48.66400 29.49900
H  34.09600 49.01200 26.00200
H  33.85900 47.70800 24.69400
H  33.24800 47.39000 26.29600
H  27.85700 49.51900 21.71300
H  25.83300 51.59500 21.90600
H  28.98400 51.23800 20.74800
H  29.12800 51.82700 22.40700
H  27.68000 52.35800 21.35700
H  24.73400 48.96300 22.76000
H  25.84300 48.78700 21.39500
H  24.53400 49.80000 19.82800
H  23.77900 50.86900 20.95500
H  23.17600 49.29300 20.89200
H  21.13500 53.13800 25.94900
H  21.51100 52.16600 24.68300
H  22.22800 53.85500 24.69700
H  22.84500 51.24200 30.58500
H  24.76300 53.22600 33.76100
H  23.60300 54.50800 33.41000
H  25.11500 54.54700 32.68200

