158

Mg 8.72900 4.08400 27.06100
C  10.37900 2.68900 29.98300
C  7.11600 6.11600 29.28000
C  7.07000 5.26200 24.49800
C  10.41000 1.65000 25.19700
N  8.65200 4.17000 29.47900
C  9.40200 3.59500 30.40200
C  9.21700 4.20700 31.79100
C  8.12400 5.30400 31.51100
C  7.97800 5.23000 29.93800
C  6.82300 5.29700 32.37400
C  10.55000 4.84500 32.49000
C  10.87900 4.34200 33.91900
H  11.01600 5.38200 35.03700
N  7.31800 5.61600 26.81100
C  6.79500 6.32500 27.85600
C  5.88200 7.30800 27.30900
C  5.86100 7.09400 25.87200
C  6.77200 5.95100 25.68300
C  5.05900 8.26900 28.16400
C  5.14900 7.81300 24.71800
O  5.18400 7.46700 23.52400
C  4.53900 9.10000 24.94700
N  8.73700 3.52700 25.10300
C  7.96600 4.14900 24.24700
C  8.20800 3.54100 22.84700
C  9.29900 2.44600 23.06400
C  9.47900 2.47800 24.53500
C  6.94400 2.89300 22.16800
C  10.55400 2.78300 22.29100
C  11.37100 1.52200 21.75400
N  10.03800 2.46000 27.47200
C  10.62900 1.56600 26.60300
C  11.47600 0.62000 27.31600
C  11.48300 1.14100 28.65000
C  10.58600 2.22800 28.65900
C  12.18900 -0.53900 26.71100
C  11.99900 0.91400 29.97900
O  12.76500 0.03400 30.37800
C  11.36500 1.96700 30.87900
C  10.77400 1.18900 32.09200
O  9.79300 0.45900 32.06500
O  11.50600 1.36800 33.21400
C  11.19700 0.73500 34.53800
H  6.64600 6.82500 29.96500
H  6.53200 5.53900 23.58900
H  10.96000 0.85800 24.68500
H  8.71100 3.42400 32.35600
H  8.63500 6.25900 31.63400
H  5.94900 5.27300 31.72300
H  6.78000 6.22900 32.93900
H  6.89100 4.39800 32.98700
H  10.53100 5.93400 32.50200
H  11.46000 4.68600 31.91200
H  11.78200 3.73300 33.93600
H  10.15200 3.58100 34.20500
H  5.51200 9.24100 27.97000
H  5.07900 8.00400 29.22100
H  4.04500 8.46400 27.81300
H  3.80400 8.96900 25.74100
H  4.02700 9.35600 24.01900
H  5.36400 9.76700 25.19600
H  8.64600 4.23600 22.13100
H  8.93900 1.43900 22.85400
H  6.17000 2.60300 22.87900
H  7.20200 2.07300 21.49800
H  6.48100 3.67200 21.56300
H  11.14200 3.19100 23.11300
H  10.39600 3.42500 21.42400
H  11.70300 1.80000 20.75400
H  10.75900 0.63300 21.60400
H  12.21600 1.36600 22.42500
H  13.15300 -0.20600 26.32700
H  11.58900 -0.99300 25.92200
H  12.26300 -1.37800 27.40300
H  12.15400 2.60200 31.28300
H  10.15000 0.81800 34.83000
H  11.79500 1.30700 35.24800
H  11.56300 -0.28800 34.45500
Mg 47.68800 35.21400 28.16400
C  45.82000 33.37800 30.41200
C  47.70400 37.84100 30.47700
C  49.09300 37.22000 25.77000
C  47.72200 32.45700 25.97200
N  47.00000 35.52300 30.30600
C  46.25900 34.56200 31.00700
C  46.26800 34.88000 32.47100
C  46.48000 36.43100 32.36200
C  47.07100 36.69000 30.93300
C  45.12200 37.08200 32.52400
C  47.61900 34.29400 33.04500
C  48.09500 34.71700 34.41400
H  47.21000 35.44400 35.40000
N  48.38200 37.21100 28.14800
C  48.29900 38.09600 29.17200
C  48.86000 39.33400 28.71400
C  49.34100 39.19900 27.39100
C  48.92000 37.83800 27.06000
C  48.85600 40.60700 29.59600
C  50.21800 40.10000 26.52600
O  50.48200 39.87800 25.32300
C  50.77400 41.35200 27.12500
N  48.28000 34.85000 26.20200
C  48.85500 35.84100 25.40200
C  49.36300 35.28400 24.13800
C  48.94300 33.77200 24.23300
C  48.30900 33.63200 25.61100
C  48.68500 36.05100 22.95400
C  49.95900 32.78200 23.75600
C  50.02000 32.55100 22.19900
N  46.80800 33.36900 28.03000
C  46.88700 32.33700 27.11600
C  46.21200 31.15600 27.52300
C  45.65300 31.57700 28.77900
C  46.14400 32.90000 29.07900
C  45.98000 29.86800 26.76800
C  44.80000 31.21600 29.88600
O  44.18000 30.16800 30.08600
C  44.80600 32.38700 30.96500
C  44.99700 31.72900 32.27800
O  45.89000 30.94900 32.52200
O  44.07000 32.18900 33.16900
C  44.14500 31.63700 34.54000
H  47.87900 38.61900 31.22300
H  49.60300 37.80000 24.99800
H  48.07000 31.56500 25.44900
H  45.35500 34.57200 32.98100
H  47.16100 36.88100 33.08500
H  44.81000 37.64700 31.64600
H  44.99600 37.72800 33.39300
H  44.34200 36.32300 32.45600
H  48.33100 34.67300 32.31100
H  47.55000 33.20700 33.09700
H  48.97300 35.33700 34.22800
H  48.51900 33.84600 34.91400
H  49.74100 40.73100 30.22200
H  47.96600 40.71900 30.21400
H  48.78500 41.49400 28.96700
H  50.88300 41.30300 28.20900
H  50.15600 42.17000 26.75500
H  51.78100 41.50700 26.73900
H  50.44300 35.40000 24.05400
H  48.00600 33.65000 23.69000
H  48.03700 35.41400 22.35200
H  49.60600 36.25300 22.40700
H  48.09700 36.91700 23.25700
H  49.93200 31.79000 24.20900
H  50.96400 33.14500 23.97400
H  50.84200 33.10900 21.74900
H  49.11700 32.73300 21.61600
H  50.15000 31.47200 22.11900
H  46.96000 29.52100 26.44000
H  45.29300 30.14000 25.96600
H  45.50200 29.13700 27.42000
H  43.85900 32.92600 30.95200
H  44.01800 32.49500 35.20000
H  45.17100 31.31500 34.71600
H  43.37800 30.88300 34.71700

