158

Mg 47.79400 15.28000 29.13800
C  45.96800 15.06300 32.01500
C  49.81100 17.71500 30.80700
C  49.45600 15.95900 26.21400
C  45.32500 13.42100 27.41900
N  47.74200 16.39000 31.07200
C  47.08600 15.81000 32.22900
C  47.70700 16.36200 33.53800
C  48.48200 17.53100 33.04800
C  48.72400 17.17200 31.51700
C  47.78700 19.01400 33.19400
C  48.42100 15.31900 34.38200
C  48.17900 15.36100 35.89900
H  47.86600 16.58400 36.67400
N  49.44700 16.53800 28.61200
C  50.15500 17.40800 29.46200
C  51.25200 18.02200 28.69700
C  51.13000 17.59100 27.33000
C  49.98400 16.63000 27.32300
C  52.14000 19.01300 29.31000
C  51.97900 17.96100 26.10800
O  51.84500 17.48000 25.03100
C  53.02300 19.00800 26.29700
N  47.43100 14.76700 27.08200
C  48.30700 15.14300 26.09700
C  47.82000 14.57700 24.77700
C  46.57500 13.73200 25.16300
C  46.40500 13.92400 26.64400
C  47.48500 15.71300 23.76000
C  46.68400 12.19400 24.86600
C  46.16600 11.86800 23.41700
N  45.94900 14.46300 29.51100
C  45.07300 13.72800 28.75300
C  43.93100 13.29200 29.57000
C  44.25600 13.81000 30.83800
C  45.47800 14.45300 30.76700
C  42.78600 12.41600 29.24400
C  43.79800 13.80000 32.23500
O  42.79200 13.26900 32.75100
C  44.88300 14.55500 32.97500
C  44.31700 15.67000 33.80400
O  44.04700 16.77300 33.44700
O  44.22600 15.28300 35.11100
C  43.86700 16.33900 36.05700
H  50.51400 18.35500 31.34400
H  50.04800 16.13400 25.31300
H  44.63700 12.71900 26.94300
H  46.87300 16.70300 34.15100
H  49.42400 17.61400 33.59100
H  48.24300 19.35800 34.12200
H  46.71800 18.96100 33.40000
H  48.00800 19.73300 32.40600
H  49.48900 15.52400 34.29900
H  48.35300 14.32000 33.95200
H  49.05000 14.90300 36.36700
H  47.28700 14.73300 35.90100
H  53.19400 18.76500 29.18400
H  51.92600 19.17900 30.36500
H  51.91900 20.00400 28.91200
H  52.62200 19.93400 26.71000
H  53.36100 19.16400 25.27300
H  53.83900 18.66200 26.93200
H  48.52900 13.91900 24.27500
H  45.74900 14.25000 24.67600
H  47.55600 16.66500 24.28600
H  46.47600 15.59100 23.36600
H  48.13500 15.74400 22.88600
H  46.18500 11.71500 25.70900
H  47.74300 11.96100 24.97800
H  45.37400 11.12000 23.46800
H  46.95500 11.39600 22.83100
H  45.81600 12.77700 22.92800
H  41.87000 12.71600 29.75400
H  43.06500 11.38100 29.44000
H  42.57900 12.43900 28.17400
H  45.26700 13.82400 33.68600
H  42.78400 16.46000 36.04100
H  44.22000 17.35300 35.86800
H  44.12400 16.12500 37.09400
Mg 9.70000 48.40200 25.05700
C  7.30900 49.03900 27.74600
C  12.18600 49.43300 27.03900
C  11.58800 48.29100 22.33600
C  6.81200 48.13200 22.96100
N  9.70000 49.27300 27.14800
C  8.68300 49.34300 28.07100
C  9.32300 49.55800 29.48700
C  10.70100 50.26000 29.00400
C  10.91100 49.57500 27.65100
C  10.79400 51.78000 28.97700
C  9.50400 48.14200 30.24100
C  9.38100 48.25400 31.79900
H  9.23800 47.06500 32.80800
N  11.66400 48.62800 24.72200
C  12.51000 49.02700 25.67800
C  13.83100 48.97900 25.07800
C  13.76100 48.59500 23.66400
C  12.29900 48.55100 23.48400
C  15.06700 49.24600 25.87200
C  14.79200 48.37200 22.60500
O  14.50000 48.20200 21.45500
C  16.23100 48.31500 22.94600
N  9.24600 48.26100 23.01900
C  10.27600 48.10100 22.12400
C  9.78100 47.59400 20.75400
C  8.16100 47.66900 20.91000
C  8.06600 48.04500 22.37000
C  10.27600 48.40000 19.47200
C  7.44100 46.37500 20.63300
C  8.15300 45.07700 21.10200
N  7.53900 48.43600 25.22700
C  6.53300 48.33100 24.29400
C  5.25400 48.37600 24.90000
C  5.53800 48.55800 26.25200
C  6.93000 48.67000 26.41900
C  3.82900 48.26600 24.36100
C  4.90200 48.83900 27.55000
O  3.73600 48.95100 27.86200
C  6.10100 49.06700 28.59900
C  6.00900 48.02600 29.64700
O  6.39800 46.85800 29.41700
O  5.55700 48.44100 30.85400
C  5.61700 47.35800 31.86800
H  12.96800 49.93500 27.61400
H  12.13600 48.25300 21.39200
H  5.88900 47.91300 22.42000
H  8.63900 50.23800 29.99600
H  11.49900 49.96400 29.68500
H  9.82500 52.26600 28.86700
H  11.49500 52.01800 28.17600
H  11.30600 52.12700 29.87500
H  10.47300 47.69800 30.00900
H  8.71200 47.48400 29.88500
H  8.47200 48.80400 32.04100
H  10.25600 48.82500 32.11100
H  14.90200 49.83100 26.77700
H  15.79400 49.79500 25.27200
H  15.53900 48.27900 26.04400
H  16.65100 47.53500 22.31100
H  16.21400 48.05000 24.00300
H  16.74100 49.27800 22.93600
H  10.20000 46.58800 20.75600
H  7.73400 48.46100 20.29500
H  9.45800 49.00500 19.08000
H  10.63100 47.85900 18.59600
H  11.01100 49.14900 19.76600
H  7.23100 46.25800 19.56900
H  6.45000 46.36100 21.08800
H  7.30500 44.47200 21.42200
H  8.90200 45.19800 21.88500
H  8.55500 44.55800 20.23200
H  3.73200 48.59700 23.32700
H  3.12600 48.81900 24.98400
H  3.46000 47.24400 24.43800
H  5.93000 50.08000 28.96000
H  4.76400 46.68700 31.76900
H  5.62800 47.76300 32.88000
H  6.48900 46.71100 31.76800

