158

Mg 25.73300 0.61800 29.05600
C  27.73000 0.29300 31.80200
C  23.07900 1.56300 31.03500
C  23.80500 0.92600 26.26900
C  28.38100 -0.73700 27.11600
N  25.48900 0.96300 31.15300
C  26.45200 0.82500 32.10500
C  25.88700 1.23100 33.44300
C  24.43200 1.60700 33.19900
C  24.25800 1.24700 31.69500
C  23.37300 0.85600 34.06800
C  26.67900 2.36200 34.18100
C  27.26500 2.07800 35.58300
H  27.12400 3.25000 36.59900
N  23.77600 1.18400 28.72600
C  22.80100 1.45100 29.68200
C  21.54800 1.71200 29.00900
C  21.72700 1.53100 27.63900
C  23.13500 1.18500 27.50400
C  20.33200 2.24100 29.70300
C  20.64600 1.67700 26.44400
O  20.86900 1.49100 25.20800
C  19.23700 1.91000 26.80800
N  25.96300 0.08600 26.94900
C  25.09400 0.46200 25.94600
C  25.63900 0.23600 24.50900
C  27.07200 -0.32700 24.83900
C  27.21000 -0.26300 26.43000
C  24.72600 -0.76300 23.61900
C  28.22600 0.35600 24.12600
C  28.72300 1.67300 24.69400
N  27.58800 -0.18800 29.30600
C  28.59900 -0.68600 28.49400
C  29.74100 -0.97500 29.20200
C  29.51200 -0.61400 30.53300
C  28.13000 -0.18300 30.53700
C  30.98600 -1.59400 28.58000
C  30.02400 -0.55100 31.92200
O  31.11300 -0.84900 32.33300
C  28.92200 0.06100 32.70500
C  28.62600 -0.96100 33.73100
O  27.93000 -1.96700 33.58000
O  29.08400 -0.56100 34.96100
C  28.80600 -1.50300 36.05200
H  22.24100 1.86100 31.66800
H  23.15200 0.94600 25.39400
H  29.23500 -1.09200 26.53500
H  25.98100 0.48900 34.23600
H  24.26800 2.67200 33.36300
H  22.31300 1.05300 33.90800
H  23.70300 1.28600 35.01300
H  23.54500 -0.20700 34.24000
H  26.13500 3.30400 34.24800
H  27.54700 2.57200 33.55500
H  28.32000 1.82200 35.48900
H  26.95000 1.15300 36.06700
H  20.45600 2.45500 30.76400
H  19.53900 1.49500 29.74300
H  20.00200 3.15600 29.21100
H  19.17100 2.92700 27.19600
H  19.00200 1.11700 27.51800
H  18.55900 1.70600 25.98000
H  25.75700 1.11400 23.87500
H  27.04300 -1.40100 24.65700
H  23.75300 -0.83000 24.10600
H  25.19600 -1.74100 23.51800
H  24.49100 -0.36900 22.63000
H  27.96400 0.54300 23.08500
H  29.06600 -0.33800 24.15400
H  28.23800 1.94400 25.63200
H  28.59700 2.50200 23.99700
H  29.78100 1.56100 24.92800
H  30.69700 -2.23000 27.74300
H  31.39300 -2.30100 29.30200
H  31.77700 -0.98100 28.14700
H  29.33700 0.92200 33.22700
H  29.23600 -2.49200 35.89400
H  27.75500 -1.50100 36.34200
H  29.32200 -1.06100 36.90400
Mg -11.18200 16.42300 41.27800
C  -7.86300 15.26800 41.03200
C  -10.35100 19.35600 39.92400
C  -14.42100 17.04400 40.98200
C  -12.13900 13.04800 42.13100
N  -9.26200 17.16500 40.58900
C  -8.00900 16.56400 40.53200
C  -6.96800 17.58200 40.09600
C  -7.82600 18.91400 39.95100
C  -9.23800 18.44900 40.07800
C  -7.47600 19.90700 41.15600
C  -6.28500 17.15900 38.71500
C  -4.74100 16.92600 38.64300
H  -4.23200 16.70200 37.17200
N  -12.27300 18.01100 40.69000
C  -11.73900 19.16500 40.16200
C  -12.77400 20.13100 39.94600
C  -13.95000 19.57500 40.34300
C  -13.61200 18.15200 40.77700
C  -12.51100 21.53400 39.52900
C  -15.34000 20.26900 40.51600
O  -15.57200 21.28400 39.87500
C  -16.40400 19.70400 41.25300
N  -13.02000 15.20400 41.28700
C  -14.22300 15.74900 41.13900
C  -15.38100 14.71300 41.09900
C  -14.71800 13.43300 41.70300
C  -13.15800 13.87200 41.57800
C  -16.71600 15.22600 41.80800
C  -15.09600 12.06600 41.28000
C  -15.41100 11.00500 42.44000
N  -10.27500 14.54300 41.61100
C  -10.77100 13.31800 42.00200
C  -9.61900 12.41400 42.20500
C  -8.47400 13.12500 41.88000
C  -8.90900 14.39900 41.45000
C  -9.65400 11.02300 42.68000
C  -7.02900 13.10100 41.75900
O  -6.20900 12.18500 41.93800
C  -6.54500 14.48700 41.18000
C  -5.54700 15.17300 42.07200
O  -5.77400 16.00000 42.97000
O  -4.26200 14.80700 41.78700
C  -3.25700 15.48700 42.66900
H  -9.93800 20.35400 39.76300
H  -15.49500 17.20100 40.86400
H  -12.44500 12.03400 42.39700
H  -6.15600 17.58700 40.82200
H  -7.66400 19.44600 39.01400
H  -6.79700 20.68800 40.81400
H  -6.82300 19.40000 41.86600
H  -8.38700 20.19300 41.68200
H  -6.58300 17.87700 37.95000
H  -6.69200 16.18100 38.46000
H  -4.52700 16.06600 39.27700
H  -4.32500 17.78900 39.16500
H  -12.99100 21.70000 38.56500
H  -11.47300 21.86600 39.51500
H  -13.09100 22.20800 40.16000
H  -17.34200 20.25500 41.31800
H  -16.12100 19.34700 42.24300
H  -16.57400 18.78300 40.69500
H  -15.58800 14.59400 40.03500
H  -14.88600 13.43400 42.78000
H  -16.58000 16.14700 42.37500
H  -16.69400 14.48400 42.60600
H  -17.65600 15.11100 41.26800
H  -14.46200 11.64600 40.49900
H  -16.04100 12.13300 40.74300
H  -14.78700 11.10300 43.32800
H  -15.36200 9.96300 42.12400
H  -16.47000 11.11900 42.66700
H  -8.77300 10.88300 43.30600
H  -9.63400 10.24300 41.91900
H  -10.60100 10.89000 43.20300
H  -6.06900 14.39500 40.20300
H  -2.38100 15.71300 42.06000
H  -3.07000 14.83200 43.52000
H  -3.58400 16.47000 43.00700

