158

Mg 16.64700 51.31400 27.09700
C  18.74300 50.15300 29.74200
C  14.39100 52.16300 29.31900
C  14.88500 52.36000 24.49200
C  19.15200 50.19100 24.88900
N  16.63200 51.25000 29.22600
C  17.56000 50.77800 30.16900
C  17.20900 51.05900 31.61600
C  15.70600 51.43800 31.48400
C  15.49900 51.61900 29.91400
C  14.64900 50.56000 32.16900
C  18.04500 52.23900 32.17800
C  18.37200 52.26600 33.67000
H  17.19600 51.79100 34.56300
N  14.89400 52.22500 26.89700
C  14.08100 52.50400 27.98000
C  12.98700 53.27900 27.55400
C  13.00400 53.33300 26.08500
C  14.27500 52.61300 25.75300
C  12.01600 53.96400 28.44700
C  12.02100 53.83400 25.01600
O  12.21100 53.77200 23.81000
C  10.80700 54.67500 25.52700
N  17.00800 51.21100 24.91900
C  16.09400 51.81400 24.04100
C  16.59700 51.86700 22.62900
C  17.98100 51.15800 22.75600
C  18.13400 50.92200 24.27400
C  15.66800 51.19300 21.59900
C  19.22800 51.87100 22.15900
C  19.68800 51.27100 20.80900
N  18.45600 50.29500 27.22200
C  19.31200 49.81600 26.26800
C  20.33800 49.05700 26.82900
C  20.20500 49.22800 28.22000
C  19.07600 49.99600 28.38100
C  21.45400 48.48600 26.02500
C  20.81100 48.89900 29.53500
O  21.81200 48.25100 29.74000
C  19.85200 49.53000 30.59300
C  19.32000 48.50700 31.53300
O  18.44000 47.70400 31.31700
O  20.07200 48.53300 32.71100
C  19.76700 47.43000 33.65600
H  13.62900 52.39200 30.06600
H  14.30700 52.83500 23.69600
H  19.96400 49.93700 24.20400
H  17.39500 50.18200 32.23600
H  15.66000 52.43900 31.91200
H  14.06800 50.01100 31.42800
H  13.96700 51.19200 32.73800
H  15.22000 49.89700 32.81900
H  17.53900 53.19900 32.07400
H  18.94700 52.32300 31.57200
H  18.59700 53.31100 33.88000
H  19.27200 51.67600 33.84100
H  11.10000 53.38000 28.53900
H  11.81200 55.00300 28.18900
H  12.39000 53.97200 29.47100
H  11.17700 55.60600 25.95500
H  10.27300 54.13800 26.31100
H  10.15800 54.88200 24.67700
H  16.76200 52.88700 22.28100
H  17.87400 50.16300 22.32300
H  15.00300 51.94300 21.17200
H  15.12800 50.48000 22.22200
H  16.15700 50.53000 20.88500
H  20.05900 51.74100 22.85200
H  19.23900 52.95700 22.06600
H  20.17600 52.08900 20.27900
H  18.87200 50.88100 20.20000
H  20.45900 50.52900 21.01500
H  21.08100 48.10500 25.07400
H  21.92800 47.70100 26.61400
H  22.09400 49.35800 25.88700
H  20.33200 50.21700 31.29000
H  20.13500 46.50500 33.21400
H  18.68600 47.36300 33.78100
H  20.32000 47.78400 34.52600
Mg -2.57300 34.16000 26.43900
C  -3.91700 32.35800 29.18600
C  -1.08600 36.20500 28.71400
C  -1.57900 35.77000 23.76400
C  -4.58900 32.21400 24.32400
N  -2.65000 34.33400 28.66000
C  -3.09900 33.41900 29.60600
C  -2.75500 33.84700 31.08500
C  -1.90600 35.16500 30.81800
C  -1.94300 35.25500 29.29200
C  -2.39100 36.45500 31.46200
C  -1.87900 32.94700 32.00400
C  -2.56000 32.47000 33.25900
H  -1.74100 32.15400 34.53800
N  -1.50600 35.70100 26.27900
C  -0.90800 36.44000 27.30100
C  0.05800 37.29600 26.68800
C  -0.00800 37.07700 25.29100
C  -1.13300 36.16300 25.03000
C  0.94400 38.13600 27.51500
C  0.94800 37.60700 24.19300
O  0.72400 37.54200 23.02900
C  2.19800 38.40500 24.55200
N  -3.29000 34.26700 24.39000
C  -2.61000 34.88500 23.48000
C  -3.08400 34.57600 22.03800
C  -3.95900 33.38000 22.27600
C  -3.98200 33.26300 23.74600
C  -3.71200 35.77000 21.19500
C  -3.53200 32.04900 21.54100
C  -2.63200 30.88600 22.19200
N  -3.92700 32.58400 26.61200
C  -4.63200 31.81700 25.70500
C  -5.32800 30.73300 26.32900
C  -5.17000 31.01400 27.65700
C  -4.26500 32.08200 27.82700
C  -6.18600 29.76400 25.65700
C  -5.48900 30.50700 28.96700
O  -6.25600 29.60100 29.29900
C  -4.64400 31.28600 29.97600
C  -5.53400 31.92000 31.05500
O  -6.21200 32.91700 31.03200
O  -5.53700 31.02300 32.16700
C  -6.50900 31.39700 33.15600
H  -0.63200 36.88400 29.43800
H  -1.15600 36.25700 22.88300
H  -5.12800 31.62600 23.57800
H  -3.63300 34.00200 31.71300
H  -0.85400 35.01500 31.05900
H  -1.72800 36.69500 32.29300
H  -3.32600 36.33200 32.00900
H  -2.33900 37.32700 30.81000
H  -0.87600 33.33900 32.17100
H  -1.63300 32.08400 31.38600
H  -2.80900 31.44200 32.99600
H  -3.45100 33.06500 33.46200
H  1.11100 39.05500 26.95100
H  1.97000 37.77000 27.48100
H  0.55500 38.34500 28.51100
H  2.73200 38.14700 25.46700
H  1.90300 39.44300 24.70500
H  2.84500 38.17800 23.70500
H  -2.19500 34.23200 21.50900
H  -5.00600 33.50300 21.99900
H  -2.89600 36.35600 20.77200
H  -4.14800 36.55200 21.81700
H  -4.37200 35.43400 20.39500
H  -2.96400 32.39300 20.67700
H  -4.46200 31.53200 21.30300
H  -1.98900 31.29100 22.97300
H  -1.91800 30.47100 21.48000
H  -3.28100 30.08500 22.54600
H  -6.46300 29.94200 24.61800
H  -7.05900 29.61900 26.29300
H  -5.62000 28.83400 25.69200
H  -3.87600 30.68300 30.46100
H  -6.07700 32.12900 33.83900
H  -6.63900 30.50600 33.77000
H  -7.48500 31.67400 32.75700

