158

Mg 0.74000 8.04300 26.06900
C  1.39800 10.26400 28.53500
C  1.21900 5.49100 28.07400
C  0.24900 6.03600 23.28700
C  0.52700 10.76600 23.77900
N  1.17700 7.99200 28.11800
C  1.34000 8.94000 29.02200
C  1.53400 8.34200 30.51100
C  1.55800 6.84500 30.25600
C  1.28400 6.75000 28.67200
C  2.91500 6.09600 30.70400
C  0.42000 8.91900 31.33600
C  0.19700 8.45000 32.80800
H  1.43200 8.12500 33.58400
N  0.65200 6.04100 25.71900
C  0.89700 5.12300 26.73000
C  0.78200 3.81700 26.26300
C  0.51300 3.93700 24.81000
C  0.45800 5.40800 24.52300
C  0.99200 2.59200 27.18400
C  0.46900 2.86900 23.79100
O  0.10700 2.95100 22.63400
C  0.67600 1.54100 24.25400
N  0.48300 8.40700 23.85100
C  0.32800 7.40100 22.99200
C  -0.13700 7.82900 21.57700
C  -0.39000 9.37700 21.78800
C  0.19700 9.57000 23.23400
C  0.90500 7.52100 20.50900
C  -1.85300 9.93100 21.68300
C  -2.24100 11.01200 20.69400
N  1.08700 10.06500 26.09600
C  0.97400 11.09500 25.11100
C  1.35300 12.32100 25.66100
C  1.50900 12.12400 27.04600
C  1.35900 10.70400 27.24000
C  1.43100 13.58900 24.98100
C  1.84600 12.72400 28.34700
O  2.28100 13.84000 28.59100
C  1.58800 11.58300 29.34600
C  2.81900 11.60500 30.19700
O  4.01500 11.39700 29.92700
O  2.47600 11.85500 31.50600
C  3.65400 11.97100 32.37600
H  1.41700 4.63700 28.72600
H  -0.04400 5.29500 22.54100
H  0.25500 11.58700 23.11300
H  2.48100 8.72200 30.89400
H  0.76600 6.35900 30.82500
H  2.66000 5.25300 31.34700
H  3.59200 6.76700 31.23300
H  3.41400 5.59900 29.87200
H  -0.52900 8.76800 30.82200
H  0.56400 9.99900 31.36700
H  -0.55300 7.66300 32.88900
H  -0.21300 9.35200 33.26200
H  1.04900 2.79700 28.25300
H  1.90200 2.08700 26.85900
H  0.19400 1.88100 26.97300
H  1.63900 1.46300 24.76000
H  0.68800 0.82200 23.43400
H  -0.09400 1.21500 24.95300
H  -1.08300 7.34000 21.34600
H  0.27100 10.01600 21.20200
H  0.89800 6.49900 20.12900
H  1.93700 7.69900 20.81100
H  0.79500 8.20100 19.66400
H  -2.13800 10.25200 22.68400
H  -2.47300 9.03700 21.60100
H  -3.15900 10.79600 20.14700
H  -1.52100 11.15600 19.88900
H  -2.20200 11.96100 21.22900
H  0.49000 14.11300 24.81600
H  1.84200 13.38200 23.99300
H  2.11800 14.19500 25.57200
H  0.66000 11.80800 29.87100
H  4.28100 11.08800 32.24900
H  3.41800 12.00000 33.44000
H  4.23100 12.89000 32.27700
Mg 30.51400 58.49300 39.82200
C  27.78800 56.30200 39.10400
C  32.66600 55.72800 39.11800
C  32.95100 60.61800 39.90200
C  28.16700 61.17800 39.68400
N  30.26700 56.27900 39.19500
C  29.01500 55.66000 39.12600
C  29.27100 54.30400 38.49100
C  30.76500 54.00100 38.98900
C  31.30300 55.40300 39.07400
C  30.86200 53.12600 40.21100
C  29.18700 54.31800 36.93900
C  28.39900 53.18800 36.25600
H  27.90900 53.49300 34.79500
N  32.55500 58.16800 39.57000
C  33.27500 57.03800 39.15500
C  34.61000 57.30900 39.03800
C  34.80000 58.67300 39.35500
C  33.40500 59.27500 39.64300
C  35.74900 56.34200 38.73500
C  36.09900 59.49200 39.44700
O  37.15300 58.95700 39.11600
C  36.25900 60.89300 39.79800
N  30.48600 60.61400 39.77500
C  31.67100 61.18700 40.03300
C  31.60100 62.59200 40.15400
C  30.11800 62.87200 39.93900
C  29.54400 61.47500 39.73000
C  32.28400 63.27200 41.44300
C  29.78000 63.86000 38.72200
C  29.63400 63.27900 37.25700
N  28.38700 58.76700 39.57000
C  27.59900 59.93100 39.52800
C  26.24900 59.48200 39.37700
C  26.28000 58.13000 39.06400
C  27.59300 57.69300 39.28800
C  25.01300 60.34900 39.36400
C  25.41800 57.00700 38.63500
O  24.19800 56.85000 38.42100
C  26.43700 55.76800 38.60000
C  25.96700 54.55400 39.33600
O  26.10700 54.41500 40.54900
O  25.31700 53.62900 38.53800
C  24.67700 52.41700 39.17900
H  33.30500 54.85100 38.99000
H  33.77600 61.30000 40.11700
H  27.50300 62.02900 39.84700
H  28.66000 53.49700 38.89600
H  31.16600 53.44100 38.14500
H  31.53100 52.33200 39.87900
H  29.91000 52.83500 40.65300
H  31.32800 53.72200 40.99600
H  30.20500 54.16900 36.57900
H  28.86000 55.31500 36.64400
H  27.41800 53.06000 36.71200
H  29.08900 52.34500 36.22400
H  36.15100 56.34000 37.72200
H  35.32500 55.33800 38.77000
H  36.54700 56.38400 39.47500
H  35.89400 61.14800 40.79300
H  35.58100 61.40800 39.11700
H  37.19600 61.32900 39.45200
H  32.18000 62.96300 39.30800
H  29.72100 63.29800 40.86000
H  32.85800 62.70800 42.17900
H  31.49400 63.77300 42.00200
H  32.85100 64.16100 41.16900
H  30.43500 64.72200 38.59600
H  28.83600 64.29600 39.05000
H  28.58100 63.02300 37.13200
H  30.21100 62.35900 37.17300
H  29.84000 64.01900 36.48400
H  24.46700 60.35300 40.30700
H  24.30600 59.98400 38.61900
H  25.23000 61.38800 39.11800
H  26.54600 55.49800 37.55000
H  25.27700 52.04900 40.01100
H  24.58800 51.66500 38.39500
H  23.67900 52.62600 39.56500

