158

Mg 3.67700 0.40500 44.14900
C  6.33500 2.54100 44.10300
C  1.75300 2.89800 42.48800
C  1.32900 -2.03300 43.31200
C  5.55100 -1.95900 45.66200
N  4.01600 2.43600 43.36600
C  5.20700 3.12200 43.41100
C  5.13600 4.55600 42.75200
C  3.61800 4.61200 42.43600
C  3.06200 3.21900 42.75900
C  2.88800 5.69200 43.22900
C  6.11800 4.77900 41.61200
C  6.52800 3.63600 40.67700
H  7.35800 3.92200 39.44600
N  1.73200 0.41300 43.06400
C  1.09700 1.60200 42.63100
C  -0.23100 1.24400 42.24600
C  -0.40800 -0.20500 42.52300
C  0.95200 -0.70400 42.97300
C  -1.21200 2.23300 41.70300
C  -1.69500 -0.91600 42.14700
O  -2.66000 -0.25400 41.75800
C  -1.94000 -2.40400 42.16000
N  3.57400 -1.75600 44.15900
C  2.50400 -2.49900 43.94600
C  2.74200 -3.99500 44.16400
C  4.09000 -3.91700 44.97100
C  4.41400 -2.42500 44.95500
C  1.65300 -4.70000 44.94600
C  5.18700 -4.82400 44.31900
C  5.94500 -5.61000 45.39700
N  5.55900 0.29900 44.76000
C  6.19200 -0.75200 45.40200
C  7.44600 -0.27000 45.83100
C  7.61200 1.01700 45.29800
C  6.38700 1.29100 44.67600
C  8.40000 -0.98900 46.73900
C  8.51900 2.18800 45.12700
O  9.69800 2.29000 45.45700
C  7.70800 3.26300 44.40700
C  7.46400 4.39300 45.44700
O  8.36000 5.03900 45.97200
O  6.15500 4.54500 45.77800
C  5.76500 5.70900 46.59600
H  1.18400 3.65000 41.93800
H  0.50100 -2.73400 43.18800
H  6.10600 -2.66700 46.28000
H  5.56900 5.23400 43.48800
H  3.42800 4.63800 41.36300
H  3.54800 6.52100 43.48200
H  2.29100 5.28900 44.04600
H  2.20800 6.07300 42.46700
H  6.96900 5.16400 42.17400
H  5.75100 5.59700 40.99300
H  5.63700 3.13500 40.29900
H  7.06100 2.97400 41.35900
H  -1.20100 2.02400 40.63400
H  -0.93100 3.27200 41.87600
H  -2.22300 2.13200 42.09900
H  -2.10500 -2.88200 43.12600
H  -1.07400 -2.92600 41.75200
H  -2.77000 -2.51900 41.46200
H  2.85100 -4.52700 43.21900
H  3.83600 -4.26600 45.97200
H  1.16600 -3.87200 45.46100
H  1.92800 -5.45300 45.68500
H  0.94400 -5.19300 44.28100
H  5.94100 -4.14300 43.92400
H  4.78600 -5.39300 43.48000
H  7.01600 -5.59100 45.19700
H  5.71000 -6.67000 45.30600
H  5.78200 -5.13700 46.36600
H  9.16400 -0.32500 47.14400
H  9.07000 -1.72400 46.29200
H  7.87900 -1.57000 47.50000
H  8.27900 3.53400 43.51900
H  4.70000 5.93800 46.55900
H  6.24200 6.66200 46.36800
H  5.94000 5.50400 47.65200
Mg 34.02900 49.28800 24.89000
C  34.00500 47.48500 27.90600
C  32.51600 51.88000 26.51600
C  33.76200 50.78900 21.92400
C  35.29500 46.31700 23.34400
N  33.53600 49.68700 27.02400
C  33.65700 48.83000 28.04000
C  33.54600 49.57100 29.36600
C  32.92600 50.92300 28.88500
C  32.92200 50.85000 27.37800
C  31.55500 51.30100 29.54700
C  34.88900 49.64700 30.12800
C  34.84700 49.28800 31.62500
H  33.56600 49.30400 32.42100
N  33.27500 51.16500 24.32900
C  32.62300 52.11900 25.10400
C  32.02000 53.16200 24.29400
C  32.44400 52.90500 22.95800
C  33.20300 51.59300 23.01000
C  31.26900 54.30000 24.86900
C  32.19200 53.67200 21.68000
O  32.64100 53.20900 20.59400
C  31.37200 54.98000 21.61200
N  34.45600 48.64600 22.98000
C  34.36800 49.53700 21.92500
C  34.79800 48.88800 20.60700
C  35.52000 47.58500 21.16800
C  35.08000 47.47100 22.58300
C  33.64600 48.62100 19.64700
C  37.06300 47.77200 20.88600
C  37.67100 46.66400 20.00500
N  34.56400 47.25700 25.40200
C  34.96700 46.13800 24.69400
C  35.24800 45.02600 25.51700
C  34.87600 45.45500 26.76500
C  34.43600 46.87900 26.66500
C  35.78200 43.64000 25.17500
C  34.78900 45.10600 28.14200
O  35.03100 44.04100 28.67900
C  34.26400 46.39300 28.97500
C  33.00200 46.08700 29.74900
O  31.91100 46.43500 29.43900
O  33.31900 45.36700 30.90800
C  32.11800 45.11900 31.70200
H  32.13200 52.72000 27.09700
H  33.84000 51.35100 20.99100
H  35.81400 45.52600 22.79800
H  32.75400 49.11400 29.96000
H  33.63300 51.69700 29.18500
H  31.36400 50.78300 30.48700
H  30.78400 50.99600 28.84000
H  31.39800 52.35000 29.80000
H  35.40200 50.55400 29.80900
H  35.55900 48.91800 29.67200
H  35.49600 50.01000 32.12000
H  35.37100 48.33300 31.67200
H  31.34600 54.41800 25.95000
H  30.19700 54.19000 24.70000
H  31.49500 55.23000 24.34800
H  30.45600 54.96400 22.20100
H  31.15200 55.05000 20.54700
H  32.15400 55.64200 21.98400
H  35.48400 49.62100 20.18100
H  35.16800 46.67600 20.67800
H  33.77600 47.64800 19.17300
H  33.76300 49.37200 18.86600
H  32.69500 48.67100 20.17800
H  37.52800 47.83100 21.87000
H  37.28300 48.72900 20.41400
H  36.99200 46.23700 19.26700
H  37.97000 45.87700 20.69700
H  38.54200 47.18500 19.60700
H  36.19300 43.27800 26.11800
H  36.58300 43.72300 24.44000
H  35.03500 43.00600 24.69800
H  34.98200 46.69300 29.73800
H  31.51900 45.99400 31.95700
H  32.53400 44.85200 32.67400
H  31.51400 44.27900 31.36000

