158

Mg 7.21200 54.87100 41.68500
C  6.66500 51.49700 41.11400
C  10.22200 54.49500 39.82300
C  7.62600 58.16300 41.61800
C  3.98600 55.12400 42.80000
N  8.31200 53.18100 40.73200
C  7.88300 51.94100 40.48800
C  8.82600 51.14300 39.44200
C  10.11800 51.96000 39.70500
C  9.52300 53.30600 40.06500
C  11.07900 51.39500 40.77200
C  8.45600 51.28400 37.86600
C  8.85700 50.02200 37.15900
H  8.33200 49.86800 35.72000
N  8.71700 56.16000 40.96500
C  9.90900 55.79500 40.28400
C  10.71300 56.96700 40.06800
C  10.02100 58.07700 40.61900
C  8.75200 57.50800 41.13700
C  12.09500 56.77000 39.50000
C  10.50000 59.49200 40.51500
O  11.54600 59.71900 39.91500
C  9.64600 60.59200 41.16200
N  5.86700 56.46400 41.97500
C  6.30700 57.74700 42.01200
C  5.22600 58.66000 42.50400
C  4.05100 57.69700 42.89200
C  4.66300 56.34300 42.56000
C  5.62800 59.56300 43.68300
C  2.66800 57.90300 42.20300
C  1.57500 58.13600 43.23400
N  5.70000 53.57800 42.21100
C  4.39100 53.81000 42.59400
C  3.65500 52.61700 42.65700
C  4.54000 51.69000 42.12000
C  5.76000 52.30800 41.82400
C  2.21900 52.38000 43.07400
C  4.69700 50.26200 41.91000
O  3.88300 49.37500 42.15400
C  6.07800 50.07300 41.17600
C  5.70100 49.51500 39.88100
O  5.43100 50.08800 38.82900
O  5.75800 48.16200 40.00100
C  5.56900 47.43400 38.71800
H  11.13500 54.36100 39.23900
H  7.58400 59.25300 41.56000
H  2.98700 55.28800 43.20900
H  8.90500 50.08600 39.69600
H  10.59900 52.16800 38.74900
H  10.89800 50.36800 41.08800
H  11.11200 52.00000 41.67900
H  12.03000 51.44000 40.24200
H  8.99700 52.02300 37.27700
H  7.40400 51.48200 37.66400
H  8.45300 49.21900 37.77500
H  9.93600 49.99100 37.31000
H  12.59300 57.69300 39.20200
H  12.10500 56.11500 38.62900
H  12.69200 56.24500 40.24600
H  9.33100 60.24900 42.14800
H  8.75700 60.74800 40.55100
H  10.16400 61.54800 41.23300
H  5.01400 59.27100 41.62600
H  3.99600 57.66600 43.98000
H  6.36400 60.30700 43.37600
H  6.07200 58.97200 44.48400
H  4.73800 60.09800 44.01500
H  2.43100 57.03900 41.58200
H  2.73700 58.80300 41.59100
H  1.73700 57.91000 44.28800
H  0.69500 57.51100 43.08100
H  1.03300 59.07700 43.13800
H  2.36200 51.79600 43.98400
H  1.74700 51.75300 42.31800
H  1.73300 53.34900 43.18900
H  6.64600 49.36100 41.77500
H  5.74500 46.37700 38.91400
H  6.18900 47.76400 37.88400
H  4.54400 47.69100 38.45200
Mg -2.38400 34.21400 27.22200
C  -3.88300 32.44400 29.80000
C  -0.84400 36.23400 29.43300
C  -1.19600 36.01800 24.62900
C  -4.50000 32.42100 24.90900
N  -2.51700 34.41200 29.34000
C  -2.96500 33.42100 30.19400
C  -2.70700 33.78900 31.68200
C  -1.84600 35.12700 31.56100
C  -1.74400 35.29600 30.03000
C  -2.41000 36.42400 32.37400
C  -2.08200 32.58200 32.47200
C  -2.78900 32.15400 33.73300
H  -1.98000 32.23900 35.02200
N  -1.16900 35.82200 27.06900
C  -0.47800 36.50400 28.10600
C  0.33300 37.49900 27.64000
C  0.22600 37.50800 26.24200
C  -0.77100 36.40100 25.88300
C  1.23000 38.38200 28.48500
C  0.90200 38.35500 25.15800
O  0.61800 38.25600 23.98300
C  1.97100 39.23000 25.53600
N  -2.78500 34.17100 25.08600
C  -2.05300 34.99700 24.22700
C  -2.47300 34.77700 22.73900
C  -3.45900 33.52800 22.80900
C  -3.63300 33.36600 24.36800
C  -3.06300 36.09300 22.01000
C  -2.84100 32.33000 22.01600
C  -1.83200 31.51600 22.81300
N  -3.82500 32.72300 27.28700
C  -4.61300 32.13100 26.27000
C  -5.47400 31.15700 26.91300
C  -5.18500 31.27500 28.26900
C  -4.24300 32.23100 28.44400
C  -6.45400 30.26900 26.24700
C  -5.49300 30.65000 29.53200
O  -6.23600 29.70600 29.79100
C  -4.74400 31.50200 30.57000
C  -5.80600 32.17300 31.30000
O  -6.65900 32.97800 30.91200
O  -5.83300 31.58400 32.57100
C  -6.99200 31.90000 33.42600
H  -0.14400 36.48700 30.23200
H  -0.74500 36.42600 23.72200
H  -5.01100 31.81000 24.16100
H  -3.68100 34.07300 32.08200
H  -0.80100 34.90400 31.77800
H  -2.90000 36.18100 33.31600
H  -2.81000 37.21600 31.74100
H  -1.46000 36.84300 32.70500
H  -1.06100 32.84400 32.74700
H  -1.97100 31.63100 31.95000
H  -3.28500 31.18900 33.63100
H  -3.60100 32.82700 34.00800
H  2.25700 38.27100 28.13800
H  1.33700 38.09000 29.53000
H  0.89600 39.40500 28.31200
H  1.62400 40.05700 26.15700
H  2.34700 39.72100 24.63800
H  2.78300 38.56900 25.83900
H  -1.53400 34.47800 22.27400
H  -4.42600 33.81800 22.39800
H  -3.73700 36.61500 22.69000
H  -3.70700 35.73000 21.21000
H  -2.35400 36.86900 21.72100
H  -2.33900 32.79300 21.16600
H  -3.60700 31.64700 21.64800
H  -0.91900 31.51000 22.21800
H  -2.18200 30.48400 22.84100
H  -1.60700 31.88700 23.81200
H  -6.65800 30.69000 25.26300
H  -7.34200 30.05300 26.84200
H  -6.07700 29.24800 26.19100
H  -4.13300 30.76700 31.09500
H  -7.88500 31.46500 32.97700
H  -7.04600 32.98300 33.53700
H  -6.83400 31.34600 34.35200

