158

Mg 24.11500 -4.64000 45.66700
C  26.16300 -2.25000 44.41000
C  21.55200 -3.40500 43.58700
C  22.39100 -7.41300 46.36200
C  26.94800 -5.96400 47.44900
N  23.88100 -3.03600 44.14300
C  24.85900 -2.13700 43.87400
C  24.31200 -1.04600 42.87400
C  22.74100 -1.26100 43.06100
C  22.71500 -2.66500 43.52100
C  22.11900 -0.13000 43.97000
C  24.88500 -1.34500 41.45900
C  24.53000 -0.29500 40.41700
H  23.92400 -0.77800 39.14500
N  22.23600 -5.31900 45.03100
C  21.37600 -4.72400 44.16000
C  20.20700 -5.55500 43.85100
C  20.37400 -6.72600 44.68100
C  21.70200 -6.53100 45.43700
C  19.12800 -5.10000 42.93000
C  19.61500 -8.01500 44.54400
O  18.71100 -8.09200 43.74200
C  19.71400 -9.20800 45.47300
N  24.59500 -6.46400 46.78200
C  23.72500 -7.49800 46.87000
C  24.32500 -8.71100 47.57800
C  25.71900 -8.17600 47.98300
C  25.77200 -6.73600 47.39900
C  23.47100 -9.19500 48.74300
C  26.86600 -9.00800 47.44000
C  27.83900 -9.48100 48.43400
N  26.19400 -4.16900 45.99400
C  27.22900 -4.72200 46.75900
C  28.44300 -3.92400 46.63100
C  28.01700 -2.90400 45.80300
C  26.68100 -3.17000 45.29100
C  29.71400 -4.14700 47.42400
C  28.40900 -1.66500 45.19600
O  29.43800 -0.99800 45.30000
C  27.28700 -1.32500 44.16700
C  26.99800 0.08800 44.27100
O  26.49300 0.62500 45.28100
O  27.31200 0.68400 43.07000
C  27.51400 2.12200 43.13500
H  20.61200 -2.99700 43.21100
H  21.97700 -8.40300 46.56500
H  27.82500 -6.38800 47.94300
H  24.49000 -0.02700 43.21600
H  22.31600 -1.22800 42.05700
H  21.15600 0.11900 43.52200
H  22.70000 0.78900 43.89100
H  21.96800 -0.40300 45.01400
H  24.34500 -2.24500 41.16500
H  25.95000 -1.55100 41.56400
H  25.43900 0.25300 40.16700
H  23.80700 0.34100 40.92900
H  18.40700 -4.37800 43.31500
H  18.67600 -5.95500 42.42900
H  19.68000 -4.58100 42.14600
H  19.82600 -8.92500 46.52000
H  20.54600 -9.63500 44.91300
H  18.86600 -9.89000 45.40900
H  24.46100 -9.60600 46.97100
H  25.75500 -7.98800 49.05600
H  24.12600 -9.16700 49.61400
H  23.12900 -10.22900 48.71900
H  22.57700 -8.61200 48.96600
H  27.48000 -8.46000 46.72600
H  26.40000 -9.83600 46.90500
H  27.79000 -10.55900 48.59000
H  27.69300 -8.95000 49.37400
H  28.79400 -9.20400 47.98800
H  29.54300 -4.11000 48.50000
H  30.38300 -3.31900 47.18800
H  30.25700 -5.07200 47.23400
H  27.73600 -1.65300 43.22900
H  26.53400 2.57600 43.28600
H  27.96500 2.43500 42.19400
H  28.10100 2.41400 44.00600
Mg 48.27600 25.21700 28.30300
C  49.21300 27.45100 30.86800
C  47.55600 22.93700 30.66500
C  47.62600 23.13100 25.76800
C  49.18900 27.79300 25.90900
N  48.50800 25.22900 30.57900
C  48.69500 26.27600 31.39500
C  48.40200 25.92700 32.85800
C  47.97700 24.45100 32.75600
C  48.02400 24.14100 31.24000
C  48.99200 23.49000 33.56900
C  47.42500 26.96100 33.43000
C  47.86200 27.60100 34.76900
H  47.04100 27.54500 35.99900
N  47.65400 23.30500 28.22500
C  47.34400 22.55000 29.32100
C  46.75900 21.28100 28.88800
C  46.88200 21.23600 27.45900
C  47.45400 22.61500 27.13900
C  46.28600 20.24300 29.75400
C  46.56400 20.10200 26.45300
O  46.68700 20.23200 25.29400
C  45.92400 18.86400 26.98000
N  48.43800 25.42400 26.17500
C  48.00400 24.37900 25.30500
C  48.13700 24.81900 23.84400
C  48.41100 26.38500 23.93600
C  48.68000 26.58800 25.43800
C  49.22800 23.97900 23.07000
C  47.30700 27.18300 23.42200
C  46.00600 27.25000 24.28200
N  49.22600 27.07300 28.34000
C  49.50700 28.01600 27.30600
C  50.05900 29.21700 27.86900
C  49.91900 29.05800 29.23900
C  49.42500 27.73800 29.49600
C  50.57600 30.43600 27.16100
C  50.06500 29.72000 30.51300
O  50.50800 30.84000 30.76600
C  49.68400 28.73000 31.57900
C  50.87300 28.36600 32.49600
O  51.54200 27.37400 32.36300
O  50.85800 29.16600 33.58400
C  51.91300 29.01200 34.61200
H  47.36400 22.33200 31.55300
H  47.33400 22.49400 24.93000
H  49.34200 28.51100 25.10000
H  49.36200 26.06100 33.35700
H  46.93200 24.36400 33.05300
H  49.81300 23.03700 33.01300
H  48.53500 22.59500 33.99200
H  49.26700 24.04700 34.46400
H  46.47700 26.42400 33.46200
H  47.19800 27.82000 32.79900
H  47.91700 28.64200 34.44900
H  48.84400 27.21800 35.04700
H  46.87900 19.33000 29.80300
H  45.24500 20.07600 29.47500
H  46.32100 20.66500 30.75800
H  46.64000 18.09600 27.27300
H  45.39400 18.42800 26.13300
H  45.12400 18.98200 27.71100
H  47.10400 24.60500 23.56900
H  49.37100 26.64300 23.48900
H  50.07100 24.59800 22.76200
H  48.79400 23.63000 22.13300
H  49.63000 23.17500 23.68700
H  47.01200 26.71500 22.48200
H  47.63900 28.21900 23.35600
H  46.19800 27.16300 25.35100
H  45.32000 26.47700 23.93600
H  45.55000 28.21300 24.05300
H  50.06300 30.56400 26.20800
H  51.63700 30.29000 26.95700
H  50.35800 31.34900 27.71500
H  48.79400 29.04100 32.12600
H  52.63700 28.26900 34.27700
H  51.49600 28.70000 35.57000
H  52.22300 30.03000 34.84700

