158

Mg 1.86900 -0.97600 43.40200
C  5.26000 -0.51500 43.05500
C  1.27900 1.88900 41.64400
C  -1.45500 -1.78700 43.41700
C  2.54600 -4.21200 44.71500
N  3.12400 0.49500 42.49100
C  4.51800 0.48100 42.42900
C  5.03500 1.47400 41.47600
C  3.75700 2.34400 41.08100
C  2.63900 1.50900 41.78100
C  3.79800 3.90600 41.39400
C  5.66700 0.86200 40.21300
C  7.08900 1.36200 39.86400
H  7.27700 2.42700 38.75400
N  0.15200 -0.00100 42.79800
C  0.13500 1.14200 42.04600
C  -1.19100 1.57600 41.86400
C  -1.97200 0.48500 42.31900
C  -1.07900 -0.50000 42.89900
C  -1.47100 2.81600 41.13100
C  -3.49800 0.38500 42.25200
O  -4.19500 1.25200 41.83100
C  -4.42100 -0.80800 42.77000
N  0.68900 -2.80100 43.88900
C  -0.62600 -2.83600 43.80900
C  -1.22600 -4.15000 44.25700
C  0.02700 -4.90400 44.82600
C  1.20800 -3.91300 44.44200
C  -2.46100 -4.18900 45.22300
C  0.29800 -6.41600 44.39000
C  0.70000 -7.35800 45.53500
N  3.57400 -2.08200 44.03900
C  3.66300 -3.34600 44.48900
C  5.04100 -3.69300 44.73800
C  5.79900 -2.58200 44.13400
C  4.79400 -1.64800 43.71700
C  5.52000 -4.94600 45.40100
C  7.12400 -2.06500 43.66200
O  8.25300 -2.48900 43.82900
C  6.74800 -0.68500 42.98700
C  7.38400 0.27600 43.74600
O  7.02000 0.69100 44.86000
O  8.43400 0.86600 42.98600
C  8.93700 1.99900 43.69300
H  1.13600 2.85200 41.14900
H  -2.49400 -2.08300 43.26100
H  2.77300 -5.20300 45.11100
H  5.72200 2.15200 41.98300
H  3.52900 2.29100 40.01700
H  3.44800 4.44600 40.51400
H  4.85200 4.16100 41.50400
H  3.27300 4.29300 42.26700
H  5.03100 1.00500 39.34000
H  5.73400 -0.21600 40.36100
H  7.71600 0.50100 39.63300
H  7.45200 1.85600 40.76500
H  -1.02300 2.88300 40.13900
H  -0.99200 3.60100 41.71500
H  -2.54800 2.95100 41.03700
H  -5.46800 -0.50300 42.75500
H  -4.12800 -1.03500 43.79400
H  -4.32500 -1.69100 42.13700
H  -1.62500 -4.79400 43.47300
H  -0.01500 -4.90800 45.91500
H  -2.34400 -4.57400 46.23600
H  -3.23300 -4.77800 44.72800
H  -2.86500 -3.18400 45.34900
H  0.93600 -6.34800 43.50900
H  -0.57000 -6.83500 43.88100
H  0.41600 -6.89700 46.48100
H  1.75900 -7.61100 45.56400
H  0.13700 -8.29100 45.49100
H  4.81000 -5.65700 45.82400
H  6.19600 -4.65600 46.20400
H  6.07800 -5.51200 44.65500
H  7.22500 -0.69000 42.00700
H  9.47200 1.77100 44.61500
H  8.10800 2.67400 43.90500
H  9.75900 2.36600 43.07700
Mg -5.26400 25.57800 26.26800
C  -3.66200 26.75500 29.07200
C  -6.89700 23.28300 28.37100
C  -6.52500 23.99000 23.57200
C  -3.17500 27.43600 24.18400
N  -5.31500 25.10800 28.45100
C  -4.64300 25.77600 29.40300
C  -5.20400 25.58700 30.84400
C  -5.85900 24.23400 30.62100
C  -6.10400 24.25400 29.11700
C  -5.06700 22.95200 31.14200
C  -6.08000 26.71500 31.42500
C  -5.87600 27.12500 32.94200
H  -5.58500 26.01500 33.92400
N  -6.50900 23.88200 25.94900
C  -7.08000 23.08600 26.96200
C  -7.79700 21.96000 26.33400
C  -7.63100 22.07700 24.91800
C  -6.83200 23.35500 24.75400
C  -8.35300 20.84200 27.20100
C  -8.13000 21.20000 23.75700
O  -7.97000 21.51500 22.54100
C  -8.89700 19.93900 24.07300
N  -4.89200 25.66900 24.21200
C  -5.64900 25.01400 23.31900
C  -5.14000 25.28500 21.87300
C  -4.34500 26.64200 22.03900
C  -4.01200 26.55400 23.54100
C  -4.39800 24.10800 21.22900
C  -5.05300 28.01900 21.72000
C  -5.78000 28.27900 20.33300
N  -3.72300 26.90700 26.53000
C  -2.98500 27.62500 25.58900
C  -2.09100 28.48900 26.28600
C  -2.29200 28.16800 27.63500
C  -3.27900 27.18400 27.72600
C  -1.09200 29.50500 25.68300
C  -1.84100 28.51800 28.95200
O  -1.03700 29.42200 29.27100
C  -2.77200 27.62100 29.98800
C  -1.96900 26.66400 30.88900
O  -1.44400 25.62200 30.57100
O  -1.85500 27.25300 32.07000
C  -1.10300 26.60300 33.13600
H  -7.31700 22.50200 29.00800
H  -7.04200 23.62400 22.68200
H  -2.42100 28.00600 23.63600
H  -4.40800 25.45600 31.57700
H  -6.73200 24.25500 31.27500
H  -4.66400 23.06100 32.14900
H  -4.32700 22.75700 30.36500
H  -5.75200 22.11400 31.27200
H  -7.12200 26.40200 31.35000
H  -5.87900 27.58600 30.80200
H  -6.79100 27.47000 33.42400
H  -5.19200 27.97200 32.99300
H  -8.71400 21.14500 28.18300
H  -7.55600 20.10400 27.30100
H  -9.18100 20.42100 26.63000
H  -9.00100 19.42600 23.11700
H  -9.93900 20.10000 24.34800
H  -8.45400 19.33800 24.86700
H  -6.02800 25.50400 21.28000
H  -3.38100 26.61300 21.53100
H  -4.49600 23.26400 21.91100
H  -3.36700 24.37700 21.00100
H  -4.86500 23.79200 20.29600
H  -4.18800 28.64600 21.94100
H  -5.78700 28.11100 22.52100
H  -6.84200 28.03800 20.37900
H  -5.29500 27.72100 19.53300
H  -5.75400 29.35400 20.15100
H  -0.85600 29.18800 24.66700
H  -0.20400 29.43400 26.31000
H  -1.45700 30.52900 25.60100
H  -3.50400 28.21500 30.53600
H  -0.11300 27.04300 33.25500
H  -0.93700 25.53200 33.02000
H  -1.67300 26.87100 34.02600

