158

Mg 53.65800 24.82400 45.52700
C  51.17400 27.03500 44.41700
C  52.02800 22.20200 43.88200
C  56.54400 22.86400 45.78100
C  55.51600 27.62800 46.49800
N  51.80300 24.74600 44.18100
C  50.95800 25.72500 43.89800
C  49.79700 25.10200 43.03500
C  49.89100 23.57200 43.30800
C  51.32400 23.53600 43.84700
C  48.78400 22.95100 44.26500
C  49.70400 25.52800 41.53300
C  50.99300 25.52700 40.69200
H  52.17300 24.59700 41.03500
N  54.12900 22.77200 44.95900
C  53.27900 21.85200 44.35000
C  53.96000 20.54500 44.41800
C  55.27200 20.74300 44.99500
C  55.35500 22.19600 45.25600
C  53.31500 19.39600 43.70900
C  56.31700 19.66400 45.25000
O  56.10600 18.51500 44.91500
C  57.58500 19.83900 45.95400
N  55.73900 25.19500 45.92500
C  56.70000 24.24200 46.03400
C  58.02700 24.76300 46.59600
C  57.74300 26.32600 46.51700
C  56.20800 26.40500 46.33100
C  58.29100 24.22800 48.00900
C  58.55600 27.13600 45.48900
C  58.69700 28.64200 45.71100
N  53.36700 26.88800 45.60700
C  54.19400 27.85600 46.17400
C  53.41400 29.02100 46.32400
C  52.26700 28.82300 45.57400
C  52.32100 27.48700 45.07600
C  53.79500 30.23100 47.05200
C  51.04800 29.41900 45.11800
O  50.57400 30.55500 45.28000
C  50.29500 28.30500 44.29600
C  50.03500 28.72400 42.90400
O  50.88800 28.93800 42.03800
O  48.65000 28.82800 42.71900
C  48.28900 29.18400 41.31600
H  51.56500 21.37200 43.34400
H  57.49000 22.33600 45.91600
H  56.02200 28.53600 46.83300
H  48.88200 25.54100 43.43400
H  49.88800 22.92600 42.43000
H  47.86800 23.54200 44.23000
H  49.12600 22.76400 45.28300
H  48.69700 21.96200 43.81600
H  49.18100 26.47100 41.37400
H  49.08400 24.80200 41.00800
H  51.33700 26.55200 40.55300
H  50.67500 25.32500 39.67000
H  53.11000 19.64800 42.66800
H  52.29800 19.18100 44.03800
H  53.84500 18.44400 43.73900
H  57.81400 18.83700 46.31500
H  57.50700 20.44000 46.86100
H  58.36700 20.25900 45.32200
H  58.81500 24.46700 45.90400
H  58.05300 26.78300 47.45700
H  58.05200 23.17500 48.15800
H  57.83600 24.86800 48.76500
H  59.37800 24.21900 47.93800
H  58.07200 27.02900 44.51800
H  59.54500 26.67800 45.45300
H  59.73900 28.70500 46.02400
H  57.99800 28.98000 46.47600
H  58.53100 29.17600 44.77600
H  54.37000 30.08200 47.96600
H  52.89200 30.78700 47.30400
H  54.45100 30.85900 46.45100
H  49.34000 28.10800 44.78400
H  48.76800 28.55200 40.56800
H  48.37600 30.24800 41.09300
H  47.27200 28.96500 40.98900
Mg 46.71700 26.43500 28.98100
C  47.48400 28.57700 31.70600
C  45.55700 24.05700 31.27400
C  46.83200 24.06700 26.58600
C  48.33700 28.70700 26.80500
N  46.55900 26.34800 31.29400
C  46.81900 27.39700 32.13700
C  46.45100 27.00700 33.63900
C  46.02300 25.51000 33.48800
C  45.99000 25.30600 31.92000
C  46.83100 24.35800 34.26800
C  45.34300 27.97600 34.33500
C  45.79100 28.42500 35.75600
H  46.16400 27.40600 36.83900
N  46.11300 24.42600 28.91500
C  45.58300 23.63100 29.90800
C  45.15600 22.29400 29.34800
C  45.53300 22.28300 27.99400
C  46.16600 23.60200 27.76900
C  44.44000 21.28200 30.28400
C  45.45000 21.12400 26.96600
O  45.86500 21.21800 25.85200
C  44.81200 19.78800 27.39100
N  47.60000 26.35500 27.03300
C  47.43300 25.25200 26.24900
C  47.87200 25.51100 24.73600
C  48.16800 26.99800 24.88800
C  47.98500 27.39700 26.34300
C  49.10100 24.67600 24.35800
C  47.31500 28.02600 24.02900
C  48.14200 28.99400 23.19900
N  47.70100 28.33300 29.17400
C  48.30600 29.11100 28.18800
C  48.88200 30.29400 28.83200
C  48.53300 30.09400 30.20400
C  47.86200 28.86300 30.34800
C  49.56900 31.39200 28.15100
C  48.51000 30.71400 31.56100
O  48.88700 31.83000 31.94700
C  47.98000 29.64400 32.62000
C  49.07300 29.07900 33.48900
O  50.05300 28.45400 33.01500
O  48.95900 29.40000 34.78600
C  50.07800 29.17600 35.74100
H  45.18900 23.44100 32.09700
H  46.92100 23.28400 25.83000
H  48.75000 29.41300 26.08100
H  47.38200 27.07000 34.20300
H  44.98800 25.36800 33.79900
H  47.13400 23.57700 33.57000
H  46.10100 23.88400 34.92500
H  47.75000 24.63600 34.78300
H  44.37200 27.50000 34.47500
H  45.17200 28.85300 33.71100
H  45.11700 29.18500 36.14900
H  46.71500 29.00200 35.78700
H  43.45300 21.33900 29.82400
H  44.29400 21.63000 31.30700
H  44.91100 20.29900 30.30400
H  45.38100 19.36200 28.21700
H  44.93600 19.09000 26.56300
H  43.78000 19.98700 27.67800
H  46.97000 25.27600 24.17000
H  49.22400 27.20800 24.72200
H  49.72600 25.05100 23.54800
H  48.72200 23.70400 24.04000
H  49.73500 24.58100 25.23900
H  46.59800 28.56700 24.64700
H  46.77300 27.45900 23.27300
H  47.64700 29.12400 22.23700
H  49.20900 28.78200 23.13300
H  48.11600 29.93500 23.74800
H  49.35100 31.52000 27.09100
H  50.60900 31.10200 28.30000
H  49.37500 32.29800 28.72400
H  47.19000 30.09100 33.22400
H  50.27000 30.15000 36.19100
H  50.99300 28.72000 35.36400
H  49.76900 28.51700 36.55200

