158

Mg 48.79500 35.80400 27.81600
C  46.63100 34.07100 30.08600
C  48.72600 38.50300 29.99300
C  50.41000 37.55200 25.55000
C  48.09600 33.29800 25.50300
N  47.62500 36.28400 29.74300
C  47.13400 35.28200 30.56700
C  47.15900 35.81100 31.98500
C  47.45200 37.32700 31.81400
C  47.87700 37.45700 30.37000
C  46.23400 38.27400 32.08900
C  48.40100 35.18500 32.74000
C  48.19000 34.71500 34.19000
H  49.00000 35.49200 35.18700
N  49.64800 37.66800 27.92000
C  49.52900 38.61000 28.87200
C  50.53000 39.63000 28.59000
C  50.98600 39.40500 27.24500
C  50.32900 38.17200 26.81800
C  50.73800 40.75200 29.63500
C  52.09900 40.07100 26.47400
O  52.59500 39.55200 25.48000
C  52.70000 41.45600 27.03100
N  49.06100 35.50400 25.77600
C  49.85600 36.33700 25.08400
C  50.12400 35.78500 23.65200
C  49.43700 34.39300 23.74100
C  48.87100 34.37200 25.10000
C  49.59400 36.65200 22.37700
C  50.27000 33.14700 23.40500
C  51.18000 32.43900 24.37800
N  47.71300 33.96600 27.79500
C  47.46500 33.13000 26.73800
C  46.51600 32.07600 27.15800
C  46.11300 32.48500 28.40500
C  46.86300 33.59300 28.77800
C  46.02400 30.90900 26.26000
C  45.21300 32.16600 29.55400
O  44.45000 31.27100 29.74700
C  45.48000 33.29400 30.65100
C  45.80700 32.62300 31.92900
O  46.77800 31.96400 32.18900
O  44.89300 33.00800 32.84900
C  45.27300 32.78000 34.30700
H  48.95900 39.25800 30.74700
H  50.97600 38.01200 24.73800
H  47.80000 32.45100 24.88000
H  46.23000 35.52400 32.47800
H  48.27100 37.70200 32.42700
H  45.68200 37.97900 32.98100
H  45.67600 38.13900 31.16200
H  46.59000 39.30400 32.08700
H  49.23400 35.86700 32.57500
H  48.65700 34.27800 32.19300
H  48.35600 33.63800 34.19400
H  47.13400 34.87100 34.40700
H  50.83500 40.45600 30.67900
H  49.89000 41.43500 29.59500
H  51.63100 41.34000 29.42500
H  53.23800 42.07800 26.31500
H  53.42300 41.35200 27.84000
H  51.85200 41.95900 27.49600
H  51.18900 35.57100 23.56700
H  48.63400 34.42200 23.00400
H  50.40300 36.78400 21.65900
H  49.29700 37.65100 22.69400
H  48.67300 36.29400 21.91600
H  50.97600 33.43900 22.62800
H  49.59600 32.38700 23.01200
H  50.84000 31.40400 24.36000
H  51.11900 32.99900 25.31200
H  52.21600 32.28600 24.07600
H  45.46000 31.18900 25.37000
H  45.40500 30.23700 26.85400
H  46.79800 30.20900 25.94700
H  44.61000 33.95000 30.65000
H  46.27200 32.38200 34.48700
H  44.46100 32.13500 34.64400
H  45.16100 33.76800 34.75300
Mg 6.60400 54.36700 41.18300
C  5.73100 51.03300 40.73700
C  9.80200 53.50300 40.04400
C  7.47100 57.57400 41.08100
C  3.22200 55.11300 41.74500
N  7.54700 52.53300 40.18200
C  6.97800 51.28600 40.15100
C  7.83000 50.37200 39.31800
C  9.27100 51.02300 39.56100
C  8.90500 52.44600 39.96300
C  10.16100 50.25800 40.55800
C  7.50900 50.51700 37.78200
C  7.47700 49.36000 36.80900
H  6.29300 49.33300 35.82500
N  8.35500 55.35200 40.69000
C  9.60900 54.82000 40.33400
C  10.58500 55.83400 40.32800
C  9.93900 57.06300 40.61300
C  8.51900 56.67400 40.87700
C  12.08900 55.51200 40.00600
C  10.55700 58.44300 40.57200
O  11.70400 58.49900 40.27800
C  9.87200 59.66700 40.82100
N  5.43000 56.16500 41.28400
C  6.10500 57.35300 41.30600
C  5.06300 58.44100 41.60900
C  3.72000 57.64600 41.87300
C  4.11600 56.22600 41.63200
C  5.45400 59.39000 42.75700
C  2.61000 58.05300 40.90300
C  1.60700 59.11800 41.43700
N  4.75800 53.29800 41.24300
C  3.49500 53.76300 41.61900
C  2.64800 52.66100 41.67800
C  3.50500 51.57700 41.46600
C  4.78900 51.99200 41.16200
C  1.19300 52.82000 41.89000
C  3.52900 50.14100 41.35300
O  2.57500 49.35100 41.48000
C  5.01100 49.71000 40.98500
C  4.85800 48.80300 39.78700
O  4.04600 48.98900 38.87900
O  5.61800 47.70400 39.89900
C  5.64000 46.81600 38.75400
H  10.79100 53.20900 39.68600
H  7.62300 58.64800 41.20500
H  2.18900 55.27500 42.06200
H  7.88700 49.33500 39.64900
H  9.82600 51.17400 38.63600
H  11.17300 50.05100 40.21000
H  9.62900 49.35500 40.85700
H  10.24000 50.92600 41.41500
H  8.12100 51.33200 37.39600
H  6.44500 50.72300 37.90400
H  7.28600 48.48000 37.42300
H  8.44100 49.09900 36.37100
H  12.70700 56.23400 40.53900
H  12.19900 55.78200 38.95500
H  12.30300 54.45900 40.18900
H  10.69900 60.37200 40.90500
H  9.49100 59.70900 41.84100
H  9.05700 59.71800 40.10000
H  5.07200 58.88300 40.61300
H  3.39100 57.79000 42.90200
H  5.60000 60.34500 42.25300
H  6.41100 59.09600 43.18700
H  4.83900 59.34800 43.65600
H  1.92500 57.22000 40.74700
H  3.02700 58.40900 39.96100
H  0.57700 58.81900 41.24400
H  1.82700 59.99200 40.82300
H  1.78600 59.29400 42.49800
H  0.97900 51.85300 42.34600
H  0.66800 52.97500 40.94700
H  1.09400 53.57900 42.66600
H  5.53400 49.13200 41.74700
H  6.54400 46.20900 38.71500
H  5.58600 47.33900 37.80000
H  4.82400 46.09900 38.84000

