158

Mg 46.40800 24.58100 28.25100
C  46.92700 26.95300 30.73000
C  45.38100 22.33600 30.52600
C  46.50500 22.21800 25.93700
C  47.85400 26.87500 26.08200
N  46.29000 24.69500 30.40600
C  46.40000 25.79200 31.19400
C  46.01000 25.45900 32.63100
C  45.55700 23.96900 32.64100
C  45.80200 23.63200 31.11900
C  46.39400 23.12600 33.64700
C  45.01300 26.44500 33.30600
C  45.52500 27.07500 34.59400
H  44.60200 27.35300 35.78500
N  45.97400 22.54900 28.19800
C  45.45100 21.88400 29.24000
C  45.19100 20.54500 28.80700
C  45.53600 20.46700 27.42200
C  45.94500 21.81400 27.12100
C  44.68900 19.45100 29.70300
C  45.34100 19.30900 26.36000
O  45.45300 19.39600 25.16600
C  44.75400 17.96800 26.83200
N  47.27300 24.50800 26.40300
C  47.11800 23.42100 25.58400
C  47.70700 23.59400 24.19500
C  48.16500 25.13400 24.25800
C  47.70700 25.56900 25.65800
C  48.74800 22.64800 23.51800
C  47.67600 26.01200 23.05900
C  46.18800 26.51300 23.12200
N  47.19000 26.55600 28.27900
C  47.65800 27.37100 27.29800
C  48.03700 28.60700 27.86200
C  47.73400 28.54000 29.13800
C  47.31100 27.23600 29.41100
C  48.72100 29.74100 27.15300
C  47.80400 29.26400 30.46700
O  48.14600 30.46700 30.77600
C  47.25600 28.26500 31.51300
C  48.36000 28.05700 32.52300
O  49.46700 27.58200 32.17700
O  47.99900 28.40500 33.79000
C  48.97500 28.06800 34.85900
H  44.90900 21.67500 31.25500
H  46.27400 21.52400 25.12600
H  48.23300 27.61700 25.37600
H  46.96600 25.56400 33.14500
H  44.51200 23.88700 32.94000
H  45.78700 22.54400 34.34000
H  47.17300 23.69700 34.15200
H  46.89900 22.29900 33.14800
H  44.08200 25.92500 33.53100
H  44.89300 27.28000 32.61500
H  45.89500 28.03000 34.22400
H  46.45000 26.65200 34.98600
H  43.98500 18.77600 29.21600
H  44.33600 19.76800 30.68400
H  45.60700 18.87400 29.81600
H  45.47800 17.66700 27.58900
H  44.77500 17.25100 26.01200
H  43.74000 17.92400 27.23200
H  46.84300 23.58200 23.53000
H  49.25300 25.19200 24.30200
H  48.68600 21.73000 24.10200
H  49.73900 23.10100 23.49200
H  48.44500 22.52600 22.47800
H  47.68700 25.33100 22.20800
H  48.35300 26.86600 23.02100
H  45.73900 26.30900 24.09400
H  45.70300 26.14600 22.21700
H  46.18900 27.60100 23.05800
H  48.57300 30.63000 27.76700
H  48.12400 29.95400 26.26700
H  49.73700 29.47100 26.86600
H  46.39200 28.79900 31.90700
H  49.55900 27.16900 34.66100
H  48.34000 27.78200 35.69700
H  49.69100 28.85100 35.10800
Mg 15.96400 51.52800 25.95800
C  18.07900 50.47800 28.57600
C  13.60900 52.39800 28.27900
C  14.14300 52.70600 23.44000
C  18.48100 50.40000 23.72700
N  15.93500 51.51400 28.22000
C  16.89900 51.10200 29.06800
C  16.48900 51.39300 30.45900
C  14.93100 51.59800 30.33000
C  14.77400 51.90600 28.88400
C  14.12100 50.41500 30.82200
C  17.23300 52.61000 31.10800
C  16.84500 53.17400 32.44500
H  16.11400 52.19400 33.41000
N  14.10700 52.49200 25.85800
C  13.28200 52.75700 26.88100
C  12.07700 53.40400 26.37800
C  12.15500 53.52100 24.95200
C  13.56600 52.90700 24.71400
C  11.01100 53.79800 27.33600
C  11.23400 54.09800 23.90000
O  11.44900 53.93700 22.68900
C  9.99900 54.85300 24.31600
N  16.35100 51.50500 23.82500
C  15.32700 52.07800 23.00900
C  15.71000 51.93700 21.49600
C  17.21000 51.40600 21.58300
C  17.40800 51.09400 23.06100
C  14.71200 51.03700 20.71000
C  18.43000 52.27900 21.06800
C  19.33800 51.59300 19.99300
N  17.83700 50.49100 26.04800
C  18.72600 50.13600 25.09600
C  19.83100 49.42800 25.63200
C  19.61800 49.49300 27.03100
C  18.44300 50.27900 27.19700
C  20.97700 48.84000 24.95400
C  20.19300 49.25400 28.32300
O  21.27000 48.75000 28.62000
C  19.18600 49.95700 29.35700
C  18.75200 48.96900 30.40200
O  17.99400 47.96000 30.29100
O  19.30400 49.40400 31.53400
C  18.79100 48.79000 32.75900
H  12.87900 52.60800 29.06400
H  13.78600 53.32800 22.61700
H  19.26400 49.98000 23.09300
H  16.59600 50.47700 31.04100
H  14.65400 52.50000 30.87800
H  13.42200 50.72800 31.59800
H  14.60700 49.53500 31.24300
H  13.58800 50.06300 29.93900
H  17.13100 53.39300 30.35600
H  18.27400 52.31100 31.22800
H  16.08600 53.94100 32.29200
H  17.68900 53.64400 32.95100
H  10.58700 54.74400 27.00000
H  11.39700 53.90100 28.35000
H  10.25100 53.01800 27.34500
H  10.46600 55.76200 24.69600
H  9.42800 54.19200 24.96900
H  9.49200 55.13100 23.39200
H  15.66900 52.95700 21.11500
H  17.21200 50.43000 21.09900
H  15.18500 50.23400 20.14500
H  14.24500 51.64000 19.93100
H  13.95000 50.58400 21.34500
H  19.04800 52.48500 21.94200
H  18.10200 53.24300 20.68000
H  19.25600 52.15400 19.06200
H  19.04200 50.56200 19.79600
H  20.37700 51.44900 20.29000
H  21.77800 48.50900 25.61500
H  21.50500 49.53600 24.30100
H  20.51200 47.98500 24.46300
H  19.76900 50.69700 29.90500
H  19.38300 49.00800 33.64800
H  18.85900 47.70400 32.69400
H  17.71400 48.95900 32.79200

