158

Mg 2.47800 0.00100 43.37900
C  5.95000 0.27800 43.18600
C  2.13000 3.17400 42.37500
C  -0.84700 -0.69000 42.84800
C  2.87700 -3.38600 44.26500
N  3.86700 1.52100 42.57700
C  5.26300 1.44800 42.74100
C  5.86200 2.81400 42.61400
C  4.60600 3.70000 42.82400
C  3.44300 2.78600 42.54800
C  4.50400 4.40200 44.29400
C  6.71700 3.20200 41.30200
C  6.69600 2.23800 40.09300
H  6.67000 2.92200 38.77400
N  0.87600 1.09100 42.69600
C  0.91400 2.42200 42.44300
C  -0.43700 2.88600 42.13600
C  -1.34800 1.75600 42.10500
C  -0.44500 0.63400 42.51400
C  -0.71200 4.30600 41.71100
C  -2.88700 1.77700 41.92300
O  -3.39200 2.80300 41.57500
C  -3.77800 0.61400 42.07900
N  1.19900 -1.81300 43.40300
C  -0.14700 -1.80100 43.18600
C  -0.67200 -3.31200 43.21700
C  0.45500 -4.02100 44.06100
C  1.60700 -3.06800 43.91300
C  -2.06400 -3.56800 43.75000
C  0.82300 -5.51600 43.55200
C  1.75500 -5.66100 42.27200
N  4.05100 -1.36300 43.63200
C  4.05900 -2.69800 44.00100
C  5.40300 -3.10100 44.30200
C  6.15900 -1.99200 43.98700
C  5.35200 -0.95100 43.56900
C  5.86200 -4.41500 44.89400
C  7.52100 -1.39900 44.10000
O  8.60500 -1.83900 44.39100
C  7.40300 -0.02200 43.37800
C  8.12400 1.01400 44.22500
O  9.05400 1.68000 43.76200
O  7.45600 1.18200 45.40200
C  7.98500 2.31800 46.16600
H  1.98400 4.25200 42.27100
H  -1.92500 -0.78900 42.70700
H  3.00500 -4.43800 44.52900
H  6.51000 3.07000 43.45300
H  4.64700 4.49400 42.07900
H  5.37700 4.17800 44.90700
H  3.71600 3.87200 44.83100
H  4.34800 5.47800 44.22400
H  7.71000 3.13100 41.74600
H  6.59000 4.24400 41.01000
H  5.80600 1.62600 40.24100
H  7.49900 1.50100 40.08300
H  -1.38900 4.41800 40.86400
H  0.18600 4.86300 41.44500
H  -1.10500 4.91400 42.52600
H  -3.70800 0.15700 43.06600
H  -3.55800 -0.09900 41.28400
H  -4.76200 1.07400 41.99400
H  -0.63400 -3.62200 42.17300
H  0.18100 -4.14900 45.10800
H  -2.04000 -4.03200 44.73600
H  -2.73200 -4.08000 43.05700
H  -2.60200 -2.62100 43.79600
H  -0.10900 -6.02000 43.29700
H  1.30300 -6.02200 44.39000
H  2.77100 -6.02000 42.44000
H  1.85300 -4.76200 41.66400
H  1.39400 -6.38100 41.53800
H  5.03200 -5.05800 45.18700
H  6.44900 -4.23300 45.79400
H  6.35100 -4.99700 44.11300
H  7.94400 -0.11100 42.43500
H  7.88800 2.29300 47.25100
H  7.30600 3.12500 45.88900
H  8.98600 2.73300 46.04600
Mg 52.75100 24.28000 44.27300
C  49.86500 26.14000 44.01200
C  50.92000 21.38500 43.70700
C  55.63100 22.73000 43.44500
C  54.54800 27.34700 44.62100
N  50.62300 23.83100 43.70500
C  49.66200 24.68300 43.78800
C  48.28300 23.96800 43.74100
C  48.64100 22.48800 44.06900
C  50.11300 22.53200 43.83200
C  48.35200 22.03700 45.53900
C  47.44700 24.09100 42.42400
C  48.05700 23.45600 41.15600
H  47.92200 24.23200 39.78600
N  53.17600 22.32900 43.70800
C  52.28300 21.28600 43.66100
C  53.03000 20.09200 43.37700
C  54.37500 20.40100 43.24100
C  54.44600 21.87600 43.46500
C  52.31500 18.73300 43.41400
C  55.51700 19.42400 43.05000
O  55.28400 18.19200 43.10200
C  56.90100 19.81400 42.76500
N  54.77000 24.93900 43.77000
C  55.79700 24.06900 43.64800
C  57.21200 24.79100 43.66600
C  56.82800 26.30800 43.92100
C  55.28800 26.22600 44.09800
C  58.25300 24.09300 44.61700
C  57.25900 27.25300 42.84200
C  58.17000 28.31700 43.27700
N  52.32900 26.32300 44.46900
C  53.11800 27.41700 44.72300
C  52.18300 28.63400 44.93200
C  50.95400 28.17200 44.56000
C  51.08400 26.81000 44.28000
C  52.64900 30.01300 45.25100
C  49.55100 28.52300 44.49000
O  48.81400 29.45600 44.81100
C  48.83600 27.22800 44.03100
C  48.31900 27.58900 42.70100
O  48.82800 27.24600 41.62100
O  47.02700 28.08500 42.77900
C  46.28300 28.41300 41.56900
H  50.45000 20.40800 43.57500
H  56.56700 22.20700 43.23600
H  55.12100 28.27500 44.67000
H  47.69700 24.35100 44.57700
H  48.21100 21.84100 43.30500
H  48.94600 22.55700 46.29000
H  48.60800 20.97900 45.60700
H  47.30700 22.32300 45.65700
H  47.21200 25.15400 42.36600
H  46.49600 23.56400 42.49100
H  47.76200 22.41700 41.00700
H  49.13900 23.48700 41.28100
H  52.91600 17.87600 43.10900
H  51.45600 18.74900 42.74300
H  51.82200 18.51700 44.36100
H  57.52200 18.97100 42.46100
H  57.43300 20.32000 43.57000
H  56.83400 20.49900 41.92000
H  57.65000 24.71000 42.67000
H  57.25200 26.52100 44.90200
H  59.05500 23.61800 44.05200
H  57.82300 23.33300 45.27000
H  58.79400 24.85500 45.17700
H  56.35300 27.68400 42.41500
H  57.64600 26.67800 42.00100
H  57.70900 29.26000 42.98600
H  59.21600 28.33800 42.96900
H  58.13200 28.35400 44.36600
H  53.00300 30.55100 44.37200
H  53.38600 29.90300 46.04700
H  51.79600 30.59900 45.59400
H  48.08300 27.04100 44.79700
H  45.21700 28.26400 41.74000
H  46.53600 27.94200 40.61900
H  46.34800 29.47900 41.35000

