158

Mg 47.09400 24.43500 28.39700
C  47.75400 26.73600 31.01600
C  45.90500 22.20500 30.71800
C  47.07200 22.25900 25.87900
C  48.68000 26.85600 26.17800
N  46.77600 24.53100 30.70000
C  47.12000 25.53500 31.52500
C  46.70300 25.18200 32.96300
C  46.19500 23.69000 32.83400
C  46.27400 23.41100 31.34300
C  46.97500 22.74500 33.82800
C  45.71300 26.24200 33.61500
C  46.15100 26.72000 35.08700
H  45.05500 26.76600 36.18400
N  46.52500 22.54700 28.30800
C  46.06100 21.80800 29.38500
C  45.78500 20.47000 28.82600
C  46.15800 20.42700 27.40400
C  46.57200 21.78900 27.09300
C  45.04700 19.34300 29.53600
C  46.01500 19.23000 26.45200
O  46.36000 19.40000 25.30700
C  45.30500 17.91800 26.78100
N  47.91700 24.48800 26.31100
C  47.72100 23.43900 25.50200
C  48.40400 23.70400 24.16800
C  48.44400 25.28000 24.13300
C  48.33200 25.59200 25.59800
C  49.70200 22.88000 23.97100
C  47.16400 25.92100 23.37900
C  46.77800 27.40100 23.41400
N  47.96900 26.33800 28.51500
C  48.49700 27.17600 27.55800
C  48.84600 28.42400 28.18600
C  48.69300 28.19900 29.51500
C  48.04800 26.96100 29.66900
C  49.50300 29.59900 27.49600
C  48.91300 28.87300 30.78300
O  49.42700 29.90500 31.17400
C  48.28000 27.87200 31.79900
C  49.36600 27.37600 32.72600
O  50.26100 26.57800 32.46500
O  49.10800 27.74400 33.99900
C  50.07500 27.19400 35.00400
H  45.51400 21.52200 31.47600
H  47.13500 21.55500 25.04700
H  49.07400 27.68000 25.58000
H  47.66200 25.29400 33.46900
H  45.14300 23.70500 33.12000
H  46.25400 22.18700 34.42500
H  47.62200 23.23700 34.55400
H  47.58400 22.01300 33.29700
H  44.73700 25.79500 33.80300
H  45.63200 27.17600 33.05900
H  46.64000 27.69100 35.01900
H  46.89600 26.04900 35.51600
H  45.65800 18.45500 29.37600
H  43.96200 19.31100 29.44100
H  45.15600 19.65100 30.57600
H  46.04000 17.38200 27.38200
H  45.09300 17.44400 25.82300
H  44.41300 18.11100 27.37700
H  47.66200 23.36200 23.44700
H  49.41200 25.56000 23.71600
H  49.59200 22.23800 23.09700
H  50.06900 22.35200 24.85200
H  50.59100 23.47800 23.77000
H  46.31900 25.38700 23.81300
H  47.08600 25.62500 22.33300
H  45.82000 27.47700 23.92800
H  46.71700 27.75300 22.38400
H  47.51700 28.00500 23.93900
H  48.98600 29.62800 26.53700
H  50.59200 29.55100 27.48500
H  49.06300 30.42100 28.06200
H  47.46900 28.38000 32.32200
H  50.04700 26.11700 35.16800
H  49.89100 27.64200 35.98100
H  51.11200 27.44700 34.77900
Mg 41.65300 41.08000 26.72500
C  41.18700 43.67900 29.16300
C  42.58800 38.99700 29.33200
C  42.81400 38.86500 24.34000
C  41.51100 43.59000 24.24200
N  41.68300 41.29500 28.88200
C  41.41900 42.38200 29.65700
C  41.48900 42.11700 31.13400
C  42.12500 40.74900 31.22700
C  42.05700 40.23000 29.71700
C  43.50400 40.66900 32.00100
C  40.00600 42.28600 31.70100
C  39.80700 41.79800 33.17900
H  40.18800 42.73000 34.36700
N  42.42400 39.14200 26.81200
C  42.70700 38.46200 27.97800
C  43.12700 37.10800 27.56900
C  43.26200 37.04700 26.17700
C  42.89300 38.44900 25.71600
C  43.37400 36.01300 28.58700
C  43.49900 35.93200 25.19400
O  43.41400 35.95600 23.98600
C  43.83600 34.53800 25.73900
N  42.05000 41.20700 24.61300
C  42.28900 40.05900 23.83900
C  42.12600 40.43800 22.43000
C  41.33400 41.86200 22.41000
C  41.71700 42.27400 23.79600
C  43.46900 40.48400 21.68300
C  39.86300 41.89100 22.10600
C  39.01000 40.96700 22.88600
N  41.25900 43.13800 26.59500
C  41.30300 44.04000 25.54600
C  41.03800 45.35200 26.02200
C  41.01200 45.23900 27.39900
C  41.22700 43.92300 27.71800
C  40.88500 46.59300 25.18400
C  40.88800 45.96600 28.61300
O  40.79500 47.15200 28.73800
C  41.03300 45.02900 29.76700
C  42.13500 45.39900 30.62200
O  43.25300 45.00400 30.52700
O  41.72700 46.35800 31.49600
C  42.68300 46.74800 32.55200
H  42.83200 38.32000 30.15300
H  43.18300 38.18300 23.57100
H  41.33500 44.32600 23.45500
H  42.18100 42.87100 31.51100
H  41.43600 40.06100 31.71500
H  43.56400 41.56400 32.62000
H  44.49400 40.55600 31.55800
H  43.50100 39.82500 32.69100
H  39.25000 41.76000 31.11700
H  39.87500 43.35700 31.85800
H  40.43200 40.90800 33.25000
H  38.78000 41.43600 33.24200
H  42.98700 35.02800 28.32800
H  43.09600 36.30800 29.59900
H  44.46100 35.96000 28.51600
H  43.12200 34.06100 26.41100
H  44.80900 34.50100 26.22800
H  44.01800 33.92100 24.85900
H  41.37100 39.82400 21.93900
H  41.83000 42.56800 21.74300
H  44.20100 40.83200 22.41200
H  43.55700 41.13800 20.81500
H  43.74100 39.50100 21.29700
H  39.77000 41.74300 21.03000
H  39.43500 42.87800 22.28100
H  39.60600 40.21900 23.41000
H  38.36200 40.47000 22.16400
H  38.31800 41.50700 23.53300
H  39.90500 46.70700 24.72200
H  41.55300 46.45800 24.33400
H  41.13800 47.47300 25.77500
H  40.11200 45.15700 30.33600
H  42.46500 46.21600 33.47900
H  42.66000 47.82600 32.70800
H  43.75000 46.61900 32.37000

