158

Mg 55.28700 24.43200 44.49300
C  52.62700 26.62600 43.67200
C  53.48300 21.78200 43.21000
C  58.09900 22.64100 44.77400
C  57.04700 27.40400 45.54400
N  53.30000 24.30400 43.70200
C  52.40400 25.27100 43.44600
C  51.02900 24.60000 43.03200
C  51.28400 23.06800 43.28100
C  52.85100 23.02400 43.25500
C  50.71900 22.50400 44.60400
C  50.65600 24.82200 41.51900
C  51.76100 25.10800 40.51900
H  52.37200 23.81200 40.02200
N  55.73100 22.44700 44.08800
C  54.84700 21.52900 43.57500
C  55.50500 20.27000 43.62300
C  56.85400 20.49300 44.00700
C  56.96800 21.90500 44.33300
C  54.82900 18.97100 43.31500
C  57.88000 19.35000 44.07900
O  57.59100 18.19600 43.69100
C  59.27700 19.67700 44.48400
N  57.31500 25.03200 44.87600
C  58.28100 24.05000 44.99000
C  59.63700 24.73700 45.16900
C  59.21400 26.15500 45.69000
C  57.74500 26.24500 45.27800
C  60.65300 24.11700 46.09800
C  60.05400 27.32400 45.01000
C  60.80100 28.10700 46.09600
N  54.98800 26.66500 44.66800
C  55.79800 27.65900 45.12800
C  54.96300 28.85300 45.16700
C  53.71500 28.52100 44.57600
C  53.80800 27.17900 44.28400
C  55.39200 30.14800 45.91100
C  52.39500 29.04700 44.28300
O  51.84000 30.11100 44.42100
C  51.66200 27.88400 43.51000
C  51.46800 28.37700 42.15500
O  52.41300 28.77500 41.49000
O  50.12800 28.38900 41.80200
C  49.69500 28.81000 40.49000
H  52.83200 20.93800 42.97000
H  58.99400 22.06900 45.02900
H  57.60200 28.25700 45.94000
H  50.20800 25.01300 43.61800
H  50.87700 22.39000 42.53000
H  51.52300 21.96200 45.10200
H  50.07700 21.64100 44.42900
H  50.24700 23.23000 45.26700
H  50.01300 25.70200 41.51700
H  49.96600 24.04600 41.18900
H  52.48300 25.76900 40.99900
H  51.31600 25.65800 39.68900
H  55.24400 18.49800 42.42500
H  53.78200 19.19600 43.11400
H  54.94800 18.32800 44.18800
H  59.63200 20.45200 43.80400
H  59.89600 18.78500 44.39000
H  59.24200 20.03600 45.51200
H  59.93200 24.84500 44.12500
H  59.21600 26.13900 46.78000
H  60.24300 23.43200 46.84000
H  61.20000 24.93100 46.57300
H  61.46100 23.62700 45.55400
H  59.47600 28.00900 44.39100
H  60.82300 26.94300 44.33700
H  61.76000 28.46300 45.72000
H  61.03600 27.48600 46.96000
H  60.27700 29.01200 46.40500
H  56.46200 30.33900 45.99200
H  54.87500 30.34700 46.84900
H  55.07100 30.98100 45.28500
H  50.69100 27.85600 44.00400
H  49.09800 29.72200 40.50400
H  49.07200 28.00600 40.10000
H  50.50100 28.90200 39.76100
Mg -12.60200 38.40700 41.34600
C  -10.60500 35.78500 40.47800
C  -10.38600 40.59700 40.00200
C  -15.18000 40.69600 41.11800
C  -15.06800 36.07300 42.52500
N  -10.79600 38.12200 40.08800
C  -10.10900 36.97200 39.89800
C  -8.66800 37.19600 39.40100
C  -8.62800 38.75100 39.41100
C  -9.99800 39.21400 39.89600
C  -7.41600 39.49200 40.09100
C  -8.44900 36.59700 37.92200
C  -7.24200 35.74400 37.71500
H  -6.56500 35.98100 36.40900
N  -12.72600 40.36400 40.69800
C  -11.63400 41.12200 40.27700
C  -12.05300 42.48800 40.13700
C  -13.44900 42.55000 40.37100
C  -13.84500 41.16900 40.77500
C  -11.25100 43.68600 39.79400
C  -14.27500 43.82400 40.39600
O  -13.79400 44.93200 40.13100
C  -15.72800 43.86200 40.82200
N  -14.83000 38.48100 41.93100
C  -15.67700 39.46600 41.55900
C  -17.13300 39.14800 41.78800
C  -17.08500 37.72500 42.30100
C  -15.57700 37.39800 42.28200
C  -17.94700 40.06500 42.74200
C  -17.99000 36.74400 41.51900
C  -18.82000 35.69400 42.44400
N  -12.78500 36.40600 41.60900
C  -13.79200 35.56200 42.17200
C  -13.34500 34.18600 42.14200
C  -12.11100 34.26900 41.51900
C  -11.81800 35.57600 41.17400
C  -14.12400 32.97900 42.59600
C  -11.05600 33.47900 40.95700
O  -11.03200 32.22500 40.93800
C  -10.01400 34.38300 40.34800
C  -8.77700 33.96900 41.08900
O  -7.88500 33.30500 40.58800
O  -8.70100 34.62600 42.26700
C  -7.53500 34.27000 43.05900
H  -9.52900 41.21700 39.73100
H  -15.95600 41.45300 40.98800
H  -15.86000 35.40800 42.87600
H  -7.89100 36.90200 40.10700
H  -8.51200 39.10000 38.38400
H  -6.65300 38.78200 40.41100
H  -7.78800 39.99600 40.98300
H  -6.91900 40.30100 39.55500
H  -8.57400 37.37000 37.16400
H  -9.38500 36.08100 37.70600
H  -7.41800 34.68500 37.90300
H  -6.51400 35.98800 38.48900
H  -10.19000 43.44900 39.71600
H  -11.43400 44.37700 40.61700
H  -11.57300 44.10100 38.84000
H  -16.19600 44.84400 40.75000
H  -15.86700 43.37300 41.78600
H  -16.19000 43.26100 40.04000
H  -17.61800 39.15900 40.81200
H  -17.29300 37.75400 43.37100
H  -17.38300 40.97000 42.96700
H  -18.13300 39.68100 43.74500
H  -18.87500 40.40200 42.28000
H  -17.42300 36.10000 40.84600
H  -18.64700 37.30500 40.85400
H  -19.78400 36.06200 42.79700
H  -18.16700 35.32500 43.23400
H  -19.12200 34.83800 41.84100
H  -13.86900 32.91200 43.65400
H  -13.81300 32.14200 41.97100
H  -15.17000 33.22400 42.41100
H  -9.93500 34.03200 39.31900
H  -7.87600 33.44800 43.68900
H  -7.19800 35.07600 43.71100
H  -6.68000 33.94800 42.46500

