158

Mg 34.71400 3.46100 29.13200
C  32.54100 4.13700 31.72400
C  37.27700 3.02500 31.48100
C  36.76200 2.62000 26.71000
C  32.14200 3.82300 26.92500
N  34.84400 3.56000 31.41000
C  33.80400 3.87800 32.22200
C  34.15400 3.75800 33.74100
C  35.80800 3.57800 33.61200
C  36.04300 3.37500 32.09100
C  36.73700 4.78000 34.11300
C  33.42200 2.56200 34.35000
C  32.97200 2.81300 35.78100
H  34.01400 3.47300 36.73300
N  36.75200 2.88800 29.07200
C  37.63700 2.73600 30.12100
C  38.96100 2.42500 29.62700
C  38.79000 2.29500 28.19300
C  37.38800 2.56300 27.89000
C  40.15600 2.21100 30.46500
C  39.86200 1.84800 27.18400
O  39.65000 1.85100 25.96900
C  41.27900 1.43800 27.64700
N  34.47800 3.10500 27.12200
C  35.52300 2.90900 26.32600
C  35.12000 2.96200 24.86000
C  33.55700 3.21000 24.86300
C  33.34600 3.34200 26.41600
C  35.91500 4.00000 23.93300
C  32.83600 2.00300 24.35300
C  32.84300 1.64800 22.82800
N  32.79500 4.00600 29.24700
C  31.86300 4.12700 28.25800
C  30.63400 4.69300 28.77700
C  30.86500 4.73700 30.11800
C  32.19200 4.23500 30.39000
C  29.44800 5.05100 28.00500
C  30.31800 5.10400 31.38900
O  29.25900 5.70200 31.67200
C  31.32000 4.57300 32.48500
C  31.65800 5.72800 33.31300
O  32.36900 6.68600 33.04800
O  31.06100 5.56200 34.54000
C  31.59800 6.48200 35.52900
H  38.03400 2.89200 32.25700
H  37.45100 2.60100 25.86300
H  31.32300 3.92800 26.21000
H  33.90100 4.67000 34.28200
H  36.20100 2.69500 34.11600
H  36.01500 5.59600 34.14800
H  37.55100 5.03700 33.43600
H  37.10400 4.48600 35.09600
H  34.09300 1.70600 34.27500
H  32.50400 2.31800 33.81400
H  32.60800 1.82900 36.07600
H  32.06000 3.40000 35.89100
H  40.59700 1.25300 30.19000
H  39.87600 2.11700 31.51400
H  40.81600 3.07900 30.48700
H  41.89100 2.09500 28.26600
H  41.87200 1.39500 26.73300
H  41.25500 0.48400 28.17300
H  35.39000 2.03000 24.36500
H  33.30100 4.14300 24.36100
H  36.43600 4.61700 24.66400
H  35.21400 4.46000 23.23700
H  36.67200 3.50100 23.32900
H  31.77700 2.12200 24.58400
H  33.16800 1.11000 24.88300
H  33.49800 2.15200 22.11700
H  31.79000 1.67400 22.55000
H  33.28300 0.65000 22.84000
H  29.19900 4.25800 27.30000
H  29.58100 6.05000 27.58900
H  28.61400 5.14100 28.70100
H  31.01400 3.74600 33.12500
H  30.88600 7.30500 35.58200
H  32.66400 6.69900 35.45900
H  31.44500 5.86300 36.41200
Mg 49.31900 44.55800 42.77400
C  45.72300 44.95800 41.91700
C  48.93000 41.27400 41.96400
C  52.57600 44.44400 42.95400
C  49.38900 48.00300 43.29300
N  47.47800 43.39300 41.89300
C  46.14700 43.65400 41.84500
C  45.33900 42.45400 41.28900
C  46.39300 41.33200 41.34200
C  47.72600 42.00500 41.82800
C  46.03800 40.21900 42.37800
C  44.72200 42.66900 39.87100
C  45.60100 43.07500 38.64600
H  45.51300 42.14300 37.47500
N  50.58000 43.04700 42.61600
C  50.28500 41.73500 42.31800
C  51.52300 40.92800 42.29800
C  52.55700 41.79700 42.64500
C  51.92100 43.13900 42.78000
C  51.55500 39.48700 42.10800
C  54.01900 41.39800 42.86600
O  54.37300 40.28300 42.44800
C  55.07900 42.30800 43.42700
N  50.76700 45.99300 42.93500
C  52.02500 45.69900 43.02300
C  52.98200 46.96000 43.13500
C  51.87800 48.07300 43.49400
C  50.54800 47.33700 43.25800
C  54.23000 46.81900 44.05500
C  52.10300 49.40300 42.68300
C  53.42500 50.17200 42.85200
N  47.94100 46.18800 42.66900
C  48.11700 47.57600 42.96000
C  46.80300 48.24600 42.79300
C  45.96100 47.24600 42.28100
C  46.64500 46.03200 42.29700
C  46.53600 49.71200 43.01200
C  44.60600 47.08700 41.78400
O  43.74000 47.91300 41.54100
C  44.37800 45.65500 41.62600
C  43.27200 45.17800 42.43500
O  42.46700 44.36000 42.01200
O  43.32600 45.65300 43.72300
C  42.34000 44.92600 44.55500
H  48.74900 40.22000 41.74400
H  53.66800 44.42900 42.93200
H  49.52900 49.02900 43.64000
H  44.54800 42.21100 41.99800
H  46.40300 40.89500 40.34300
H  46.37400 40.46000 43.38700
H  46.61000 39.31700 42.16100
H  44.99000 39.93200 42.46000
H  43.86200 43.33800 39.84000
H  44.28100 41.68700 39.70000
H  46.64700 43.21700 38.91700
H  45.32500 44.05000 38.24700
H  52.20300 39.01600 42.84700
H  51.91100 39.13100 41.14100
H  50.51700 39.16700 42.19500
H  55.68800 41.60600 43.99600
H  54.64300 43.02900 44.11800
H  55.62400 42.88400 42.67900
H  53.41700 47.10000 42.14600
H  51.78500 48.23600 44.56800
H  55.20200 47.03400 43.61000
H  54.21900 45.82800 44.50700
H  54.02300 47.52600 44.85900
H  51.32900 50.02000 43.14000
H  51.93000 49.13400 41.64200
H  53.61600 50.26900 43.92000
H  53.19900 51.06600 42.27000
H  54.26600 49.65900 42.38700
H  45.50300 50.01600 42.84300
H  47.16000 50.36000 42.39600
H  46.86800 49.86900 44.03800
H  44.13400 45.57800 40.56700
H  41.35700 45.09900 44.11700
H  42.24300 45.41500 45.52400
H  42.49300 43.85400 44.68500

