158

Mg 46.72000 25.06300 28.27600
C  47.42100 27.26400 30.83400
C  45.77900 22.68000 30.73500
C  46.14000 22.87100 25.87600
C  48.30400 27.23000 26.00200
N  46.81800 24.89000 30.49800
C  46.98000 26.06500 31.32800
C  46.63000 25.71000 32.78300
C  46.35500 24.14100 32.77200
C  46.31900 23.85000 31.21500
C  47.37000 23.20200 33.48400
C  45.59800 26.64500 33.35700
C  45.96300 27.40100 34.61200
H  46.62300 26.61300 35.76500
N  46.03700 22.97200 28.27900
C  45.72400 22.21100 29.36900
C  45.37900 20.90000 28.92400
C  45.34300 20.93000 27.48900
C  45.78900 22.28200 27.10700
C  44.97500 19.83800 29.86300
C  44.96200 19.95600 26.49900
O  44.92300 20.19000 25.29100
C  44.57300 18.59600 27.00400
N  47.12300 25.02100 26.20300
C  46.71500 24.03400 25.43200
C  47.22100 24.16700 23.99300
C  47.76400 25.60300 23.95400
C  47.83300 25.96800 25.49800
C  48.25300 23.08100 23.52800
C  46.86700 26.68900 23.26500
C  47.47400 27.93900 22.59900
N  47.65600 26.87200 28.30100
C  48.23600 27.66600 27.31700
C  48.62700 28.96100 27.86700
C  48.27500 28.85900 29.25200
C  47.69900 27.56200 29.47200
C  49.30100 30.07300 27.10500
C  48.31200 29.62000 30.48100
O  48.84500 30.65700 30.83200
C  47.88000 28.57700 31.54300
C  48.95800 28.31400 32.52800
O  49.90800 27.56600 32.28500
O  48.79800 29.15500 33.58400
C  49.85000 28.97400 34.57700
H  45.54700 22.01300 31.56800
H  46.09600 22.15800 25.05000
H  48.89300 27.86400 25.33600
H  47.54700 25.88400 33.34600
H  45.38300 24.06100 33.25900
H  46.74400 22.55100 34.09600
H  48.00300 23.77600 34.16000
H  47.91500 22.54000 32.81100
H  44.65800 26.13800 33.57400
H  45.35700 27.44600 32.65900
H  44.95800 27.61000 34.97900
H  46.49700 28.33800 34.45500
H  45.02500 19.91400 30.94900
H  45.55500 18.93100 29.69300
H  43.92800 19.68300 29.59900
H  43.57600 18.48200 27.43000
H  45.35900 18.28700 27.69300
H  44.60400 17.91700 26.15200
H  46.37200 24.05500 23.31800
H  48.73400 25.69300 23.46400
H  48.52300 22.46700 24.38700
H  49.20100 23.44800 23.13400
H  47.75900 22.52200 22.73300
H  46.10800 26.92800 24.01000
H  46.27600 26.21400 22.48300
H  47.10500 27.84300 21.57800
H  48.56100 27.87100 22.65900
H  47.15600 28.82900 23.14200
H  50.34600 29.98900 27.40100
H  48.91900 31.07800 27.28800
H  49.23100 29.89700 26.03200
H  47.00800 29.04900 31.99600
H  50.83800 28.77000 34.16400
H  49.55400 28.08500 35.13400
H  49.78700 29.68600 35.40000
Mg 0.84200 43.05200 25.89000
C  3.19500 43.33000 28.53600
C  -1.39300 42.03500 28.27000
C  -1.13200 42.42000 23.41300
C  3.50800 43.72600 23.61900
N  0.90800 42.92900 28.22800
C  1.93700 43.12000 29.04400
C  1.57800 42.93200 30.55800
C  0.08000 42.56000 30.42800
C  -0.18300 42.41200 28.87800
C  -0.34500 41.32200 31.19900
C  1.80800 44.22700 31.35500
C  1.14200 44.46800 32.72000
H  0.94000 43.11900 33.59000
N  -1.03100 42.39600 25.83100
C  -1.78200 41.93100 26.92900
C  -3.05500 41.34700 26.42100
C  -2.96900 41.43800 24.94500
C  -1.68600 42.12700 24.67200
C  -4.06900 40.74400 27.36100
C  -3.98100 41.02000 23.88100
O  -3.90700 41.27700 22.63100
C  -5.23200 40.21600 24.25800
N  1.19100 42.90000 23.78000
C  0.15000 42.66000 22.96500
C  0.48100 42.72400 21.43900
C  1.92700 43.46100 21.56800
C  2.26400 43.37600 23.07400
C  0.58900 41.33400 20.66400
C  1.86700 44.84900 20.88200
C  1.26200 45.98500 21.65200
N  2.91700 43.53700 25.95100
C  3.89200 43.71000 24.96900
C  5.16600 43.80800 25.62500
C  4.96900 43.63700 26.98900
C  3.61000 43.51300 27.18000
C  6.50300 43.84500 24.83600
C  5.63600 43.49900 28.24000
O  6.86200 43.40800 28.43400
C  4.51600 43.43900 29.36800
C  4.83600 42.30000 30.27100
O  5.21800 41.17300 29.99700
O  4.69800 42.77500 31.56700
C  5.09900 41.95200 32.70300
H  -2.12500 41.64000 28.97700
H  -1.82700 42.24000 22.59100
H  4.37800 44.06200 23.05000
H  2.17700 42.09300 30.91200
H  -0.59700 43.35200 30.74700
H  -1.03000 41.71000 31.95300
H  0.51300 41.01600 31.79800
H  -0.76100 40.54000 30.56300
H  1.50300 45.07000 30.73500
H  2.87400 44.44200 31.42800
H  0.23900 45.04600 32.52400
H  1.69500 45.19600 33.31300
H  -5.08000 40.87600 26.97400
H  -4.03500 41.25600 28.32300
H  -3.93600 39.67000 27.48900
H  -4.94700 39.42200 24.94900
H  -5.46800 39.64100 23.36300
H  -6.01600 40.93400 24.49700
H  -0.31600 43.29000 20.95700
H  2.71800 42.88100 21.09300
H  0.18400 40.55500 21.31100
H  1.59900 41.04200 20.37400
H  0.04700 41.35600 19.71900
H  1.42000 44.78400 19.89000
H  2.89200 45.18900 20.73200
H  0.87000 45.72000 22.63400
H  0.53300 46.38300 20.94600
H  2.04800 46.74000 21.68200
H  6.50000 43.43800 23.82500
H  7.16200 43.17100 25.38400
H  6.89500 44.86200 24.84900
H  4.56500 44.32300 30.00400
H  6.14300 42.18600 32.91600
H  4.87000 40.89100 32.60200
H  4.43000 42.19800 33.52800

