158

Mg 48.16200 34.84500 26.71700
C  46.52100 33.28500 29.37400
C  48.71000 37.52100 28.84800
C  49.71400 36.20300 24.17200
C  47.54100 31.94700 24.70900
N  47.87700 35.21300 28.93900
C  47.21700 34.44600 29.80400
C  47.38300 35.07800 31.16400
C  47.62200 36.58500 30.88500
C  48.12200 36.42000 29.49100
C  46.44100 37.52500 31.10400
C  48.62800 34.40600 31.86000
C  48.69000 34.47800 33.42000
H  47.65300 35.30200 34.18000
N  48.90600 36.64900 26.47200
C  49.04500 37.62600 27.45800
C  49.80200 38.75700 26.94700
C  50.25100 38.35800 25.59000
C  49.54300 37.07100 25.31300
C  50.25400 40.02200 27.85000
C  51.25100 39.07300 24.60400
O  51.62000 38.53800 23.56500
C  51.76200 40.39300 25.01000
N  48.47100 34.26500 24.57000
C  49.35100 34.93800 23.86900
C  49.81300 34.10900 22.65900
C  49.09800 32.72400 22.86100
C  48.30200 32.97800 24.09600
C  49.32100 34.78300 21.37000
C  50.09600 31.51000 23.09300
C  50.44900 30.70500 21.77000
N  47.12700 33.08500 26.92500
C  47.04200 31.98700 26.00900
C  46.28700 30.90300 26.74600
C  46.05100 31.47000 27.97800
C  46.64100 32.74200 28.08200
C  45.84500 29.64800 26.16200
C  45.34000 31.17600 29.23400
O  44.66100 30.19200 29.52500
C  45.50400 32.43400 30.11300
C  45.63400 32.13200 31.56800
O  46.64800 31.84300 32.16500
O  44.42800 32.35500 32.11900
C  44.38500 32.31800 33.63200
H  48.83200 38.36900 29.52500
H  50.33800 36.63100 23.38500
H  47.34000 31.04500 24.12600
H  46.52400 34.84900 31.79500
H  48.40300 36.93700 31.55900
H  46.60500 38.22600 31.92200
H  45.54100 36.93900 31.29200
H  46.26400 38.17800 30.24900
H  49.48800 34.94400 31.46200
H  48.71400 33.37100 31.52800
H  49.62500 34.94200 33.73600
H  48.67200 33.51400 33.92800
H  49.86100 40.98700 27.52800
H  51.34200 39.99900 27.91700
H  49.92800 39.92100 28.88500
H  52.36800 40.82400 24.21300
H  52.46000 40.39300 25.84700
H  50.91500 41.07500 25.08500
H  50.90200 34.09100 22.61900
H  48.42200 32.61000 22.01400
H  48.67900 35.66300 21.41500
H  48.92300 34.06200 20.65600
H  50.24800 35.04400 20.86100
H  49.74400 30.76500 23.80600
H  51.05000 31.87400 23.47400
H  49.83700 31.01300 20.92200
H  50.22900 29.65700 21.97200
H  51.51100 30.78300 21.53600
H  45.39400 29.85300 25.19100
H  45.13600 29.26800 26.89700
H  46.70300 28.99200 26.01700
H  44.51400 32.82800 29.88100
H  43.71600 33.10600 33.97900
H  45.35500 32.48600 34.10000
H  44.06700 31.32800 33.96000
Mg 6.58600 53.21100 40.81300
C  6.09000 49.78800 40.26900
C  9.81100 52.93000 39.93300
C  6.86800 56.66900 40.99300
C  3.07500 53.55000 41.14400
N  7.85400 51.54900 39.92200
C  7.43800 50.24100 39.95900
C  8.66100 49.42100 39.89100
C  9.87200 50.37400 40.08100
C  9.18800 51.73900 39.97900
C  10.70300 50.20900 41.42400
C  8.87200 48.51200 38.67000
C  8.88000 49.17800 37.29000
H  7.75300 48.75900 36.30600
N  8.15800 54.62600 40.54700
C  9.34900 54.27700 40.04200
C  10.16300 55.43200 39.78900
C  9.35500 56.51200 40.18200
C  8.04600 55.98100 40.63400
C  11.59400 55.37000 39.18500
C  9.74000 57.93300 40.12500
O  10.78800 58.21200 39.65100
C  8.98700 59.12100 40.68200
N  5.12900 54.84000 41.01900
C  5.52800 56.13500 41.06200
C  4.38300 57.06200 41.30100
C  3.18500 56.12400 41.10100
C  3.84100 54.73400 41.12500
C  4.47500 57.83600 42.65100
C  2.25000 56.29800 39.88300
C  0.74200 56.06500 40.14500
N  4.90200 51.98200 40.82900
C  3.55100 52.21100 41.04800
C  2.73100 50.95300 40.95500
C  3.72400 50.05700 40.70900
C  4.98900 50.67300 40.53300
C  1.33100 50.68500 41.08200
C  3.99100 48.62800 40.56100
O  3.24600 47.63100 40.64100
C  5.47100 48.37000 40.28400
C  5.44300 47.55500 38.96500
O  4.90900 47.91300 37.99800
O  6.16000 46.36500 39.07300
C  5.89000 45.36600 38.02600
H  10.89600 52.83900 39.84800
H  6.78800 57.75800 40.96100
H  1.98300 53.57100 41.15100
H  8.54300 48.79400 40.77400
H  10.67600 50.15000 39.38100
H  11.03100 51.08800 41.97800
H  11.59700 49.65600 41.13400
H  10.10400 49.67100 42.15900
H  8.06400 47.78600 38.75500
H  9.77900 47.91700 38.77900
H  9.83500 49.05600 36.77800
H  8.72500 50.23500 37.50600
H  11.63500 55.89000 38.22800
H  11.93900 54.33800 39.12800
H  12.23800 55.81500 39.94400
H  9.61800 60.01000 40.70800
H  8.80000 58.85500 41.72200
H  8.03000 59.32800 40.20300
H  4.21100 57.80500 40.52300
H  2.62900 56.07500 42.03700
H  4.65600 58.86700 42.34800
H  5.23300 57.50800 43.36200
H  3.45500 57.68600 43.00700
H  2.58300 55.74000 39.00800
H  2.33300 57.32100 39.51700
H  0.62200 56.06100 41.22800
H  0.52400 55.13700 39.61600
H  0.21400 56.96900 39.84200
H  1.17300 49.84800 40.40100
H  0.86000 51.64700 40.88100
H  1.14200 50.42700 42.12400
H  5.70800 47.63500 41.05300
H  4.81900 45.29300 37.83800
H  6.31900 44.39500 38.27200
H  6.34000 45.72500 37.10000

