158

Mg -12.37100 16.26200 41.81400
C  -9.50200 14.33300 41.29600
C  -10.78200 18.96900 40.37100
C  -15.32000 17.58800 41.65800
C  -13.95400 13.10500 42.98200
N  -10.45200 16.54900 40.65400
C  -9.37900 15.61000 40.69700
C  -8.12900 16.19000 40.06000
C  -8.54700 17.64300 39.78600
C  -9.97900 17.79000 40.37400
C  -7.62600 18.76600 40.30300
C  -7.63400 15.47700 38.76500
C  -6.06100 15.30300 38.71200
H  -5.32700 16.16400 37.59300
N  -12.89200 18.07200 41.20000
C  -12.15500 19.09900 40.73100
C  -13.01200 20.28300 40.49000
C  -14.27400 19.90000 40.96300
C  -14.23400 18.48800 41.31400
C  -12.43800 21.68300 40.11100
C  -15.52400 20.84500 41.06400
O  -15.53200 21.99400 40.71100
C  -16.90900 20.35600 41.36100
N  -14.41000 15.38900 42.15500
C  -15.39300 16.25400 41.96500
C  -16.74300 15.48800 42.22900
C  -16.34200 14.14000 42.84400
C  -14.83600 14.20800 42.64800
C  -17.95500 16.16800 42.94400
C  -16.94500 12.86600 42.20100
C  -17.16500 11.61300 43.08800
N  -11.88200 14.10300 42.26000
C  -12.59100 13.01200 42.62900
C  -11.75500 11.85400 42.66400
C  -10.53900 12.35200 42.27200
C  -10.69900 13.71400 41.89300
C  -12.11800 10.51800 43.33600
C  -9.13800 11.98600 42.03700
O  -8.52100 10.92900 42.31400
C  -8.41100 13.27000 41.47000
C  -7.45500 13.81800 42.54300
O  -7.80000 14.64000 43.36000
O  -6.23300 13.32100 42.33600
C  -5.13500 14.06800 43.07600
H  -10.21700 19.86600 40.10900
H  -16.32600 17.97400 41.48400
H  -14.39100 12.12600 43.18700
H  -7.37700 16.21000 40.84900
H  -8.62800 17.82800 38.71500
H  -6.60400 18.53100 40.00700
H  -7.59300 18.85000 41.38900
H  -7.86300 19.70200 39.79700
H  -7.93900 15.96900 37.84200
H  -8.12500 14.50700 38.68700
H  -5.76900 14.28600 38.45300
H  -5.69000 15.49400 39.71900
H  -11.39400 21.61700 39.80400
H  -12.42500 22.38100 40.94800
H  -13.08800 22.07300 39.32800
H  -17.56300 21.22300 41.44800
H  -16.88500 19.81200 42.30500
H  -17.32200 19.72800 40.57200
H  -17.14700 15.28900 41.23700
H  -16.58600 14.16300 43.90600
H  -18.80100 16.24800 42.26100
H  -17.62300 17.10000 43.40300
H  -18.30500 15.48800 43.72000
H  -16.29100 12.54200 41.39200
H  -17.88600 13.23100 41.78900
H  -18.14100 11.15500 42.92300
H  -17.03000 11.74800 44.16100
H  -16.49500 10.89200 42.62100
H  -12.41800 9.79000 42.58200
H  -12.88000 10.79800 44.06200
H  -11.21400 10.15400 43.82400
H  -7.90600 13.16600 40.50900
H  -5.34800 14.07600 44.14500
H  -5.08100 15.10500 42.74400
H  -4.21600 13.49400 42.95800
Mg -5.67000 25.75300 25.62400
C  -4.36400 26.90200 28.69800
C  -7.56800 23.62900 27.42800
C  -6.51000 24.35500 22.71900
C  -3.50600 27.94900 23.95800
N  -5.74600 25.16600 27.79300
C  -5.15900 25.81500 28.83000
C  -5.72600 25.33200 30.16700
C  -6.52500 23.97800 29.79100
C  -6.65600 24.26000 28.25900
C  -5.94800 22.64000 30.17000
C  -6.64400 26.39800 30.74900
C  -6.59600 26.63000 32.24600
H  -5.98200 25.49200 33.05900
N  -7.01200 24.34000 25.13600
C  -7.73200 23.61600 26.01400
C  -8.66800 22.83800 25.27600
C  -8.24700 22.79500 23.92800
C  -7.21400 23.87600 23.86800
C  -9.84200 22.13700 25.92700
C  -8.68300 22.00900 22.73600
O  -8.11800 22.13200 21.66700
C  -9.88900 21.12400 22.90200
N  -5.06900 26.09000 23.56000
C  -5.56100 25.35200 22.55000
C  -4.99500 25.84600 21.28800
C  -3.95600 26.91200 21.67500
C  -4.19800 27.06100 23.13300
C  -4.38500 24.69900 20.43500
C  -4.14600 28.20000 20.89700
C  -2.84700 28.94700 20.67900
N  -4.14200 27.07700 26.20400
C  -3.39700 27.97000 25.35700
C  -2.61700 28.80700 26.19300
C  -3.03200 28.47000 27.52800
C  -3.88800 27.41500 27.46100
C  -1.65500 29.86400 25.69300
C  -2.81000 28.83600 28.85700
O  -2.06500 29.62200 29.35400
C  -3.71500 27.83500 29.73400
C  -2.80100 27.14500 30.64700
O  -2.24300 26.10400 30.44400
O  -2.69100 27.92400 31.76600
C  -1.89100 27.30900 32.81900
H  -8.17100 22.95600 28.04100
H  -6.76400 23.92400 21.74900
H  -3.02200 28.86900 23.62500
H  -4.90400 25.03500 30.81800
H  -7.52500 23.94200 30.22400
H  -6.67300 22.09500 30.77500
H  -5.17400 22.93000 30.88000
H  -5.63200 22.03400 29.32000
H  -7.67900 26.10400 30.57700
H  -6.63400 27.31500 30.16100
H  -7.59500 26.76900 32.65900
H  -6.01900 27.54400 32.38900
H  -9.96700 22.47100 26.95700
H  -9.80400 21.04900 25.98800
H  -10.82100 22.26000 25.46300
H  -10.78200 21.68400 23.18000
H  -9.65100 20.35200 23.63300
H  -9.98400 20.65300 21.92300
H  -5.73100 26.29400 20.62200
H  -2.97100 26.44700 21.69800
H  -3.37800 24.86200 20.05400
H  -4.97500 24.55600 19.53000
H  -4.40600 23.72900 20.93300
H  -4.81500 28.80300 21.51100
H  -4.65200 28.04900 19.94400
H  -1.96400 28.31100 20.61300
H  -2.73800 29.71700 21.44200
H  -2.91600 29.49800 19.74100
H  -1.34300 30.50000 26.52100
H  -2.10400 30.52500 24.95100
H  -0.66800 29.50600 25.39700
H  -4.50400 28.37600 30.25600
H  -0.88200 27.04100 32.50300
H  -2.40500 26.43000 33.20900
H  -1.89300 27.97300 33.68300

