158

Mg 34.76000 2.71000 30.19000
C  32.79300 3.54400 32.94600
C  37.44800 2.52200 32.33000
C  36.67300 2.20300 27.49400
C  31.94800 2.81800 28.17000
N  35.10100 3.20300 32.33800
C  34.11900 3.38700 33.33300
C  34.65100 3.34100 34.73900
C  36.16400 2.97400 34.52100
C  36.26000 2.84100 32.97000
C  37.19900 4.01800 35.00300
C  33.88500 2.20000 35.53900
C  33.59200 2.44200 37.00200
H  34.48200 3.48000 37.75100
N  36.79600 2.41600 29.94800
C  37.74500 2.31500 30.91200
C  39.10300 2.05500 30.30900
C  38.86000 2.03000 28.89100
C  37.40700 2.18200 28.70700
C  40.26100 1.97200 31.20600
C  39.84800 1.88800 27.74300
O  39.51000 1.78700 26.58300
C  41.33400 1.85100 28.01700
N  34.41600 2.58900 28.10900
C  35.36000 2.34300 27.19000
C  34.83800 2.34900 25.73000
C  33.33400 2.13100 26.08400
C  33.21400 2.55900 27.53900
C  35.22000 3.66900 24.99300
C  32.91500 0.67900 25.88800
C  32.12800 0.23200 24.62700
N  32.68300 3.04800 30.43300
C  31.67700 3.05500 29.54100
C  30.46200 3.51800 30.20400
C  30.86800 3.70600 31.52900
C  32.23500 3.40800 31.62200
C  29.13900 3.71400 29.60400
C  30.34300 4.16400 32.77400
O  29.20000 4.47800 33.09900
C  31.62800 4.11600 33.78600
C  31.90800 5.39100 34.43600
O  32.78300 6.22700 34.17400
O  31.02500 5.46600 35.50000
C  31.39000 6.53600 36.46700
H  38.22700 2.33800 33.07200
H  37.14300 2.27200 26.51100
H  31.08400 2.93600 27.51200
H  34.55600 4.29200 35.26200
H  36.51600 1.99900 34.85800
H  36.82800 4.90500 35.51600
H  37.82800 4.52000 34.26800
H  37.86900 3.58700 35.74600
H  34.48900 1.29300 35.56800
H  32.88900 2.00000 35.14500
H  33.76400 1.51700 37.55300
H  32.54000 2.70300 37.11500
H  41.01900 1.40900 30.66000
H  39.97500 1.54400 32.16700
H  40.88200 2.82500 31.47900
H  41.66900 0.94400 28.52000
H  41.66200 2.73000 28.57200
H  41.97600 1.97000 27.14400
H  35.22900 1.50600 25.16100
H  32.87400 2.80200 25.35900
H  36.26900 3.91100 25.16400
H  34.54300 4.45700 25.32300
H  35.10500 3.64600 23.90900
H  32.36600 0.23900 26.72000
H  33.80500 0.05900 25.77800
H  31.23700 -0.32000 24.92700
H  32.67300 -0.38700 23.91500
H  31.84200 1.12500 24.07200
H  28.83200 4.75900 29.64400
H  28.38700 3.15500 30.16100
H  29.09300 3.45600 28.54600
H  31.21900 3.37300 34.47100
H  30.92900 6.33000 37.43300
H  31.00500 7.47800 36.07800
H  32.47200 6.57400 36.59700
Mg 9.90000 47.27200 26.22700
C  7.63600 47.27100 28.80300
C  12.59700 47.77500 28.24500
C  12.13200 47.35500 23.45200
C  7.33100 46.87100 23.86800
N  10.04700 47.38200 28.32800
C  9.00900 47.41900 29.25600
C  9.61400 47.55700 30.67500
C  11.17300 47.93400 30.37900
C  11.32000 47.67800 28.90600
C  11.70800 49.27700 30.87600
C  9.39800 46.33500 31.62000
C  8.95700 46.63600 33.05100
H  9.16200 45.63700 34.15000
N  12.01100 47.58500 25.85600
C  12.93900 47.80800 26.89400
C  14.26700 47.98600 26.33400
C  14.18000 47.57200 25.01200
C  12.71800 47.48300 24.71800
C  15.42200 48.41000 27.14600
C  15.23400 47.22100 24.03500
O  14.98000 46.72600 22.92900
C  16.69000 47.35500 24.56600
N  9.78300 47.24500 24.01800
C  10.79200 47.17400 23.10600
C  10.41200 47.06400 21.64800
C  8.84000 46.86000 21.79300
C  8.62300 47.03100 23.33600
C  10.81900 48.35000 20.82200
C  8.26900 45.43500 21.29500
C  6.92900 45.61100 20.44700
N  7.94000 47.21100 26.23900
C  6.96800 47.00100 25.24500
C  5.65300 46.99300 25.87600
C  5.89600 47.04500 27.26200
C  7.30100 47.26200 27.44400
C  4.30200 46.77000 25.20200
C  5.21400 46.95100 28.58000
O  4.02600 46.84000 28.88100
C  6.36800 47.12100 29.61500
C  6.37200 45.88500 30.34300
O  6.91000 44.84400 30.00400
O  5.65800 46.03900 31.54200
C  5.68400 44.92000 32.42500
H  13.32100 47.97100 29.03900
H  12.80200 47.37800 22.59100
H  6.51900 46.90400 23.13900
H  9.12400 48.45100 31.06000
H  11.83500 47.16800 30.78300
H  12.03300 49.88800 30.03400
H  12.56400 49.15500 31.54000
H  10.87300 49.80800 31.33300
H  10.33800 45.81900 31.81600
H  8.72100 45.54800 31.28800
H  7.89100 46.86000 33.03000
H  9.52100 47.52900 33.32300
H  15.17300 48.69600 28.16800
H  15.80900 49.28900 26.63100
H  16.25800 47.71100 27.15300
H  17.33400 47.32500 23.68700
H  16.91600 46.47600 25.16900
H  16.75300 48.31900 25.07300
H  10.82800 46.13600 21.25500
H  8.28700 47.67400 21.32500
H  11.20500 49.07300 21.54200
H  9.96700 48.86700 20.38000
H  11.57300 48.14500 20.06200
H  7.99100 44.85200 22.17300
H  8.95600 44.80200 20.73300
H  6.48500 46.57500 20.69200
H  6.20800 44.92800 20.89600
H  6.97500 45.39800 19.37900
H  4.54900 46.59000 24.15600
H  3.62000 47.61500 25.29600
H  3.95900 45.82900 25.63100
H  6.04400 47.93800 30.25900
H  6.22500 45.19000 33.33200
H  5.99500 43.96100 32.01200
H  4.61000 44.95600 32.60800

