158

Mg 16.39000 -2.29100 27.67000
C  15.33600 -0.13500 30.28100
C  18.53700 -3.80100 29.81100
C  17.82700 -3.63800 25.07700
C  14.58700 -0.08000 25.52700
N  16.78000 -2.03300 29.87900
C  16.21500 -1.18000 30.69200
C  16.66900 -1.41500 32.14100
C  17.74800 -2.49300 32.00400
C  17.66100 -2.83700 30.50200
C  19.16200 -2.19000 32.46500
C  15.52900 -1.82500 33.10300
C  15.49600 -0.88100 34.37900
H  16.84900 -0.36700 35.05800
N  17.90100 -3.69300 27.46300
C  18.62500 -4.22600 28.46600
C  19.52900 -5.31600 27.92700
C  19.32300 -5.33400 26.46300
C  18.28400 -4.22400 26.23800
C  20.42700 -6.19800 28.75100
C  19.86900 -6.14400 25.32100
O  19.55500 -5.94800 24.14800
C  20.73900 -7.35100 25.77900
N  16.10400 -2.02900 25.56600
C  16.93400 -2.65400 24.72400
C  16.93900 -2.01200 23.31500
C  15.80100 -1.02300 23.44300
C  15.43500 -1.04700 24.90900
C  18.30300 -1.32800 22.90600
C  14.51300 -1.12300 22.54100
C  14.14900 0.01500 21.55700
N  15.06800 -0.52000 27.81500
C  14.33600 0.15200 26.82900
C  13.56400 1.19200 27.44400
C  14.01400 1.16600 28.79400
C  14.91200 0.10600 28.96000
C  12.51700 2.04500 26.82200
C  13.75900 1.75100 30.10300
O  12.92100 2.54300 30.48500
C  14.71700 0.96100 31.10600
C  15.72800 1.92700 31.59300
O  16.56300 2.51500 30.89400
O  15.44900 2.32900 32.89900
C  16.22400 3.50600 33.31200
H  19.30300 -4.17700 30.49300
H  18.31100 -4.14200 24.23800
H  13.99200 0.44300 24.77500
H  17.09600 -0.47000 32.47700
H  17.35600 -3.42600 32.40900
H  19.98400 -2.04900 31.76400
H  19.28700 -2.96000 33.22700
H  19.18900 -1.25500 33.02500
H  15.60700 -2.87300 33.39200
H  14.54300 -1.66500 32.66700
H  14.91200 -1.43000 35.11700
H  14.80200 -0.07200 34.15400
H  20.07200 -7.22600 28.82700
H  20.61400 -5.78500 29.74200
H  21.40300 -6.15400 28.26800
H  20.15300 -7.86200 26.54300
H  21.61500 -6.77500 26.07800
H  20.93200 -7.92700 24.87400
H  16.65900 -2.73700 22.55000
H  16.20000 -0.00900 23.40800
H  18.94400 -1.54500 23.76100
H  18.27400 -0.24200 22.80800
H  18.68000 -1.90400 22.06100
H  13.55700 -1.26200 23.04600
H  14.62100 -2.01000 21.91700
H  13.84100 -0.41100 20.60100
H  15.12400 0.47400 21.39300
H  13.47500 0.76800 21.96400
H  12.07800 2.83200 27.43600
H  11.66400 1.42400 26.54800
H  12.89800 2.58900 25.95800
H  14.19900 0.42900 31.90400
H  16.14200 4.39400 32.68500
H  17.28400 3.25500 33.34200
H  15.89100 3.86700 34.28500
Mg 44.17300 4.85600 48.25800
C  42.38300 7.88100 48.14400
C  41.19600 3.15000 48.07400
C  45.94500 2.06300 47.93200
C  47.13300 6.73900 47.69400
N  42.09300 5.45200 47.86700
C  41.55500 6.72400 47.91600
C  40.04500 6.77800 47.72900
C  39.71400 5.29900 48.02400
C  41.10300 4.54100 47.96900
C  38.94700 5.11800 49.27100
C  39.60200 7.44900 46.44300
C  40.46000 7.35000 45.12300
H  39.74400 6.73600 43.90900
N  43.64600 2.86700 47.95200
C  42.40800 2.40600 47.99000
C  42.46000 0.95200 47.92800
C  43.80300 0.60800 47.89000
C  44.55000 1.88000 47.93900
C  41.27200 0.09600 47.61100
C  44.31900 -0.82900 47.69500
O  43.50600 -1.76800 47.57700
C  45.67000 -1.14700 47.46300
N  46.25300 4.47500 47.62700
C  46.72300 3.22500 47.85900
C  48.29200 3.19600 47.82000
C  48.62400 4.75500 47.72200
C  47.27800 5.33400 47.61100
C  48.96700 2.38200 48.93100
C  49.70700 5.24300 46.75000
C  50.87800 5.91100 47.47900
N  44.69300 6.90500 48.15700
C  45.94100 7.46600 47.93200
C  45.84600 8.88800 47.89000
C  44.41200 9.15100 48.01600
C  43.80600 7.90300 48.10000
C  46.98400 10.00300 47.65100
C  43.34400 10.16900 48.06200
O  43.38900 11.42100 48.12900
C  41.98900 9.35000 48.12900
C  41.25700 9.74800 49.39200
O  41.07700 9.05200 50.39400
O  40.58100 10.93600 49.14900
C  39.72800 11.45000 50.21400
H  40.25600 2.65800 48.33100
H  46.58000 1.17500 47.94400
H  48.04800 7.33400 47.72900
H  39.67400 7.35800 48.57400
H  39.08700 4.89200 47.23100
H  38.40800 6.04600 49.46200
H  39.56500 4.76700 50.09700
H  38.16900 4.38300 49.06500
H  39.33900 8.50300 46.53200
H  38.61900 6.98400 46.36100
H  41.36700 6.74600 45.11300
H  40.84400 8.33600 44.86400
H  41.27700 -0.36100 46.62200
H  40.33300 0.62200 47.78200
H  41.32100 -0.70200 48.35200
H  46.32800 -1.21700 48.32900
H  46.11000 -0.37300 46.83500
H  45.62600 -2.09300 46.92300
H  48.47100 2.72100 46.85500
H  48.98200 4.84900 48.74700
H  49.48500 1.52200 48.50700
H  48.28800 2.21000 49.76600
H  49.88100 2.82600 49.32600
H  49.39700 6.01800 46.04800
H  50.00100 4.28400 46.32600
H  50.44900 6.41800 48.34400
H  51.29200 6.60300 46.74700
H  51.63400 5.15200 47.68000
H  47.96800 9.63800 47.94400
H  46.70400 10.76700 48.37700
H  47.02500 10.42700 46.64800
H  41.33400 9.54400 47.28000
H  38.93000 11.92900 49.64800
H  40.27300 12.28300 50.65700
H  39.26300 10.69300 50.84600

