158

Mg 54.56200 24.26200 43.79100
C  52.15300 26.58400 42.88800
C  52.57500 21.74600 42.73900
C  57.43500 22.27800 43.55800
C  56.72200 26.96700 44.43800
N  52.59400 24.20800 42.88400
C  51.75200 25.26300 42.63700
C  50.28700 24.77700 42.39500
C  50.43200 23.22900 42.64600
C  51.91800 22.99200 42.82600
C  49.53800 22.67900 43.78600
C  49.55000 25.25400 41.08100
C  50.43800 25.70600 39.89000
H  50.49400 24.97800 38.51800
N  54.89500 22.21000 43.33200
C  53.91700 21.35900 42.98000
C  54.46600 20.03500 42.75600
C  55.88100 20.12900 43.08200
C  56.14500 21.58600 43.35800
C  53.63200 18.79100 42.32000
C  56.74700 18.99800 43.30000
O  56.48100 17.87600 42.87400
C  58.05400 19.27800 44.04200
N  56.80700 24.58400 43.80000
C  57.66500 23.59200 43.84500
C  59.01200 24.08600 44.30600
C  58.83000 25.61300 44.56200
C  57.40700 25.74100 44.17700
C  59.76600 23.26500 45.41700
C  59.85700 26.45700 43.63200
C  59.15900 27.04100 42.36300
N  54.54900 26.36300 43.59200
C  55.41900 27.32100 44.11000
C  54.80400 28.49400 44.27400
C  53.53300 28.35800 43.73900
C  53.44100 26.99300 43.33000
C  55.38600 29.61900 44.87000
C  52.28700 28.94900 43.50300
O  51.92000 30.11000 43.63300
C  51.37900 27.88600 42.82600
C  51.01700 28.38600 41.52000
O  51.78300 28.62000 40.65200
O  49.67000 28.59200 41.41300
C  49.16200 29.15000 40.20400
H  51.98200 20.85900 42.50800
H  58.38400 21.74700 43.46200
H  57.33900 27.69000 44.97700
H  49.68100 25.23700 43.17500
H  50.14300 22.69700 41.74000
H  50.07700 22.67800 44.73400
H  49.41700 21.63100 43.51100
H  48.58900 23.21400 43.76200
H  48.84600 26.07000 41.23800
H  48.86800 24.47700 40.73500
H  51.48300 25.73700 40.19800
H  50.08400 26.72100 39.71100
H  54.21200 18.33400 41.51800
H  52.71200 19.20200 41.90500
H  53.37600 18.14300 43.15800
H  58.51200 18.41100 44.51800
H  57.89300 20.02700 44.81800
H  58.74700 19.74600 43.34300
H  59.65800 23.99200 43.43300
H  58.91200 25.91800 45.60600
H  59.94100 24.00900 46.19500
H  60.75500 22.90700 45.13300
H  59.19700 22.40200 45.76300
H  60.62600 25.85400 43.14800
H  60.29600 27.23800 44.25300
H  58.91800 28.10200 42.42300
H  58.18600 26.60000 42.14400
H  59.73400 26.78500 41.47300
H  54.89800 30.53400 44.53600
H  56.44000 29.61200 44.59300
H  55.26600 29.47800 45.94500
H  50.44900 27.79200 43.38700
H  49.80600 30.00700 40.00600
H  48.20200 29.63500 40.38300
H  49.13400 28.49800 39.33100
Mg -13.03000 39.06300 41.59900
C  -11.43500 36.11500 40.25400
C  -10.53400 40.94900 40.07000
C  -14.94000 41.84700 42.07800
C  -15.71900 37.05300 42.41500
N  -11.16000 38.52900 40.23000
C  -10.73100 37.30700 39.82300
C  -9.38300 37.39200 39.04200
C  -9.22800 38.95500 38.86500
C  -10.45700 39.56500 39.71400
C  -7.84900 39.44300 39.34600
C  -9.28300 36.57600 37.64400
C  -8.09700 35.60000 37.57100
H  -7.01400 36.00100 36.60800
N  -12.69500 41.10100 41.33000
C  -11.62100 41.68800 40.70200
C  -11.75200 43.15200 40.73900
C  -12.94200 43.44300 41.40700
C  -13.57800 42.11500 41.65500
C  -10.73900 44.18800 40.13800
C  -13.38900 44.83700 41.74100
O  -12.65900 45.77100 41.50700
C  -14.80700 45.21500 42.28900
N  -15.06700 39.33600 42.10200
C  -15.62600 40.63000 42.26500
C  -17.11800 40.52900 42.64400
C  -17.22600 39.07100 43.07300
C  -15.95800 38.42400 42.47700
C  -17.67900 41.52100 43.68300
C  -18.56000 38.34700 42.62800
C  -19.25300 37.39600 43.58500
N  -13.52300 36.98200 41.43100
C  -14.61700 36.28500 41.88200
C  -14.42300 34.90300 41.84800
C  -13.21700 34.75500 41.13900
C  -12.72200 36.06300 40.92200
C  -15.24800 33.85500 42.47100
C  -12.20500 33.82500 40.67900
O  -12.03500 32.60300 40.73600
C  -11.05500 34.67700 40.06800
C  -9.84800 34.32700 40.88800
O  -8.86000 33.74600 40.51500
O  -10.01000 34.76700 42.25100
C  -8.90400 34.57900 43.19100
H  -9.86500 41.56500 39.46600
H  -15.63600 42.66600 42.26900
H  -16.60900 36.62900 42.88400
H  -8.68100 36.91400 39.72500
H  -9.33400 39.20300 37.80900
H  -7.40500 40.15300 38.64900
H  -7.12600 38.65800 39.57100
H  -7.98200 40.05400 40.23900
H  -9.15800 37.14500 36.72300
H  -10.23000 36.04900 37.52500
H  -8.40900 34.58000 37.34500
H  -7.48300 35.58100 38.47200
H  -10.02900 43.65500 39.50500
H  -10.22500 44.74900 40.91900
H  -11.30600 44.83700 39.47000
H  -15.42900 44.84100 41.47700
H  -15.02800 46.27900 42.37900
H  -15.13700 44.62700 43.14500
H  -17.66200 40.58500 41.70200
H  -17.09600 38.86200 44.13500
H  -16.96600 42.28200 44.00000
H  -18.02000 41.07200 44.61600
H  -18.54100 41.95200 43.17300
H  -18.40600 37.82000 41.68700
H  -19.26000 39.14200 42.37300
H  -19.33800 36.45400 43.04400
H  -20.20000 37.82100 43.91600
H  -18.57800 37.21800 44.42200
H  -14.62900 33.06700 42.89800
H  -15.90700 33.40000 41.73100
H  -15.81800 34.35500 43.25400
H  -10.95800 34.51100 38.99500
H  -8.57000 35.58300 43.45200
H  -8.14100 33.89800 42.81600
H  -9.25200 34.02400 44.06200

