158

Mg 8.92100 3.35100 27.86000
C  10.59900 1.86900 30.63000
C  6.96500 5.05800 29.94100
C  7.42900 4.51800 25.12700
C  10.62100 1.00000 25.79300
N  8.97500 3.56400 30.07000
C  9.73700 2.90300 30.97700
C  9.24900 3.25200 32.38800
C  7.93400 4.12200 32.16300
C  7.93600 4.22100 30.66500
C  6.66100 3.55200 32.83600
C  10.38900 4.02800 33.14400
C  10.89900 3.36400 34.38700
H  11.43400 4.38700 35.45400
N  7.42000 4.58600 27.62000
C  6.78600 5.29300 28.59400
C  5.94900 6.34900 28.01600
C  6.00600 6.17700 26.63500
C  6.98700 5.01900 26.40600
C  4.99400 7.22800 28.84700
C  5.21000 6.88700 25.53500
O  5.38800 6.66800 24.37100
C  4.15600 7.95400 25.96200
N  8.75300 2.48700 25.79000
C  8.19700 3.33900 24.84700
C  8.45600 2.81200 23.41600
C  9.64900 1.85900 23.61100
C  9.67600 1.76900 25.15800
C  7.25000 2.06400 22.83600
C  10.98300 2.32900 23.06900
C  11.40800 1.52300 21.80100
N  10.34800 1.81800 28.12200
C  10.84700 0.91900 27.23000
C  11.75600 -0.08300 27.84800
C  11.69800 0.25200 29.20000
C  10.85900 1.42900 29.34500
C  12.55300 -1.15900 27.20800
C  12.14300 -0.02800 30.48600
O  12.85300 -0.91500 30.91300
C  11.51500 1.01200 31.47400
C  10.70200 0.26700 32.47300
O  9.59700 -0.13100 32.40200
O  11.49200 0.20500 33.58900
C  10.88800 -0.27900 34.81100
H  6.43200 5.72100 30.62600
H  6.97500 5.07800 24.30700
H  11.20500 0.31500 25.17500
H  9.02600 2.30200 32.87400
H  8.01100 5.15800 32.49300
H  6.12400 4.32300 33.38800
H  6.89400 2.77100 33.56000
H  5.94000 3.33300 32.04800
H  9.97100 4.95400 33.53900
H  11.13800 4.33500 32.41400
H  11.76700 2.76900 34.10200
H  10.08400 2.81300 34.85700
H  4.06500 6.66600 28.75400
H  4.89900 8.28800 28.61300
H  5.35500 7.40200 29.86100
H  3.90700 8.64700 25.15800
H  4.54400 8.62000 26.73300
H  3.32500 7.45200 26.45700
H  8.58800 3.71500 22.82100
H  9.34600 0.97200 23.05400
H  6.35500 2.35900 23.38400
H  7.39100 0.98600 22.76100
H  7.12300 2.48700 21.83900
H  11.76300 2.25900 23.82700
H  10.95300 3.35500 22.70200
H  10.63300 1.00700 21.23400
H  12.11000 0.78800 22.19300
H  12.04500 2.08100 21.11400
H  13.31900 -0.88800 26.48200
H  11.84100 -1.90400 26.85100
H  13.12000 -1.61400 28.02100
H  12.19700 1.72000 31.94500
H  9.86900 -0.63400 34.65700
H  10.75000 0.56800 35.48400
H  11.61200 -0.93700 35.29100
Mg 7.45800 52.92200 41.84400
C  7.43900 49.43600 41.79100
C  10.70000 52.77200 40.48400
C  7.10500 56.14000 41.04400
C  3.98700 52.67700 42.64100
N  8.84000 51.34500 41.20500
C  8.64500 49.96200 41.31500
C  9.94900 49.20000 40.90600
C  10.96500 50.26700 41.08600
C  10.14300 51.55700 40.88800
C  11.74500 50.29400 42.41000
C  9.95800 48.50700 39.49700
C  9.59900 49.26800 38.17500
H  8.25300 48.98000 37.47400
N  8.80100 54.29200 40.94400
C  10.05200 54.04600 40.49200
C  10.56200 55.26900 39.96600
C  9.59800 56.36800 40.23900
C  8.43400 55.66400 40.78200
C  11.99400 55.37700 39.44300
C  9.95800 57.83700 40.10900
O  10.98900 58.15600 39.56800
C  8.95800 58.88300 40.54900
N  5.84100 54.14600 41.80100
C  5.92300 55.45100 41.41300
C  4.42200 56.06600 41.44800
C  3.56700 55.00700 42.10500
C  4.53500 53.88700 42.26000
C  4.41700 57.53200 42.00300
C  2.25500 54.69700 41.37400
C  1.02900 54.55100 42.33400
N  6.11200 51.37100 42.34100
C  4.78700 51.47800 42.75000
C  4.31600 50.15400 43.09700
C  5.31900 49.31500 42.81400
C  6.35900 50.10100 42.27500
C  2.96400 49.86600 43.71500
C  5.68400 47.90100 42.82900
O  5.08700 46.89800 43.24100
C  7.08900 47.91700 42.12900
C  7.00200 46.88700 41.01800
O  6.30200 46.94500 39.97700
O  7.71400 45.71000 41.44900
C  7.59500 44.55300 40.58700
H  11.76700 52.67600 40.27200
H  7.05500 57.17900 40.71200
H  2.92200 52.59500 42.87000
H  10.06900 48.40600 41.64200
H  11.62900 50.28800 40.22200
H  11.37200 49.55000 43.11400
H  11.54000 51.24500 42.90100
H  12.82300 50.20500 42.27100
H  9.41300 47.56500 39.55100
H  10.99100 48.16400 39.43900
H  10.40000 49.07900 37.46000
H  9.45900 50.32900 38.37800
H  11.88200 55.62200 38.38700
H  12.67000 54.53600 39.60300
H  12.48000 56.27100 39.83500
H  8.24400 58.92800 39.72600
H  9.43300 59.86300 40.60500
H  8.47900 58.76200 41.52100
H  4.29400 56.16600 40.37000
H  3.50300 55.47600 43.08700
H  4.45500 58.24200 41.17700
H  5.24800 57.71200 42.68500
H  3.41900 57.73500 42.39000
H  2.28300 53.79200 40.76700
H  2.06200 55.60100 40.79700
H  0.39500 55.42900 42.20600
H  1.46600 54.51900 43.33200
H  0.37600 53.69300 42.17200
H  2.70900 48.81000 43.80500
H  2.21500 50.24900 43.02100
H  2.78500 50.46900 44.60500
H  7.90800 47.53300 42.73700
H  7.72300 44.73900 39.52000
H  6.58600 44.16600 40.73100
H  8.27700 43.76600 40.90900

