158

Mg 36.35600 49.71400 24.65600
C  36.24400 47.88300 27.76900
C  35.12300 52.44400 26.26300
C  35.87900 51.11700 21.56200
C  37.28600 46.68100 23.14800
N  35.85100 50.11700 26.74400
C  35.86400 49.22000 27.84900
C  35.52600 50.03000 29.17000
C  34.90300 51.36400 28.64600
C  35.32100 51.33500 27.09300
C  33.37100 51.49400 28.82500
C  36.70200 50.11600 30.16600
C  36.31000 50.15500 31.66100
H  34.86900 49.81600 32.01000
N  35.68500 51.59000 24.05000
C  35.29900 52.58100 24.83500
C  34.97100 53.74900 23.97100
C  35.14700 53.41700 22.64500
C  35.69000 52.01100 22.68900
C  34.33900 55.10400 24.60800
C  34.85800 54.30100 21.41100
O  34.93700 53.85300 20.28400
C  34.54000 55.77400 21.50400
N  36.54500 49.03100 22.62600
C  36.25300 49.75500 21.53300
C  36.39900 48.88900 20.26900
C  37.21600 47.62500 20.83700
C  36.97500 47.73400 22.29100
C  35.06800 48.66200 19.50200
C  38.67300 47.62200 20.37700
C  39.04900 46.29200 19.63000
N  36.74500 47.65800 25.25100
C  37.13200 46.58500 24.49400
C  37.47800 45.45200 25.32500
C  37.13400 45.94400 26.65500
C  36.63000 47.27700 26.52900
C  38.17100 44.09200 25.06800
C  37.16900 45.60100 28.07100
O  37.54800 44.56400 28.52600
C  36.61300 46.79100 28.79700
C  35.50300 46.43800 29.61800
O  34.32600 46.51600 29.35600
O  36.01200 45.70200 30.68100
C  34.97200 45.18000 31.58000
H  34.73000 53.35700 26.71600
H  35.69600 51.57300 20.58700
H  37.51500 45.69900 22.72900
H  34.77500 49.36100 29.59000
H  35.33500 52.21500 29.17300
H  33.01300 50.63400 29.39000
H  32.93500 51.38900 27.83100
H  33.03500 52.44500 29.23800
H  37.28300 51.00700 29.92500
H  37.40600 49.28600 30.10300
H  36.66100 51.10800 32.05700
H  36.92300 49.41100 32.17000
H  33.95100 54.87700 25.60100
H  33.50500 55.46400 24.00600
H  35.19600 55.77600 24.64600
H  35.28500 56.15800 22.20000
H  33.46200 55.86800 21.63500
H  34.79900 56.07700 20.49000
H  37.04100 49.47800 19.61400
H  36.69600 46.72300 20.51300
H  34.25600 49.17700 20.01500
H  34.87900 47.59800 19.36300
H  35.18300 49.12100 18.52000
H  39.43500 47.69400 21.15400
H  38.82600 48.46800 19.70700
H  38.21600 45.61700 19.43700
H  39.88300 45.74300 20.06800
H  39.39000 46.61200 18.64500
H  38.65300 43.80000 26.00100
H  38.87400 44.28100 24.25700
H  37.37400 43.40000 24.79700
H  37.36700 47.32400 29.37600
H  34.43200 44.35100 31.12300
H  34.14200 45.81700 31.88500
H  35.58400 44.75000 32.37400
Mg -1.67600 34.68600 26.62500
C  -3.24700 32.73200 29.11300
C  -0.60900 36.79800 29.07800
C  -0.57600 36.53400 24.27200
C  -3.29100 32.50300 24.19300
N  -1.94200 34.86200 28.84100
C  -2.54900 33.86000 29.67200
C  -2.34100 34.12500 31.15300
C  -1.58200 35.50800 31.13100
C  -1.33400 35.74100 29.59200
C  -2.14100 36.71300 31.90400
C  -1.64300 32.91900 31.92000
C  -2.30300 32.44700 33.20900
H  -1.35000 32.31100 34.32800
N  -0.67000 36.40500 26.69900
C  -0.31800 37.15100 27.76500
C  0.37200 38.35800 27.30200
C  0.41900 38.27100 25.90500
C  -0.30800 37.05900 25.55100
C  0.94200 39.37200 28.31200
C  0.98800 39.26400 24.94400
O  1.07900 39.16000 23.69900
C  1.38600 40.65800 25.53200
N  -1.93900 34.54800 24.51200
C  -1.32200 35.47800 23.78200
C  -1.55200 35.15400 22.22900
C  -2.23500 33.75600 22.28800
C  -2.52000 33.58800 23.78300
C  -2.44700 36.08300 21.41400
C  -1.53800 32.48600 21.75300
C  -0.31100 31.98900 22.60200
N  -2.96100 32.90300 26.55100
C  -3.56600 32.17700 25.53700
C  -4.41600 31.21300 26.17000
C  -4.29000 31.41400 27.56500
C  -3.37400 32.41300 27.70000
C  -5.15800 30.13100 25.44500
C  -4.76000 30.83500 28.79400
O  -5.56400 29.94000 28.98000
C  -4.16000 31.71100 29.88100
C  -5.29300 32.33700 30.69700
O  -6.00000 33.27200 30.32600
O  -5.43000 31.64300 31.86600
C  -6.63100 32.03800 32.59600
H  -0.23400 37.43100 29.88600
H  -0.24300 37.21600 23.48700
H  -3.77900 31.85700 23.46100
H  -3.34800 34.29000 31.53800
H  -0.56000 35.33100 31.46500
H  -1.49000 37.10300 32.68600
H  -3.09600 36.49200 32.38200
H  -2.22900 37.56200 31.22600
H  -0.68600 33.27500 32.30400
H  -1.54900 32.17500 31.12900
H  -2.65500 31.42600 33.05900
H  -3.14700 33.09000 33.45800
H  0.12600 40.08000 28.45300
H  1.87600 39.89100 28.09300
H  1.25900 38.80400 29.18600
H  2.25200 40.50400 26.17700
H  0.48800 41.04300 26.01400
H  1.70300 41.38200 24.78100
H  -0.61700 35.04300 21.68100
H  -3.28600 33.72200 22.00300
H  -3.20500 35.60200 20.79700
H  -1.89100 36.55200 20.60200
H  -2.94900 36.88100 21.96100
H  -1.19500 32.81500 20.77300
H  -2.24200 31.65700 21.67100
H  -0.78400 31.54700 23.47900
H  0.23600 32.87000 22.93700
H  0.40100 31.30500 22.14000
H  -6.07000 30.55900 25.02900
H  -5.48000 29.36200 26.14800
H  -4.63300 29.71300 24.58500
H  -3.61000 31.09600 30.59300
H  -7.47300 32.39900 32.00600
H  -6.41900 32.87800 33.25700
H  -6.88500 31.16600 33.19900

