158

Mg 47.13900 43.97000 43.33600
C  43.74400 43.27400 43.61100
C  47.79100 40.52000 43.04600
C  50.34000 44.69300 42.51300
C  46.37100 47.44700 43.31800
N  45.89300 42.03100 43.30800
C  44.55900 42.02800 43.48300
C  43.94500 40.64100 43.45000
C  45.28000 39.80200 43.58000
C  46.39800 40.81600 43.24100
C  45.55100 39.03800 44.90400
C  43.08100 40.27100 42.21000
C  43.30100 41.03800 40.87400
H  44.28700 40.49800 39.84800
N  48.88600 42.73600 42.94300
C  48.93600 41.36400 42.94200
C  50.31400 40.99400 42.83100
C  51.04900 42.15100 42.62400
C  50.08900 43.28100 42.69700
C  50.82900 39.60400 42.88100
C  52.49400 42.14600 42.29700
O  53.14800 41.13100 42.29800
C  53.20500 43.38800 42.09800
N  48.17700 45.73300 43.10300
C  49.47500 45.76400 42.69200
C  49.96300 47.23500 42.32000
C  48.75000 48.17900 42.69000
C  47.70100 47.02200 42.98000
C  51.27300 47.65100 43.05800
C  48.18100 49.19700 41.67400
C  48.44600 50.63500 42.18600
N  45.46300 45.14800 43.34000
C  45.24800 46.53600 43.44800
C  43.80800 46.88500 43.55700
C  43.21300 45.61700 43.49900
C  44.23100 44.65100 43.52400
C  43.16500 48.22600 43.43700
C  41.88900 45.03800 43.56900
O  40.74900 45.48300 43.73000
C  42.17600 43.41400 43.71100
C  41.58600 42.92900 45.00100
O  40.43200 42.65900 45.27700
O  42.57100 42.91100 45.97900
C  42.13500 42.63400 47.34100
H  47.94100 39.44500 42.93200
H  51.31800 44.99800 42.13400
H  46.05800 48.48500 43.45000
H  43.29700 40.57700 44.32400
H  45.29200 38.93300 42.92200
H  46.38400 39.58400 45.34800
H  45.89100 38.01900 44.71700
H  44.63900 38.92700 45.48900
H  42.04600 40.41600 42.52100
H  43.13200 39.20200 42.00400
H  43.74300 42.02200 41.02800
H  42.37400 41.26600 40.34800
H  51.79900 39.64900 43.37800
H  50.98100 39.08300 41.93500
H  50.23300 38.92400 43.48900
H  52.99400 43.97600 41.20400
H  54.24500 43.20400 42.36700
H  52.88100 43.95800 42.96900
H  50.11700 47.31700 41.24400
H  48.98000 48.55400 43.68700
H  52.13400 47.63900 42.38900
H  51.65100 46.82700 43.66300
H  51.31600 48.60700 43.57900
H  47.11500 49.24600 41.45100
H  48.60900 48.94400 40.70400
H  48.99000 51.29600 41.51100
H  48.93500 50.76600 43.15200
H  47.51300 51.14900 42.42000
H  42.09400 48.20200 43.63800
H  43.31700 48.54600 42.40600
H  43.62900 49.00700 44.04000
H  41.57100 42.88300 42.97700
H  41.89400 41.57600 47.44000
H  41.36900 43.32400 47.69400
H  43.00000 42.71100 47.99900
Mg -1.47000 34.17400 25.70000
C  -3.15500 32.37400 28.41300
C  -0.19700 36.28200 28.09900
C  -0.16100 35.91200 23.18800
C  -2.99200 32.08500 23.50200
N  -1.74600 34.27500 28.02200
C  -2.33300 33.39100 28.89600
C  -1.94200 33.79900 30.30700
C  -1.07500 35.08900 30.18700
C  -1.02400 35.25100 28.67300
C  -1.54800 36.46400 30.88600
C  -1.28400 32.60000 31.09800
C  -1.71400 32.47900 32.63400
H  -0.75800 32.27300 33.78000
N  -0.24300 35.87400 25.70900
C  0.16300 36.55900 26.77900
C  1.01200 37.69300 26.34400
C  1.07300 37.55900 24.86900
C  0.25200 36.38700 24.51800
C  1.67900 38.72300 27.20700
C  1.76000 38.46300 23.87600
O  1.87900 38.23000 22.68200
C  2.42400 39.80200 24.29200
N  -1.62100 34.00300 23.65900
C  -0.99600 34.84300 22.78700
C  -1.40900 34.46300 21.34700
C  -1.85500 33.03900 21.53500
C  -2.14700 32.99700 23.02200
C  -2.29100 35.48700 20.58200
C  -0.79500 31.91300 21.09200
C  0.60300 32.02800 21.64800
N  -2.91500 32.65800 25.87000
C  -3.45900 31.94300 24.85400
C  -4.42800 31.02700 25.40300
C  -4.37700 31.15800 26.79300
C  -3.36500 32.12200 27.03300
C  -5.35400 30.17000 24.55100
C  -4.98500 30.81100 28.02700
O  -5.97700 30.17700 28.36000
C  -4.20700 31.48500 29.15300
C  -5.19500 32.13200 30.08200
O  -5.92400 33.06600 29.76300
O  -5.34100 31.42000 31.27100
C  -6.38400 31.90500 32.22400
H  0.16000 36.94200 28.89300
H  0.20600 36.45500 22.31500
H  -3.49400 31.47700 22.74600
H  -2.91700 34.05100 30.72400
H  -0.09000 34.90000 30.61300
H  -0.66700 37.07300 31.08800
H  -2.14200 36.40000 31.79800
H  -2.15100 37.06700 30.20700
H  -0.20600 32.75200 31.03800
H  -1.45100 31.68000 30.53800
H  -2.33900 31.58700 32.65300
H  -2.39700 33.29900 32.85500
H  1.38300 38.54100 28.24000
H  1.34600 39.75900 27.15100
H  2.76300 38.65900 27.11300
H  2.56700 40.41100 23.39900
H  3.35300 39.58400 24.81900
H  1.72000 40.28300 24.97100
H  -0.46800 34.46000 20.79600
H  -2.72100 32.87900 20.89200
H  -1.77700 35.81500 19.67900
H  -2.32200 36.33300 21.26900
H  -3.25500 35.06700 20.29600
H  -0.72000 31.93100 20.00400
H  -1.18800 30.95600 21.43500
H  1.29200 32.66400 21.09200
H  1.02600 31.03000 21.76400
H  0.45400 32.46800 22.63400
H  -5.16000 29.11100 24.71900
H  -5.29600 30.41300 23.49000
H  -6.37900 30.46500 24.77600
H  -3.69100 30.67800 29.67400
H  -5.73700 32.46300 32.90000
H  -6.91800 31.06900 32.67500
H  -7.13900 32.62200 31.90200

