158

Mg 41.42000 40.80700 27.04700
C  40.60400 43.09700 29.52300
C  42.21100 38.56300 29.50300
C  42.16600 38.62200 24.65000
C  40.70600 43.23500 24.59500
N  41.37200 40.81000 29.26000
C  40.97800 41.86600 30.02200
C  41.06400 41.45700 31.48800
C  41.51900 39.95700 31.47500
C  41.68200 39.70900 29.99100
C  42.78600 39.58100 32.24600
C  39.72700 41.83700 32.33000
C  39.96000 42.46800 33.73700
H  39.23600 41.79100 34.92400
N  42.22200 38.86900 27.06900
C  42.37800 38.05100 28.20400
C  42.98200 36.89400 27.80600
C  43.00900 36.83300 26.37200
C  42.37700 38.08600 25.94100
C  43.54400 35.81200 28.77100
C  43.37800 35.78800 25.41900
O  43.36300 35.99900 24.20300
C  43.76500 34.32800 25.86800
N  41.52400 40.91100 24.90200
C  41.78000 39.90600 24.15000
C  41.56300 40.22000 22.61700
C  41.28200 41.80100 22.64400
C  41.06800 41.99600 24.16500
C  42.66400 39.89100 21.55900
C  40.24300 42.28700 21.66100
C  38.80200 42.60300 22.10400
N  40.82400 42.79700 27.01800
C  40.66300 43.66700 25.96300
C  40.52800 45.03800 26.46100
C  40.38700 44.91000 27.81900
C  40.59200 43.48300 28.13300
C  40.45600 46.23100 25.64700
C  40.08600 45.57500 29.06700
O  39.76700 46.75000 29.32600
C  40.11200 44.39700 30.20600
C  40.99600 44.91400 31.24300
O  42.19300 44.63100 31.36300
O  40.36400 45.76300 32.09900
C  41.02300 46.08700 33.30900
H  42.54900 37.87000 30.27700
H  42.36200 38.09000 23.71700
H  40.69000 44.09800 23.92700
H  41.83000 42.02800 32.01100
H  40.68400 39.31100 31.74500
H  43.61300 39.08900 31.73500
H  42.50900 39.02600 33.14300
H  43.20800 40.52300 32.59700
H  39.19400 40.88800 32.36900
H  38.95600 42.35800 31.76300
H  39.64600 43.51000 33.68400
H  41.01200 42.30600 33.97400
H  43.59900 36.22200 29.78000
H  44.46500 35.34400 28.42400
H  42.77800 35.03600 28.80300
H  43.00700 34.09900 26.61700
H  44.77400 34.45500 26.26100
H  43.85700 33.76600 24.93900
H  40.71700 39.62300 22.27300
H  42.16600 42.40000 22.42600
H  43.26500 39.05000 21.90500
H  43.22400 40.82600 21.56300
H  42.39700 39.78800 20.50700
H  40.07200 41.44700 20.98800
H  40.59500 43.10100 21.02800
H  38.48500 41.79700 22.76600
H  38.01600 42.67900 21.35400
H  38.80800 43.55000 22.64400
H  39.46700 46.23600 25.18900
H  41.21800 46.04300 24.89100
H  40.69600 47.14100 26.19800
H  39.11800 44.27100 30.63500
H  41.23300 45.19300 33.89600
H  40.25400 46.56100 33.91900
H  41.79800 46.82000 33.08400
Mg 16.58900 52.37500 25.81600
C  18.19500 50.80600 28.54100
C  14.01900 53.24600 27.83000
C  15.00300 53.47300 23.07000
C  18.87300 50.65400 23.71200
N  16.14800 52.03500 27.94800
C  17.04600 51.54100 28.88800
C  16.49500 51.83400 30.33500
C  14.99300 52.31600 30.04200
C  15.01000 52.49700 28.51400
C  13.96300 51.25900 30.52900
C  17.48000 52.79900 31.18800
C  17.65900 52.55000 32.71200
H  16.43500 51.93300 33.41300
N  14.84200 53.35700 25.49400
C  13.89600 53.54400 26.45800
C  12.74100 54.26100 25.93500
C  12.95300 54.40900 24.51900
C  14.27500 53.70600 24.27800
C  11.51200 54.57400 26.65000
C  12.09900 55.09100 23.45300
O  12.49200 55.14700 22.31100
C  10.73500 55.74000 23.78800
N  16.86400 51.93600 23.63300
C  16.09900 52.72500 22.78900
C  16.60800 52.49200 21.36600
C  17.85000 51.63000 21.57100
C  17.88600 51.33400 23.07500
C  15.44900 51.87600 20.49000
C  19.14100 52.26400 20.88400
C  20.13300 53.05400 21.72500
N  18.18400 50.97700 26.04300
C  19.04400 50.46300 25.08400
C  20.13100 49.72900 25.77800
C  19.78800 49.78700 27.13300
C  18.63500 50.58100 27.22800
C  21.19700 48.91300 25.17400
C  20.10500 49.30600 28.48900
O  20.98100 48.56100 28.82500
C  19.15800 50.08300 29.47100
C  18.71100 49.25300 30.58800
O  17.83500 48.39800 30.49600
O  19.37500 49.54100 31.76600
C  19.00700 48.76800 32.92100
H  13.19100 53.68600 28.39100
H  14.54800 53.92600 22.18600
H  19.59300 50.20800 23.02300
H  16.54900 50.96400 30.98800
H  14.73200 53.29000 30.45500
H  14.33000 50.23400 30.58800
H  13.11200 51.31800 29.85100
H  13.49300 51.60100 31.45200
H  17.11100 53.80900 31.01000
H  18.48600 52.88600 30.77800
H  17.80700 53.52500 33.17700
H  18.59300 52.09100 33.03500
H  11.03400 55.50300 26.34000
H  11.73100 54.78900 27.69600
H  10.99800 53.61300 26.64600
H  10.28000 56.16400 22.89300
H  10.71900 56.59500 24.46300
H  10.04900 54.99800 24.19600
H  16.91100 53.44100 20.92300
H  17.63600 50.66700 21.10800
H  14.51000 51.76800 21.03200
H  15.75100 50.87100 20.19500
H  15.32200 52.48300 19.59300
H  18.90500 52.95100 20.07100
H  19.72600 51.46100 20.43600
H  19.78600 53.24000 22.74100
H  20.15600 54.05100 21.28600
H  21.15500 52.67600 21.72600
H  20.59900 48.08300 24.80000
H  21.98900 48.65900 25.87900
H  21.52800 49.61500 24.40900
H  19.76400 50.81500 30.00600
H  17.93700 48.61300 33.05800
H  19.39900 49.32100 33.77500
H  19.36100 47.73800 32.97800

