158

Mg 10.70900 47.95800 25.64800
C  7.97100 48.10900 27.89400
C  12.72500 49.23700 28.04400
C  13.02800 47.92200 23.30400
C  8.19200 47.44100 22.97500
N  10.37000 48.62300 27.70000
C  9.28700 48.36900 28.47800
C  9.53800 48.46400 30.04700
C  10.99300 49.22700 29.97600
C  11.38500 49.08100 28.44200
C  11.00100 50.72800 30.29500
C  9.45300 47.15800 30.90600
C  10.10400 47.07100 32.33400
H  9.39200 46.53800 33.51900
N  12.59000 48.44700 25.67100
C  13.26900 48.93400 26.79500
C  14.67000 49.10900 26.38100
C  14.84500 48.65900 25.04900
C  13.45900 48.25200 24.64300
C  15.67100 49.71000 27.30800
C  16.10600 48.58900 24.22500
O  16.15900 48.12200 23.11200
C  17.38500 48.98100 24.84100
N  10.54800 47.67400 23.40800
C  11.72500 47.78600 22.77600
C  11.51700 47.29200 21.32600
C  9.97900 47.28700 21.15500
C  9.51500 47.39700 22.58700
C  12.17800 48.15100 20.21900
C  9.45500 45.98500 20.48800
C  8.49400 46.12100 19.27000
N  8.56200 47.78800 25.41500
C  7.75100 47.61600 24.29100
C  6.37800 47.54200 24.73000
C  6.40600 47.64000 26.14600
C  7.79200 47.73300 26.50000
C  5.14700 47.33900 23.78500
C  5.59300 47.61900 27.38700
O  4.34100 47.56100 27.41000
C  6.58100 47.92800 28.56800
C  6.48000 46.69200 29.28800
O  7.14900 45.68300 29.06100
O  5.63400 46.87100 30.28300
C  5.54500 45.78600 31.22700
H  13.42300 49.50000 28.84100
H  13.77000 47.95100 22.50300
H  7.46100 47.27200 22.18100
H  8.61800 48.95900 30.35800
H  11.67600 48.73300 30.66600
H  10.79800 50.91500 31.35000
H  10.24500 51.16000 29.63900
H  11.87800 51.34600 30.10500
H  9.66600 46.31500 30.24800
H  8.37800 47.05900 31.05900
H  10.32700 48.11400 32.55700
H  11.06500 46.56200 32.26600
H  15.25800 49.93800 28.29000
H  16.07900 50.61600 26.85900
H  16.46900 48.99400 27.50600
H  17.56400 48.31000 25.68100
H  17.15000 49.91200 25.35600
H  18.20500 49.03600 24.12500
H  11.87700 46.26300 21.31100
H  9.65100 48.18600 20.63200
H  11.46700 48.73900 19.63900
H  12.48900 47.34000 19.56100
H  13.05100 48.74700 20.48600
H  8.79700 45.43900 21.16300
H  10.34200 45.46600 20.12400
H  7.59900 45.51600 19.41400
H  9.04500 45.68800 18.43500
H  8.20100 47.12500 18.96600
H  4.65900 48.30500 23.91900
H  4.49700 46.53200 24.12400
H  5.41600 47.25600 22.73200
H  6.28800 48.77700 29.18600
H  5.22700 44.89200 30.69100
H  4.83100 46.10600 31.98700
H  6.50500 45.56300 31.69200
Mg -0.84400 34.34400 26.73100
C  -2.88900 32.77900 29.14200
C  0.33300 36.32100 29.11300
C  0.71700 36.02300 24.23200
C  -2.52300 32.45400 24.25000
N  -1.46100 34.72500 28.81800
C  -2.15900 33.85600 29.65700
C  -1.86200 34.13100 31.14700
C  -0.92800 35.34800 31.12600
C  -0.69400 35.55500 29.61900
C  -1.41100 36.62200 31.88900
C  -1.37500 32.87100 31.99100
C  -2.09800 32.64000 33.37200
H  -1.28400 32.62200 34.67200
N  0.32700 35.98600 26.67200
C  0.83400 36.59900 27.76300
C  1.86800 37.47500 27.34000
C  1.81900 37.57200 25.92900
C  0.93500 36.52600 25.54800
C  2.59800 38.13300 28.34200
C  2.60700 38.38100 24.95400
O  2.49600 38.27700 23.75400
C  3.59400 39.32900 25.53600
N  -0.79200 34.17600 24.47800
C  -0.08400 35.01400 23.66500
C  -0.36700 34.83700 22.15600
C  -1.28700 33.56000 22.24600
C  -1.64500 33.39100 23.71800
C  -1.06000 36.06400 21.50500
C  -0.79200 32.28600 21.54500
C  0.28700 31.45300 22.19600
N  -2.27000 32.85100 26.68100
C  -2.87000 32.18600 25.59500
C  -3.81400 31.23400 26.10200
C  -3.81700 31.39400 27.52900
C  -2.92500 32.41200 27.79000
C  -4.63900 30.44100 25.20000
C  -4.41700 30.96000 28.74700
O  -5.36300 30.20100 28.94200
C  -3.77200 31.86400 29.82400
C  -4.80200 32.45000 30.61400
O  -5.40500 33.44800 30.24800
O  -5.13600 31.64800 31.69200
C  -6.43000 32.02900 32.23200
H  0.89700 36.90100 29.84600
H  1.25100 36.51900 23.41900
H  -2.97500 31.78800 23.51200
H  -2.79500 34.41700 31.63300
H  0.04500 35.11700 31.56000
H  -1.35400 37.45500 31.18700
H  -0.81000 36.84400 32.77100
H  -2.45400 36.59100 32.20500
H  -0.32400 32.84200 32.28100
H  -1.53100 31.98800 31.37100
H  -2.56200 31.65900 33.27600
H  -2.87200 33.38500 33.55500
H  2.80600 37.50700 29.21000
H  2.14200 39.04200 28.73200
H  3.53300 38.49100 27.91100
H  3.07600 39.85100 26.34100
H  3.91800 40.03700 24.77300
H  4.48100 38.79600 25.87800
H  0.64700 34.76700 21.76200
H  -2.22800 33.70100 21.71400
H  -2.08000 35.94300 21.14200
H  -0.63800 36.33300 20.53700
H  -1.06900 36.91300 22.18900
H  -0.50900 32.56600 20.53000
H  -1.69500 31.70900 21.34500
H  1.25000 31.58500 21.70300
H  -0.03400 30.42300 22.04500
H  0.35800 31.54500 23.28000
H  -5.42500 30.01400 25.82200
H  -4.04800 29.65200 24.73400
H  -4.98500 31.04900 24.36400
H  -3.19000 31.21200 30.47500
H  -6.19300 32.20900 33.28000
H  -7.07400 31.15400 32.14600
H  -7.01100 32.86800 31.84900

