158

Mg 7.23800 54.11600 40.64400
C  6.67900 50.55400 40.52400
C  10.42100 53.55700 39.72500
C  7.34900 57.20400 39.79000
C  3.55300 54.49800 41.28900
N  8.39100 52.28200 40.31000
C  8.00900 50.96200 40.33900
C  9.20300 49.99400 40.02900
C  10.40800 51.01700 40.04200
C  9.72100 52.37700 40.07100
C  11.44000 50.87200 41.20600
C  9.20100 49.11200 38.76700
C  9.02500 49.92900 37.51100
H  7.65000 50.01900 36.76200
N  8.68800 55.20300 39.86600
C  9.92200 54.80300 39.61600
C  10.67100 55.95400 39.11400
C  9.88100 57.09700 39.13500
C  8.56100 56.51900 39.61500
C  12.08700 55.83600 38.69900
C  10.17800 58.63000 38.82300
O  11.23900 58.89800 38.34700
C  9.16900 59.76100 38.81800
N  5.57300 55.66200 40.46500
C  6.03000 56.85700 40.25300
C  4.90500 57.93600 40.52500
C  3.62600 57.04300 40.84700
C  4.32100 55.63900 40.95400
C  5.34000 58.97300 41.57300
C  2.52100 57.03100 39.75300
C  2.04400 58.34200 39.23700
N  5.49100 52.90500 40.93700
C  4.08000 53.20400 41.19900
C  3.43800 51.91400 41.55300
C  4.39600 50.97400 41.17000
C  5.63200 51.55600 40.88700
C  2.04000 51.64700 41.86300
C  4.56200 49.55900 41.08000
O  3.75100 48.70000 41.28400
C  6.04400 49.17000 40.68500
C  6.00300 48.27800 39.41600
O  5.54300 48.63000 38.33600
O  6.50400 47.03300 39.69800
C  6.44600 46.02200 38.66600
H  11.45300 53.43300 39.39100
H  7.31600 58.29500 39.75700
H  2.49500 54.58300 41.54500
H  9.26000 49.31400 40.87900
H  10.90700 50.83500 39.09000
H  11.63700 51.82800 41.69200
H  12.32100 50.44700 40.72500
H  10.96800 50.26900 41.98200
H  8.42600 48.34900 38.83500
H  10.12300 48.53000 38.75900
H  9.82500 49.59500 36.85000
H  9.13100 50.99700 37.69900
H  12.35800 54.93700 38.14600
H  12.70200 55.87000 39.59900
H  12.38900 56.61700 38.00200
H  8.43700 59.44200 38.07700
H  9.42100 60.76100 38.46500
H  8.65100 60.00500 39.74600
H  4.76800 58.37500 39.53700
H  3.33500 57.33000 41.85700
H  5.68400 59.88000 41.07500
H  6.17100 58.61000 42.17600
H  4.50900 59.21800 42.23400
H  1.65400 56.42400 40.01100
H  3.13000 56.47400 39.04100
H  2.55300 59.20600 39.66600
H  0.96400 58.48800 39.27200
H  2.26500 58.32700 38.17000
H  1.56400 51.39700 40.91500
H  1.49500 52.47900 42.31000
H  1.95000 50.74100 42.46200
H  6.53700 48.66500 41.51500
H  6.94500 45.14600 39.07900
H  7.00300 46.25500 37.75900
H  5.39200 45.83300 38.46300
Mg -10.35300 39.51400 43.14700
C  -8.98900 36.53600 41.74300
C  -7.83100 41.21000 41.35100
C  -11.92500 42.36000 43.33200
C  -13.07100 37.70000 44.34400
N  -8.71700 38.92100 41.53700
C  -8.25000 37.64400 41.29500
C  -6.92600 37.56500 40.56800
C  -6.46600 39.10700 40.67700
C  -7.77700 39.80900 41.18300
C  -5.23500 39.50100 41.46000
C  -6.97600 37.03600 39.08200
C  -5.85300 35.95500 38.77200
H  -4.91800 36.21600 37.49500
N  -9.86400 41.60000 42.68200
C  -8.84100 42.04600 41.93200
C  -8.76900 43.47500 42.01000
C  -9.90500 43.84500 42.78400
C  -10.64500 42.60200 42.92800
C  -7.70400 44.37200 41.41200
C  -10.35100 45.29800 43.23700
O  -9.66300 46.27000 42.89600
C  -11.57500 45.54200 44.11100
N  -12.31900 39.92300 43.66200
C  -12.66100 41.17900 43.73000
C  -14.01000 41.27400 44.49000
C  -14.46700 39.79900 44.80100
C  -13.24900 39.04700 44.17900
C  -14.12300 42.25200 45.67200
C  -15.76800 39.41900 44.03700
C  -16.62100 38.39300 44.81500
N  -10.91700 37.47900 43.10600
C  -12.02400 36.90900 43.75800
C  -11.88100 35.41400 43.56700
C  -10.69600 35.22700 42.79500
C  -10.20700 36.53200 42.48400
C  -12.88400 34.35100 43.96100
C  -9.77600 34.25700 42.25300
O  -9.87600 33.01700 42.31800
C  -8.69700 35.07200 41.49500
C  -7.37400 34.58100 42.08900
O  -6.85500 34.97100 43.10600
O  -6.97300 33.52700 41.33900
C  -5.78000 32.77300 41.76700
H  -6.96300 41.76800 40.99200
H  -12.61000 43.20300 43.44700
H  -13.83500 37.08800 44.82800
H  -6.24100 36.97000 41.17100
H  -6.27600 39.53400 39.69300
H  -4.87500 38.69200 42.09600
H  -5.58900 40.31100 42.09800
H  -4.39700 39.82200 40.84200
H  -6.85400 37.85600 38.37400
H  -7.95600 36.63500 38.82300
H  -6.16700 34.91200 38.73800
H  -5.06100 35.92800 39.52000
H  -8.26300 44.95300 40.67900
H  -6.85900 43.91100 40.90200
H  -7.29900 45.06700 42.14700
H  -12.44900 45.41300 43.47300
H  -11.61600 46.51900 44.59200
H  -11.69300 44.72000 44.81700
H  -14.70900 41.67500 43.75500
H  -14.38500 39.47900 45.84000
H  -14.41700 41.79200 46.61600
H  -15.02300 42.85900 45.57500
H  -13.22500 42.83000 45.89200
H  -15.43600 38.91200 43.13100
H  -16.32400 40.33800 43.85700
H  -16.07800 38.02600 45.68600
H  -16.72800 37.54400 44.14000
H  -17.57500 38.81800 45.12800
H  -13.61500 34.13800 43.18100
H  -13.32600 34.68900 44.89800
H  -12.34700 33.44000 44.22200
H  -8.77900 34.89200 40.42300
H  -5.75800 31.84800 41.18900
H  -5.78200 32.57800 42.83900
H  -4.92100 33.37700 41.47600

