158

Mg -1.54600 16.90700 26.08400
C  -1.92700 14.81400 28.85000
C  -1.78300 19.61500 28.14300
C  -1.87400 18.79900 23.24700
C  -1.70300 14.11000 23.91700
N  -1.76400 17.09600 28.24100
C  -1.80800 16.14300 29.21200
C  -2.02200 16.76600 30.58900
C  -1.99500 18.31400 30.26500
C  -1.94700 18.39600 28.79900
C  -3.17400 19.07000 30.84600
C  -1.18900 16.34400 31.76300
C  -0.88100 17.31500 32.86700
H  -0.39000 16.78700 34.18900
N  -1.69300 18.92000 25.73300
C  -1.75300 19.91300 26.70300
C  -1.73900 21.17400 26.04700
C  -1.85100 20.99400 24.65800
C  -1.86300 19.55200 24.48700
C  -1.65600 22.47000 26.83600
C  -2.03100 21.93900 23.53800
O  -2.11400 21.61100 22.34000
C  -2.13000 23.39500 23.84700
N  -1.80500 16.53500 23.88500
C  -1.81900 17.47300 22.96000
C  -1.88800 16.98400 21.46300
C  -1.53100 15.50100 21.73100
C  -1.58000 15.37200 23.29000
C  -3.25000 17.22500 20.77600
C  -0.15400 15.14100 21.21500
C  1.12600 15.85300 21.87600
N  -1.75100 14.96000 26.28500
C  -1.82500 13.94800 25.36000
C  -2.07800 12.62700 26.03500
C  -1.98300 12.93100 27.41200
C  -1.81100 14.35600 27.47600
C  -2.30500 11.33200 25.33100
C  -1.95300 12.36800 28.79800
O  -1.95700 11.19300 29.12100
C  -2.05600 13.56700 29.71000
C  -0.95900 13.29400 30.73900
O  0.23400 13.59900 30.72400
O  -1.50400 12.48500 31.81800
C  -0.51700 11.77300 32.57500
H  -1.79600 20.55400 28.70000
H  -2.00900 19.28500 22.27800
H  -1.80100 13.29900 23.19200
H  -3.06300 16.53200 30.81400
H  -1.02500 18.66500 30.61800
H  -3.82100 19.41600 30.03900
H  -2.80700 19.93100 31.40500
H  -3.72300 18.51800 31.60900
H  -0.16800 16.14500 31.43600
H  -1.63100 15.43000 32.16100
H  -1.76000 17.93000 33.05800
H  -0.15500 18.07000 32.56400
H  -0.78500 23.01500 26.47000
H  -1.54500 22.29000 27.90500
H  -2.45200 23.18100 26.61900
H  -1.28800 23.79500 24.41200
H  -3.12000 23.44400 24.30100
H  -2.24200 23.92300 22.90000
H  -1.10600 17.54300 20.95000
H  -2.26500 14.95700 21.13700
H  -3.92500 17.64100 21.52300
H  -3.72300 16.37000 20.29300
H  -3.09400 18.03200 20.06000
H  -0.13300 15.39500 20.15600
H  0.00200 14.07300 21.36200
H  1.73100 14.98700 22.14600
H  0.73400 16.27100 22.80300
H  1.53400 16.51800 21.11500
H  -1.37300 10.76900 25.37800
H  -2.70800 11.40500 24.32100
H  -3.06600 10.88900 25.97400
H  -3.01800 13.36900 30.18400
H  0.35800 12.39900 32.75000
H  0.00800 10.98700 32.03200
H  -0.90500 11.40700 33.52600
Mg 42.30700 41.13000 26.53100
C  41.86900 43.64200 28.96700
C  42.85300 38.86700 29.05800
C  43.48100 38.87200 24.28300
C  42.21300 43.51000 24.01800
N  42.39100 41.29000 28.79600
C  42.03600 42.33900 29.53200
C  42.01000 42.07800 31.05900
C  42.44400 40.53100 31.04300
C  42.46100 40.15000 29.56000
C  43.65900 40.07600 31.82700
C  40.61500 42.46600 31.71700
C  40.04500 41.58000 32.79200
H  39.42100 42.21000 34.00100
N  42.93900 39.04300 26.68200
C  43.17600 38.35100 27.81000
C  43.65200 36.98100 27.46700
C  43.86000 36.98000 26.05400
C  43.46100 38.30200 25.60800
C  43.89400 35.86100 28.48100
C  44.36300 35.92700 25.17600
O  44.56900 36.13700 23.97200
C  44.79000 34.63600 25.85500
N  42.67500 41.10600 24.47100
C  43.18900 40.14200 23.74500
C  43.39600 40.49200 22.20800
C  43.05300 41.97800 22.25100
C  42.58200 42.22900 23.69900
C  44.78900 40.19800 21.51600
C  41.85900 42.24800 21.27100
C  40.59300 41.49800 21.56700
N  42.09100 43.15100 26.45400
C  42.06100 44.00300 25.32900
C  41.89800 45.32500 25.82000
C  41.82200 45.20000 27.20600
C  41.96000 43.88500 27.55200
C  41.56800 46.57600 25.03400
C  41.48600 45.99900 28.40100
O  41.16800 47.24400 28.55800
C  41.56700 44.97900 29.59100
C  42.69000 45.27700 30.50900
O  43.81900 45.02200 30.26200
O  42.30100 45.86700 31.65400
C  43.25900 45.90300 32.71800
H  42.95100 38.14400 29.87000
H  43.91600 38.24000 23.50600
H  42.20500 44.26500 23.22800
H  42.72600 42.74500 31.53900
H  41.63100 39.97000 31.50400
H  44.26500 39.42700 31.19400
H  43.47300 39.48500 32.72400
H  44.22300 40.94500 32.16600
H  39.93200 42.42800 30.86800
H  40.69700 43.44800 32.18200
H  40.77000 40.89400 33.23000
H  39.28100 40.95700 32.32700
H  43.41700 36.13000 29.42400
H  44.94100 35.64600 28.69500
H  43.29800 35.02100 28.12500
H  43.89400 34.11500 26.19100
H  45.43400 34.71700 26.73100
H  45.23400 33.92500 25.15800
H  42.67500 39.94300 21.60300
H  43.93300 42.55400 21.96500
H  44.95800 40.81700 20.63500
H  44.89400 39.13500 21.30100
H  45.57100 40.30100 22.26900
H  42.08200 41.94500 20.24900
H  41.63000 43.31400 21.29500
H  39.81500 42.24900 21.70400
H  40.61500 40.74100 22.35100
H  40.24600 40.89200 20.73000
H  40.59300 46.93900 25.35800
H  41.44600 46.32600 23.98000
H  42.37600 47.30800 25.04700
H  40.66500 45.03700 30.20000
H  43.69200 46.90300 32.68800
H  44.07900 45.18600 32.75900
H  42.75400 45.67400 33.65700

