158

Mg 1.06800 -1.70700 45.05000
C  4.51900 -0.91300 44.17400
C  0.18400 1.15400 43.35500
C  -2.09200 -2.63000 45.21200
C  2.22500 -4.83200 46.12000
N  2.25100 -0.08100 44.04100
C  3.62700 0.05400 43.85500
C  3.92600 1.29700 43.06200
C  2.48800 2.09600 43.02300
C  1.55400 0.98700 43.57300
C  2.33900 3.41700 43.83100
C  4.51800 1.02300 41.63300
C  5.92700 1.66300 41.35500
H  6.81000 0.92100 40.31000
N  -0.74000 -0.82100 44.49900
C  -0.88600 0.36600 43.79500
C  -2.28800 0.64400 43.56800
C  -2.98900 -0.35500 44.30700
C  -1.94400 -1.35900 44.71300
C  -2.88800 1.81200 42.80200
C  -4.46600 -0.37400 44.75800
O  -5.26200 0.48000 44.29600
C  -5.00200 -1.40200 45.78700
N  0.14100 -3.47000 45.79800
C  -1.17900 -3.62800 45.67700
C  -1.62900 -5.03900 46.01200
C  -0.25100 -5.72100 46.45400
C  0.81100 -4.64400 46.05700
C  -2.86500 -5.06400 47.07800
C  -0.17800 -7.16000 45.73900
C  -0.48200 -8.40000 46.58500
N  2.99500 -2.69000 45.28900
C  3.18700 -3.92200 45.71000
C  4.70600 -4.07300 45.82100
C  5.21300 -2.88100 45.20100
C  4.13300 -2.14200 44.80800
C  5.38400 -5.28700 46.31600
C  6.39400 -2.24300 44.84400
O  7.55300 -2.61700 45.03700
C  6.04300 -1.00800 43.98000
C  6.71100 0.17100 44.69700
O  6.40000 0.52400 45.80700
O  7.80500 0.63200 43.92600
C  8.36100 1.72100 44.70700
H  0.03200 2.10400 42.83800
H  -3.11000 -3.02600 45.19300
H  2.60600 -5.78000 46.50600
H  4.55600 1.96700 43.64700
H  2.28800 2.37200 41.98700
H  1.91900 4.16600 43.16000
H  3.35300 3.65800 44.15000
H  1.72400 3.35200 44.72900
H  3.80700 1.17900 40.82200
H  4.66200 -0.05700 41.60100
H  6.43400 1.84100 42.30400
H  5.59600 2.61500 40.93900
H  -3.93600 1.53500 42.68300
H  -2.22100 2.02500 41.96600
H  -2.71500 2.59400 43.54100
H  -4.19000 -1.73000 46.43600
H  -5.47300 -2.20900 45.22500
H  -5.77500 -0.97900 46.42900
H  -2.09800 -5.46300 45.12400
H  -0.35100 -5.72200 47.53900
H  -2.52400 -5.51100 48.01300
H  -3.63700 -5.73900 46.70900
H  -3.29200 -4.11600 47.40400
H  0.87700 -7.22100 45.47300
H  -0.78000 -7.13900 44.83100
H  0.40500 -8.69800 47.14400
H  -0.88900 -9.22100 45.99500
H  -1.29000 -8.23700 47.29800
H  5.50200 -5.99300 45.49400
H  4.90400 -5.57400 47.25200
H  6.37600 -4.91300 46.56800
H  6.41700 -1.15700 42.96700
H  9.21600 2.11600 44.15800
H  8.87600 1.33300 45.58600
H  7.72800 2.56900 44.96800
Mg 44.40700 4.48300 46.78800
C  42.27700 7.21800 46.28800
C  41.83300 2.39500 46.21400
C  46.68300 1.97600 46.79000
C  47.11500 6.81000 46.39800
N  42.33900 4.79500 46.26200
C  41.66600 5.98200 46.13400
C  40.13900 5.71400 46.01900
C  40.01800 4.15000 46.14800
C  41.50300 3.77100 46.27100
C  39.22500 3.63800 47.39600
C  39.37900 6.26200 44.80900
C  40.04400 6.13700 43.44200
H  40.68200 7.31900 42.67500
N  44.31700 2.39700 46.69600
C  43.11000 1.70000 46.41200
C  43.38400 0.31900 46.40600
C  44.77100 0.16200 46.53500
C  45.34200 1.55000 46.70500
C  42.27000 -0.66300 46.13900
C  45.57000 -1.15200 46.57000
O  44.98500 -2.26700 46.31000
C  46.99900 -1.23200 46.97800
N  46.62200 4.39900 46.78100
C  47.26100 3.25000 46.78300
C  48.75600 3.42400 46.55500
C  48.79000 4.96000 46.18100
C  47.41800 5.43000 46.37700
C  49.69800 3.00900 47.67100
C  49.40400 5.20900 44.76600
C  50.91600 5.48500 44.80300
N  44.68600 6.58700 46.49300
C  45.81100 7.34100 46.38500
C  45.47700 8.72400 46.14600
C  44.09400 8.74800 46.25200
C  43.63200 7.38300 46.46100
C  46.32300 9.84800 46.01200
C  42.92400 9.64700 46.42300
O  42.83400 10.89700 46.51700
C  41.71300 8.60300 46.31200
C  40.87600 8.92200 47.41600
O  41.00800 8.38200 48.50600
O  39.95200 9.77000 47.07800
C  39.06100 10.12000 48.19800
H  40.91900 1.80800 46.10500
H  47.53200 1.29200 46.85100
H  47.95300 7.47700 46.18500
H  39.74600 6.17500 46.92500
H  39.64300 3.65700 45.25100
H  38.40100 4.34000 47.52800
H  39.92400 3.55400 48.22800
H  38.82000 2.64900 47.18000
H  39.25300 7.32400 45.02100
H  38.42900 5.74500 44.68000
H  39.28900 5.80200 42.73100
H  40.76900 5.32600 43.50200
H  41.98400 -0.68800 45.08700
H  41.30800 -0.30200 46.50300
H  42.50400 -1.65900 46.51700
H  47.13500 -2.19400 47.47200
H  47.14300 -0.51200 47.78300
H  47.65900 -0.91400 46.17100
H  49.08800 2.88600 45.66700
H  49.36900 5.55500 46.88800
H  50.25400 2.11800 47.38100
H  49.09700 2.67700 48.51700
H  50.43400 3.73600 48.01500
H  48.89400 6.04600 44.28800
H  49.20400 4.39100 44.07400
H  51.43400 5.00700 45.63400
H  50.98400 6.56200 44.95800
H  51.44300 5.28300 43.87000
H  47.30100 9.40400 45.82700
H  46.30800 10.48600 46.89600
H  45.97300 10.59100 45.29500
H  41.26400 8.84200 45.34800
H  38.46900 9.25900 48.50900
H  38.29900 10.81400 47.84400
H  39.51200 10.60900 49.06100

