158

Mg 53.58800 24.71400 45.06500
C  50.74000 26.70800 44.35900
C  51.95700 22.01800 43.57300
C  56.47500 23.39900 44.69800
C  55.16400 27.92000 45.76900
N  51.76700 24.50300 43.83500
C  50.70600 25.40500 43.69300
C  49.53200 24.74700 42.88600
C  49.76500 23.27900 43.42100
C  51.27300 23.23700 43.54500
C  49.00700 22.88500 44.69800
C  49.85800 24.97600 41.37700
C  48.58800 25.41700 40.54100
H  48.32000 24.54900 39.27100
N  54.14800 22.87100 44.40200
C  53.29400 21.85900 43.83200
C  54.13200 20.70700 43.56300
C  55.51200 21.06700 43.78200
C  55.43200 22.48200 44.38400
C  53.54200 19.36100 43.08300
C  56.75500 20.19100 43.57200
O  56.66000 19.07800 43.09400
C  58.14800 20.62700 43.81900
N  55.54800 25.54100 45.03100
C  56.57300 24.71900 44.98600
C  57.90500 25.45600 45.26600
C  57.45300 26.92300 45.60000
C  55.93100 26.79600 45.45900
C  58.74100 24.88200 46.43200
C  58.16100 28.08500 44.82000
C  59.01100 29.14800 45.59700
N  53.00200 26.72300 45.47700
C  53.75400 27.83000 45.78200
C  52.84800 28.91300 46.01900
C  51.64500 28.55000 45.46200
C  51.81900 27.24000 45.10600
C  53.31400 30.23900 46.58600
C  50.29800 28.96900 45.16100
O  49.81000 30.04400 45.37300
C  49.68300 27.77200 44.36100
C  49.33800 28.38600 43.06500
O  50.19300 28.61800 42.19700
O  48.02300 28.72600 43.16000
C  47.56900 29.46300 41.97700
H  51.32800 21.15300 43.35000
H  57.40300 22.82700 44.74400
H  55.73300 28.83500 45.94800
H  48.58600 25.21100 43.16400
H  49.43200 22.67400 42.57700
H  49.79800 22.71500 45.42800
H  48.54800 21.91600 44.50500
H  48.37600 23.70900 45.03200
H  50.22300 23.99000 41.08900
H  50.60600 25.76200 41.27700
H  48.82100 26.40000 40.13300
H  47.64300 25.46800 41.08200
H  53.64300 19.18400 42.01300
H  52.52000 19.43900 43.45500
H  53.91500 18.53000 43.68100
H  58.31800 21.43100 43.10400
H  58.93100 19.87300 43.73600
H  58.05700 21.00100 44.83900
H  58.43500 25.36900 44.31800
H  57.69400 27.11000 46.64600
H  58.13400 24.07600 46.84500
H  59.03200 25.63700 47.16200
H  59.72700 24.58100 46.07900
H  57.36400 28.65300 44.33900
H  58.74000 27.63000 44.01600
H  60.05600 28.84400 45.53200
H  58.83100 29.24600 46.66800
H  58.77900 30.12100 45.16400
H  52.46500 30.62700 47.14800
H  53.56800 31.08500 45.94600
H  54.08800 29.89500 47.27100
H  48.79100 27.28900 44.76000
H  46.58800 29.89200 42.18000
H  47.54600 28.65600 41.24400
H  48.18600 30.33200 41.75000
Mg 41.73400 40.77500 27.02200
C  41.29500 43.42300 29.32700
C  42.73900 38.85900 29.63500
C  42.69500 38.51100 24.71300
C  41.20500 43.13900 24.45400
N  41.96700 41.14900 29.24900
C  41.64100 42.23700 29.95500
C  41.58400 41.95200 31.43500
C  42.27200 40.56000 31.51200
C  42.43300 40.17600 30.07500
C  43.64400 40.56000 32.27300
C  40.13400 42.04800 31.94300
C  39.88100 43.03800 33.05100
H  39.05400 42.61400 34.33000
N  42.34200 38.96100 27.17800
C  42.61700 38.28200 28.35000
C  42.92400 36.92900 28.02500
C  42.86000 36.81100 26.61200
C  42.57600 38.11500 26.11500
C  43.22200 35.86500 29.20100
C  42.95100 35.56200 25.74300
O  42.93000 35.57400 24.53200
C  42.96400 34.19200 26.45000
N  41.92000 40.77600 24.93500
C  42.46600 39.80000 24.17000
C  42.32800 40.06600 22.61600
C  41.66200 41.48100 22.61900
C  41.51700 41.81600 24.14700
C  43.57500 39.84400 21.64100
C  40.38500 41.58800 21.86500
C  39.09500 40.79300 22.40300
N  41.32700 42.87500 26.85500
C  41.16200 43.67100 25.73000
C  40.91300 45.00100 26.15500
C  40.80100 44.91700 27.54800
C  41.17900 43.65400 27.90100
C  40.61700 46.18600 25.25500
C  40.57300 45.68100 28.75000
O  40.19300 46.83600 28.81700
C  40.89300 44.73200 29.93800
C  41.97600 45.40300 30.76800
O  43.09000 45.74400 30.39800
O  41.46800 45.62900 32.07300
C  42.49900 46.14100 33.07000
H  42.85900 38.20800 30.50300
H  42.95400 37.76400 23.96100
H  40.95700 43.82500 23.64100
H  42.15800 42.76600 31.87900
H  41.75000 39.69400 31.91900
H  43.97000 41.50900 32.70000
H  44.38600 40.11900 31.60700
H  43.49200 39.93200 33.15000
H  39.99500 41.01500 32.26300
H  39.53100 42.20500 31.04900
H  39.32500 43.79200 32.49500
H  40.80200 43.47400 33.43700
H  43.52300 36.31000 30.14900
H  44.05300 35.21900 28.92000
H  42.45500 35.16800 29.54000
H  42.13300 34.18400 27.15500
H  43.91400 34.15600 26.98300
H  42.99400 33.41900 25.68200
H  41.50800 39.45300 22.24300
H  42.34000 42.21400 22.18200
H  43.26600 39.26500 20.77000
H  44.40900 39.34000 22.12800
H  43.94200 40.73500 21.13200
H  40.48700 41.13800 20.87800
H  40.15200 42.65300 21.84700
H  38.83200 39.97000 21.73900
H  38.22900 41.42400 22.60200
H  39.33500 40.33300 23.36200
H  40.32500 45.87700 24.25100
H  41.58000 46.66500 25.07700
H  39.83600 46.87800 25.57200
H  40.00100 44.59500 30.54900
H  43.50800 46.06600 32.66200
H  42.41600 45.52200 33.96300
H  42.40000 47.19200 33.34000

