158

Mg 48.42900 14.23300 27.17400
C  46.59100 14.70500 30.09100
C  50.76200 16.30700 28.19000
C  49.85800 13.73700 24.18100
C  45.43900 12.51400 25.77000
N  48.55600 15.42200 28.93500
C  47.75600 15.44600 30.10200
C  48.41300 16.23100 31.25300
C  49.47800 17.02500 30.38200
C  49.68200 16.22100 29.07200
C  49.14400 18.50300 30.25400
C  49.09900 15.25500 32.20500
C  48.74900 15.36300 33.66000
H  49.82600 15.09100 34.73300
N  50.10900 14.80600 26.42500
C  51.01700 15.63100 27.01900
C  52.20900 15.57600 26.23400
C  51.98200 14.87600 25.04300
C  50.56200 14.37700 25.17100
C  53.44800 16.31000 26.78900
C  52.80300 14.64800 23.85200
O  52.53100 14.04500 22.81400
C  54.19600 15.26800 23.91800
N  47.75100 13.34000 25.19500
C  48.60800 13.19900 24.22600
C  47.98200 12.48600 22.99400
C  46.56600 12.05500 23.49900
C  46.57400 12.66100 24.90500
C  47.91200 13.46400 21.72900
C  46.20400 10.54000 23.40400
C  46.88700 9.51600 24.31800
N  46.46200 13.74400 27.75200
C  45.40900 12.95100 27.10400
C  44.41400 12.69700 28.09800
C  44.80700 13.40800 29.28000
C  46.04400 14.05100 29.02600
C  43.19900 11.81600 27.96300
C  44.41600 13.68500 30.67400
O  43.37700 13.38800 31.28800
C  45.58800 14.52500 31.14600
C  45.00500 15.84500 31.70400
O  44.03400 16.41400 31.25000
O  45.66400 16.17900 32.90400
C  44.93800 17.14200 33.76900
H  51.58700 16.98000 28.43100
H  50.24600 13.63200 23.16500
H  44.59600 11.90700 25.43400
H  47.71700 16.85500 31.81300
H  50.51200 16.95800 30.72300
H  48.68900 18.69700 29.28300
H  50.06500 19.08600 30.28400
H  48.45500 18.96000 30.96400
H  50.17500 15.38000 32.08400
H  48.92200 14.23700 31.85800
H  47.89000 14.77600 33.98600
H  48.39400 16.38200 33.81000
H  53.43800 16.33000 27.87900
H  53.43600 17.31400 26.36600
H  54.35900 15.81700 26.44900
H  54.92400 14.82900 24.60200
H  54.14100 16.34500 24.07800
H  54.62900 15.08500 22.93500
H  48.59300 11.60900 22.78200
H  45.82600 12.60500 22.91700
H  47.99800 14.52200 21.97500
H  46.97500 13.38900 21.17800
H  48.70800 13.24600 21.01700
H  46.40000 10.24500 22.37300
H  45.16800 10.29300 23.63300
H  47.52900 8.84700 23.74500
H  46.18800 9.03100 24.99900
H  47.54300 10.15800 24.90500
H  43.41700 10.76400 27.77600
H  42.69900 12.06900 27.02800
H  42.67700 11.91100 28.91500
H  45.95400 13.89900 31.95900
H  43.87600 17.30900 33.59100
H  45.43100 18.11400 33.76500
H  45.10800 16.76900 34.78000
Mg -2.33800 34.80000 26.34100
C  -3.63200 32.86300 29.16000
C  -1.09500 37.11100 28.57300
C  -1.79800 36.69000 23.77800
C  -4.08200 32.30900 24.28700
N  -2.38600 34.95500 28.65500
C  -2.80400 34.02200 29.49600
C  -2.46000 34.45300 30.92300
C  -1.64000 35.80900 30.72700
C  -1.62800 35.94000 29.25100
C  -1.94200 36.96700 31.67800
C  -1.83300 33.33300 31.82300
C  -2.57100 33.15000 33.20600
H  -1.66600 32.81500 34.38900
N  -1.41700 36.56800 26.17800
C  -0.92800 37.36200 27.16600
C  -0.16000 38.48600 26.60600
C  -0.25400 38.29500 25.17200
C  -1.17200 37.17300 24.95500
C  0.67100 39.53900 27.39100
C  0.38900 39.06500 24.07100
O  0.13200 38.81500 22.86600
C  1.21500 40.29300 24.32600
N  -2.95500 34.55900 24.32400
C  -2.56100 35.52200 23.42100
C  -2.90500 35.05000 21.95100
C  -3.45400 33.57200 22.18000
C  -3.46000 33.46800 23.70000
C  -3.69100 35.95900 20.98700
C  -2.73900 32.35600 21.48000
C  -1.33000 31.93000 21.99100
N  -3.68100 32.98800 26.58700
C  -4.23900 32.11400 25.65900
C  -4.91600 31.11300 26.38400
C  -4.73200 31.34800 27.70800
C  -3.94700 32.46500 27.82500
C  -5.61200 29.89600 25.73700
C  -5.04200 30.90300 29.04800
O  -5.61800 29.95000 29.46000
C  -4.39400 31.92800 30.05300
C  -5.41700 32.73700 30.84100
O  -5.82400 33.84200 30.49400
O  -5.67900 32.15400 32.01400
C  -6.66700 32.88100 32.82900
H  -0.81800 37.83200 29.34500
H  -1.59400 37.26600 22.87300
H  -4.59700 31.68400 23.55400
H  -3.50600 34.59700 31.19300
H  -0.61300 35.58700 31.01800
H  -1.07300 37.18500 32.29800
H  -2.63500 36.60600 32.43900
H  -2.32200 37.91700 31.30300
H  -0.86300 33.64300 32.21400
H  -1.76800 32.37600 31.30400
H  -3.21800 32.27500 33.13900
H  -3.05500 34.11100 33.38000
H  1.71900 39.59700 27.09600
H  0.67300 39.43500 28.47600
H  0.26400 40.52700 27.17600
H  1.57100 40.77200 23.41400
H  2.04600 39.91900 24.92500
H  0.63700 41.06700 24.83300
H  -1.99700 34.82100 21.39400
H  -4.51300 33.54200 21.92400
H  -3.12700 36.16200 20.07700
H  -3.76000 36.94000 21.45800
H  -4.69100 35.55100 20.84300
H  -2.66600 32.61100 20.42300
H  -3.41800 31.50300 21.50000
H  -1.40300 30.87000 22.23200
H  -1.13300 32.50700 22.89400
H  -0.62100 32.14200 21.19000
H  -5.12600 29.02300 26.17200
H  -5.66700 29.98500 24.65200
H  -6.63200 29.76800 26.09900
H  -3.79900 31.38800 30.79000
H  -6.22600 33.60500 33.51400
H  -7.29800 32.19500 33.39400
H  -7.32500 33.48500 32.20400

