158

Mg 7.73300 2.73700 27.58900
C  9.16600 1.36300 30.44000
C  5.95400 4.86400 29.50600
C  6.50600 3.95400 24.74900
C  9.33500 0.21500 25.77500
N  7.56500 3.02400 29.65000
C  8.27100 2.37900 30.65000
C  7.85600 2.88900 32.05000
C  6.67100 3.78500 31.80800
C  6.73300 3.90200 30.21600
C  5.31900 3.23400 32.38200
C  9.15900 3.53800 32.81200
C  9.45100 3.01700 34.23500
H  9.94900 4.04900 35.29400
N  6.51700 4.27900 27.17700
C  5.82600 5.05200 28.09500
C  5.14800 6.09200 27.44300
C  5.31800 5.93000 26.02700
C  6.16100 4.66900 25.90500
C  4.38700 7.07700 28.16000
C  4.82900 6.74100 24.90400
O  4.96800 6.37800 23.77200
C  4.14800 7.98700 25.08200
N  7.89400 2.13300 25.51400
C  7.15400 2.69000 24.61300
C  7.38100 2.05300 23.21600
C  8.35000 0.84900 23.50200
C  8.63300 1.10600 25.00000
C  5.99800 1.77900 22.55500
C  9.67600 0.89700 22.72200
C  9.70500 0.27200 21.35000
N  9.00900 1.03700 27.98600
C  9.62400 0.15900 27.14900
C  10.35900 -0.80600 27.89300
C  10.27200 -0.32300 29.18600
C  9.44600 0.79700 29.20900
C  11.17700 -1.97600 27.37200
C  10.70400 -0.54700 30.56200
O  11.54500 -1.34900 31.00400
C  10.02600 0.58500 31.39800
C  9.35500 -0.04900 32.43200
O  8.18800 -0.51100 32.38500
O  10.25100 -0.04500 33.49200
C  9.79000 -0.69900 34.74100
H  5.46000 5.57800 30.16800
H  6.09200 4.19800 23.76800
H  9.73200 -0.62000 25.19400
H  7.62300 1.95300 32.55700
H  6.71300 4.77700 32.25900
H  4.63900 3.33600 31.53600
H  4.97100 3.82300 33.23100
H  5.40500 2.20800 32.74000
H  9.07800 4.62500 32.80700
H  10.09700 3.23600 32.34600
H  10.25800 2.29400 34.11700
H  8.55800 2.52400 34.61700
H  4.70700 7.09400 29.20200
H  3.34600 6.76300 28.23500
H  4.38000 8.07900 27.73100
H  3.21000 7.93900 25.63600
H  4.21700 8.38200 24.06800
H  4.85700 8.54300 25.69500
H  7.84800 2.80700 22.58200
H  7.95900 -0.16800 23.54500
H  5.23700 1.89300 23.32700
H  5.82000 0.73700 22.29000
H  5.66000 2.48800 21.79900
H  10.46700 0.42800 23.30700
H  9.85700 1.96200 22.57800
H  9.76700 1.10100 20.64600
H  8.80600 -0.22600 20.98600
H  10.50500 -0.45700 21.21600
H  10.95200 -2.66300 28.18800
H  12.24400 -1.81500 27.21200
H  10.73800 -2.36900 26.45500
H  10.87200 1.12300 31.82700
H  9.08000 -1.51900 34.63700
H  9.32100 0.02900 35.40200
H  10.63200 -1.09700 35.30800
Mg 0.97700 42.17600 25.97100
C  2.12000 42.31700 29.32000
C  -1.99600 41.18300 27.05000
C  0.19600 41.54700 22.78800
C  4.26300 42.98100 24.92400
N  0.24400 41.77100 27.98100
C  0.77400 42.01400 29.19900
C  -0.27300 41.88300 30.28200
C  -1.56100 41.34900 29.63500
C  -1.13100 41.45000 28.11800
C  -1.88200 39.87500 30.02900
C  -0.39700 43.27700 30.93500
C  -0.42900 43.29500 32.52800
H  -0.54400 41.90800 33.29900
N  -0.69200 41.43500 25.01000
C  -1.81100 41.04100 25.66100
C  -2.80700 40.66100 24.73100
C  -2.20200 40.87400 23.41700
C  -0.82800 41.35700 23.72400
C  -4.21800 40.22300 25.11200
C  -2.68800 40.57100 22.00800
O  -2.12600 40.93300 20.96900
C  -4.02900 39.79400 21.81400
N  2.13500 42.31300 24.15600
C  1.51600 42.03300 22.96400
C  2.46100 42.08700 21.76900
C  3.73200 42.74500 22.36000
C  3.38300 42.69900 23.88400
C  2.79800 40.70900 21.16500
C  3.90900 44.22100 21.95900
C  4.03200 44.57200 20.52200
N  2.82700 42.60500 26.90500
C  4.03800 42.99300 26.35400
C  5.00000 43.19000 27.42400
C  4.23300 43.03700 28.61600
C  2.98100 42.60100 28.22700
C  6.46600 43.54100 27.26000
C  4.29600 43.22900 30.04300
O  5.13900 43.64200 30.78400
C  2.92700 42.62000 30.54600
C  3.26700 41.35300 31.34600
O  3.16800 40.18300 30.98900
O  3.41000 41.67300 32.66900
C  3.25700 40.78400 33.83400
H  -3.01700 41.00900 27.39700
H  0.00500 41.25100 21.75400
H  5.28800 43.21900 24.63300
H  0.11800 41.13800 30.97500
H  -2.34300 42.05900 29.90800
H  -2.08100 39.35400 29.09200
H  -2.73500 39.82500 30.70500
H  -1.06500 39.33900 30.51300
H  -1.25500 43.79000 30.49900
H  0.45200 43.92300 30.71000
H  -1.31500 43.82400 32.87800
H  0.46800 43.76200 32.93400
H  -4.58800 39.34700 24.58000
H  -4.85100 41.08200 24.88900
H  -4.23200 39.95700 26.16900
H  -3.75700 38.75700 22.01300
H  -4.17500 40.05600 20.76600
H  -4.76900 40.31700 22.42000
H  2.09900 42.75200 20.98500
H  4.56600 42.07400 22.15300
H  2.25200 40.60900 20.22700
H  2.49600 39.83000 21.73500
H  3.85900 40.64900 20.92400
H  4.58100 44.74100 22.64100
H  2.94000 44.62100 22.25800
H  3.12800 45.12300 20.26100
H  4.28000 43.69900 19.91800
H  4.89900 45.22400 20.41000
H  7.03300 42.61100 27.22500
H  6.74500 44.11800 28.14200
H  6.52900 44.09100 26.32100
H  2.47700 43.42200 31.13200
H  2.73600 39.87200 33.54400
H  2.71800 41.26800 34.64800
H  4.20400 40.53000 34.31000

