158

Mg 46.95100 34.75300 26.71600
C  45.20900 33.27700 29.47800
C  47.28300 37.57700 28.69900
C  48.07500 36.37000 24.05600
C  46.45800 31.90200 24.81200
N  46.42500 35.29900 29.05600
C  45.64200 34.58600 29.89500
C  45.29800 35.38700 31.13500
C  45.94600 36.84600 30.80400
C  46.52400 36.60300 29.40800
C  44.95700 38.10600 30.85900
C  45.91700 34.80100 32.43200
C  45.84400 35.71000 33.66200
H  47.07000 36.28800 34.20900
N  47.59300 36.69200 26.47800
C  47.77700 37.65500 27.41800
C  48.51900 38.77200 26.82100
C  48.80300 38.32700 25.51200
C  48.11400 37.11900 25.25800
C  48.82500 39.99100 27.62800
C  49.79300 39.02800 24.53600
O  49.99100 38.57700 23.34900
C  50.53900 40.16900 25.04100
N  47.16900 34.23200 24.69400
C  47.66400 35.09000 23.78100
C  47.70200 34.35800 22.34200
C  47.51200 32.79300 22.67100
C  47.03200 32.93200 24.17900
C  46.60800 35.00300 21.43800
C  48.67700 31.82400 22.49100
C  49.86600 31.84400 23.45100
N  46.08300 32.96900 26.97100
C  46.02800 31.87400 26.18200
C  45.32300 30.75700 26.90400
C  44.91700 31.31100 28.09000
C  45.46700 32.62000 28.16900
C  44.86400 29.46100 26.27700
C  44.23200 31.03400 29.30900
O  43.58500 29.99600 29.66700
C  44.32700 32.31600 30.21600
C  44.75700 31.90900 31.51700
O  45.91800 31.73200 31.82500
O  43.69900 31.73100 32.32600
C  44.02900 31.12200 33.64400
H  47.46600 38.41800 29.37100
H  48.49500 36.92400 23.21400
H  46.45700 30.85500 24.49900
H  44.22000 35.35000 31.29100
H  46.69900 37.07700 31.55700
H  45.44700 38.88200 31.44700
H  44.02800 37.80100 31.34100
H  44.64500 38.40900 29.85900
H  46.91700 34.42300 32.21900
H  45.28800 33.97600 32.76700
H  45.53000 35.09600 34.50600
H  45.10700 36.49200 33.47600
H  48.39500 40.86200 27.13400
H  49.90300 40.12800 27.70100
H  48.34100 39.97700 28.60500
H  49.84500 40.84900 25.53500
H  51.15500 40.60300 24.25400
H  51.19400 39.60400 25.70400
H  48.67100 34.50200 21.86400
H  46.78500 32.30000 22.02600
H  46.08000 35.83400 21.90700
H  45.85500 34.27000 21.15000
H  47.12200 35.27900 20.51800
H  49.16900 32.12500 21.56600
H  48.30000 30.82700 22.26600
H  50.81600 31.52400 23.02300
H  49.55200 31.24500 24.30700
H  49.97900 32.87500 23.78700
H  43.84800 29.34100 26.65400
H  45.49800 28.66600 26.66900
H  44.77300 29.55400 25.19500
H  43.31400 32.71800 30.22900
H  43.20600 30.62900 34.16200
H  44.18300 31.99900 34.27300
H  44.88500 30.44900 33.70400
Mg 30.67000 59.56800 38.69600
C  27.72600 58.24100 37.39800
C  32.27300 56.68300 37.84300
C  33.70100 61.10000 38.93500
C  29.06600 62.61400 39.20000
N  30.14900 57.71900 37.56600
C  28.84300 57.39500 37.34600
C  28.82000 55.93900 36.87400
C  30.06100 55.34700 37.67300
C  30.89500 56.64200 37.69100
C  29.55200 54.84500 39.08200
C  28.85700 55.87600 35.29500
C  27.87400 54.87500 34.54700
H  27.09000 55.31300 33.29500
N  32.72400 58.94600 38.47600
C  33.20200 57.71300 38.13300
C  34.60800 57.59300 38.08400
C  35.11900 58.90200 38.41800
C  33.85000 59.73600 38.67100
C  35.42700 56.31700 37.76900
C  36.59200 59.29100 38.50400
O  37.45800 58.43200 38.25000
C  37.03900 60.64900 38.91800
N  31.27500 61.54600 39.01100
C  32.58600 61.98500 38.99200
C  32.70400 63.52700 39.23100
C  31.19300 63.92200 39.42600
C  30.44700 62.57500 39.21200
C  33.57300 63.94900 40.43400
C  30.70000 65.13500 38.54300
C  29.80800 66.19700 39.25500
N  28.67200 60.30600 38.58200
C  28.19300 61.55000 38.79500
C  26.73700 61.47800 38.72000
C  26.50900 60.17400 38.17300
C  27.76200 59.54200 38.01800
C  25.82000 62.63900 38.77600
C  25.45500 59.27400 37.66600
O  24.26500 59.42800 37.52300
C  26.23200 58.05400 37.08100
C  25.59300 56.84600 37.77700
O  25.60900 56.53700 38.96400
O  24.95600 56.06000 36.83800
C  24.55400 54.67800 37.24500
H  32.65800 55.68000 37.64900
H  34.63600 61.66300 38.90100
H  28.52600 63.55100 39.35300
H  27.89900 55.48500 37.23800
H  30.54900 54.65400 36.98900
H  29.75900 55.65500 39.78200
H  30.08600 53.92600 39.32200
H  28.47900 54.66900 39.00300
H  29.83900 55.47500 35.04400
H  28.85000 56.90300 34.92700
H  27.19100 54.56900 35.33900
H  28.50600 54.01400 34.32700
H  36.16100 56.59400 37.01200
H  34.76100 55.65900 37.21200
H  35.74300 55.85000 38.70100
H  38.12500 60.60900 39.00600
H  36.62400 61.01600 39.85600
H  36.92500 61.35700 38.09700
H  33.02900 64.00400 38.30700
H  30.97400 64.00600 40.49100
H  33.07500 64.81900 40.86300
H  34.60700 64.21100 40.21000
H  33.45100 63.09100 41.09500
H  30.11400 64.63900 37.76900
H  31.50700 65.67600 38.04900
H  29.90000 66.04000 40.33000
H  28.77100 65.92400 39.05800
H  30.13900 67.20600 39.00600
H  25.40000 62.74800 37.77700
H  26.34100 63.57900 38.95800
H  25.01600 62.48300 39.49500
H  25.99700 58.12000 36.01900
H  23.66000 54.67200 37.86800
H  25.33200 54.30800 37.91300
H  24.44300 54.19500 36.27400

