158

Mg 8.08500 3.21400 27.82900
C  9.73200 1.90100 30.60400
C  6.09400 4.99200 29.93700
C  6.65900 4.32300 25.12900
C  9.85400 0.79100 25.83300
N  7.89600 3.34600 29.95800
C  8.78700 2.88200 30.89900
C  8.41900 3.36600 32.28300
C  7.10400 4.20400 32.05500
C  7.03900 4.18800 30.57900
C  5.82200 3.49500 32.62500
C  9.60700 4.14500 32.83100
C  9.45200 4.70800 34.29400
H  9.86100 3.87600 35.55600
N  6.54200 4.52400 27.55100
C  5.82800 5.12200 28.53500
C  4.96200 6.10700 27.87800
C  5.14600 6.03800 26.44100
C  6.16600 4.92500 26.32000
C  3.99300 7.07500 28.61600
C  4.48100 6.73200 25.34500
O  4.83500 6.54000 24.18500
C  3.32300 7.68600 25.56000
N  8.35000 2.60400 25.69000
C  7.62600 3.22900 24.88200
C  7.93300 2.74400 23.43500
C  8.87500 1.57600 23.68200
C  9.03400 1.64300 25.14900
C  6.67600 2.50900 22.58100
C  10.25600 1.62900 22.93300
C  11.23100 2.74500 23.32200
N  9.49400 1.64300 28.17100
C  10.13400 0.74600 27.23300
C  11.07600 -0.10600 27.94200
C  10.95000 0.30200 29.29200
C  10.00500 1.38900 29.32900
C  11.91200 -1.17000 27.39300
C  11.45900 0.17000 30.68100
O  12.30600 -0.58800 31.17600
C  10.72400 1.18300 31.53500
C  10.05300 0.42300 32.61100
O  9.03400 -0.28100 32.50800
O  10.89300 0.54000 33.72400
C  10.44600 -0.28800 34.89800
H  5.53100 5.68100 30.57000
H  6.05700 4.76400 24.33200
H  10.47000 0.03700 25.33800
H  8.25000 2.49900 32.92100
H  7.04400 5.23900 32.39100
H  6.00800 2.56700 33.16600
H  5.14600 3.28800 31.79600
H  5.42100 4.13300 33.41300
H  9.85700 4.87600 32.06300
H  10.38200 3.37900 32.87600
H  8.42200 4.92400 34.57500
H  9.94100 5.68200 34.27400
H  4.28800 8.10300 28.82600
H  3.76400 6.69600 29.61200
H  2.98100 7.09300 28.21000
H  3.27000 8.31700 26.44700
H  2.37700 7.16400 25.41800
H  3.25100 8.35400 24.70200
H  8.46900 3.57900 22.98400
H  8.31200 0.71600 23.32100
H  5.75600 2.78900 23.09300
H  6.62400 1.44400 22.35500
H  6.71100 3.19100 21.73100
H  9.90000 1.69600 21.90500
H  10.79000 0.68000 22.96500
H  10.64800 3.31800 24.04300
H  11.41200 3.35900 22.44000
H  12.15800 2.38000 23.76400
H  11.52500 -1.35900 26.39200
H  11.77900 -2.06500 28.00100
H  12.97200 -0.91700 27.37900
H  11.52200 1.83600 31.89000
H  10.23200 -1.23700 34.40600
H  9.54300 0.09300 35.37400
H  11.30400 -0.26300 35.56900
Mg 29.94900 57.50700 39.75400
C  27.10900 55.61400 38.90900
C  31.93200 54.74300 39.04300
C  32.59700 59.63600 39.53000
C  27.78000 60.45800 39.93000
N  29.57300 55.52100 39.06000
C  28.31300 54.92900 38.90900
C  28.41700 53.47100 38.58000
C  29.91900 53.09800 38.91300
C  30.54100 54.52300 39.01400
C  30.22500 52.22400 40.15600
C  27.98100 53.10900 37.18400
C  28.59800 53.97600 36.03400
H  27.69600 54.74000 35.02600
N  31.95700 57.23200 39.34200
C  32.58500 55.97700 39.10400
C  33.97400 56.24500 39.02000
C  34.19400 57.64100 39.11400
C  32.83900 58.25700 39.40200
C  34.98600 55.05500 38.86100
C  35.58300 58.23900 39.04800
O  36.52700 57.49400 38.90400
C  35.79800 59.71200 39.18000
N  30.16700 59.74800 39.72100
C  31.34500 60.35200 39.75200
C  31.25600 61.80600 40.11200
C  29.68900 62.05800 40.19400
C  29.12400 60.66800 39.95500
C  32.04800 62.23300 41.37400
C  29.11000 63.26200 39.35800
C  29.76500 64.64500 39.67000
N  27.89900 57.93400 39.70300
C  27.19200 59.15800 39.86000
C  25.78800 58.80900 39.83100
C  25.70500 57.42200 39.40800
C  27.02200 56.99200 39.33200
C  24.61000 59.82600 39.92800
C  24.76900 56.41100 38.95000
O  23.51300 56.36100 38.90500
C  25.65300 55.06200 38.75800
C  25.20900 54.08000 39.82700
O  25.54500 54.11500 40.98700
O  24.25700 53.28700 39.27300
C  23.59400 52.40000 40.16700
H  32.47300 53.82400 38.80900
H  33.42100 60.35100 39.47000
H  27.11400 61.32200 39.99100
H  27.78800 52.91800 39.27900
H  30.36600 52.54700 38.08600
H  31.11300 51.63200 39.93300
H  29.39300 51.57200 40.42400
H  30.43300 52.88100 41.00000
H  26.89300 53.05800 37.14700
H  28.32200 52.08400 37.03600
H  29.28400 53.36800 35.44300
H  29.18900 54.82900 36.36700
H  34.64500 54.34400 38.10900
H  35.11900 54.51500 39.79900
H  35.92800 55.34500 38.39600
H  35.14200 60.24900 38.49500
H  36.78800 59.95200 38.79300
H  35.72600 60.00000 40.22900
H  31.55800 62.41300 39.25900
H  29.40500 62.37500 41.19700
H  32.54600 61.36300 41.80100
H  31.38600 62.62200 42.14800
H  32.79700 62.99700 41.16600
H  28.09000 63.45900 39.68900
H  29.28500 63.06000 38.30100
H  30.79100 64.43700 39.97400
H  29.36700 65.20600 40.51600
H  29.77600 65.25300 38.76500
H  25.07100 60.70600 40.37700
H  23.79800 59.44300 40.54500
H  24.20700 60.10400 38.95400
H  25.40000 54.71900 37.75400
H  24.25600 51.88800 40.86600
H  22.99200 51.67900 39.61500
H  22.94500 53.04400 40.76100

