158

Mg 46.97100 25.08400 29.41700
C  48.02800 27.48900 31.86800
C  45.61500 23.35300 32.19300
C  46.46200 22.49900 27.33700
C  48.54000 26.90700 26.99100
N  46.78800 25.49500 31.82800
C  47.24200 26.52300 32.51500
C  46.84700 26.39600 34.06200
C  46.17000 24.93300 34.06900
C  46.21400 24.55500 32.60600
C  46.82100 23.88700 35.05000
C  45.95500 27.59800 34.57700
C  46.42900 28.27900 35.90800
H  46.76300 27.28200 37.01600
N  46.08200 23.19100 29.66100
C  45.56600 22.64200 30.90400
C  45.02000 21.33000 30.62100
C  45.28000 21.00800 29.17200
C  46.01300 22.24300 28.64700
C  44.39100 20.49900 31.62300
C  45.01600 19.75000 28.50100
O  45.44600 19.50300 27.35200
C  44.23000 18.63600 29.19700
N  47.37900 24.80300 27.41600
C  47.02700 23.58600 26.81200
C  47.44200 23.71600 25.25000
C  48.05200 25.15600 25.14100
C  48.06500 25.63800 26.60200
C  48.50400 22.57000 24.80300
C  47.15100 26.01300 24.17300
C  47.90000 27.07700 23.26400
N  48.03500 26.88000 29.38600
C  48.63600 27.46500 28.27900
C  49.25300 28.73200 28.77000
C  49.00500 28.74800 30.16900
C  48.33300 27.58700 30.46900
C  49.92000 29.72700 27.95400
C  49.27800 29.47500 31.39300
O  49.90800 30.52600 31.58200
C  48.65200 28.70100 32.54300
C  49.78000 28.36500 33.53200
O  50.44800 27.33200 33.79700
O  49.75800 29.38500 34.40800
C  50.42300 29.14900 35.70400
H  45.04700 22.95000 33.03300
H  46.28000 21.64600 26.68000
H  48.96700 27.55300 26.22100
H  47.82100 26.36800 34.54900
H  45.15300 25.07400 34.43500
H  46.03000 23.14200 35.13800
H  47.07200 24.40300 35.97600
H  47.66000 23.39400 34.55900
H  44.93300 27.31600 34.83000
H  45.92900 28.32200 33.76300
H  45.73900 28.98300 36.37400
H  47.41200 28.73000 35.77200
H  44.20500 21.03900 32.55100
H  45.10300 19.68100 31.74000
H  43.45200 20.00700 31.36500
H  43.29100 19.08300 29.52500
H  44.84600 18.18100 29.97100
H  44.13000 17.79000 28.51800
H  46.53800 23.62800 24.64800
H  49.09300 25.13300 24.81800
H  48.34200 22.08900 23.83800
H  48.44700 21.75900 25.53000
H  49.48800 22.99800 24.99400
H  46.37400 26.55600 24.71200
H  46.69900 25.27500 23.51000
H  47.61500 26.96000 22.21900
H  48.97600 26.94400 23.37300
H  47.58900 28.05000 23.64400
H  49.82600 30.69900 28.43800
H  49.48500 29.98300 26.98900
H  50.98500 29.57900 27.77700
H  47.95100 29.33700 33.08500
H  51.31000 28.51700 35.75100
H  49.69500 28.72100 36.39400
H  50.68000 30.10100 36.16800
Mg 16.46400 51.76900 26.58100
C  18.27300 50.30900 29.15300
C  14.18400 52.83200 28.82700
C  14.53100 52.75300 23.90200
C  18.80100 50.38400 24.22600
N  16.18200 51.42400 28.68600
C  17.07600 50.90800 29.56500
C  16.76100 51.26500 31.09800
C  15.30500 51.72600 30.95400
C  15.24000 52.07500 29.44400
C  14.09800 50.70300 31.39600
C  17.77300 52.37900 31.52600
C  18.34600 52.24300 32.87700
H  17.46200 51.50600 33.92000
N  14.67100 52.80200 26.38800
C  13.91500 53.17300 27.46500
C  12.81300 53.93900 26.96800
C  12.79600 53.85300 25.52400
C  14.02000 53.08600 25.19500
C  11.83700 54.58500 27.94200
C  11.76400 54.47800 24.53300
O  11.88500 54.25900 23.36100
C  10.63300 55.34800 24.95000
N  16.67300 51.63200 24.40700
C  15.73000 52.08800 23.52700
C  16.22200 51.82300 22.06900
C  17.63800 51.33100 22.24900
C  17.72300 51.06800 23.79200
C  15.26500 50.86700 21.33500
C  18.76600 52.23500 21.79000
C  19.87400 51.65700 20.84200
N  18.18000 50.51700 26.62200
C  19.10500 50.15800 25.61900
C  20.14400 49.38200 26.25800
C  19.81500 49.38900 27.64800
C  18.62900 50.10200 27.77400
C  21.34600 48.85600 25.60600
C  20.27200 48.91300 28.95400
O  21.13300 48.18000 29.38400
C  19.36600 49.66100 30.01700
C  18.82100 48.56700 30.87000
O  17.82900 47.80800 30.61600
O  19.54200 48.59900 32.03800
C  19.25800 47.61400 33.08600
H  13.54800 53.14300 29.65900
H  13.93000 53.04600 23.03900
H  19.49700 49.96900 23.49400
H  17.02300 50.40400 31.71200
H  15.12700 52.70500 31.39900
H  14.50400 49.79200 31.83700
H  13.51600 50.51400 30.49500
H  13.47000 51.17600 32.15100
H  17.30600 53.36300 31.48100
H  18.59000 52.37400 30.80400
H  18.57800 53.24700 33.23400
H  19.30900 51.73400 32.84100
H  10.86600 54.14700 27.71200
H  11.73400 55.66100 27.80500
H  11.99600 54.43600 29.01000
H  10.21600 54.79800 25.79300
H  9.93600 55.50100 24.12600
H  11.15700 56.23800 25.29900
H  16.31400 52.80700 21.61000
H  17.72800 50.35100 21.78000
H  15.48100 50.94900 20.27000
H  14.27900 51.22300 21.63300
H  15.26300 49.80500 21.58100
H  19.26100 52.60700 22.68600
H  18.48800 53.21000 21.39000
H  19.94600 52.31200 19.97400
H  19.71700 50.64000 20.48200
H  20.88400 51.71700 21.24700
H  22.12700 48.75200 26.35900
H  21.68100 49.49000 24.78500
H  21.28000 47.86600 25.15400
H  20.02300 50.36000 30.53500
H  19.79000 46.68600 32.88200
H  18.19800 47.36500 33.14800
H  19.45200 47.96200 34.10100

