158

Mg 49.80600 46.24000 42.51900
C  46.56100 46.54200 41.11900
C  49.94700 43.04600 41.20900
C  53.12200 46.22200 42.79600
C  49.84900 49.71700 42.98400
N  48.37300 45.02700 41.29300
C  47.14200 45.32900 40.80000
C  46.47700 44.17000 39.98000
C  47.53900 43.05400 40.13100
C  48.69400 43.71200 41.00000
C  47.04600 41.75200 40.72400
C  46.10700 44.65400 38.51500
C  44.71200 44.52600 38.04000
H  44.46000 43.50100 36.90400
N  51.26200 44.74600 42.27600
C  51.10600 43.54600 41.73100
C  52.33200 42.75600 41.88200
C  53.37800 43.63700 42.26100
C  52.63400 44.92600 42.47200
C  52.46400 41.25600 41.61600
C  54.84600 43.30100 42.46100
O  55.34500 42.21400 42.12800
C  55.77100 44.42200 43.08200
N  51.26400 47.69300 42.79900
C  52.54800 47.42900 42.98200
C  53.41900 48.70500 43.22400
C  52.36300 49.81500 43.08500
C  51.04900 48.99900 43.02200
C  54.20200 48.79100 44.58500
C  52.43700 50.65000 41.75700
C  52.48000 52.19000 41.93600
N  48.44500 47.85400 42.35400
C  48.57800 49.19800 42.65800
C  47.29200 49.81200 42.49100
C  46.52400 48.79700 41.90900
C  47.26000 47.67200 41.74100
C  46.98600 51.28400 42.70200
C  45.13400 48.56900 41.40400
O  44.16400 49.26000 41.44400
C  45.16600 47.09700 40.78800
C  44.21700 46.30600 41.64200
O  44.25100 46.10000 42.93000
O  43.12200 45.81200 40.87000
C  42.00400 45.18500 41.67500
H  50.04800 42.02000 40.85000
H  54.19100 46.35200 42.97900
H  49.93200 50.80500 43.00400
H  45.62300 43.86000 40.58000
H  47.95900 42.74800 39.17200
H  47.11700 40.96700 39.97200
H  46.00500 41.89800 41.01200
H  47.63400 41.64100 41.63500
H  46.73800 44.05600 37.85800
H  46.44800 45.68000 38.37800
H  44.15200 45.44200 37.85100
H  44.20100 44.05100 38.87800
H  51.50500 40.74200 41.68600
H  53.05100 40.83400 42.43200
H  52.90800 41.05000 40.64100
H  55.90000 45.19100 42.32000
H  56.74600 43.95800 43.23000
H  55.44900 44.70500 44.08400
H  54.20400 48.71400 42.46900
H  52.29100 50.41600 43.99200
H  54.77200 47.87700 44.75200
H  53.54700 48.99900 45.43100
H  54.90500 49.62300 44.54000
H  51.49500 50.47500 41.23900
H  53.16900 50.28200 41.03700
H  53.43300 52.51700 41.51900
H  52.41600 52.46300 42.98900
H  51.66600 52.56100 41.31300
H  47.42300 51.84500 41.87500
H  47.48100 51.71100 43.57500
H  45.90900 51.44800 42.72300
H  44.90000 47.12300 39.73200
H  41.25300 45.12800 40.88700
H  41.57100 45.79700 42.46700
H  42.26900 44.24900 42.16700
Mg 4.79500 54.17800 42.16100
C  4.87600 50.66500 41.08800
C  7.93800 54.36300 40.75400
C  4.33000 57.44100 41.93400
C  1.78200 53.62200 43.46700
N  6.17100 52.60900 41.02300
C  5.92100 51.36400 40.59500
C  7.06800 50.88900 39.63500
C  8.17400 51.82800 40.12600
C  7.34700 53.07400 40.57500
C  9.27300 51.33300 41.15600
C  6.60500 51.13100 38.16600
C  7.26200 50.08700 37.22800
H  6.39200 49.51400 36.12100
N  5.95300 55.69900 41.43100
C  7.26100 55.58000 41.01100
C  7.81300 56.91300 40.69700
C  6.71900 57.83000 40.78300
C  5.55100 57.02500 41.39300
C  9.22000 57.15900 40.11900
C  6.71500 59.33900 40.46600
O  7.71200 59.95700 40.01300
C  5.53500 60.22000 40.80600
N  3.19600 55.40700 42.47300
C  3.28700 56.74100 42.58100
C  2.17700 57.33900 43.32500
C  1.28100 56.06300 43.58500
C  2.17900 54.91600 43.20400
C  2.63300 58.09600 44.66600
C  -0.14600 56.05600 42.79400
C  -0.93500 57.38100 42.57300
N  3.55200 52.47800 42.37800
C  2.31800 52.44900 43.03000
C  1.90900 51.06400 43.07500
C  2.89600 50.29500 42.30700
C  3.84800 51.22300 41.88100
C  0.68300 50.64500 43.79700
C  3.19300 48.96800 41.77400
O  2.68800 47.89500 41.80600
C  4.56000 49.16400 41.06000
C  4.74800 48.45700 39.76800
O  4.41300 48.87900 38.68800
O  5.31400 47.22400 40.00900
C  5.71900 46.53200 38.75100
H  8.95100 54.48600 40.36600
H  4.03200 58.48600 41.82400
H  0.94800 53.48700 44.15900
H  7.38000 49.87000 39.86500
H  8.75400 52.12300 39.25100
H  9.56200 51.96900 41.99300
H  10.12300 51.11300 40.50900
H  8.98500 50.39000 41.61900
H  6.87600 52.14800 37.88500
H  5.51600 51.09200 38.14200
H  7.73800 49.30100 37.81300
H  8.08600 50.62400 36.76000
H  9.54900 58.19900 40.11100
H  9.27800 56.61500 39.17700
H  9.86100 56.65500 40.84200
H  5.67600 61.28200 40.60300
H  5.46600 60.21900 41.89400
H  4.66900 59.89600 40.23000
H  1.62700 57.97800 42.63300
H  1.08400 55.80600 44.62500
H  1.81100 58.10900 45.38200
H  2.95000 59.07800 44.31500
H  3.41100 57.53000 45.17900
H  -0.83900 55.39200 43.31100
H  0.09000 55.68200 41.79800
H  -0.64100 57.54800 41.53700
H  -0.44200 58.22600 43.05300
H  -2.01600 57.35200 42.71100
H  0.31000 49.68000 43.45400
H  -0.11300 51.37300 43.63900
H  0.91300 50.57100 44.86000
H  5.23400 48.68000 41.76700
H  6.01000 45.51700 39.02200
H  6.58300 47.07900 38.37300
H  4.99400 46.45900 37.94100

