158

Mg 47.98900 34.27700 26.83100
C  46.11300 32.62200 29.32400
C  47.90300 37.08500 28.83000
C  49.21000 36.00900 24.23300
C  47.15700 31.58300 24.60500
N  47.30500 34.67800 28.96400
C  46.76200 33.81400 29.74300
C  46.72500 34.48700 31.15700
C  47.03400 36.04800 30.94700
C  47.44300 35.95300 29.51000
C  45.69700 36.88000 31.00500
C  47.94200 33.86300 32.04500
C  48.00200 34.33900 33.57500
H  47.08300 35.41300 34.15000
N  48.49600 36.24600 26.53200
C  48.37500 37.22700 27.51200
C  48.93400 38.43900 26.99800
C  49.53000 38.12700 25.75200
C  49.05600 36.80800 25.39100
C  49.10600 39.67000 27.82800
C  50.35000 38.98400 24.90100
O  50.85400 38.57200 23.85400
C  50.85200 40.31400 25.39300
N  48.12300 33.77900 24.80000
C  48.68500 34.73700 23.88300
C  48.74600 34.20700 22.46100
C  48.22700 32.74200 22.59200
C  47.75100 32.67000 24.08200
C  47.96600 35.18500 21.56800
C  49.31900 31.73800 22.25300
C  49.17100 30.99300 20.87700
N  46.95400 32.39000 26.86500
C  46.77100 31.40300 25.94200
C  45.89300 30.35800 26.47300
C  45.58100 30.90200 27.76700
C  46.24800 32.09900 27.99200
C  45.45200 29.10300 25.74800
C  44.81100 30.59000 29.01000
O  44.17500 29.55700 29.31500
C  45.05800 31.78200 30.07100
C  45.29400 31.27800 31.44300
O  46.18100 30.52600 31.72800
O  44.43200 31.89000 32.24700
C  44.58200 31.69600 33.70500
H  47.85600 37.91200 29.54100
H  49.53500 36.64600 23.40800
H  47.02800 30.70300 23.97000
H  45.78100 34.31200 31.67300
H  47.84600 36.44900 31.55400
H  45.25000 37.10800 30.03800
H  45.89200 37.76800 31.60500
H  45.01200 36.38300 31.69300
H  48.83200 34.04000 31.44200
H  47.89900 32.77400 32.04100
H  49.04800 34.38100 33.87900
H  47.65100 33.49800 34.17300
H  50.09100 39.73200 28.29000
H  48.27900 39.79500 28.52700
H  48.86700 40.50500 27.16900
H  49.99700 40.98500 25.47300
H  51.65500 40.68200 24.75400
H  51.34600 40.09500 26.34000
H  49.79300 34.13900 22.16300
H  47.45700 32.51600 21.85500
H  47.84000 36.13400 22.08900
H  46.97200 34.85500 21.26900
H  48.55600 35.39400 20.67600
H  49.48200 31.01000 23.04800
H  50.26300 32.27900 22.32700
H  50.18300 30.97000 20.47300
H  48.42500 31.43600 20.21600
H  48.84400 29.98200 21.11800
H  44.36400 29.05200 25.71900
H  45.91000 28.24900 26.24800
H  45.86500 29.04300 24.74100
H  44.06500 32.23000 30.10400
H  45.64200 31.53500 33.89900
H  44.10300 30.78200 34.05800
H  44.23500 32.56900 34.25700
Mg 35.27700 48.59900 25.19800
C  35.70200 46.73100 28.11000
C  34.62600 51.32600 27.18600
C  34.74200 50.28900 22.45500
C  35.89000 45.62100 23.36900
N  34.85500 48.89800 27.35300
C  35.26200 48.07100 28.35900
C  35.35500 48.72500 29.73500
C  34.55500 50.09200 29.42700
C  34.65700 50.13300 27.91200
C  33.10900 50.20000 30.01300
C  36.80600 48.97000 30.26900
C  37.00600 49.14500 31.76600
H  35.84800 49.03100 32.78300
N  34.78800 50.53600 24.86800
C  34.60500 51.48100 25.79000
C  34.45500 52.77600 25.14400
C  34.46000 52.57900 23.75700
C  34.64300 51.04100 23.61100
C  34.38300 54.18700 25.74500
C  34.22000 53.55200 22.54500
O  34.42200 53.20100 21.36400
C  33.79900 54.92400 22.77400
N  35.21500 48.04600 23.19000
C  35.06800 48.95600 22.26800
C  35.42700 48.43600 20.86700
C  35.71100 46.89200 21.13900
C  35.57800 46.82000 22.65900
C  34.24200 48.52200 19.90000
C  37.15200 46.48500 20.69700
C  38.34400 47.00100 21.53300
N  35.52200 46.53900 25.59700
C  35.90000 45.49100 24.80100
C  36.50000 44.34700 25.59000
C  36.35600 44.83500 26.89400
C  35.76400 46.14200 26.87100
C  37.08900 43.06600 25.07000
C  36.72900 44.43600 28.23600
O  37.27300 43.40500 28.65100
C  36.27300 45.67700 29.08600
C  35.12300 45.24700 30.01500
O  33.91100 45.24600 29.74800
O  35.62900 44.94100 31.18500
C  34.69600 44.77200 32.35300
H  34.48500 52.24000 27.76700
H  34.63100 50.79500 21.49300
H  36.15900 44.81700 22.68200
H  34.67100 48.10600 30.31700
H  35.08200 50.99600 29.73100
H  32.39900 50.56100 29.26900
H  32.97300 50.86500 30.86600
H  32.82300 49.24600 30.45700
H  37.17100 49.95200 29.96700
H  37.46600 48.19300 29.88100
H  37.53100 50.07800 31.97100
H  37.66200 48.37100 32.16400
H  35.32500 54.70100 25.55500
H  34.31400 54.11000 26.83000
H  33.53300 54.83700 25.53900
H  32.79400 54.83000 23.18400
H  33.71000 55.42500 21.80900
H  34.54800 55.49200 23.32600
H  36.32900 48.92200 20.49400
H  34.98000 46.23400 20.67000
H  34.26400 47.65800 19.23600
H  34.36800 49.45900 19.35700
H  33.29200 48.51800 20.43400
H  37.23800 46.80200 19.65800
H  37.14300 45.40300 20.56700
H  39.27500 47.10500 20.97500
H  38.53000 46.26100 22.31100
H  38.11600 47.95300 22.01300
H  37.00000 42.95400 23.98900
H  36.62700 42.21800 25.57600
H  38.15000 43.07500 25.32000
H  37.11200 46.10400 29.63500
H  33.80200 45.38100 32.22400
H  35.31700 45.09900 33.18700
H  34.51700 43.71100 32.53100

