158

Mg 0.79400 8.26600 26.86700
C  1.42900 10.04100 29.91400
C  0.67900 5.28800 28.72000
C  0.73200 6.65000 24.05200
C  1.40200 11.22200 25.21100
N  0.97800 7.77500 29.03800
C  1.25400 8.68400 30.11700
C  1.10000 7.96300 31.44200
C  1.22700 6.45000 31.07400
C  0.91000 6.47800 29.56100
C  2.50800 5.68600 31.47500
C  -0.13900 8.29900 32.22800
C  0.10600 8.73100 33.70400
H  1.19500 7.90300 34.56200
N  0.57900 6.25900 26.43500
C  0.46100 5.18500 27.28700
C  0.11000 3.96800 26.53500
C  0.01700 4.39800 25.19400
C  0.50600 5.85900 25.14000
C  0.03500 2.61500 27.12200
C  -0.41100 3.54000 24.09000
O  -0.51800 3.97700 22.95000
C  -0.97600 2.05600 24.24300
N  1.30900 8.82200 24.89100
C  1.09400 7.96800 23.86600
C  1.29100 8.64000 22.48500
C  1.16100 10.12500 22.92800
C  1.33100 10.05100 24.44000
C  2.52700 8.19200 21.74300
C  -0.12400 10.76800 22.50900
C  -1.47800 10.32700 23.09600
N  1.27400 10.28900 27.44000
C  1.45000 11.37900 26.61400
C  1.74300 12.59400 27.33800
C  1.78200 12.13600 28.70100
C  1.54000 10.70100 28.69100
C  1.84700 14.00400 26.81200
C  1.89100 12.49200 30.06800
O  2.19200 13.61800 30.51400
C  1.65100 11.22400 30.92400
C  2.72300 11.07900 31.93500
O  3.84500 10.64900 31.72400
O  2.20200 11.42900 33.14100
C  3.22000 11.37000 34.14000
H  0.96500 4.38700 29.26800
H  0.61300 6.06900 23.13600
H  1.56800 12.14700 24.65500
H  1.98500 8.33600 31.95800
H  0.45300 5.96800 31.67100
H  2.24000 4.66600 31.74900
H  3.03300 6.21800 32.26800
H  3.10200 5.66600 30.56100
H  -0.72400 7.38400 32.32300
H  -0.68600 9.05200 31.66000
H  -0.81900 8.58400 34.26200
H  0.32900 9.79800 33.68400
H  0.66200 1.80400 26.75100
H  -0.99100 2.26700 27.00800
H  0.22200 2.67500 28.19400
H  -0.27800 1.24900 24.46500
H  -1.54100 1.85600 23.33200
H  -1.74900 2.11200 25.00900
H  0.42000 8.38100 21.88200
H  2.01700 10.66500 22.52300
H  2.22500 7.23800 21.31200
H  3.29700 8.00700 22.49300
H  2.77500 8.91000 20.96100
H  -0.18700 10.49900 21.45500
H  -0.14800 11.85600 22.55900
H  -2.04100 11.18900 23.45500
H  -1.39300 9.50200 23.80400
H  -2.04200 9.84700 22.29600
H  2.21000 14.13000 25.79200
H  2.53400 14.58700 27.42600
H  0.85000 14.44400 26.78800
H  0.75500 11.31200 31.53900
H  3.60200 10.34900 34.14600
H  2.80100 11.62500 35.11300
H  4.00900 12.06400 33.85200
Mg -0.30000 42.89000 26.54800
C  1.92600 43.12600 29.26100
C  -2.80900 42.66600 28.76200
C  -2.28500 42.19900 23.95100
C  2.47600 43.19300 24.30200
N  -0.40800 42.62900 28.81100
C  0.61700 42.90900 29.65200
C  0.04900 42.87500 31.12900
C  -1.48100 42.47900 30.90700
C  -1.59600 42.56900 29.41100
C  -1.86700 41.02700 31.47800
C  0.36000 44.23100 31.90100
C  1.00700 44.39700 33.33400
H  0.71400 43.24300 34.36200
N  -2.30500 42.59200 26.33700
C  -3.12700 42.61800 27.36700
C  -4.47800 42.51400 26.85400
C  -4.39500 42.16500 25.46000
C  -2.94000 42.33900 25.15100
C  -5.77100 42.83800 27.72900
C  -5.46800 41.73700 24.40700
O  -5.15600 41.46100 23.25200
C  -6.86700 41.73000 24.86800
N  0.06800 42.78900 24.35300
C  -0.93700 42.38900 23.56200
C  -0.37700 42.42400 22.06800
C  1.10400 42.88000 22.16600
C  1.22300 42.98000 23.68600
C  -0.49100 40.94600 21.58200
C  1.28900 44.19700 21.41500
C  1.97000 44.12900 20.00100
N  1.74100 43.04300 26.67500
C  2.75400 43.21200 25.74200
C  4.01500 43.41200 26.46000
C  3.73100 43.26700 27.81500
C  2.37400 43.12700 27.90500
C  5.26400 43.83700 25.72900
C  4.26800 43.43400 29.13300
O  5.44200 43.61100 29.45600
C  3.10000 43.36200 30.15300
C  3.44200 42.17900 30.97000
O  3.68600 41.02400 30.54100
O  3.71200 42.62700 32.25000
C  4.28500 41.50300 33.11100
H  -3.69500 42.57700 29.39400
H  -2.88900 42.04400 23.05400
H  3.29900 43.41100 23.61700
H  0.58900 42.04700 31.58800
H  -2.16500 43.27600 31.19700
H  -0.94900 40.53000 31.79100
H  -2.38900 40.41800 30.73900
H  -2.54300 41.05000 32.33300
H  -0.56600 44.80600 31.91500
H  1.04400 44.84900 31.32000
H  0.60300 45.31100 33.77000
H  2.08100 44.56600 33.25600
H  -6.40800 43.46900 27.10900
H  -5.68500 43.43600 28.63600
H  -6.30500 41.92400 27.98700
H  -6.85500 41.55800 25.94400
H  -7.52900 41.03800 24.34700
H  -7.36600 42.68800 24.73000
H  -1.04900 42.99900 21.43100
H  1.83200 42.12300 21.87300
H  0.23200 40.44100 22.22300
H  -0.23300 40.74100 20.54300
H  -1.41700 40.38900 21.72000
H  1.96200 44.82800 21.99500
H  0.36900 44.75300 21.23600
H  1.16900 44.39000 19.31000
H  2.35100 43.14000 19.74700
H  2.75800 44.86600 19.84500
H  5.63000 42.96200 25.19200
H  6.02300 44.27300 26.37900
H  4.84000 44.55400 25.02500
H  2.96700 44.36700 30.55300
H  4.58400 40.55100 32.67200
H  3.50200 41.23800 33.82100
H  5.08600 41.96300 33.69000

