158

Mg 25.98300 0.98900 29.39800
C  27.94400 0.45900 32.30100
C  23.24700 1.51600 31.48100
C  23.98600 1.27900 26.63500
C  28.62200 0.05800 27.50800
N  25.61200 0.93200 31.60900
C  26.60000 0.74100 32.57600
C  25.96800 0.88600 33.94500
C  24.43300 1.01600 33.69700
C  24.38700 1.14500 32.20200
C  23.59400 -0.16500 34.20900
C  26.63400 2.03400 34.73000
C  27.30000 1.59300 36.03300
H  26.93600 2.28500 37.39200
N  23.94300 1.44100 29.06700
C  22.99000 1.64100 30.11700
C  21.73600 1.85100 29.48600
C  21.92400 1.67600 28.09400
C  23.30700 1.45100 27.87400
C  20.37300 1.86100 30.24800
C  20.88500 1.59600 26.99900
O  21.09600 1.28100 25.83900
C  19.49200 2.02900 27.25500
N  26.31300 0.68200 27.34200
C  25.35600 0.97900 26.38500
C  25.91100 0.58200 24.97600
C  27.44700 0.35400 25.22500
C  27.48400 0.31300 26.77500
C  25.11400 -0.54700 24.22500
C  28.33900 1.46900 24.58700
C  28.91700 2.56900 25.50900
N  27.98800 0.48100 29.76300
C  28.91700 0.10300 28.88600
C  30.06400 -0.37200 29.64300
C  29.80500 -0.14500 30.96600
C  28.49900 0.27000 30.99500
C  31.35300 -0.99500 29.13900
C  30.28100 -0.27800 32.31100
O  31.34500 -0.67000 32.71700
C  29.06700 0.12700 33.24700
C  28.72100 -0.96300 34.08400
O  27.99000 -1.87700 33.77400
O  29.48100 -0.96400 35.22400
C  29.18900 -2.05300 36.21600
H  22.36600 1.71900 32.09400
H  23.47500 1.69900 25.76600
H  29.46400 -0.15600 26.84600
H  26.15200 -0.05000 34.47100
H  24.02600 1.93600 34.11700
H  24.14900 -0.97300 34.68600
H  23.00500 -0.59600 33.39900
H  22.84800 0.23500 34.89500
H  25.97300 2.78000 35.17100
H  27.30900 2.58600 34.07500
H  28.33900 1.89900 35.90800
H  27.21100 0.50700 36.03100
H  19.79800 1.02400 29.85200
H  19.96700 2.84200 30.00100
H  20.39100 1.74500 31.33200
H  19.09500 1.19900 27.84000
H  19.02400 2.12900 26.27500
H  19.55300 3.02200 27.70000
H  25.79900 1.49400 24.39000
H  27.85300 -0.52600 24.72700
H  25.92200 -1.18300 23.86500
H  24.54200 -0.19300 23.36700
H  24.58900 -1.10300 25.00200
H  27.69700 1.99100 23.87800
H  29.10700 1.04500 23.93900
H  28.40900 2.70700 26.46400
H  28.71100 3.52100 25.02000
H  29.96500 2.27300 25.55500
H  31.99200 -1.23900 29.98800
H  31.98900 -0.30700 28.58300
H  31.25400 -1.98500 28.69400
H  29.33500 1.02400 33.80500
H  29.00600 -3.00800 35.72300
H  28.35600 -1.71400 36.83100
H  30.16300 -2.14700 36.69500
Mg 43.75800 3.75800 47.50100
C  41.44500 6.39800 47.19100
C  41.18500 1.54500 47.49400
C  46.01200 1.19300 47.05700
C  46.35800 5.98700 46.71900
N  41.47500 4.00200 47.06500
C  40.79400 5.16700 47.34900
C  39.23600 4.84700 47.53000
C  39.27300 3.28200 47.63100
C  40.72300 2.87100 47.40600
C  38.62700 2.65900 48.97000
C  38.32100 5.44300 46.39400
C  38.41900 4.77100 44.96500
H  38.36400 5.88200 43.85900
N  43.69000 1.74000 47.45100
C  42.49100 0.99500 47.47300
C  42.80200 -0.37500 47.29400
C  44.17700 -0.51600 47.01100
C  44.73400 0.83900 47.19700
C  41.81700 -1.46900 47.25100
C  44.94300 -1.77300 46.62100
O  44.29100 -2.73800 46.17200
C  46.46600 -1.90400 46.56600
N  45.95700 3.58800 47.31700
C  46.62900 2.46200 47.25300
C  48.13300 2.71500 46.99200
C  48.22800 4.23400 46.70800
C  46.80400 4.65600 46.90300
C  49.01300 2.22300 48.12400
C  48.98700 4.60400 45.33300
C  50.42800 5.04000 45.52700
N  43.89000 5.78800 47.11800
C  45.02600 6.55800 46.82200
C  44.56600 7.97600 46.56100
C  43.21100 7.89100 46.73100
C  42.83700 6.59000 47.05300
C  45.46100 9.18100 46.23600
C  41.95500 8.74000 46.74100
O  41.78600 9.93700 46.65600
C  40.73700 7.73100 46.95100
C  39.91200 8.28700 48.10900
O  39.90400 7.75800 49.21800
O  39.17600 9.33700 47.72800
C  38.24900 9.81800 48.70700
H  40.35700 0.85100 47.65200
H  46.75800 0.46400 46.73300
H  47.02000 6.66600 46.17700
H  38.89500 5.17000 48.51300
H  38.62600 2.79500 46.90200
H  37.99400 1.79100 48.78600
H  37.93000 3.34500 49.45300
H  39.40300 2.26600 49.62600
H  38.26800 6.53100 46.43500
H  37.32600 5.09600 46.67200
H  37.57800 4.10500 44.77000
H  39.32700 4.18300 44.83100
H  41.96300 -2.17600 48.06700
H  42.00300 -1.93600 46.28300
H  40.77100 -1.17400 47.16700
H  46.96300 -1.48200 47.44000
H  46.98300 -1.56900 45.66700
H  46.61600 -2.98300 46.62200
H  48.44100 2.06600 46.17300
H  48.71000 4.70000 47.56800
H  49.64200 1.43200 47.71500
H  48.42900 1.77300 48.92700
H  49.60400 3.04800 48.52100
H  48.34900 5.35000 44.85900
H  49.00500 3.68500 44.74800
H  50.51400 6.00800 45.03300
H  51.07900 4.21700 45.23000
H  50.56000 5.15000 46.60300
H  44.92600 9.86300 45.57400
H  46.26300 8.79000 45.61000
H  45.85000 9.69000 47.11800
H  40.14900 7.65600 46.03700
H  38.78700 9.99200 49.63900
H  37.40000 9.18500 48.96300
H  37.91000 10.80700 48.39700

