158

Mg 6.89500 56.29800 41.91800
C  5.90300 52.95600 41.95900
C  9.86200 55.25100 40.59900
C  7.57800 59.52600 41.26900
C  3.69400 57.28500 43.08800
N  7.68000 54.33400 41.17200
C  7.07000 53.12100 41.26300
C  7.99000 52.06800 40.54000
C  9.39800 52.77500 40.70200
C  8.98000 54.22400 40.79600
C  10.35400 52.28700 41.81200
C  7.69100 51.82700 39.01700
C  7.84800 50.41100 38.52400
H  7.02000 49.99900 37.33300
N  8.62500 57.30900 41.22200
C  9.75300 56.68300 40.79200
C  10.62800 57.71000 40.32400
C  9.98800 58.95600 40.43000
C  8.69000 58.68500 41.02700
C  11.98100 57.39900 39.63100
C  10.52900 60.31500 39.93400
O  11.55200 60.40300 39.26300
C  9.84000 61.67200 40.17500
N  5.75500 58.18500 42.03400
C  6.26600 59.33200 41.64500
C  5.34100 60.47700 41.82900
C  4.11700 59.82100 42.61000
C  4.47200 58.29300 42.53100
C  5.78900 61.83700 42.50200
C  2.70800 60.17800 41.99000
C  1.64700 60.87500 42.87200
N  5.07400 55.34000 42.42900
C  3.99300 55.84300 43.06100
C  3.12000 54.74800 43.51600
C  3.78300 53.63700 42.97000
C  5.00700 54.00100 42.41200
C  1.77400 54.83200 44.20200
C  3.74200 52.17900 42.74400
O  2.78500 51.39700 42.94000
C  5.12800 51.71200 42.25400
C  4.91500 50.78100 41.09600
O  4.50700 51.06100 39.95000
O  5.21800 49.51800 41.47300
C  4.63900 48.44500 40.66800
H  10.86700 54.87700 40.39200
H  7.77000 60.53600 40.90000
H  2.74700 57.49000 43.59100
H  8.05300 51.16000 41.14000
H  10.04800 52.79300 39.82700
H  9.98100 51.53700 42.50900
H  10.70800 53.10800 42.43500
H  11.12300 51.66700 41.34900
H  8.31100 52.54100 38.47500
H  6.63800 52.07600 38.88300
H  7.51300 49.81100 39.37000
H  8.90600 50.27200 38.30100
H  11.79100 57.66500 38.59100
H  12.14000 56.33000 39.48500
H  12.81700 57.96400 40.04200
H  9.59400 61.94500 41.20100
H  8.90600 61.61100 39.61600
H  10.47500 62.44000 39.73400
H  4.98300 60.67500 40.81900
H  4.10700 60.06000 43.67300
H  6.01400 62.42400 41.61200
H  6.70200 61.62900 43.05900
H  5.05200 62.28000 43.17300
H  2.20500 59.27900 41.63400
H  2.88100 60.80900 41.11800
H  1.90600 60.76900 43.92500
H  0.67500 60.41100 42.70800
H  1.59000 61.93800 42.63500
H  1.59900 54.10200 44.99300
H  1.12800 54.54300 43.37300
H  1.56300 55.85100 44.52700
H  5.72200 51.18600 43.00100
H  4.80000 48.68700 39.61800
H  3.56900 48.30300 40.82100
H  5.06400 47.47100 40.91000
Mg -5.91300 24.55200 26.69700
C  -4.16500 26.11500 29.38700
C  -7.05300 22.28300 29.08000
C  -7.64800 23.18800 24.29300
C  -4.14000 26.55100 24.49600
N  -5.53200 24.19200 28.97600
C  -4.93800 25.03900 29.80800
C  -5.19400 24.68800 31.24900
C  -5.78500 23.22200 31.16400
C  -6.23100 23.22200 29.64800
C  -4.69000 22.20700 31.41200
C  -6.20700 25.63100 31.94200
C  -5.93600 26.02100 33.46500
H  -5.94200 24.76400 34.43000
N  -7.16500 23.00700 26.73300
C  -7.49400 22.21900 27.78300
C  -8.40300 21.14600 27.27700
C  -8.56600 21.38800 25.91500
C  -7.76300 22.58300 25.55400
C  -8.75000 19.93500 28.10200
C  -9.45600 20.62600 24.90600
O  -9.46700 20.86200 23.70500
C  -10.42200 19.59000 25.35400
N  -5.89700 24.79500 24.66600
C  -6.73300 24.21300 23.86400
C  -6.54800 24.53800 22.39400
C  -5.37300 25.60100 22.37700
C  -5.12300 25.71100 23.93200
C  -6.25600 23.24000 21.49100
C  -5.71500 27.01700 21.77600
C  -6.76900 27.05600 20.62600
N  -4.45500 25.92700 26.84800
C  -3.87900 26.67600 25.83100
C  -2.96000 27.58500 26.44700
C  -3.01000 27.37500 27.77900
C  -3.95400 26.38200 28.00000
C  -2.12200 28.62900 25.67400
C  -2.50300 27.87500 29.12000
O  -1.70900 28.73300 29.49000
C  -3.25700 27.03500 30.16500
C  -2.32200 26.38800 31.02000
O  -1.81600 25.34000 30.80200
O  -2.12200 27.07700 32.23300
C  -1.34700 26.40100 33.32500
H  -7.49700 21.55700 29.76400
H  -8.40100 22.84300 23.58200
H  -3.61100 27.28100 23.87900
H  -4.31300 24.59700 31.88500
H  -6.48800 23.13700 31.99300
H  -4.77900 21.93800 32.46500
H  -3.71300 22.65500 31.22800
H  -4.83600 21.32400 30.79000
H  -7.15600 25.09700 31.98400
H  -6.46400 26.55500 31.42400
H  -6.67400 26.77200 33.74700
H  -5.00500 26.55800 33.64900
H  -9.82500 19.95300 28.27800
H  -8.23400 19.79800 29.05200
H  -8.44700 19.02100 27.59000
H  -10.85900 19.93900 26.28900
H  -9.82900 18.68200 25.46800
H  -11.28800 19.41500 24.71600
H  -7.53500 24.92400 22.13700
H  -4.48000 25.20000 21.89900
H  -7.05500 23.23800 20.75000
H  -6.43600 22.35500 22.10300
H  -5.26600 23.24700 21.03300
H  -4.72900 27.39200 21.50000
H  -6.05700 27.67600 22.57300
H  -7.61500 27.44900 21.19000
H  -6.97400 26.13300 20.08200
H  -6.38000 27.77200 19.90200
H  -1.17200 28.25300 25.29300
H  -1.88700 29.40700 26.40100
H  -2.66300 28.94300 24.78200
H  -3.93600 27.68900 30.71300
H  -0.75600 27.13700 33.86900
H  -0.62700 25.63600 33.03600
H  -2.07300 26.03900 34.05300

