158

Mg 9.08900 3.98000 27.68800
C  10.40100 2.25600 30.47500
C  7.27200 5.79000 29.87800
C  7.41600 5.29000 25.09800
C  10.55000 1.69800 25.58800
N  9.01900 4.12100 29.94100
C  9.64200 3.33100 30.88600
C  9.42300 3.82700 32.29100
C  8.21900 4.80500 32.05100
C  8.07900 4.88900 30.50800
C  6.83000 4.51300 32.71700
C  10.68800 4.55100 32.83100
C  11.08200 4.06800 34.28000
H  10.93600 5.09200 35.46500
N  7.50500 5.36500 27.52700
C  6.89400 6.03200 28.52500
C  5.98300 7.06600 28.01000
C  6.14400 6.93300 26.57800
C  7.03600 5.80200 26.33700
C  5.03600 7.86100 28.89600
C  5.46300 7.80700 25.50800
O  5.67500 7.59000 24.31000
C  4.46500 8.90200 25.92400
N  8.82700 3.43100 25.51200
C  8.23400 4.24100 24.67700
C  8.58500 3.94700 23.24500
C  9.68700 2.76600 23.36500
C  9.69800 2.66200 24.91800
C  7.43400 3.74000 22.32700
C  11.08900 3.10800 22.77200
C  11.78500 1.94500 21.98300
N  10.22800 2.28600 27.93000
C  10.80300 1.47400 26.97000
C  11.54600 0.39900 27.69400
C  11.41600 0.66600 29.07300
C  10.58200 1.75800 29.14200
C  12.29100 -0.68500 27.12700
C  11.74000 0.27800 30.38100
O  12.30300 -0.68200 30.84300
C  11.07600 1.31500 31.43200
C  10.22000 0.58400 32.42300
O  9.10700 0.15000 32.15100
O  10.86900 0.55700 33.66000
C  10.11800 -0.16400 34.74800
H  6.75700 6.47500 30.55500
H  7.01300 5.74700 24.19200
H  11.11400 1.00800 24.95700
H  9.02000 3.07900 32.97300
H  8.60600 5.74700 32.43900
H  6.75200 4.76300 33.77500
H  6.70600 3.44000 32.57100
H  5.99000 5.00400 32.22400
H  10.55800 5.62700 32.94700
H  11.57000 4.43400 32.20100
H  12.10400 3.70300 34.17600
H  10.50700 3.20400 34.61100
H  4.04500 7.81700 28.44400
H  5.38300 8.88400 28.75400
H  5.08800 7.55400 29.94000
H  3.45400 8.49800 25.98300
H  4.40600 9.56100 25.05800
H  4.83100 9.52000 26.74400
H  9.05600 4.78700 22.73400
H  9.22400 1.85100 22.99300
H  8.04000 3.42100 21.47800
H  6.85900 4.64800 22.14500
H  6.72500 2.97500 22.64300
H  11.58800 3.53600 23.64200
H  10.97900 3.94900 22.08700
H  11.06900 1.14400 22.16900
H  12.80000 1.68400 22.28000
H  11.88600 2.32900 20.96800
H  12.83000 -0.32100 26.25300
H  11.65200 -1.46800 26.72000
H  13.17900 -1.06400 27.63400
H  11.92500 1.83800 31.87100
H  9.36000 -0.85400 34.37900
H  9.55600 0.57000 35.32600
H  10.93600 -0.62700 35.30000
Mg -12.04600 16.48100 41.16900
C  -8.75700 15.19700 40.61200
C  -10.95400 19.47900 39.74300
C  -15.22300 17.48900 41.10500
C  -13.02400 13.27100 42.17600
N  -10.05500 17.16100 39.96900
C  -8.89900 16.55400 40.09400
C  -7.81100 17.40000 39.27600
C  -8.53300 18.81700 39.20500
C  -9.95400 18.49000 39.63200
C  -7.89200 19.99000 40.02000
C  -7.36100 16.69600 37.95300
C  -5.86700 16.51300 37.78300
H  -5.25000 17.06100 36.51700
N  -12.95000 18.30200 40.58200
C  -12.32000 19.43100 40.11100
C  -13.37100 20.44600 39.93100
C  -14.61700 19.89900 40.41300
C  -14.31300 18.51800 40.69600
C  -13.05400 21.76800 39.34900
C  -15.98100 20.57500 40.53000
O  -15.99600 21.81400 40.36000
C  -17.34400 19.93200 40.76300
N  -13.85500 15.48800 41.61800
C  -14.97800 16.16600 41.60000
C  -16.17200 15.27800 42.03600
C  -15.50100 13.93500 42.39400
C  -14.06100 14.20400 41.99200
C  -17.14200 15.86800 43.10800
C  -16.07900 12.71700 41.54400
C  -16.17900 11.39500 42.34800
N  -11.15600 14.58000 41.41500
C  -11.68600 13.41000 41.87900
C  -10.63800 12.45000 42.02200
C  -9.43500 13.06500 41.59100
C  -9.83600 14.40600 41.22900
C  -10.80800 11.01800 42.57300
C  -7.95900 12.99300 41.30700
O  -7.18700 12.06100 41.62600
C  -7.58300 14.30800 40.57600
C  -6.36300 14.88300 41.13300
O  -6.38800 15.65700 42.08600
O  -5.25400 14.42100 40.43700
C  -4.03600 14.67400 41.19500
H  -10.69200 20.48400 39.40600
H  -16.28000 17.74800 41.20100
H  -13.22600 12.32700 42.68600
H  -6.95300 17.66300 39.89300
H  -8.72000 19.06600 38.16100
H  -6.98700 19.78900 40.59300
H  -8.61600 20.26900 40.78600
H  -7.63800 20.88800 39.45700
H  -7.82700 17.31200 37.18300
H  -7.75400 15.68200 37.88700
H  -5.82800 15.42700 37.86800
H  -5.39400 16.99700 38.63700
H  -13.91900 22.20800 38.85300
H  -12.23800 21.76900 38.62600
H  -12.78200 22.34500 40.23300
H  -18.17900 20.61300 40.59900
H  -17.47400 19.52700 41.76700
H  -17.44700 19.15300 40.00800
H  -16.78300 15.26100 41.13300
H  -15.64000 13.69200 43.44800
H  -18.02000 16.08200 42.49800
H  -16.74600 16.79300 43.52600
H  -17.47500 15.08600 43.79100
H  -15.57100 12.58100 40.59000
H  -17.11700 12.98300 41.34400
H  -15.46000 10.65100 42.00600
H  -17.15700 10.94500 42.17600
H  -15.92400 11.48800 43.40400
H  -11.74700 11.03100 43.12600
H  -9.93500 10.70400 43.14600
H  -10.85600 10.45700 41.64000
H  -7.41000 14.08000 39.52400
H  -4.25000 14.22300 42.16400
H  -3.89100 15.74300 41.35500
H  -3.18600 14.17600 40.72900

