158

Mg 49.56300 45.01800 42.39400
C  45.94900 45.10300 42.17200
C  49.47400 41.65700 41.62800
C  52.87100 45.02700 42.20700
C  49.59400 48.45700 42.61300
N  47.79900 43.55000 41.82600
C  46.49600 43.80700 41.86600
C  45.68400 42.55700 41.66700
C  46.80900 41.48400 41.35700
C  48.13600 42.25200 41.58800
C  46.76500 40.08700 41.97400
C  44.50300 42.58100 40.59000
C  44.72500 43.40600 39.29000
H  44.83100 42.67400 37.96100
N  50.92000 43.54400 41.99000
C  50.68700 42.19700 41.75000
C  51.94600 41.56100 41.50000
C  52.99400 42.53400 41.67300
C  52.24600 43.79300 42.03400
C  52.06300 40.12000 41.21400
C  54.46100 42.26800 41.40500
O  54.83700 41.13600 41.12200
C  55.44200 43.41100 41.22600
N  51.03600 46.58900 42.17100
C  52.35200 46.33300 42.28700
C  53.21400 47.59500 42.67800
C  52.10600 48.70500 42.40800
C  50.82400 47.92600 42.44700
C  53.76200 47.60600 44.17100
C  52.24800 49.47900 41.02700
C  52.21500 50.99300 41.09600
N  48.07100 46.53200 42.44300
C  48.27300 47.89500 42.48000
C  46.97400 48.56300 42.52100
C  46.03900 47.46300 42.49300
C  46.74800 46.26300 42.40300
C  46.84200 49.99700 42.64600
C  44.61500 47.19800 42.55300
O  43.64100 48.00500 42.58200
C  44.54200 45.58800 42.45400
C  43.86100 44.78300 43.51800
O  42.76600 44.24900 43.45800
O  44.66400 44.79100 44.59000
C  44.41200 43.99000 45.80300
H  49.31900 40.59700 41.41600
H  53.90400 44.85500 42.51800
H  49.52400 49.52500 42.83000
H  45.27600 42.35700 42.65800
H  46.66000 41.34700 40.28600
H  47.18900 39.34200 41.30200
H  45.76200 39.79000 42.28100
H  47.43300 40.18200 42.83000
H  43.66500 42.94100 41.18700
H  44.31500 41.55500 40.27400
H  45.65500 43.96800 39.37800
H  43.94400 44.16500 39.24100
H  52.38000 40.01100 40.17700
H  51.11600 39.59000 41.31500
H  52.76100 39.62800 41.89100
H  55.77500 43.76800 42.20100
H  55.03700 44.26700 40.68500
H  56.38200 43.09200 40.77800
H  54.12400 47.67800 42.08300
H  52.12800 49.45000 43.20400
H  54.83000 47.80000 44.26900
H  53.69200 46.61900 44.62800
H  53.28300 48.37000 44.78300
H  51.36700 49.25200 40.42700
H  53.18100 49.22500 40.52400
H  52.46300 51.38900 40.11200
H  52.90900 51.33100 41.86600
H  51.23900 51.30400 41.46800
H  45.94800 50.33100 42.12100
H  47.69900 50.34700 42.07100
H  46.98200 50.29700 43.68500
H  44.02700 45.33300 41.52800
H  45.24700 43.30700 45.95700
H  43.53300 43.35400 45.69100
H  44.16400 44.66400 46.62400
Mg 17.29500 52.22300 26.18500
C  19.02400 50.90100 28.93300
C  14.80500 53.22900 28.42200
C  15.50500 53.32500 23.57900
C  19.60600 50.84300 23.97800
N  16.91600 52.00400 28.33900
C  17.81500 51.50000 29.26800
C  17.33900 51.69600 30.69200
C  15.85000 52.19900 30.54800
C  15.85000 52.52300 29.03000
C  14.89100 51.02600 30.70600
C  18.16200 52.75600 31.57700
C  18.24700 52.37500 33.07500
H  16.97900 51.78400 33.75300
N  15.51900 53.27900 26.08700
C  14.65700 53.55800 27.09100
C  13.59500 54.37800 26.54500
C  13.71400 54.34800 25.13200
C  14.96400 53.62400 24.88600
C  12.63400 55.09000 27.45400
C  12.77900 54.93900 24.03600
O  12.87000 54.75100 22.83300
C  11.59000 55.69900 24.43300
N  17.41100 51.92400 24.11200
C  16.61500 52.59800 23.23600
C  17.06400 52.48500 21.77500
C  18.49800 52.07500 22.05800
C  18.52900 51.56800 23.46500
C  16.18900 51.43200 21.02400
C  19.60200 53.26400 21.86400
C  20.82300 52.99100 21.03900
N  19.00800 50.95000 26.37200
C  19.80400 50.47200 25.38500
C  20.95200 49.86500 25.98600
C  20.65300 49.94000 27.37900
C  19.42200 50.62100 27.59000
C  22.08000 49.25200 25.20600
C  21.14600 49.59600 28.68200
O  22.23500 49.05800 28.89000
C  20.17600 50.30700 29.83800
C  19.68300 49.27600 30.76300
O  19.06700 48.26900 30.54700
O  20.01600 49.68800 32.04800
C  19.48600 48.90100 33.20500
H  14.06000 53.53400 29.16000
H  14.94900 53.75700 22.74400
H  20.50900 50.61500 23.40800
H  17.36300 50.78100 31.28400
H  15.59800 53.02500 31.21300
H  15.43500 50.24700 31.23900
H  14.34900 50.62600 29.84900
H  14.06500 51.36600 31.33000
H  17.78300 53.77600 31.64500
H  19.14300 52.66000 31.11100
H  18.55900 53.30600 33.54800
H  19.13000 51.74900 33.20600
H  11.75000 55.35200 26.87200
H  13.21500 55.88500 27.92100
H  12.35300 54.33100 28.18300
H  11.01300 54.94500 24.96800
H  11.05800 55.86600 23.49600
H  11.86600 56.62000 24.94500
H  16.98900 53.43200 21.24100
H  18.66000 51.25400 21.35800
H  15.10800 51.57200 21.05800
H  16.40300 50.50100 21.54900
H  16.57900 51.43600 20.00700
H  19.87800 53.71000 22.82000
H  19.01100 54.00500 21.32500
H  20.98300 53.58000 20.13600
H  20.91500 51.92000 20.85800
H  21.67500 53.17600 21.69400
H  21.89700 48.19100 25.03600
H  22.95900 49.42600 25.82700
H  22.31100 49.75200 24.26600
H  20.90200 50.96900 30.30900
H  18.56100 48.43100 32.87300
H  19.24600 49.53600 34.05800
H  20.29100 48.22100 33.48500

