158

Mg 25.87200 2.06100 29.51500
C  27.83900 1.69100 32.45000
C  23.18900 2.72100 31.58300
C  23.87600 1.81200 26.80400
C  28.51500 0.64800 27.77800
N  25.63500 2.27100 31.77700
C  26.55400 2.18000 32.72800
C  26.03000 2.62100 34.06600
C  24.47700 2.81400 33.76700
C  24.41100 2.60100 32.25000
C  23.47800 1.86600 34.46500
C  26.76100 3.87700 34.71500
C  27.53100 3.59400 35.99100
H  27.22600 4.52100 37.20700
N  23.87100 2.24900 29.25900
C  22.92400 2.58900 30.22100
C  21.63800 2.79600 29.58600
C  21.82800 2.59100 28.23100
C  23.23700 2.16600 28.05200
C  20.37600 3.15700 30.31800
C  20.81500 2.87600 27.15000
O  21.01900 2.68300 25.94600
C  19.50200 3.34300 27.50900
N  26.20000 1.51800 27.61500
C  25.18100 1.42500 26.64000
C  25.80900 1.16200 25.18700
C  27.29700 0.88900 25.59600
C  27.41500 1.12800 27.07700
C  25.09700 0.06500 24.38800
C  28.30300 1.73300 24.70500
C  29.61300 1.05000 24.12600
N  27.79100 1.36100 29.98400
C  28.69600 0.73200 29.16400
C  29.81500 0.31300 29.87500
C  29.57500 0.75900 31.19100
C  28.27600 1.28700 31.16500
C  30.92700 -0.40100 29.24900
C  30.04400 0.82400 32.56200
O  31.11300 0.51100 33.04600
C  28.93700 1.38900 33.43000
C  28.65600 0.37600 34.48700
O  27.99100 -0.65500 34.34200
O  29.30800 0.72000 35.63600
C  29.21600 -0.25500 36.75300
H  22.33000 3.02300 32.18600
H  23.21700 1.77000 25.93400
H  29.32200 0.15600 27.23100
H  26.06600 1.72600 34.68700
H  24.22300 3.82400 34.08900
H  23.18200 0.93200 33.98900
H  22.55700 2.43300 34.60200
H  23.97100 1.52200 35.37500
H  26.06600 4.65400 35.03200
H  27.50200 4.28000 34.02500
H  28.60900 3.74500 35.93400
H  27.34000 2.60300 36.40300
H  20.07000 4.20300 30.29100
H  20.57900 3.02400 31.38100
H  19.49200 2.56300 30.08600
H  18.96800 2.63300 28.13900
H  18.91300 3.45600 26.59900
H  19.73900 4.22000 28.11200
H  25.77000 2.14100 24.71000
H  27.49100 -0.18200 25.54300
H  24.37600 -0.48900 24.98800
H  25.74000 -0.55400 23.76300
H  24.45500 0.67400 23.75200
H  28.64300 2.63500 25.21500
H  27.71700 2.15400 23.88800
H  29.88000 0.28800 24.85700
H  30.41800 1.78400 24.15300
H  29.42300 0.74800 23.09600
H  31.34800 0.25300 28.48500
H  30.49200 -1.36900 29.00000
H  31.75200 -0.64200 29.91900
H  29.41700 2.22600 33.93600
H  29.94500 -0.14100 37.55500
H  29.36700 -1.24300 36.31800
H  28.19400 -0.19600 37.12700
Mg 26.52200 49.55000 26.44900
C  24.43800 50.61200 28.85200
C  28.81000 48.57500 28.74200
C  28.45500 48.40500 23.91900
C  24.36800 50.99400 24.01800
N  26.66000 49.72300 28.65600
C  25.61700 50.04500 29.44100
C  25.92200 49.92200 30.93200
C  27.42300 49.41900 30.84700
C  27.66600 49.16500 29.32100
C  28.50800 50.32800 31.53300
C  24.97600 48.93000 31.73000
C  24.54700 49.32600 33.12100
H  25.64900 49.93100 34.09100
N  28.40900 48.59700 26.33100
C  29.19200 48.30100 27.40600
C  30.38600 47.65000 26.91500
C  30.29400 47.60500 25.49300
C  29.05200 48.16900 25.18300
C  31.52600 47.31100 27.78300
C  31.13100 46.92100 24.42800
O  30.88300 46.92000 23.22400
C  32.34600 46.24900 24.83900
N  26.36400 49.65300 24.28800
C  27.34500 49.06200 23.48000
C  27.02100 49.26400 21.95000
C  25.67900 50.14000 21.96400
C  25.38000 50.18100 23.45300
C  28.05000 49.97700 21.10800
C  24.53200 49.63700 21.09100
C  23.89800 48.31400 21.53300
N  24.79000 50.68300 26.41600
C  23.97300 51.14400 25.38800
C  22.75300 51.74300 25.94000
C  22.89800 51.49700 27.35300
C  24.10100 50.89200 27.55800
C  21.70500 52.43000 25.24400
C  22.26500 51.71500 28.59500
O  21.17100 52.17100 28.82800
C  23.23300 51.18700 29.62900
C  23.43700 52.38100 30.51900
O  24.10500 53.37500 30.24300
O  22.76400 52.10900 31.70600
C  23.16300 52.95000 32.83300
H  29.49700 48.21400 29.51000
H  29.00500 48.16000 23.00900
H  23.66100 51.35400 23.26800
H  25.83800 50.92500 31.35000
H  27.47200 48.51500 31.45400
H  28.29000 51.35400 31.23400
H  29.47100 50.07400 31.09200
H  28.53100 50.01500 32.57700
H  25.41500 47.93300 31.77200
H  24.11600 48.90400 31.06100
H  24.18400 48.41000 33.58700
H  23.74800 50.06700 33.09100
H  31.59800 46.25500 28.04300
H  31.41100 47.71800 28.78800
H  32.44700 47.72900 27.37700
H  32.11200 45.49400 25.58900
H  33.11900 46.96900 25.10700
H  32.71800 45.66000 24.00000
H  26.80800 48.26700 21.56500
H  25.75800 51.21800 21.81900
H  28.79800 50.52200 21.68400
H  27.56700 50.52600 20.30000
H  28.61100 49.27200 20.49400
H  24.85300 49.51700 20.05700
H  23.78800 50.39800 20.85800
H  22.89300 48.43500 21.93900
H  24.51300 47.85600 22.30800
H  23.80400 47.59800 20.71700
H  21.51900 51.75600 24.40800
H  22.03000 53.38600 24.83200
H  20.85900 52.61600 25.90500
H  22.86600 50.38300 30.26600
H  24.10800 52.60900 33.25600
H  22.33200 52.90900 33.53700
H  23.34700 53.99400 32.57600

