158

Mg 36.03800 0.95300 30.33700
C  33.96500 2.35500 32.83800
C  38.56700 1.14000 32.66300
C  38.15900 0.16500 27.92100
C  33.45500 1.51400 28.01900
N  36.18500 1.45200 32.54500
C  35.24400 2.05500 33.33000
C  35.70500 2.27600 34.76900
C  37.22800 2.05300 34.58900
C  37.29400 1.41700 33.21100
C  38.07600 3.34200 34.81000
C  34.98000 1.21000 35.60600
C  34.57600 1.62900 37.04700
H  35.33000 2.84000 37.63100
N  38.15800 0.61600 30.27200
C  39.03500 0.73900 31.34700
C  40.31400 0.34400 30.98200
C  40.17900 0.01900 29.59400
C  38.79500 0.25200 29.19800
C  41.50700 0.24800 31.92700
C  41.25300 -0.53100 28.65000
O  41.01100 -0.81100 27.47700
C  42.69300 -0.75000 29.10300
N  35.73500 0.73000 28.25400
C  36.80900 0.39700 27.44800
C  36.40800 0.33000 26.01700
C  34.88500 0.63900 26.03100
C  34.60000 0.89500 27.53900
C  37.20000 1.35700 25.18600
C  33.85200 -0.41800 25.37300
C  32.94800 -0.01200 24.20200
N  34.10900 1.74200 30.33100
C  33.19800 1.92300 29.28100
C  31.98100 2.47900 29.87100
C  32.25000 2.70700 31.23400
C  33.56400 2.26800 31.45400
C  30.68100 2.84000 29.08200
C  31.71200 3.17300 32.46200
O  30.63200 3.67500 32.56600
C  32.78200 3.02200 33.55500
C  33.11500 4.38800 34.14700
O  33.99000 5.12100 33.79600
O  32.42300 4.56900 35.29900
C  32.74400 5.58800 36.20900
H  39.34400 1.36600 33.39500
H  38.82300 0.02400 27.06500
H  32.72100 1.86700 27.29200
H  35.35700 3.29300 34.94900
H  37.70300 1.38300 35.30600
H  38.84000 3.21900 35.57800
H  37.41800 4.18600 35.01800
H  38.66100 3.60000 33.92800
H  35.74200 0.43700 35.70400
H  34.15400 0.73900 35.07500
H  34.74300 0.72400 37.63100
H  33.51700 1.89000 37.05800
H  42.27300 -0.46400 31.62000
H  41.10600 -0.19100 32.84100
H  42.00900 1.19800 32.10700
H  43.33100 -1.09800 28.29100
H  42.59600 -1.51500 29.87400
H  43.11000 0.21600 29.38900
H  36.64100 -0.66100 25.62800
H  34.72800 1.55700 25.46600
H  37.85600 1.97000 25.80500
H  36.56200 2.03500 24.62000
H  37.89300 0.85600 24.51000
H  33.17400 -0.75600 26.15700
H  34.46300 -1.24600 25.01600
H  33.10600 1.04900 24.01300
H  31.90100 -0.30200 24.29200
H  33.30100 -0.56900 23.33300
H  30.84400 2.84100 28.00400
H  30.24400 3.81600 29.29200
H  29.92700 2.11200 29.38300
H  32.27000 2.50800 34.36900
H  33.74400 6.00200 36.07500
H  32.62500 5.02100 37.13300
H  32.01700 6.39500 36.12100
Mg -2.26300 35.03300 26.69200
C  -3.87600 32.94900 29.16500
C  -0.77600 36.64600 29.25500
C  -1.12400 37.04800 24.39300
C  -3.95900 33.05200 24.25400
N  -2.48500 34.80100 28.99000
C  -3.08500 33.89200 29.79800
C  -2.77300 34.06500 31.24500
C  -1.76600 35.27600 31.27400
C  -1.63200 35.61500 29.73700
C  -2.28200 36.44200 32.14400
C  -2.07400 32.89700 31.87900
C  -2.72100 32.20800 33.09000
H  -1.81500 31.93800 34.26400
N  -1.11800 36.72300 26.83700
C  -0.57500 37.17500 27.95400
C  0.39700 38.20500 27.61300
C  0.33900 38.32500 26.21000
C  -0.72500 37.42300 25.75100
C  1.15300 39.09900 28.62400
C  1.14900 39.12600 25.32200
O  0.95500 39.10100 24.10900
C  2.21700 40.11100 25.81200
N  -2.59800 35.10100 24.69700
C  -1.95500 36.05100 23.90900
C  -2.13500 35.78100 22.39400
C  -2.83000 34.33900 22.32200
C  -3.07900 34.08400 23.88800
C  -2.92000 36.93900 21.64300
C  -1.90800 33.27100 21.70400
C  -0.75400 32.85700 22.54600
N  -3.74500 33.40800 26.67500
C  -4.28000 32.69200 25.61100
C  -5.07400 31.60200 26.08900
C  -4.96300 31.68000 27.49000
C  -4.09500 32.75200 27.75500
C  -5.80700 30.64100 25.25600
C  -5.31400 31.00000 28.73800
O  -6.03400 30.02700 28.99400
C  -4.64400 31.81100 29.82400
C  -5.67800 32.28000 30.77300
O  -6.24100 33.37000 30.68200
O  -5.95700 31.32800 31.76700
C  -6.72000 31.87300 32.93700
H  -0.11600 37.07600 30.01100
H  -0.64000 37.56300 23.56000
H  -4.20900 32.28900 23.51400
H  -3.74200 34.30300 31.68500
H  -0.76200 35.02400 31.61500
H  -1.76300 37.36100 31.87400
H  -1.94100 36.08900 33.11700
H  -3.37100 36.49900 32.17000
H  -1.09300 33.12900 32.29500
H  -1.87000 32.05100 31.22400
H  -3.11800 31.21500 32.87700
H  -3.59600 32.75100 33.44800
H  0.68500 40.07300 28.76700
H  2.20000 39.30600 28.40100
H  1.09500 38.62200 29.60200
H  2.62500 40.76500 25.04200
H  3.04100 39.63900 26.34800
H  1.75700 40.80900 26.51100
H  -1.09000 35.65400 22.11200
H  -3.65300 34.48000 21.62200
H  -2.99600 37.78200 22.33000
H  -3.95700 36.65900 21.45800
H  -2.39000 37.45300 20.84200
H  -1.45200 33.57900 20.76400
H  -2.59300 32.43700 21.55200
H  -0.81900 31.77600 22.66300
H  -0.81400 33.43900 23.46600
H  0.20200 33.00200 22.04300
H  -5.19600 30.35300 24.40100
H  -6.69400 31.20500 24.96800
H  -6.04300 29.75800 25.84900
H  -3.91800 31.22300 30.38700
H  -6.18100 32.70200 33.39500
H  -6.91100 31.02700 33.59700
H  -7.73600 32.23300 32.77400

