158

Mg 8.16200 3.38600 27.57100
C  9.35400 2.01800 30.70300
C  6.20200 5.50800 29.45800
C  6.80600 4.39100 24.77300
C  9.63100 0.62800 26.02500
N  7.83600 3.63000 29.79400
C  8.51900 3.09300 30.87500
C  8.06000 3.76200 32.18200
C  6.94700 4.77700 31.77500
C  6.96600 4.67600 30.29700
C  5.50500 4.62600 32.39500
C  9.21500 4.53000 32.90800
C  8.93000 4.93600 34.40600
H  9.83600 4.60100 35.61200
N  6.72900 4.84400 27.18000
C  6.02500 5.61500 28.03500
C  5.09100 6.48300 27.29600
C  5.26100 6.11700 25.90600
C  6.30400 5.08500 25.86100
C  4.22200 7.55700 27.97100
C  4.47000 6.59200 24.73500
O  4.52400 6.05600 23.61100
C  3.49200 7.68100 24.94500
N  8.20000 2.63900 25.74100
C  7.54200 3.23800 24.70200
C  7.60600 2.43000 23.41000
C  8.53900 1.25200 23.76400
C  8.86200 1.50900 25.29300
C  6.20300 1.93800 22.83200
C  9.82100 1.10900 22.88400
C  9.91900 -0.08200 21.91500
N  9.28500 1.70500 28.19800
C  9.87000 0.72900 27.39700
C  10.58300 -0.26600 28.21800
C  10.47000 0.26800 29.54300
C  9.61300 1.39800 29.45400
C  11.35800 -1.45900 27.86100
C  10.96200 0.09400 30.88200
O  11.78200 -0.73300 31.30600
C  10.25500 1.25200 31.66800
C  9.49200 0.70600 32.79700
O  8.37200 0.18900 32.70200
O  10.11900 0.96700 33.93600
C  9.39300 0.49200 35.11700
H  5.66900 6.24000 30.06800
H  6.39700 4.69900 23.80800
H  10.10000 -0.19500 25.48100
H  7.68600 3.04400 32.91200
H  7.24700 5.80700 31.97200
H  5.11900 5.43700 33.01200
H  5.52600 3.70900 32.98400
H  4.83400 4.55400 31.54000
H  9.60300 5.31900 32.26300
H  10.11100 3.91100 32.92700
H  7.90400 4.60500 34.56800
H  9.02700 6.02100 34.36100
H  3.14800 7.52000 27.78900
H  4.53100 8.54600 27.63200
H  4.37200 7.47200 29.04700
H  3.15500 8.19300 24.04400
H  4.07200 8.42100 25.49700
H  2.60900 7.32700 25.47800
H  8.13800 3.01900 22.66200
H  8.00800 0.30500 23.67000
H  5.63500 1.69200 23.72900
H  6.16700 0.99900 22.28000
H  5.61100 2.75000 22.40800
H  10.70800 1.16500 23.51500
H  10.02000 1.95000 22.21900
H  9.11300 -0.80000 22.06600
H  10.81300 -0.56500 22.30700
H  10.07700 0.17200 20.86700
H  10.68700 -2.18800 28.31400
H  12.32600 -1.46700 28.36100
H  11.45200 -1.56800 26.78000
H  11.08200 1.90600 31.94600
H  8.75100 1.29900 35.46800
H  10.11300 0.34700 35.92300
H  8.99300 -0.50600 34.93400
Mg -4.62900 24.80400 25.33300
C  -3.41300 26.13300 28.35300
C  -6.67600 22.58700 27.30500
C  -5.39000 22.99000 22.59300
C  -2.48400 26.74200 23.64800
N  -4.95400 24.28800 27.62000
C  -4.36200 25.09100 28.62500
C  -5.00300 24.74100 29.92600
C  -5.98100 23.45300 29.62200
C  -5.84900 23.43100 28.09700
C  -5.53600 22.05900 30.18500
C  -5.81200 25.93900 30.56500
C  -5.62000 26.14600 32.11400
H  -4.94300 25.09800 33.01400
N  -5.96000 23.19900 24.97200
C  -6.69900 22.49400 25.88900
C  -7.57000 21.64000 25.15800
C  -7.14400 21.66100 23.79900
C  -6.14400 22.66300 23.74900
C  -8.79300 20.99700 25.80200
C  -7.64100 20.79900 22.59500
O  -7.21300 20.90500 21.42200
C  -8.75300 19.80100 22.89100
N  -4.12900 24.90900 23.30500
C  -4.42600 23.96800 22.39200
C  -3.56000 24.21800 21.13700
C  -2.85200 25.54800 21.44900
C  -3.19800 25.82800 22.88300
C  -2.63400 23.06400 20.62100
C  -3.36300 26.80200 20.66700
C  -2.34700 27.48500 19.74700
N  -3.20400 26.17100 25.81900
C  -2.47800 27.04600 25.04200
C  -1.70900 27.93700 25.76900
C  -2.05500 27.66700 27.11500
C  -2.98300 26.53900 27.09800
C  -0.70300 29.02300 25.23100
C  -1.68400 27.98500 28.49600
O  -0.93000 28.75100 29.07300
C  -2.65200 27.05800 29.29200
C  -1.87500 26.23200 30.31200
O  -1.39000 25.11400 30.10400
O  -1.89100 26.89200 31.55500
C  -1.18400 26.19600 32.64700
H  -7.33300 21.94800 27.89800
H  -5.60100 22.42100 21.68600
H  -1.73100 27.29500 23.08200
H  -4.23500 24.45300 30.64400
H  -6.98800 23.67700 29.97400
H  -5.06700 21.55300 29.34100
H  -6.34200 21.45700 30.60500
H  -4.85200 22.17800 31.02500
H  -6.89900 25.85100 30.57300
H  -5.76200 26.83100 29.94100
H  -6.59900 26.18200 32.59300
H  -5.09700 27.09500 32.23000
H  -8.99300 21.38700 26.80000
H  -8.80500 19.91400 25.92400
H  -9.54200 21.52500 25.21200
H  -9.08800 19.26800 22.00100
H  -9.53600 20.46700 23.25400
H  -8.39100 19.05700 23.60000
H  -4.33100 24.41400 20.39200
H  -1.78200 25.48400 21.25100
H  -3.03000 22.67500 19.68400
H  -2.68100 22.29200 21.38900
H  -1.61100 23.37400 20.40700
H  -3.78000 27.54200 21.35000
H  -4.26100 26.51800 20.11800
H  -2.21900 28.54300 19.97900
H  -2.74700 27.42900 18.73500
H  -1.38600 26.97300 19.77200
H  -0.12300 28.51400 24.46100
H  -0.11200 29.47600 26.02700
H  -1.25600 29.84600 24.77900
H  -3.31100 27.70000 29.87800
H  -0.19300 26.65000 32.63100
H  -0.95900 25.12900 32.62300
H  -1.60300 26.51600 33.60100

