158

Mg 25.79400 0.59200 29.29700
C  27.79400 0.20600 32.11700
C  23.13500 1.31800 31.42700
C  23.90600 0.48000 26.68300
C  28.57100 -0.39400 27.32500
N  25.57600 0.93800 31.51100
C  26.54900 0.75400 32.47000
C  26.00400 1.14500 33.86800
C  24.46500 1.32700 33.61200
C  24.39800 1.16100 32.10300
C  23.39100 0.36100 34.29300
C  26.57000 2.38600 34.51800
C  27.06000 2.11900 35.94500
H  26.70400 3.12600 36.98700
N  23.76800 0.85200 29.07700
C  22.83700 1.16700 30.03400
C  21.53600 1.34800 29.41300
C  21.70300 1.17700 28.03600
C  23.17700 0.79500 27.86800
C  20.32800 1.56100 30.31200
C  20.72400 1.31800 26.86400
O  21.04300 1.13800 25.65900
C  19.39700 1.78700 27.23700
N  26.19800 -0.04400 27.27700
C  25.22200 0.20100 26.36800
C  25.78300 -0.03300 24.90800
C  27.31900 0.18700 25.16900
C  27.36900 -0.16500 26.69700
C  25.51400 -1.43000 24.28200
C  27.92200 1.57900 24.78900
C  28.77500 1.45200 23.51900
N  27.84000 0.02400 29.62000
C  28.82100 -0.44400 28.74400
C  30.00500 -0.70600 29.45900
C  29.67000 -0.38900 30.80400
C  28.35200 -0.03300 30.81100
C  31.30200 -1.26700 28.80600
C  30.18100 -0.27700 32.14100
O  31.30700 -0.47100 32.61700
C  29.03300 0.19100 33.01300
C  28.94500 -0.83300 34.10900
O  28.76500 -2.01200 33.87700
O  29.28200 -0.33300 35.29000
C  29.37900 -1.21800 36.40200
H  22.34000 1.58400 32.12700
H  23.34000 0.46800 25.74900
H  29.41700 -0.49600 26.64300
H  26.17100 0.31800 34.55800
H  23.99500 2.28300 33.84300
H  22.63800 0.99600 34.75900
H  23.77000 -0.20100 35.14600
H  22.86400 -0.29700 33.60200
H  25.73500 3.08700 34.50800
H  27.38400 2.85100 33.96100
H  28.14900 2.11900 35.99500
H  26.73400 1.12500 36.25300
H  19.47800 0.90400 30.12300
H  19.93700 2.56600 30.15200
H  20.54400 1.61900 31.37900
H  19.00900 1.09200 27.98200
H  18.72900 1.63000 26.39000
H  19.40900 2.84800 27.48700
H  25.43300 0.83800 24.35400
H  27.78300 -0.65600 24.65700
H  25.12400 -2.05200 25.08700
H  26.32600 -1.98200 23.80900
H  24.86900 -1.29300 23.41500
H  28.59200 1.82600 25.61300
H  27.28400 2.45300 24.65600
H  29.76500 1.77800 23.83700
H  28.38000 2.15200 22.78300
H  28.75200 0.45800 23.07100
H  30.96100 -1.99900 28.07400
H  31.99400 -1.62800 29.56700
H  31.73500 -0.49600 28.16900
H  29.28000 1.15900 33.45000
H  29.46500 -2.26600 36.11400
H  28.49300 -1.27600 37.03500
H  30.26100 -0.89600 36.95700
Mg 35.45000 49.56100 26.47800
C  35.73600 47.21900 29.05000
C  34.23500 51.89300 28.82800
C  34.87700 51.59800 24.00100
C  36.33600 47.00900 24.15800
N  35.06900 49.52600 28.65700
C  35.31300 48.47700 29.50900
C  35.14800 48.93200 30.88700
C  34.26900 50.18000 30.74800
C  34.44800 50.55000 29.34700
C  32.78800 49.93300 31.08700
C  36.53400 49.13300 31.54300
C  36.74900 48.68500 33.00300
H  37.02800 49.83100 34.00200
N  34.88300 51.51700 26.51000
C  34.44300 52.33200 27.50900
C  34.29400 53.65800 26.95800
C  34.46700 53.62400 25.56300
C  34.78400 52.17600 25.29000
C  33.83000 54.74000 27.85900
C  34.34300 54.72600 24.54200
O  34.50000 54.56000 23.34700
C  34.03400 56.27700 24.91100
N  35.36000 49.20400 24.35000
C  35.20000 50.28900 23.55400
C  35.43300 49.95800 22.05200
C  36.14800 48.58800 22.16900
C  35.92900 48.26300 23.61400
C  34.03600 49.88300 21.35700
C  37.58500 48.45600 21.76600
C  37.92200 47.23900 20.81700
N  35.84600 47.46700 26.52400
C  36.26700 46.55200 25.52000
C  36.47300 45.24300 26.10800
C  36.32000 45.42300 27.53600
C  35.88300 46.82300 27.74600
C  36.74800 43.96600 25.39200
C  36.40000 44.83100 28.91400
O  36.58600 43.68500 29.30700
C  36.11000 45.97100 29.87500
C  35.03800 45.49800 30.84500
O  33.98800 44.94200 30.61700
O  35.40800 45.90500 32.10000
C  34.46500 45.64700 33.16300
H  33.97500 52.50100 29.69700
H  34.71300 52.24800 23.13900
H  36.58700 46.30800 23.35900
H  34.62000 48.11700 31.38200
H  34.72500 50.86400 31.46400
H  32.61700 48.96600 30.61300
H  32.15900 50.58800 30.48400
H  32.53300 49.98500 32.14500
H  36.87200 50.15200 31.73300
H  37.34000 48.76600 30.90800
H  37.48500 47.88100 32.99800
H  35.82900 48.18100 33.29800
H  34.51200 55.58700 27.78800
H  33.59900 54.43000 28.87800
H  32.85100 55.03600 27.48100
H  33.08100 56.43600 25.41500
H  34.08900 56.74900 23.93100
H  34.82100 56.66800 25.55600
H  36.07700 50.68600 21.55900
H  35.52300 47.95200 21.54200
H  33.24600 49.67800 22.07900
H  33.98600 49.19600 20.51300
H  33.82100 50.86100 20.92600
H  38.21100 48.34400 22.65200
H  37.92200 49.33900 21.22200
H  38.08400 47.63700 19.81500
H  37.17200 46.44800 20.81900
H  38.91500 46.83400 21.01300
H  37.72700 44.15500 24.95000
H  36.07300 43.75500 24.56300
H  36.62800 43.05800 25.98300
H  36.90300 46.34900 30.52000
H  34.39400 46.46200 33.88400
H  34.99600 44.89400 33.74500
H  33.45100 45.27400 33.02200

