158

Mg 40.15300 8.88200 30.33600
C  42.13800 10.07000 32.88600
C  38.21500 7.29200 32.64600
C  38.42600 7.29500 27.82200
C  42.65200 9.51800 27.95600
N  40.16700 8.80800 32.55300
C  41.05600 9.41400 33.43000
C  40.72700 9.24000 34.91300
C  39.56000 8.20300 34.78000
C  39.22700 8.09400 33.18800
C  39.74800 6.87800 35.57800
C  40.30500 10.56700 35.67600
C  41.20200 11.01800 36.80900
H  40.52900 11.62200 38.07100
N  38.40000 7.75300 30.26700
C  37.79100 7.23700 31.35100
C  36.57000 6.49800 30.90300
C  36.64400 6.44800 29.47700
C  37.85700 7.20300 29.13900
C  35.50000 6.01500 31.87200
C  35.74500 5.79500 28.51400
O  35.78400 5.96800 27.28700
C  34.69800 4.81900 29.11700
N  40.42500 8.53700 28.17600
C  39.60400 7.86600 27.34600
C  39.98700 7.94100 25.88200
C  41.48900 8.46900 26.00600
C  41.53000 8.87800 27.48600
C  39.94800 6.57900 25.02900
C  41.85000 9.56500 25.08100
C  41.31800 10.97300 25.35800
N  41.97700 9.63800 30.38100
C  42.87400 9.95200 29.32300
C  43.98000 10.64500 29.91300
C  43.66300 10.86800 31.29900
C  42.42000 10.19600 31.51600
C  45.27200 11.02200 29.24700
C  44.22900 11.29700 32.52100
O  45.24600 11.81600 32.83900
C  43.16000 10.98400 33.63800
C  43.95400 10.30200 34.65300
O  44.25300 9.10800 34.54800
O  44.33900 11.04400 35.76800
C  45.19600 10.45200 36.86400
H  37.47300 6.92800 33.36000
H  37.95400 6.65300 27.07500
H  43.48500 9.73500 27.28300
H  41.51100 8.75000 35.48900
H  38.59500 8.60600 35.08500
H  40.75300 6.85500 36.00100
H  39.54800 6.01900 34.93700
H  38.95600 6.95500 36.32300
H  39.30400 10.39600 36.07100
H  40.17600 11.31800 34.89700
H  41.93400 11.66100 36.32100
H  41.73400 10.09000 37.02000
H  35.40800 6.66300 32.74300
H  35.64900 5.00500 32.25400
H  34.55300 6.11000 31.34000
H  33.89400 5.42300 29.53700
H  35.14200 4.10700 29.81300
H  34.37500 4.09500 28.36900
H  39.35200 8.66200 25.36700
H  42.26500 7.70800 25.92400
H  39.48600 5.75400 25.57100
H  40.86700 6.25300 24.54200
H  39.32800 6.94500 24.21100
H  41.52400 9.24600 24.09100
H  42.93700 9.54000 25.00300
H  42.18700 11.49900 25.75300
H  40.45600 11.01300 26.02400
H  40.95000 11.45500 24.45200
H  45.29800 12.06300 28.92500
H  45.37900 10.46700 28.31500
H  46.11200 10.91200 29.93300
H  42.84900 11.98200 33.94800
H  45.07800 9.37100 36.79300
H  44.81000 10.77600 37.83100
H  46.27100 10.62900 36.82300
Mg 0.65900 43.19700 25.81200
C  2.28600 43.08900 29.11900
C  -2.06800 41.86000 27.29100
C  -0.53200 42.72100 22.76300
C  3.82700 43.71600 24.50600
N  0.22000 42.56600 27.95400
C  0.88100 42.82600 29.15600
C  -0.03800 42.76300 30.35300
C  -1.26200 42.08400 29.77700
C  -1.08900 42.14500 28.22400
C  -1.29200 40.58000 30.28000
C  -0.21400 44.18300 30.99100
C  0.45200 44.50600 32.43500
H  -0.45500 44.33600 33.69600
N  -1.09700 42.52200 25.17100
C  -2.13300 41.96600 25.86300
C  -3.27800 41.78200 24.99900
C  -2.77900 42.03500 23.65200
C  -1.42700 42.44100 23.84300
C  -4.69100 41.29300 25.38700
C  -3.60900 41.93000 22.38700
O  -3.26800 42.24300 21.27500
C  -4.97000 41.20800 22.40800
N  1.54200 43.16900 23.95300
C  0.84900 42.91000 22.81600
C  1.67700 42.98500 21.53100
C  2.92400 43.70600 22.13500
C  2.77000 43.54000 23.62800
C  1.97700 41.62600 20.86200
C  3.03200 45.23300 21.76300
C  3.42700 45.44200 20.27700
N  2.64000 43.43600 26.56800
C  3.86000 43.50700 25.89500
C  4.95800 43.55800 26.87400
C  4.35800 43.36500 28.03100
C  2.98600 43.25600 27.86800
C  6.41600 43.92500 26.69900
C  4.65100 43.00400 29.44700
O  5.72800 42.73800 29.90300
C  3.36000 43.04700 30.24200
C  3.37000 41.76500 31.01100
O  3.01800 40.66500 30.68800
O  3.96700 42.04800 32.22800
C  4.00700 41.07500 33.35800
H  -2.96900 41.57500 27.83900
H  -0.92600 42.55500 21.75800
H  4.82200 43.91100 24.10200
H  0.48400 42.18400 31.11600
H  -2.20400 42.50100 30.13200
H  -0.64000 40.22000 31.07600
H  -1.05700 39.94000 29.43000
H  -2.32600 40.40200 30.57500
H  -1.29800 44.28900 30.94100
H  0.29600 44.86100 30.30700
H  0.86900 45.51200 32.38000
H  1.28800 43.81000 32.51100
H  -5.51300 41.95900 25.12400
H  -4.72100 41.23400 26.47500
H  -4.85700 40.28600 25.00500
H  -4.83500 40.27700 22.95900
H  -5.38100 41.14700 21.40100
H  -5.61400 41.86000 22.99900
H  1.14700 43.65700 20.85600
H  3.72000 43.15800 21.63100
H  1.50900 40.80200 21.40100
H  3.04300 41.39800 20.85200
H  1.70900 41.60700 19.80500
H  3.85000 45.71900 22.29500
H  2.08800 45.77600 21.81100
H  3.45100 44.39700 19.96800
H  4.37100 45.97000 20.14200
H  2.62400 45.97200 19.76300
H  6.91000 43.76100 27.65600
H  6.52200 44.98800 26.47900
H  6.89600 43.34100 25.91400
H  3.44500 43.89700 30.91900
H  5.04000 40.72900 33.33900
H  3.28600 40.25800 33.33800
H  3.91000 41.59600 34.31000

