158

Mg 16.66100 -2.16000 27.31000
C  15.69100 -0.10400 30.03500
C  18.90400 -3.70900 29.40800
C  18.34500 -3.56800 24.54900
C  14.77700 -0.26300 25.07200
N  17.14100 -1.96200 29.54100
C  16.73500 -0.97600 30.41600
C  17.30500 -1.34200 31.84700
C  18.43600 -2.33800 31.49200
C  18.14400 -2.71700 30.10100
C  19.86600 -1.73600 31.69400
C  16.31000 -1.62600 33.00900
C  16.45800 -0.98800 34.40500
H  17.83500 -0.49100 35.05600
N  18.16500 -3.58800 27.03900
C  18.86900 -4.19700 28.05300
C  19.68800 -5.23300 27.52300
C  19.65000 -5.15600 26.06100
C  18.67800 -4.08700 25.85700
C  20.39200 -6.23800 28.41600
C  20.40400 -5.98100 25.00800
O  20.30300 -5.80700 23.77000
C  21.40900 -7.02500 25.44900
N  16.59600 -1.95500 25.28500
C  17.40100 -2.57600 24.32800
C  16.84000 -2.35800 22.82900
C  15.76800 -1.27900 22.99400
C  15.62400 -1.20300 24.57600
C  17.90900 -2.00900 21.77000
C  14.40400 -1.67000 22.26200
C  14.28100 -1.27600 20.76700
N  15.40900 -0.61900 27.48400
C  14.61100 0.06500 26.47100
C  13.84900 1.10200 27.16900
C  14.24700 0.95700 28.54900
C  15.22100 -0.01200 28.68200
C  12.78500 2.04800 26.50100
C  13.89600 1.61500 29.84700
O  13.13300 2.54000 30.15100
C  14.85600 0.88100 30.90300
C  15.68500 1.81100 31.64300
O  16.81900 2.07600 31.35800
O  14.92300 2.28500 32.70400
C  15.46600 3.35500 33.56400
H  19.61400 -4.16600 30.10200
H  18.82000 -3.88000 23.61700
H  14.13200 0.29700 24.39200
H  17.72400 -0.37300 32.11600
H  18.42800 -3.15200 32.21700
H  19.79400 -0.90100 32.39100
H  20.32800 -1.47400 30.74300
H  20.53200 -2.44400 32.18800
H  16.11900 -2.69300 33.12900
H  15.35000 -1.27500 32.62900
H  16.11600 -1.73300 35.12400
H  15.87000 -0.07900 34.53000
H  21.25200 -5.88200 28.98300
H  20.59500 -7.16200 27.87600
H  19.66800 -6.36700 29.22100
H  21.91700 -6.53400 26.27900
H  22.05500 -7.24800 24.60000
H  20.89200 -7.89400 25.85700
H  16.41500 -3.31900 22.54100
H  16.09600 -0.26600 22.76000
H  18.85800 -1.92200 22.29900
H  17.60800 -1.05300 21.34000
H  18.03600 -2.81700 21.05000
H  13.60300 -1.31300 22.90900
H  14.26600 -2.74700 22.35200
H  15.16000 -0.72700 20.43000
H  13.47700 -0.57500 20.54100
H  14.18800 -2.21500 20.22100
H  11.88500 2.22500 27.09100
H  12.34000 1.69900 25.56900
H  13.32400 2.97900 26.32600
H  14.18800 0.39000 31.61100
H  16.45900 3.01700 33.85900
H  14.87200 3.60700 34.44200
H  15.57600 4.17400 32.85300
Mg 5.46900 53.74700 40.83800
C  4.96700 50.21800 40.42300
C  8.73500 53.38300 40.14600
C  5.55800 57.05400 40.45900
C  2.06100 53.96000 41.77400
N  6.64900 51.96100 40.30700
C  6.32900 50.64600 40.32900
C  7.57000 49.78700 40.13100
C  8.75400 50.85600 40.39100
C  7.96600 52.14000 40.30500
C  9.57900 50.75700 41.70600
C  7.72300 49.07600 38.72100
C  7.58200 49.99800 37.55600
H  6.56100 49.57300 36.45700
N  6.95600 55.07400 40.36000
C  8.26800 54.73100 40.13000
C  9.07700 55.87800 39.79400
C  8.13700 56.98900 39.87800
C  6.80200 56.44600 40.13500
C  10.57700 55.84500 39.47300
C  8.52700 58.51400 39.70100
O  9.68700 58.85200 39.59600
C  7.53200 59.65500 39.66300
N  3.98400 55.28300 40.93900
C  4.31300 56.57300 40.79500
C  3.11800 57.45500 41.15600
C  1.96600 56.43300 41.29400
C  2.72300 55.14700 41.42600
C  3.30700 58.38000 42.28000
C  0.81400 56.57600 40.25200
C  -0.48400 57.12600 40.85500
N  3.76000 52.42800 41.05800
C  2.52000 52.64300 41.50300
C  1.79300 51.35200 41.65900
C  2.65300 50.35100 41.18400
C  3.87100 51.07900 40.89600
C  0.47500 51.09500 42.45100
C  2.88000 48.94300 41.01000
O  2.08800 48.00800 41.16000
C  4.42100 48.79300 40.52700
C  4.45000 48.13500 39.21600
O  3.99600 48.66000 38.21900
O  5.02300 46.88900 39.30100
C  5.16200 46.13100 38.04000
H  9.82100 53.27500 40.15100
H  5.34700 58.09400 40.20500
H  1.00400 54.09000 42.01700
H  7.65100 48.99600 40.87700
H  9.52000 50.87200 39.61500
H  9.52900 49.69200 41.93500
H  9.20700 51.35400 42.53900
H  10.63300 50.98400 41.54800
H  6.94200 48.32000 38.64300
H  8.73400 48.67100 38.76200
H  8.49200 49.78000 36.99600
H  7.55100 51.06200 37.79000
H  10.92300 54.82200 39.32600
H  11.10800 56.28100 40.32000
H  10.87500 56.22600 38.49600
H  7.23900 59.76700 40.70700
H  6.67600 59.32600 39.07500
H  7.85600 60.60300 39.23200
H  2.96000 57.99600 40.22300
H  1.49400 56.46600 42.27600
H  4.28700 58.37900 42.75700
H  2.63100 58.19200 43.11400
H  3.08300 59.39800 41.96100
H  0.68800 55.68500 39.63800
H  1.14400 57.28600 39.49400
H  -0.53800 57.46200 41.89000
H  -1.14600 56.30000 40.59500
H  -0.79900 58.03100 40.33500
H  0.54900 50.78300 43.49300
H  -0.13700 50.27400 42.07700
H  -0.07300 52.03500 42.51900
H  4.81700 48.22000 41.36600
H  4.27800 45.50600 37.92200
H  6.00700 45.44400 38.07300
H  5.23900 46.78700 37.17200

