158

Mg 36.00800 49.67200 25.27800
C  36.27100 47.55300 28.06000
C  34.66200 51.96700 27.32900
C  35.00300 51.36900 22.59300
C  36.98300 46.93500 23.33700
N  35.42900 49.72700 27.41500
C  35.70500 48.78900 28.32700
C  35.34900 49.23500 29.76700
C  34.66900 50.59800 29.55900
C  34.94600 50.80000 28.03500
C  33.12500 50.66400 29.86300
C  36.60700 49.46400 30.72800
C  36.35700 49.15600 32.20200
H  34.90000 48.96900 32.68500
N  35.19300 51.58900 24.98700
C  34.71900 52.34600 25.99600
C  34.33600 53.60000 25.40100
C  34.32600 53.39600 23.95500
C  34.80700 52.06700 23.81000
C  33.92000 54.78100 26.21600
C  33.71100 54.24600 22.84200
O  33.50600 53.90100 21.67500
C  33.44400 55.72300 23.14300
N  35.84700 49.17000 23.27500
C  35.46500 50.06700 22.32500
C  35.83400 49.58500 20.91900
C  36.38500 48.19400 21.19600
C  36.45000 48.06500 22.66800
C  34.71600 49.74700 19.81800
C  37.72200 47.79100 20.30200
C  39.00600 48.46800 20.63800
N  36.48800 47.55900 25.58600
C  36.94200 46.62800 24.65800
C  37.35000 45.44500 25.33000
C  37.07500 45.72600 26.70000
C  36.56700 47.00900 26.76300
C  37.99500 44.25200 24.70700
C  37.09500 45.25500 28.08100
O  37.59400 44.16600 28.52400
C  36.64100 46.45800 28.98900
C  35.44000 45.88500 29.64500
O  34.32300 45.98500 29.21900
O  35.76700 45.22300 30.83000
C  34.69800 44.79900 31.75600
H  34.30600 52.76700 27.98200
H  34.95000 52.06500 21.75400
H  37.26200 46.09800 22.69200
H  34.66800 48.52600 30.24000
H  35.21300 51.37200 30.10000
H  32.50700 50.67500 28.96500
H  32.70400 51.52600 30.38000
H  32.89300 49.76300 30.43000
H  37.01400 50.47400 30.67100
H  37.45100 48.84200 30.43000
H  36.70300 50.00700 32.78900
H  36.96500 48.28100 32.43200
H  32.87300 55.06600 26.12000
H  34.44000 55.67100 25.86100
H  34.20400 54.69100 27.26500
H  32.48600 55.85800 23.64500
H  33.56900 56.19100 22.16700
H  34.24300 56.14800 23.75200
H  36.66900 50.15500 20.51100
H  35.71600 47.38200 20.91200
H  34.22900 50.67100 20.13100
H  34.04000 48.90100 19.69200
H  35.28700 50.01200 18.92800
H  37.61600 48.16200 19.28300
H  37.74700 46.70300 20.36500
H  39.82100 47.74800 20.70000
H  38.90500 48.83400 21.66000
H  39.18000 49.38600 20.07600
H  38.35500 43.60000 25.50200
H  38.86500 44.38500 24.06500
H  37.20000 43.68900 24.21700
H  37.40000 46.65000 29.74800
H  34.34400 43.81000 31.46600
H  33.86000 45.49500 31.77900
H  35.13900 44.73600 32.75100
Mg -5.83100 25.29400 26.14600
C  -4.36400 26.65100 28.99000
C  -7.53900 23.14500 28.20200
C  -6.92800 23.82300 23.41900
C  -3.56500 27.24000 24.22300
N  -5.89800 24.94900 28.33100
C  -5.30900 25.67400 29.31700
C  -5.68400 25.19200 30.69800
C  -6.43900 23.83700 30.42400
C  -6.65600 23.95800 28.87100
C  -5.58000 22.55200 30.79700
C  -6.45200 26.31300 31.43700
C  -6.17000 26.67400 32.91100
H  -5.35500 25.57000 33.81600
N  -7.19500 23.80200 25.81200
C  -7.83300 23.08100 26.76100
C  -8.80600 22.19000 26.14800
C  -8.55700 22.33000 24.76400
C  -7.52000 23.35500 24.60400
C  -9.90400 21.45600 27.02800
C  -9.18600 21.49000 23.64800
O  -8.96500 21.73900 22.45000
C  -9.99100 20.27400 23.99500
N  -5.29300 25.51400 24.06100
C  -5.91900 24.75600 23.13500
C  -5.29500 24.97800 21.70700
C  -4.26000 26.11800 21.97600
C  -4.36600 26.32400 23.51000
C  -4.76000 23.71800 20.89800
C  -4.45600 27.39100 21.20400
C  -3.32900 27.76600 20.16700
N  -4.19000 26.47800 26.46800
C  -3.42000 27.26600 25.58500
C  -2.60000 28.17800 26.33800
C  -2.91900 27.96700 27.70400
C  -3.87700 26.88700 27.69200
C  -1.62700 29.08800 25.83400
C  -2.65200 28.43000 29.04000
O  -1.87100 29.30400 29.46500
C  -3.53000 27.52200 29.96000
C  -2.60900 26.58500 30.67100
O  -2.24400 25.52500 30.27400
O  -2.48800 27.01200 31.96900
C  -1.53000 26.10000 32.69800
H  -8.04700 22.42600 28.84800
H  -7.25900 23.38800 22.47300
H  -2.90800 27.94800 23.71200
H  -4.79700 24.93800 31.27800
H  -7.41800 23.73000 30.89200
H  -6.22700 22.09500 31.54600
H  -4.56700 22.79200 31.11900
H  -5.58300 21.94900 29.88900
H  -7.52900 26.15600 31.38000
H  -6.30500 27.19300 30.81200
H  -7.13500 26.77100 33.41000
H  -5.69800 27.64600 33.05200
H  -9.67700 20.39300 27.10900
H  -10.89700 21.54800 26.58700
H  -10.04500 21.78500 28.05800
H  -9.59100 19.70000 24.83100
H  -10.03600 19.64300 23.10800
H  -11.03800 20.54400 24.13900
H  -6.04700 25.49000 21.10600
H  -3.32400 25.57200 21.85700
H  -5.41600 23.60100 20.03600
H  -4.84000 22.79200 21.46700
H  -3.77100 23.67700 20.44100
H  -4.42500 28.22400 21.90600
H  -5.37100 27.32600 20.61600
H  -2.54500 27.00800 20.17400
H  -2.91400 28.71300 20.51100
H  -3.67200 28.02600 19.16500
H  -1.53800 29.84900 26.60900
H  -1.95500 29.44400 24.85700
H  -0.75200 28.47700 25.60900
H  -4.33500 28.01700 30.50400
H  -0.68100 25.99600 32.02200
H  -1.89500 25.07900 32.79900
H  -1.22400 26.54800 33.64300

