158

Mg 8.84600 3.70100 27.39700
C  10.01000 2.20000 30.28500
C  6.53600 5.37300 29.26900
C  7.33200 4.74000 24.51400
C  10.53300 1.14600 25.51500
N  8.18900 3.59400 29.62300
C  9.02800 3.14000 30.60900
C  8.72900 3.80400 31.93500
C  7.52800 4.75800 31.48200
C  7.40300 4.59500 30.03500
C  6.18000 4.67800 32.25700
C  9.83200 4.65500 32.63400
C  10.17500 4.16200 34.07000
H  10.27600 5.21400 35.21500
N  7.30600 4.95200 26.94100
C  6.49700 5.58300 27.84500
C  5.61800 6.50000 27.11500
C  5.88700 6.41300 25.73800
C  6.88800 5.29400 25.70300
C  4.71400 7.51400 27.87800
C  5.42400 7.27300 24.57500
O  5.54000 6.98600 23.37200
C  4.70800 8.68800 24.84700
N  8.87900 3.04900 25.27900
C  8.29100 3.71600 24.29500
C  8.77300 3.12400 22.91500
C  9.83700 2.08800 23.24600
C  9.81100 2.13900 24.76000
C  7.59400 2.60400 22.03200
C  11.23700 2.47500 22.80100
C  11.37800 2.56300 21.30300
N  10.16400 2.10500 27.76100
C  10.70900 1.15300 26.94000
C  11.55400 0.29000 27.74200
C  11.34800 0.68500 29.07000
C  10.44600 1.76100 29.01500
C  12.35500 -0.92600 27.30700
C  11.66900 0.37300 30.43800
O  12.40700 -0.46300 30.93900
C  10.95000 1.50700 31.30300
C  10.22500 0.87200 32.36500
O  9.07600 0.43400 32.24500
O  10.93800 0.77100 33.49900
C  10.24200 0.04300 34.56100
H  6.04800 6.17800 29.82400
H  7.05600 5.13100 23.53200
H  11.03400 0.31200 25.02000
H  8.27000 3.08300 32.61200
H  7.68000 5.82500 31.64600
H  5.47500 4.16100 31.60700
H  5.84600 5.63100 32.66900
H  6.21200 3.95900 33.07600
H  9.48900 5.66600 32.85100
H  10.65500 4.86300 31.95000
H  11.14900 3.69000 33.93800
H  9.49400 3.39400 34.43800
H  3.80000 7.42100 27.29200
H  5.05700 8.54700 27.83300
H  4.49400 7.35000 28.93300
H  4.52200 9.03100 23.82900
H  5.38400 9.38600 25.34000
H  3.81200 8.54600 25.45200
H  9.09100 4.04100 22.41900
H  9.59400 1.07900 22.91200
H  7.70000 1.53100 21.87200
H  7.74800 3.00700 21.03100
H  6.62800 2.83400 22.48100
H  11.80500 1.59200 23.09600
H  11.76600 3.35700 23.16200
H  11.72400 3.50300 20.87300
H  10.37700 2.28200 20.97600
H  11.99300 1.73700 20.94400
H  12.42300 -0.89600 26.22000
H  11.83700 -1.84400 27.58500
H  13.38000 -0.97600 27.67700
H  11.69200 2.16400 31.75500
H  10.05000 -1.02100 34.42000
H  9.36600 0.61900 34.85900
H  10.90800 -0.04700 35.41900
Mg 50.63700 46.65500 42.80900
C  47.47100 47.87800 41.71000
C  49.91500 43.73100 41.06600
C  53.80300 45.75100 43.06900
C  51.21600 49.76100 44.22500
N  48.92900 45.95400 41.36800
C  47.72500 46.54300 41.21500
C  46.68900 45.58000 40.53900
C  47.42900 44.19400 40.60600
C  48.83300 44.64200 41.02800
C  46.82500 43.15400 41.56100
C  46.41500 46.00000 39.06200
C  45.03600 45.53800 38.68300
H  44.78900 44.36900 37.73000
N  51.65400 44.82900 42.33900
C  51.22300 43.79400 41.61600
C  52.29400 42.80700 41.47000
C  53.46100 43.44500 41.93400
C  53.00200 44.71500 42.53500
C  52.18900 41.47400 40.65300
C  54.87500 42.83600 41.87400
O  54.99600 41.75400 41.30000
C  56.07400 43.41300 42.42800
N  52.33400 47.61600 43.62000
C  53.56700 47.02500 43.55300
C  54.58100 47.92600 44.16000
C  53.76700 49.17100 44.58300
C  52.37600 48.93800 44.03700
C  55.26500 47.24900 45.30900
C  54.52600 50.52700 44.18600
C  55.01400 51.53800 45.27800
N  49.59900 48.49100 42.96900
C  49.98900 49.62700 43.66200
C  48.82200 50.58300 43.68900
C  47.87100 49.86400 42.93700
C  48.39400 48.70000 42.47900
C  48.81900 51.93000 44.24900
C  46.52100 49.95900 42.46400
O  45.65100 50.85200 42.61200
C  46.20700 48.69200 41.64300
C  44.91100 48.10400 42.00600
O  44.67100 47.38500 42.96800
O  43.97700 48.43400 41.07400
C  42.58000 47.87900 41.20900
H  49.63800 42.78900 40.58800
H  54.83900 45.46100 43.25900
H  51.52700 50.71200 44.66100
H  45.89600 45.54100 41.28600
H  47.49700 43.73300 39.62000
H  47.05100 42.15000 41.20200
H  45.75500 43.31800 41.43500
H  47.13600 43.20800 42.60500
H  47.05700 45.53800 38.31200
H  46.40400 47.09000 39.05500
H  44.46400 46.31300 38.17300
H  44.37000 45.35500 39.52700
H  52.84800 41.71700 39.81900
H  51.18900 41.18400 40.33200
H  52.72000 40.60500 41.04200
H  56.15700 44.47700 42.20400
H  56.98300 42.94200 42.05400
H  55.81900 43.29600 43.48100
H  55.26800 48.11600 43.33600
H  53.63800 49.16100 45.66500
H  54.91800 46.21600 45.32900
H  55.18700 47.74200 46.27800
H  56.32600 47.20900 45.06200
H  53.83400 51.11500 43.58300
H  55.48400 50.35000 43.69700
H  55.98400 51.96000 45.01100
H  55.04800 51.10200 46.27600
H  54.26400 52.32400 45.36400
H  49.55600 52.03800 45.04500
H  47.83700 52.05900 44.70200
H  48.88000 52.65700 43.43800
H  46.07200 48.92300 40.58700
H  42.76500 46.82400 41.00300
H  41.88100 48.33000 40.50500
H  42.15600 48.04000 42.20000

