158

Mg -1.95700 34.64500 27.03800
C  -3.64700 32.80000 29.38700
C  -0.59100 36.50800 29.53600
C  -1.01700 36.81000 24.64000
C  -3.88000 32.91900 24.53400
N  -2.16700 34.67400 29.18800
C  -2.82200 33.75000 29.95900
C  -2.60800 34.00800 31.47200
C  -1.70100 35.26200 31.45900
C  -1.39500 35.43500 29.88800
C  -2.10500 36.59500 32.13300
C  -1.88600 32.82900 32.31100
C  -2.62700 32.67500 33.69200
H  -1.72300 32.52000 34.88300
N  -0.85900 36.37500 27.02000
C  -0.35600 36.97000 28.20600
C  0.49300 38.11400 27.82600
C  0.35800 38.23600 26.39900
C  -0.60200 37.16400 25.94600
C  1.32200 38.93500 28.79000
C  1.01000 39.27500 25.49300
O  0.84300 39.24700 24.25700
C  1.88600 40.37300 25.90600
N  -2.48300 34.88800 24.88600
C  -1.86700 35.85400 24.08500
C  -2.31200 35.63800 22.58300
C  -3.16500 34.35400 22.69600
C  -3.13700 33.98100 24.13500
C  -3.01000 36.85900 22.05200
C  -2.86700 33.27700 21.59500
C  -3.99500 32.96000 20.54900
N  -3.38100 33.13700 26.92600
C  -3.96200 32.48800 25.89100
C  -4.78000 31.43900 26.33300
C  -4.70400 31.50100 27.71400
C  -3.81900 32.53400 28.03600
C  -5.38700 30.44300 25.43600
C  -5.15900 30.91200 28.91400
O  -5.97200 30.05300 29.14400
C  -4.44600 31.67300 30.07500
C  -5.42900 32.39600 30.92000
O  -6.06300 33.34300 30.51400
O  -5.59100 31.73200 32.18500
C  -6.59200 32.46300 33.08000
H  -0.19300 37.03400 30.40600
H  -0.55100 37.41300 23.85700
H  -4.40300 32.49200 23.67600
H  -3.55500 34.34700 31.89300
H  -0.74100 34.99700 31.90100
H  -2.60800 37.24800 31.42000
H  -1.16400 36.94700 32.55600
H  -2.68400 36.37900 33.03100
H  -0.81300 32.99000 32.42200
H  -1.98500 31.97000 31.64700
H  -3.13700 31.71400 33.62400
H  -3.35800 33.47300 33.81600
H  2.36600 38.83400 28.49500
H  1.18600 38.62500 29.82600
H  1.07600 39.99700 28.76600
H  1.29900 41.00500 26.57200
H  2.29200 40.87300 25.02700
H  2.69600 39.97800 26.51900
H  -1.41900 35.55600 21.96300
H  -4.21000 34.64800 22.59700
H  -2.94300 37.66200 22.78600
H  -4.06600 36.64300 21.89000
H  -2.55600 37.18100 21.11500
H  -2.61900 32.32100 22.05600
H  -1.96700 33.62900 21.09000
H  -4.46700 31.99700 20.74700
H  -3.57800 32.85000 19.54800
H  -4.63900 33.83200 20.66300
H  -4.71200 30.29400 24.59300
H  -6.34200 30.69400 24.97500
H  -5.56200 29.49800 25.94900
H  -3.80600 31.00900 30.65600
H  -7.33400 33.09500 32.59300
H  -6.01400 33.11400 33.73600
H  -7.12000 31.77800 33.74300
Mg -5.45800 25.65200 25.83400
C  -3.63700 26.73200 28.66900
C  -7.63300 24.05400 27.89700
C  -6.77500 24.33000 23.11100
C  -3.41100 27.72300 23.86200
N  -5.62900 25.46200 27.99600
C  -4.77500 25.93000 28.97900
C  -5.19100 25.50000 30.32500
C  -6.30900 24.41900 30.00900
C  -6.58800 24.68800 28.52200
C  -6.00100 22.97400 30.41000
C  -5.67300 26.71400 31.13300
C  -5.22200 26.85300 32.62100
H  -4.89400 25.52700 33.46800
N  -6.96800 24.36400 25.50200
C  -7.81700 23.86900 26.51900
C  -8.93900 23.06900 25.88000
C  -8.58100 22.99700 24.49600
C  -7.39100 23.90200 24.29100
C  -10.16100 22.47100 26.69200
C  -9.34100 22.32200 23.37500
O  -8.99800 22.43900 22.19900
C  -10.54500 21.54700 23.64100
N  -4.95200 25.81800 23.76000
C  -5.72100 25.21000 22.85400
C  -5.51000 25.73700 21.39000
C  -4.47200 26.87800 21.64300
C  -4.24200 26.82900 23.19000
C  -4.99100 24.59200 20.43600
C  -4.99900 28.21700 21.07100
C  -4.78400 28.41500 19.58100
N  -3.71900 26.91800 26.12400
C  -3.04000 27.70800 25.22000
C  -2.13500 28.58400 26.05100
C  -2.28500 28.11500 27.34400
C  -3.27800 27.10500 27.37900
C  -1.17000 29.66900 25.63400
C  -1.79500 28.33700 28.68800
O  -0.90400 29.03600 29.16400
C  -2.66800 27.47100 29.63300
C  -1.74900 26.61200 30.40000
O  -1.06400 25.73000 29.99800
O  -1.91200 27.01100 31.69000
C  -1.05100 26.23800 32.61200
H  -8.21500 23.39400 28.54300
H  -7.21200 23.84900 22.23400
H  -2.89700 28.42200 23.19900
H  -4.34700 25.03600 30.83600
H  -7.30600 24.56200 30.42800
H  -6.69700 22.53800 31.12700
H  -4.99900 22.75600 30.78000
H  -6.04100 22.34000 29.52400
H  -6.72400 26.46400 31.27200
H  -5.51300 27.65500 30.60700
H  -5.93800 27.48900 33.14200
H  -4.36500 27.50500 32.45500
H  -10.11800 22.79500 27.73200
H  -10.13200 21.38400 26.76000
H  -11.12300 22.75400 26.26400
H  -11.21800 22.24400 24.14100
H  -10.40700 20.65300 24.24800
H  -10.96600 21.23100 22.68600
H  -6.43700 26.14100 20.98500
H  -3.53600 26.74900 21.10100
H  -3.96700 24.39200 20.75300
H  -4.95100 24.93900 19.40400
H  -5.70000 23.76900 20.52900
H  -4.59600 29.11300 21.54200
H  -6.07600 28.25700 21.23700
H  -4.09200 29.23500 19.38800
H  -5.62600 28.73400 18.96700
H  -4.35400 27.51300 19.14500
H  -1.30600 30.54700 26.26600
H  -1.49700 30.06700 24.67400
H  -0.12400 29.37400 25.54900
H  -3.20900 28.19700 30.24000
H  -1.38800 25.20600 32.70800
H  -1.19200 26.61000 33.62700
H  -0.02200 26.14400 32.26400

