158

Mg 16.81000 -3.33500 28.49400
C  16.09400 -1.06100 31.11200
C  18.31500 -5.38000 30.70800
C  18.07700 -5.02100 25.89800
C  15.52000 -0.86400 26.26300
N  17.24200 -3.11900 30.64300
C  16.85900 -2.20200 31.53700
C  17.18400 -2.68200 32.98700
C  18.08100 -3.96100 32.73200
C  17.87800 -4.14800 31.28600
C  19.62600 -3.81300 33.09000
C  15.89800 -3.03100 33.86300
C  15.70200 -2.27400 35.16500
H  16.83300 -1.87800 35.95700
N  17.87300 -5.04200 28.25500
C  18.36500 -5.76300 29.35200
C  18.88800 -7.03600 28.86300
C  18.82800 -6.94200 27.42000
C  18.25500 -5.64700 27.12500
C  19.36200 -8.18800 29.70100
C  19.35200 -7.96000 26.34700
O  19.32000 -7.70200 25.17300
C  19.97000 -9.23900 26.78900
N  16.61400 -3.08800 26.40400
C  17.30500 -3.89300 25.54500
C  17.11500 -3.46600 24.12900
C  16.17900 -2.23200 24.17000
C  16.03400 -2.03300 25.70700
C  18.50700 -3.25100 23.37500
C  14.84300 -2.35100 23.33500
C  13.55800 -2.04600 24.04700
N  15.84500 -1.42200 28.60800
C  15.37200 -0.53100 27.63400
C  14.76300 0.70600 28.29500
C  14.99700 0.45800 29.62600
C  15.67100 -0.81900 29.74500
C  14.15600 1.80900 27.53900
C  14.96200 1.12800 30.96800
O  14.48500 2.22000 31.20600
C  15.55600 0.09400 31.97900
C  16.53300 0.83100 32.75900
O  17.67100 1.09500 32.39700
O  15.93300 1.38700 33.82400
C  16.55000 2.45200 34.59000
H  18.70600 -6.15000 31.37800
H  18.43500 -5.58300 25.03300
H  15.08200 -0.13800 25.57500
H  17.78900 -1.90700 33.45800
H  17.61100 -4.83000 33.19200
H  20.17300 -3.65700 32.16000
H  20.01500 -4.74800 33.49200
H  19.72900 -3.03800 33.85000
H  15.68000 -4.05800 34.15700
H  15.06700 -2.76000 33.21200
H  14.90600 -2.70400 35.77300
H  15.23800 -1.35300 34.80900
H  18.76100 -9.02800 29.35500
H  19.05700 -8.05100 30.73900
H  20.42100 -8.43500 29.62200
H  20.85500 -9.24300 27.42600
H  20.26500 -9.83700 25.92600
H  19.14900 -9.79800 27.23800
H  16.60000 -4.37200 23.81300
H  16.65600 -1.37000 23.70300
H  18.67800 -2.17900 23.27300
H  18.51800 -3.70000 22.38100
H  19.30400 -3.50800 24.07200
H  14.79600 -3.33500 22.86900
H  14.88000 -1.70300 22.45900
H  13.37400 -2.60900 24.96200
H  12.78600 -2.29200 23.31800
H  13.58600 -0.97100 24.22200
H  14.47100 1.64000 26.50900
H  14.51000 2.80600 27.79900
H  13.07100 1.70500 27.53400
H  14.86900 -0.32800 32.71300
H  15.96000 3.36600 34.65800
H  17.58300 2.65700 34.30600
H  16.43900 2.18700 35.64100
Mg 41.44800 41.66000 26.63900
C  40.70000 43.93700 29.27500
C  42.88400 39.54800 29.05600
C  42.30800 39.69200 24.22300
C  40.44400 44.19400 24.33400
N  41.57200 41.72600 28.85300
C  41.12500 42.64100 29.76100
C  41.21900 42.14700 31.18300
C  41.92700 40.75200 31.04300
C  42.21500 40.67500 29.49400
C  43.21300 40.57100 31.97700
C  39.90300 42.17200 32.01300
C  39.89100 43.36700 33.10800
H  39.47300 43.03400 34.54500
N  42.41600 39.86200 26.63900
C  42.96500 39.11700 27.69100
C  43.43000 37.82200 27.19400
C  43.13400 37.79300 25.81100
C  42.62700 39.12700 25.48000
C  44.00300 36.82900 28.15900
C  43.30900 36.73600 24.75600
O  43.05400 36.88600 23.59200
C  43.85800 35.47600 25.25800
N  41.49900 42.00400 24.51600
C  41.79600 40.95500 23.81900
C  41.53300 41.18200 22.32200
C  40.60800 42.39600 22.38000
C  40.90300 42.98300 23.79800
C  42.82300 41.40800 21.49800
C  39.05900 42.13000 22.13600
C  38.45800 40.85100 22.72700
N  40.72800 43.69500 26.70100
C  40.46100 44.52700 25.69400
C  40.04900 45.81800 26.28900
C  40.18200 45.68700 27.65800
C  40.54400 44.28000 27.89400
C  39.43500 46.91200 25.53900
C  39.95400 46.28200 28.95700
O  39.57800 47.39100 29.15000
C  40.30300 45.23200 30.03900
C  41.46100 45.78600 30.71600
O  42.59700 45.60800 30.40200
O  41.10100 46.34200 31.91000
C  42.12700 46.59700 32.92900
H  43.19700 38.71500 29.69000
H  42.49500 39.18000 23.27700
H  40.04900 44.91300 23.61400
H  41.93900 42.85800 31.58700
H  41.33900 39.87700 31.32100
H  43.39800 41.41100 32.64600
H  44.03800 40.57500 31.26500
H  43.16200 39.65400 32.56400
H  39.81500 41.18200 32.46000
H  39.07500 42.43000 31.35300
H  39.11600 44.07300 32.81200
H  40.83500 43.91200 33.10800
H  44.55600 36.03500 27.65700
H  43.24700 36.43800 28.83800
H  44.74500 37.33600 28.77600
H  43.90400 34.79800 24.40600
H  43.20700 35.05200 26.02300
H  44.85800 35.67200 25.64300
H  41.12700 40.27200 21.88000
H  40.86400 43.23100 21.72800
H  42.88000 40.76100 20.62200
H  43.76600 41.28900 22.03200
H  42.91600 42.44200 21.16600
H  38.83900 42.01900 21.07500
H  38.59500 42.98600 22.62600
H  38.66300 40.02300 22.04800
H  37.40300 41.12300 22.75900
H  38.85400 40.72900 23.73500
H  38.70600 47.39700 26.18800
H  38.96000 46.57900 24.61600
H  40.23700 47.59600 25.26100
H  39.58100 44.89700 30.78300
H  42.24800 47.67900 32.98300
H  43.11700 46.17900 32.74500
H  41.71100 46.28000 33.88600

