158

Mg 8.96600 2.83900 27.29400
C  10.36500 1.50600 30.32800
C  7.12800 4.97800 29.29000
C  7.35700 3.90800 24.55300
C  10.50600 0.25000 25.53600
N  8.69200 3.09700 29.64800
C  9.54200 2.60100 30.55400
C  9.23600 3.24100 31.94000
C  8.13000 4.33200 31.53700
C  7.95000 4.11000 30.05600
C  6.87700 4.23600 32.42100
C  10.54800 3.80700 32.60400
C  11.14600 3.10300 33.85000
H  11.48400 4.04600 35.07700
N  7.51300 4.30700 26.91700
C  6.91700 5.11600 27.88000
C  6.02800 6.02800 27.18200
C  6.10000 5.78800 25.75300
C  7.03300 4.62000 25.72000
C  5.07100 7.07500 27.90400
C  5.37700 6.55800 24.62100
O  5.53800 6.25900 23.38500
C  4.56900 7.73400 24.92100
N  8.81000 2.14100 25.43500
C  8.23900 2.85400 24.40700
C  8.62100 2.34300 23.01200
C  9.54600 1.08500 23.37400
C  9.64200 1.15200 24.89000
C  7.35800 1.99800 22.13400
C  10.88300 1.02200 22.61500
C  10.83700 1.11200 21.07300
N  10.21700 1.17700 27.75200
C  10.71600 0.16700 26.95900
C  11.47500 -0.67800 27.81600
C  11.46400 -0.18000 29.12100
C  10.62800 0.92700 29.01900
C  12.21700 -1.89900 27.48900
C  11.99100 -0.37800 30.43000
O  12.65100 -1.30400 30.90000
C  11.21500 0.69800 31.30200
C  10.43400 0.03300 32.35200
O  9.33600 -0.39900 32.18700
O  11.15800 -0.07600 33.49500
C  10.42300 -0.66300 34.62800
H  6.60500 5.70500 29.91500
H  6.85200 4.27100 23.65500
H  11.08200 -0.53600 25.04400
H  8.67800 2.50500 32.51900
H  8.58800 5.28000 31.82000
H  6.49600 5.23900 32.61200
H  7.05800 3.78900 33.39900
H  6.16400 3.58800 31.91100
H  10.40700 4.81600 32.99100
H  11.26500 3.86700 31.78600
H  12.10100 2.62700 33.62500
H  10.55900 2.22500 34.12100
H  5.50800 8.05500 27.71200
H  4.94300 6.84300 28.96100
H  4.08300 7.22700 27.47000
H  5.21000 8.36200 25.54000
H  3.58200 7.45600 25.29100
H  4.39600 8.28800 23.99900
H  9.27300 3.08700 22.55500
H  9.11700 0.10200 23.17800
H  7.41300 1.14600 21.45600
H  7.24500 2.82000 21.42700
H  6.47300 1.92800 22.76700
H  11.36500 0.06000 22.79600
H  11.46500 1.86200 22.99400
H  11.39600 1.98100 20.72600
H  9.83900 0.98100 20.65400
H  11.38200 0.23600 20.72200
H  13.28600 -1.69200 27.44300
H  11.82800 -2.23800 26.52800
H  12.04300 -2.69400 28.21500
H  12.07900 1.20500 31.73200
H  9.89600 -1.54100 34.25600
H  9.66400 -0.01400 35.06500
H  11.25900 -0.92000 35.27900
Mg -11.53300 16.40700 42.40500
C  -8.14400 16.57400 41.63200
C  -11.90200 19.68000 41.50700
C  -14.90900 15.88900 42.67400
C  -10.99100 12.84500 43.10800
N  -10.17000 17.91000 41.36700
C  -8.83600 17.78500 41.41200
C  -8.21300 19.26100 41.21300
C  -9.35700 20.19600 41.56300
C  -10.58200 19.18800 41.60600
C  -9.05800 21.20600 42.81000
C  -7.62100 19.50500 39.74700
C  -6.08500 19.84600 39.61300
H  -5.27400 19.00800 38.54100
N  -13.18500 17.59900 42.09000
C  -13.13500 18.90300 41.76900
C  -14.45900 19.42200 41.70700
C  -15.37900 18.33700 41.96200
C  -14.51900 17.21600 42.27200
C  -14.77600 20.88900 41.33900
C  -16.85200 18.42900 42.02000
O  -17.30800 19.50700 41.67100
C  -17.76600 17.33800 42.41600
N  -12.79500 14.63500 42.90800
C  -14.13900 14.72000 43.03300
C  -14.74300 13.40500 43.49300
C  -13.48900 12.46200 43.53600
C  -12.36800 13.35700 43.11900
C  -15.29300 13.52000 44.96700
C  -13.59600 11.17200 42.64000
C  -13.66600 11.37800 41.16400
N  -9.94800 14.93200 42.31400
C  -9.89600 13.62100 42.70400
C  -8.47800 13.22100 42.72500
C  -7.78300 14.32900 42.26300
C  -8.72900 15.35100 42.01900
C  -7.84200 11.83900 42.98200
C  -6.47300 14.82000 41.92900
O  -5.42300 14.22100 41.87900
C  -6.68100 16.27800 41.50300
C  -5.81300 17.08600 42.33600
O  -6.02000 17.40900 43.45100
O  -4.78200 17.53600 41.61600
C  -3.86400 18.48500 42.42400
H  -12.01600 20.76500 41.55400
H  -15.99100 15.74100 42.70000
H  -10.81100 11.78800 43.31300
H  -7.43000 19.37100 41.96300
H  -9.60500 20.90000 40.76800
H  -8.00800 21.09800 43.08100
H  -9.59400 20.74500 43.64000
H  -9.47100 22.19700 42.62500
H  -8.25700 20.16100 39.15200
H  -7.75800 18.59800 39.15900
H  -5.51300 19.76500 40.53800
H  -6.10000 20.92100 39.43200
H  -15.11500 21.39400 42.24400
H  -15.49100 20.71000 40.53600
H  -13.92700 21.38400 40.87000
H  -18.74800 17.76800 42.61600
H  -17.36300 17.02400 43.37900
H  -17.79100 16.57900 41.63400
H  -15.50500 13.13500 42.76100
H  -13.24300 12.10900 44.53700
H  -15.19800 12.57200 45.49600
H  -16.30400 13.90500 44.83800
H  -14.75300 14.33000 45.45800
H  -14.45700 10.57900 42.94800
H  -12.67900 10.65300 42.92100
H  -12.84200 10.96500 40.58300
H  -13.74900 12.43900 40.92700
H  -14.63200 10.98900 40.84500
H  -6.80000 11.96600 43.27400
H  -7.87900 11.39100 41.98900
H  -8.46300 11.29400 43.69200
H  -6.43000 16.33000 40.44400
H  -4.36000 19.23400 43.04100
H  -3.30500 19.04800 41.67800
H  -3.20100 17.98100 43.12800

