158

Mg 54.43400 24.46700 44.55900
C  51.60900 26.34400 43.91700
C  52.66100 21.64300 43.64600
C  57.30500 22.80300 44.21100
C  56.15800 27.47200 45.19900
N  52.39600 24.10000 43.88400
C  51.39300 25.00700 43.65200
C  50.09000 24.30900 43.21500
C  50.38700 22.78400 43.48700
C  51.90400 22.80700 43.75800
C  49.56600 22.24400 44.63100
C  49.75900 24.60700 41.77000
C  48.33500 25.07500 41.45500
H  47.92600 25.37600 40.01400
N  54.92300 22.49300 43.94000
C  54.06700 21.47400 43.65400
C  54.77300 20.28100 43.33100
C  56.11100 20.53400 43.52900
C  56.20000 21.98300 43.90800
C  54.13600 19.01800 42.70600
C  57.25100 19.55600 43.40500
O  57.08800 18.38600 43.06800
C  58.66900 19.92700 43.84100
N  56.44200 25.13400 44.37700
C  57.48200 24.21700 44.33000
C  58.84400 24.93600 44.64200
C  58.47500 26.37800 44.79100
C  56.89400 26.34300 44.83200
C  59.64500 24.47500 45.87700
C  58.99900 27.40400 43.73000
C  59.80800 28.63800 44.34100
N  53.95000 26.45800 44.86000
C  54.71200 27.60200 45.10800
C  53.87900 28.76600 45.19300
C  52.64000 28.31100 44.73900
C  52.75500 26.89900 44.54300
C  54.20300 30.17100 45.61700
C  51.28500 28.76700 44.50400
O  50.74000 29.85600 44.59900
C  50.63600 27.50000 43.85500
C  50.06900 28.00500 42.48800
O  50.79000 28.31400 41.53400
O  48.69700 28.28700 42.58500
C  48.04300 28.92500 41.41400
H  52.13200 20.69000 43.57400
H  58.30700 22.36900 44.18400
H  56.69600 28.36700 45.52000
H  49.27800 24.68600 43.83600
H  50.24400 22.13500 42.62400
H  48.52900 22.58200 44.63400
H  49.93200 22.26800 45.65700
H  49.40400 21.18100 44.45600
H  49.94000 23.73800 41.13700
H  50.42000 25.38900 41.39600
H  48.15500 25.95300 42.07600
H  47.75800 24.19600 41.74200
H  54.36100 18.07700 43.20900
H  54.51300 19.01600 41.68400
H  53.05300 19.12100 42.65000
H  59.06700 20.75500 43.25400
H  59.20000 18.97500 43.81100
H  58.52000 20.14600 44.89800
H  59.46300 24.85000 43.74900
H  58.63000 26.80200 45.78300
H  59.11500 23.77500 46.52400
H  59.97700 25.29500 46.51300
H  60.54800 24.02500 45.46500
H  58.07700 27.78100 43.28800
H  59.57200 26.90700 42.94700
H  60.81800 28.69200 43.93400
H  59.98100 28.63900 45.41700
H  59.26600 29.55900 44.12500
H  53.69300 30.80300 44.89000
H  55.28500 30.22400 45.49900
H  53.86800 30.49400 46.60300
H  49.79200 27.23500 44.49200
H  47.71800 29.95500 41.56100
H  47.12500 28.34700 41.31500
H  48.63900 29.07000 40.51200
Mg 49.38600 45.54400 43.32400
C  46.19300 46.13000 42.32400
C  49.23800 42.42100 42.04600
C  52.66800 45.35500 43.61100
C  49.64300 49.08100 44.16500
N  47.90400 44.49700 42.13300
C  46.68300 44.93300 41.85600
C  45.91800 44.00800 40.89600
C  46.79200 42.67100 41.08300
C  48.04100 43.18300 41.80300
C  46.06400 41.56900 41.90200
C  45.85000 44.58500 39.38100
C  44.47600 44.60600 38.76900
H  44.30800 43.54600 37.64800
N  50.71300 44.07500 43.04600
C  50.45100 42.81600 42.48800
C  51.68200 42.00100 42.48600
C  52.71600 42.80300 43.06100
C  52.08200 44.15000 43.28400
C  51.72500 40.48700 42.10600
C  54.13600 42.37900 43.24400
O  54.47600 41.20900 42.88800
C  55.25000 43.20700 43.82600
N  50.88900 47.05400 43.72800
C  52.19500 46.66400 43.74800
C  53.17200 47.80600 43.92200
C  52.19400 48.91700 44.41300
C  50.82400 48.35300 44.09300
C  54.35900 47.66500 45.01100
C  52.42200 50.35600 43.79600
C  52.43500 51.43200 44.83200
N  48.11700 47.21600 43.42900
C  48.31600 48.52500 43.94000
C  47.07200 49.27600 43.79600
C  46.18300 48.40100 43.22200
C  46.91400 47.17900 42.98600
C  46.87700 50.68700 44.27500
C  44.84400 48.15900 42.69200
O  43.94200 48.93900 42.61800
C  44.79300 46.63600 42.16100
C  43.77400 46.11100 43.17100
O  43.97900 45.87600 44.40000
O  42.59300 45.87700 42.52000
C  41.67500 44.97200 43.18700
H  49.10700 41.40500 41.66700
H  53.74500 45.18000 43.63800
H  49.78500 50.09100 44.55300
H  44.90900 43.73300 41.20500
H  47.05500 42.32600 40.08300
H  44.97800 41.55500 41.80500
H  46.17000 41.46500 42.98200
H  46.38800 40.65400 41.40600
H  46.54800 44.09700 38.70000
H  46.08800 45.64800 39.38500
H  44.36600 45.57900 38.28900
H  43.60800 44.60100 39.42900
H  52.41100 40.26300 41.28900
H  50.77400 40.05400 41.79600
H  52.13800 39.91400 42.93600
H  56.09200 42.53600 44.00000
H  54.94400 43.43900 44.84600
H  55.55500 44.05600 43.21400
H  53.55000 48.06800 42.93400
H  52.30400 48.91800 45.49800
H  54.51100 46.66000 45.40300
H  54.17600 48.35000 45.83900
H  55.29500 47.98700 44.55500
H  51.71600 50.67900 43.03200
H  53.40400 50.37000 43.32400
H  53.45400 51.81800 44.86800
H  52.16500 51.15200 45.85000
H  51.75200 52.13300 44.35100
H  47.60700 51.09500 44.97500
H  45.96200 50.60800 44.86200
H  46.73800 51.29500 43.38000
H  44.38600 46.53900 41.15500
H  41.17800 45.37100 44.07200
H  42.38500 44.17600 43.40900
H  40.94100 44.51200 42.52500

