158

Mg 1.87300 -1.96500 44.66900
C  5.33500 -1.23400 44.22300
C  1.31100 0.97300 42.87500
C  -1.26800 -2.81300 44.53400
C  2.83900 -5.22700 45.52200
N  3.17800 -0.35100 43.75600
C  4.50800 -0.29800 43.62100
C  4.97900 0.89600 42.76000
C  3.73100 1.79700 42.80600
C  2.64300 0.78600 43.20700
C  3.83800 3.05100 43.70500
C  5.51500 0.49200 41.35700
C  6.59600 1.26600 40.72800
H  6.36900 1.89200 39.33700
N  0.23400 -0.94100 43.92100
C  0.20000 0.20400 43.13100
C  -1.13900 0.45500 42.69500
C  -1.90000 -0.62400 43.17900
C  -0.99200 -1.54400 43.95800
C  -1.51900 1.64900 41.89800
C  -3.40400 -0.60100 43.23800
O  -3.97300 0.19000 42.54700
C  -4.25500 -1.47900 44.05900
N  0.96700 -3.84300 44.80500
C  -0.39800 -3.84400 44.88200
C  -0.85900 -5.21500 45.52500
C  0.46500 -6.01700 45.81500
C  1.50300 -5.02100 45.35200
C  -1.78400 -5.10000 46.76200
C  0.55900 -7.43100 45.02100
C  0.37000 -8.65900 45.90000
N  3.63100 -3.05400 44.93500
C  3.90000 -4.31300 45.31700
C  5.28500 -4.47500 45.61200
C  5.88400 -3.23800 45.24400
C  4.83700 -2.42700 44.81100
C  5.96400 -5.76100 46.12400
C  7.15100 -2.48900 45.22300
O  8.27000 -2.80600 45.65300
C  6.78900 -1.18000 44.47100
C  7.33800 0.07300 45.17000
O  7.19900 0.41000 46.35000
O  7.91400 0.76100 44.18500
C  8.47200 2.07700 44.43300
H  1.27500 1.85500 42.23300
H  -2.31700 -3.08400 44.67100
H  3.16500 -6.13100 46.04000
H  5.80500 1.44400 43.21200
H  3.64900 2.26000 41.82300
H  2.82100 3.24100 44.04900
H  4.11500 3.96700 43.18300
H  4.59200 2.95600 44.48700
H  4.68300 0.60200 40.66200
H  5.93900 -0.51000 41.43100
H  7.35200 0.50500 40.53500
H  6.90700 2.04400 41.42600
H  -0.71900 2.37300 41.74000
H  -2.28200 2.09300 42.53900
H  -1.76400 1.36300 40.87600
H  -4.27900 -2.50400 43.69000
H  -5.26300 -1.10000 44.22500
H  -3.95600 -1.50700 45.10600
H  -1.37500 -5.68800 44.69000
H  0.53700 -6.11400 46.89900
H  -2.76300 -5.39500 46.38500
H  -1.83400 -4.07900 47.14200
H  -1.46700 -5.75500 47.57400
H  1.54300 -7.58500 44.57800
H  -0.14600 -7.45600 44.19000
H  1.26700 -9.27300 45.98300
H  -0.59600 -9.13200 45.72600
H  0.16800 -8.31000 46.91200
H  6.49200 -5.48800 47.03800
H  6.54800 -6.19900 45.31500
H  5.15500 -6.44600 46.37800
H  7.32100 -1.29800 43.52700
H  7.59300 2.70700 44.56600
H  8.98600 2.39800 43.52700
H  9.19200 2.16100 45.24700
Mg 1.71600 41.58200 25.24500
C  2.75100 41.62400 28.62900
C  -1.40100 40.49300 26.41700
C  1.00700 40.86600 22.09100
C  5.10500 42.34800 24.36400
N  0.82300 40.99500 27.28300
C  1.40000 41.21200 28.55500
C  0.32200 41.19100 29.61300
C  -0.87900 40.59700 28.85500
C  -0.47000 40.72100 27.38800
C  -1.27700 39.12300 29.38200
C  -0.03000 42.52400 30.36800
C  -0.21400 42.36100 31.85000
H  -1.51900 41.67700 32.32600
N  0.03100 40.82700 24.34100
C  -1.17500 40.54000 25.00700
C  -2.06700 40.00300 23.98500
C  -1.36600 40.05800 22.73500
C  -0.04200 40.62200 23.02200
C  -3.54500 39.44800 24.28300
C  -1.85800 39.48100 21.43500
O  -1.05900 39.19400 20.57600
C  -3.22500 39.05800 21.16900
N  2.92700 41.62800 23.60100
C  2.26000 41.44600 22.35500
C  3.13300 41.93200 21.15100
C  4.44100 42.53100 21.92700
C  4.14800 42.13300 23.37100
C  3.31900 40.94200 20.02800
C  4.47600 44.02300 21.76200
C  4.87300 44.45700 20.34800
N  3.58400 42.04700 26.22100
C  4.87300 42.29700 25.76300
C  5.70000 42.63600 26.89300
C  4.90800 42.44900 28.05200
C  3.60100 42.07000 27.57200
C  7.17400 42.93600 26.95400
C  4.91000 42.35800 29.53000
O  5.81700 42.56700 30.30900
C  3.55300 41.88500 29.97500
C  3.85000 40.63700 30.90300
O  4.20500 39.49500 30.53900
O  3.51500 41.01900 32.26100
C  3.64200 39.98200 33.21200
H  -2.42800 40.30400 26.73900
H  0.67900 40.78200 21.05300
H  6.09400 42.65000 24.01400
H  0.73500 40.45800 30.30700
H  -1.83100 41.12500 28.91500
H  -0.85700 38.86600 30.35400
H  -0.88300 38.36200 28.70700
H  -2.35300 38.97300 29.28900
H  -0.92900 42.95100 29.92300
H  0.71400 43.31200 30.25000
H  -0.11000 43.28400 32.42000
H  0.60200 41.72800 32.19800
H  -4.23600 39.66900 23.46900
H  -3.99500 39.77500 25.22000
H  -3.59400 38.36100 24.33700
H  -3.26600 38.34500 20.34500
H  -3.79500 39.96600 20.97000
H  -3.57400 38.43300 21.99000
H  2.42900 42.65100 20.73400
H  5.37700 42.08700 21.58900
H  3.16200 39.90400 20.32200
H  4.33200 40.86700 19.63300
H  2.57800 41.17500 19.26300
H  5.18100 44.52400 22.42500
H  3.49800 44.37700 22.08900
H  4.83700 43.60700 19.66600
H  5.89500 44.83100 20.40700
H  4.14200 45.18100 19.98800
H  7.73100 42.62200 26.07100
H  7.60100 42.55600 27.88200
H  7.25600 44.01200 27.10800
H  3.15700 42.77600 30.46200
H  4.57500 39.43900 33.06000
H  2.81300 39.29100 33.06200
H  3.48600 40.39500 34.20800

