158

Mg 47.03600 34.57700 27.90400
C  45.23800 32.59800 30.34600
C  47.15300 37.08500 30.33500
C  48.05900 36.75000 25.50300
C  46.18000 32.19600 25.49700
N  46.36800 34.75900 30.10200
C  45.74800 33.80300 30.89300
C  45.86200 34.34500 32.37200
C  45.95600 35.88900 32.20900
C  46.51300 35.93000 30.81000
C  44.54600 36.63100 32.41400
C  47.16000 33.75200 33.04700
C  47.08000 33.46500 34.58900
H  46.01800 34.28900 35.39600
N  47.54300 36.59700 27.93200
C  47.60200 37.40200 29.00500
C  48.21800 38.61100 28.63500
C  48.64200 38.48700 27.28900
C  48.10000 37.21100 26.83600
C  48.43400 39.76900 29.58900
C  49.37400 39.51600 26.29700
O  49.76200 39.30000 25.17200
C  49.71800 40.86100 26.77000
N  47.04100 34.49300 25.71400
C  47.48800 35.52500 25.00000
C  47.40800 35.09500 23.49400
C  47.19500 33.56100 23.55900
C  46.69500 33.39300 24.99400
C  46.33700 35.81700 22.62700
C  48.55000 32.78600 23.39900
C  48.48700 31.66200 22.33900
N  46.14300 32.71600 27.94200
C  45.84400 31.89600 26.85200
C  45.24100 30.60300 27.38100
C  44.97300 30.91200 28.72700
C  45.48600 32.23700 29.03400
C  44.83600 29.30800 26.60100
C  44.38000 30.39200 29.87100
O  43.98800 29.22400 30.11300
C  44.45500 31.41300 30.95900
C  44.74500 30.95100 32.34500
O  45.88800 30.63100 32.65300
O  43.62400 31.10900 33.12500
C  43.86900 30.79800 34.56200
H  47.29000 37.84100 31.11100
H  48.41100 37.44800 24.74100
H  46.10900 31.44200 24.71000
H  44.90100 34.07900 32.81200
H  46.72000 36.23200 32.90600
H  44.56700 37.32300 33.25500
H  43.77700 35.86500 32.51800
H  44.41400 37.21700 31.50500
H  47.96400 34.47500 32.90200
H  47.29700 32.80400 32.52700
H  48.05200 33.64600 35.04600
H  46.92700 32.40300 34.77700
H  48.37400 39.40800 30.61500
H  47.53300 40.36800 29.45400
H  49.28200 40.45200 29.53000
H  50.56100 40.77700 27.45600
H  48.90500 41.32400 27.32900
H  50.03000 41.62800 26.06100
H  48.39200 35.34300 23.09700
H  46.42700 33.20000 22.87500
H  45.69200 36.35700 23.32000
H  45.79800 35.09700 22.01200
H  46.84100 36.53300 21.97700
H  48.86300 32.29000 24.31800
H  49.36000 33.47500 23.15900
H  49.39100 31.54900 21.73900
H  47.56200 31.64400 21.76300
H  48.45200 30.81700 23.02600
H  45.61100 29.10400 25.86200
H  43.94600 29.34500 25.97300
H  44.75700 28.52700 27.35800
H  43.42100 31.75500 30.99300
H  43.01700 30.32600 35.05300
H  44.10700 31.76300 35.00800
H  44.69500 30.08900 34.62000
Mg -10.10100 40.63600 42.89700
C  -9.43800 37.28300 41.87500
C  -7.12900 41.60800 41.51600
C  -11.16800 43.93200 42.95300
C  -13.36300 39.56100 43.69000
N  -8.52700 39.54400 41.77800
C  -8.47200 38.19500 41.45400
C  -7.12000 37.80300 40.76000
C  -6.36200 39.26000 40.89800
C  -7.36900 40.18400 41.45900
C  -5.02300 39.08500 41.67700
C  -7.31000 37.40400 39.22800
C  -6.65700 36.06000 38.94900
H  -5.73500 36.08200 37.72000
N  -9.30400 42.54300 42.33600
C  -7.99000 42.68700 41.82100
C  -7.74200 44.12700 41.66500
C  -8.92100 44.85300 42.07400
C  -9.87400 43.79000 42.46900
C  -6.41300 44.71500 41.14100
C  -9.11500 46.33500 42.03400
O  -8.20200 47.11600 41.70900
C  -10.43600 47.02900 42.51000
N  -11.99400 41.57000 43.25300
C  -12.09900 42.95500 43.29300
C  -13.60700 43.31400 43.71100
C  -14.16600 41.99300 44.24100
C  -13.14000 40.98000 43.68300
C  -13.76300 44.55500 44.62000
C  -15.63500 41.76300 43.61700
C  -15.74500 41.32900 42.13200
N  -11.22600 38.78800 42.94700
C  -12.49800 38.54100 43.27600
C  -12.72600 37.10300 43.40600
C  -11.50700 36.57300 42.85600
C  -10.66900 37.68100 42.52300
C  -13.96500 36.51000 43.77900
C  -10.89400 35.29800 42.43500
O  -11.22300 34.12200 42.48700
C  -9.59000 35.82300 41.75300
C  -8.56800 35.03400 42.44400
O  -8.03400 35.25400 43.49100
O  -8.23500 33.95600 41.65300
C  -7.26000 33.05600 42.28200
H  -6.09000 41.82200 41.25500
H  -11.66500 44.90100 42.86800
H  -14.29600 39.27800 44.18200
H  -6.55400 37.04200 41.29600
H  -6.06400 39.58300 39.90000
H  -4.73700 38.05800 41.90300
H  -5.07000 39.58900 42.64200
H  -4.18400 39.59800 41.20700
H  -6.98600 38.07500 38.43200
H  -8.38800 37.25200 39.18300
H  -7.43300 35.35600 38.65000
H  -6.02900 35.77900 39.79400
H  -6.44800 45.49500 40.38100
H  -5.97300 43.81900 40.70400
H  -5.63900 44.85200 41.89600
H  -10.31400 48.09000 42.29100
H  -10.72700 46.79600 43.53400
H  -11.18700 46.58700 41.85400
H  -14.13800 43.52200 42.78200
H  -14.30600 41.97300 45.32200
H  -12.76200 44.91600 44.85400
H  -14.28500 44.36700 45.55900
H  -14.32800 45.33900 44.11600
H  -16.10700 42.73900 43.50100
H  -16.19000 41.22400 44.38500
H  -14.74200 41.28300 41.70700
H  -16.29000 42.05500 41.53000
H  -16.17700 40.33000 42.19200
H  -13.81400 35.55100 44.27500
H  -14.75200 36.40600 43.03200
H  -14.51800 37.14400 44.47200
H  -9.62900 35.61500 40.68400
H  -7.59500 32.61100 43.21900
H  -6.36200 33.61700 42.54000
H  -6.94500 32.32800 41.53400

