158

Mg 52.48500 23.54500 43.89100
C  49.94500 25.83400 43.41900
C  50.51900 21.16700 42.40000
C  55.15900 21.54500 43.56700
C  54.62800 26.22700 45.00800
N  50.49400 23.59900 42.94400
C  49.60300 24.61800 42.90500
C  48.43000 24.28500 41.99400
C  48.43900 22.70600 42.02500
C  49.92000 22.45100 42.56500
C  47.34500 22.05900 42.87000
C  48.55700 25.10200 40.60100
C  48.73700 24.32400 39.33100
H  49.12300 25.11000 38.03800
N  52.77600 21.64200 43.15300
C  51.80600 20.79300 42.67700
C  52.38200 19.49800 42.28400
C  53.74300 19.56200 42.70100
C  54.00200 20.95600 43.10100
C  51.62000 18.36800 41.74900
C  54.78600 18.49100 42.58500
O  54.45400 17.39300 42.09800
C  56.17400 18.53100 43.03900
N  54.54600 23.91200 44.11900
C  55.39600 22.84200 43.99400
C  56.79300 23.28200 44.52800
C  56.69700 24.78700 44.77000
C  55.24400 25.02000 44.56500
C  57.16400 22.48500 45.83300
C  57.63800 25.62000 43.73500
C  58.64500 26.58300 44.33900
N  52.33200 25.52600 44.29600
C  53.20200 26.48800 44.87800
C  52.50700 27.72900 45.26200
C  51.23300 27.50000 44.63100
C  51.19900 26.12900 44.10500
C  53.07800 28.96300 46.00700
C  49.92300 28.11800 44.31900
O  49.58600 29.26100 44.55900
C  49.11000 27.06000 43.54100
C  48.77100 27.69400 42.22200
O  49.67800 28.06400 41.42400
O  47.41200 27.78200 41.98700
C  46.96400 28.14000 40.61600
H  50.02100 20.46200 41.73000
H  56.04700 20.91600 43.65000
H  55.22900 27.00900 45.47600
H  47.49700 24.72500 42.34400
H  48.32400 22.28100 41.02800
H  47.61700 21.86000 43.90700
H  46.87200 21.20100 42.39100
H  46.53900 22.79200 42.90400
H  49.32200 25.87800 40.56200
H  47.54600 25.50700 40.54300
H  47.76300 23.90700 39.07200
H  49.54500 23.62100 39.53400
H  51.39000 18.60000 40.71000
H  50.69400 18.36800 42.32500
H  52.05300 17.37800 41.89300
H  56.16200 18.84700 44.08200
H  56.62700 19.21000 42.31600
H  56.66900 17.56000 43.04300
H  57.54400 23.03200 43.77800
H  56.99800 25.07400 45.77700
H  56.33600 21.82000 46.07800
H  57.32000 23.16800 46.66800
H  58.12900 22.02600 45.61700
H  56.94500 26.19000 43.11600
H  58.13400 24.97500 43.00900
H  58.77800 26.53000 45.41900
H  58.26700 27.58800 44.15200
H  59.61700 26.47500 43.85600
H  54.15900 28.98100 45.87000
H  52.77700 28.87100 47.05000
H  52.62000 29.92700 45.78500
H  48.20000 26.88200 44.11500
H  46.47400 29.11200 40.67400
H  46.18400 27.45400 40.28400
H  47.63100 28.13000 39.75400
Mg 46.42900 16.28300 28.21700
C  44.09800 15.80600 30.77900
C  48.48300 17.64600 30.57800
C  48.28200 17.26200 25.66700
C  44.06700 14.92700 25.93300
N  46.25400 16.71100 30.39900
C  45.25500 16.40300 31.18800
C  45.55400 16.82100 32.64800
C  46.86800 17.61300 32.53200
C  47.28700 17.26900 31.09000
C  46.70300 19.15500 32.80400
C  45.74500 15.55400 33.53000
C  46.45300 15.71400 34.91400
H  46.03400 16.83500 35.88500
N  48.18100 17.23500 28.12100
C  48.94700 17.61900 29.19100
C  50.19600 18.23300 28.70200
C  50.18800 18.12000 27.25500
C  48.86200 17.49000 26.93900
C  51.21400 18.78100 29.67600
C  51.24900 18.45500 26.29300
O  51.14400 18.16800 25.09400
C  52.50000 19.16800 26.73500
N  46.17300 16.16500 26.05600
C  47.10100 16.65600 25.25700
C  46.67300 16.46600 23.75100
C  45.44100 15.54700 23.90100
C  45.23600 15.46100 25.37100
C  46.44700 17.81300 23.09600
C  45.58400 14.11800 23.29200
C  44.55500 13.62500 22.38200
N  44.48900 15.54800 28.25800
C  43.65900 15.05300 27.28400
C  42.37300 14.75600 27.91600
C  42.46700 15.02400 29.29900
C  43.78200 15.47700 29.46300
C  41.25200 14.19700 27.12200
C  41.89300 14.97600 30.56600
O  40.83000 14.54700 30.93200
C  42.94400 15.54100 31.59000
C  42.31600 16.61400 32.35600
O  42.05600 17.75300 31.95700
O  42.14700 16.17800 33.64500
C  41.91000 17.26000 34.52200
H  49.08700 18.13300 31.34700
H  48.85700 17.48200 24.76500
H  43.33100 14.57200 25.20900
H  44.80700 17.53600 32.99400
H  47.69700 17.23600 33.13100
H  47.33700 19.35800 33.66700
H  45.65400 19.35100 33.02100
H  47.05500 19.70400 31.93000
H  46.02900 14.70800 32.90400
H  44.77300 15.40000 33.99900
H  47.51100 15.84900 34.69000
H  46.26400 14.74800 35.38300
H  51.85600 19.55200 29.25100
H  51.82800 17.93600 29.98700
H  50.66900 19.35800 30.42300
H  53.14100 18.73200 27.50200
H  52.05200 20.09000 27.10600
H  53.08800 19.35900 25.83800
H  47.53400 16.00300 23.27000
H  44.51200 15.89300 23.45000
H  45.48600 17.97800 22.61000
H  47.26800 17.97400 22.39700
H  46.60100 18.51300 23.91700
H  45.72500 13.37600 24.07800
H  46.59300 13.98400 22.90100
H  44.30700 12.61400 22.70200
H  44.85300 13.49500 21.34200
H  43.63300 14.19500 22.50400
H  40.28900 14.43000 27.57600
H  41.43500 13.12300 27.06900
H  41.27400 14.61100 26.11400
H  43.04100 14.72200 32.30300
H  42.72400 17.97700 34.62600
H  41.84400 16.78200 35.50000
H  40.94200 17.72000 34.32500

