158

Mg 49.66100 35.20800 28.01000
C  47.68100 33.65500 30.53600
C  49.86800 37.98900 30.01700
C  51.41900 36.70600 25.50400
C  48.98900 32.46800 25.90500
N  48.89200 35.64700 30.13100
C  48.27700 34.86500 31.00600
C  48.37200 35.41300 32.42400
C  48.78300 36.91900 32.13900
C  49.24800 36.87300 30.67300
C  47.75900 38.05900 32.63000
C  49.51500 34.58400 33.10700
C  49.48800 34.36800 34.61600
H  48.56800 35.21600 35.48700
N  50.57000 37.06600 27.86600
C  50.44700 38.08900 28.75100
C  51.12300 39.32200 28.19400
C  51.71400 38.92800 26.95100
C  51.20700 37.50000 26.67500
C  51.23500 40.66100 29.06500
C  52.73900 39.62700 26.03800
O  53.33800 39.08700 25.14100
C  53.28200 41.00200 26.43300
N  49.89000 34.75700 25.87000
C  50.90000 35.42700 25.17700
C  51.50100 34.57700 24.01100
C  50.68200 33.26700 24.04700
C  49.78900 33.45900 25.32000
C  51.45200 35.40500 22.66600
C  51.57400 31.98500 24.07900
C  50.98000 30.78900 23.36700
N  48.57500 33.44000 28.11000
C  48.35800 32.46900 27.16400
C  47.37200 31.59900 27.68000
C  47.08800 32.03300 29.02600
C  47.86100 33.15400 29.18100
C  46.91900 30.29600 26.95300
C  46.30400 31.71800 30.13400
O  45.50000 30.81100 30.30300
C  46.72800 32.73700 31.24300
C  47.48000 32.04600 32.34100
O  48.38600 31.25800 32.05700
O  47.02600 32.26400 33.57500
C  47.37500 31.21200 34.58000
H  49.93600 38.86600 30.66500
H  51.97700 37.13000 24.66600
H  48.78800 31.59200 25.28500
H  47.43300 35.25100 32.95400
H  49.66800 37.15500 32.73100
H  48.08700 38.43000 33.60100
H  46.74800 37.66200 32.73200
H  47.80800 38.88500 31.92100
H  50.40800 35.20600 33.04700
H  49.60600 33.63900 32.57200
H  50.49400 34.51100 35.01200
H  49.17500 33.34200 34.81200
H  50.65300 40.72200 29.98400
H  50.81100 41.41400 28.40000
H  52.26700 40.84600 29.36300
H  52.50700 41.71100 26.72400
H  53.78700 41.39600 25.55100
H  53.80300 40.70300 27.34200
H  52.54300 34.49400 24.32000
H  50.02800 33.21100 23.17600
H  50.88300 34.78800 21.97000
H  52.48500 35.60500 22.38100
H  50.98000 36.38200 22.76600
H  51.68200 31.75900 25.14000
H  52.58300 32.10400 23.68400
H  51.75700 30.24700 22.82900
H  50.11700 31.09200 22.77300
H  50.60100 30.16400 24.17500
H  47.72100 29.93200 26.31100
H  45.97000 30.53000 26.46900
H  46.74800 29.56700 27.74400
H  45.85000 33.28700 31.58300
H  47.08100 30.21100 34.26500
H  46.99200 31.47200 35.56800
H  48.45400 31.14200 34.71300
Mg 36.79100 49.03300 25.05200
C  37.05800 46.97800 28.00700
C  34.87900 51.12000 26.85000
C  35.87400 50.26000 22.07900
C  38.17600 46.24900 23.35800
N  36.07100 49.02400 27.20100
C  36.36800 48.22000 28.23700
C  36.01600 48.73000 29.63000
C  35.15400 50.03200 29.11700
C  35.33800 50.00700 27.62700
C  33.62700 50.08500 29.55400
C  37.24400 49.17300 30.44300
C  36.91400 49.19000 31.97400
H  35.47000 48.96300 32.47400
N  35.68700 50.64100 24.56800
C  34.95500 51.41700 25.48200
C  34.51100 52.58900 24.77200
C  34.69400 52.35000 23.36000
C  35.41500 51.07000 23.23600
C  33.86300 53.83900 25.48900
C  34.14300 53.14100 22.20300
O  34.42100 52.71800 21.08400
C  33.31300 54.38400 22.41500
N  37.15900 48.44800 23.03800
C  36.56500 49.08800 21.98400
C  36.80800 48.38900 20.60700
C  37.62800 47.12500 21.03800
C  37.67600 47.28800 22.56300
C  35.60600 48.17300 19.58600
C  39.07800 47.05900 20.45300
C  39.95700 48.24700 20.63800
N  37.53000 47.05800 25.56400
C  38.10400 46.11800 24.73800
C  38.42200 44.95000 25.57000
C  38.06900 45.24200 26.89100
C  37.54300 46.53700 26.82500
C  39.08400 43.61300 25.10800
C  38.00500 44.74000 28.30600
O  38.31800 43.62200 28.76000
C  37.25200 45.95000 29.05500
C  35.98400 45.47200 29.66800
O  34.96000 45.12000 29.10300
O  36.22200 45.27500 31.01000
C  35.25300 44.51900 31.75600
H  34.36400 51.86000 27.46700
H  35.71000 50.63300 21.06600
H  38.48300 45.32900 22.85700
H  35.47800 47.94600 30.16300
H  35.75000 50.90700 29.37800
H  33.04500 49.82000 28.67200
H  33.32300 51.04900 29.96200
H  33.46000 49.36800 30.35800
H  37.54700 50.16100 30.09800
H  38.13600 48.60400 30.18300
H  37.11000 50.21500 32.28600
H  37.63700 48.56500 32.50000
H  34.05900 54.73400 24.89900
H  34.23500 54.00000 26.50000
H  32.78200 53.72700 25.57000
H  33.80400 55.23400 22.88800
H  32.39300 54.07600 22.91300
H  32.91600 54.64900 21.43500
H  37.47100 49.01200 20.00700
H  36.99600 46.25000 20.88300
H  34.74700 48.31900 20.24100
H  35.64000 47.16800 19.16400
H  35.63700 48.80900 18.70200
H  38.95200 46.88300 19.38400
H  39.65600 46.20700 20.81200
H  39.90200 48.89400 19.76200
H  41.00000 47.97900 20.80700
H  39.62200 48.92300 21.42400
H  39.41500 43.61400 24.07000
H  38.34100 42.87600 25.41300
H  40.02800 43.48600 25.63800
H  37.82700 46.39800 29.86500
H  35.75200 44.30800 32.70200
H  35.00100 43.57900 31.26500
H  34.29500 44.97400 32.00900

