158

Mg 24.68200 -5.54200 45.91900
C  27.23700 -3.63600 44.38800
C  22.52000 -4.35200 43.60300
C  22.59700 -8.11300 46.68300
C  27.26000 -7.13800 47.73600
N  24.85900 -4.10200 44.24600
C  25.92400 -3.40200 43.86000
C  25.58700 -2.50200 42.66600
C  24.05300 -2.48700 42.76600
C  23.74200 -3.69100 43.61900
C  23.43100 -1.20800 43.48200
C  26.06100 -3.12000 41.36800
C  27.08700 -2.32200 40.51500
H  26.57900 -2.08600 39.02200
N  22.72900 -6.11600 45.31600
C  22.04900 -5.49300 44.34700
C  20.72000 -6.13800 44.13100
C  20.75300 -7.26800 45.06000
C  22.08600 -7.19400 45.75600
C  19.60000 -5.67200 43.20300
C  19.64800 -8.35500 45.14100
O  18.62500 -8.22100 44.49100
C  19.85200 -9.58700 45.87900
N  24.90900 -7.32900 47.00000
C  23.86900 -8.17300 47.28200
C  24.25300 -9.32600 48.19300
C  25.75700 -9.02500 48.55800
C  26.01300 -7.72700 47.73200
C  23.33400 -9.51700 49.40800
C  26.64400 -10.25400 48.42900
C  27.03500 -11.06800 49.65900
N  26.78900 -5.40800 46.14500
C  27.61500 -6.03900 46.97600
C  28.89500 -5.45500 46.89600
C  28.83200 -4.44900 45.87200
C  27.52900 -4.52800 45.46500
C  29.99400 -5.80900 47.79800
C  29.51100 -3.40800 45.13500
O  30.58100 -2.97400 45.24100
C  28.49700 -2.85800 44.02200
C  28.22000 -1.38300 44.22200
O  27.29600 -0.86700 44.75300
O  29.24500 -0.62900 43.68700
C  29.21600 0.83900 44.11100
H  21.71900 -3.96900 42.96700
H  21.91900 -8.87400 47.07500
H  27.96500 -7.61900 48.41800
H  26.03200 -1.51000 42.74500
H  23.58200 -2.59900 41.78900
H  22.91000 -1.38100 44.42300
H  22.67700 -0.72200 42.86300
H  24.17300 -0.45700 43.75200
H  25.30900 -3.34600 40.61200
H  26.51600 -4.08500 41.58900
H  28.05800 -2.80100 40.38900
H  27.41800 -1.37200 40.93400
H  18.93700 -6.47700 42.88500
H  20.13800 -5.40600 42.29300
H  18.92500 -4.90200 43.57600
H  19.09800 -10.30000 45.54600
H  19.74700 -9.50400 46.96100
H  20.80600 -10.02400 45.58500
H  24.26100 -10.20800 47.55300
H  25.80600 -8.63800 49.57500
H  22.45200 -8.87700 49.43500
H  23.96800 -9.40900 50.28800
H  22.78400 -10.45600 49.35100
H  27.63300 -9.95900 48.08100
H  26.23600 -10.95400 47.70100
H  26.87800 -12.11200 49.38800
H  26.43600 -10.93900 50.56000
H  28.05800 -10.82100 49.94200
H  29.69200 -6.62600 48.45300
H  30.16400 -5.01500 48.52400
H  30.97300 -5.96300 47.34400
H  28.81800 -3.11500 43.01300
H  28.40000 1.20100 43.48600
H  30.20000 1.20600 43.82000
H  28.89300 0.98200 45.14200
Mg 26.18100 1.03300 29.73100
C  28.31200 0.61800 32.55500
C  23.66900 1.60400 32.01400
C  24.09700 0.90800 27.20300
C  28.82800 -0.01100 27.76300
N  26.02700 1.08000 32.05400
C  27.02900 0.90200 32.95700
C  26.54900 1.30500 34.41700
C  25.02000 1.22700 34.17600
C  24.87200 1.38300 32.70100
C  24.28400 0.01200 34.71100
C  27.13800 2.69400 34.91100
C  27.99400 2.76400 36.20500
H  27.40200 3.42500 37.45200
N  24.21500 1.43500 29.57600
C  23.34500 1.59900 30.59200
C  21.97800 1.68000 30.06800
C  22.07500 1.50700 28.69800
C  23.53400 1.30800 28.46900
C  20.73800 1.83800 30.85600
C  20.98500 1.40000 27.70900
O  21.20200 1.28200 26.52400
C  19.59800 1.46400 28.05700
N  26.50900 0.64200 27.77600
C  25.46800 0.67600 26.84700
C  26.05400 0.68900 25.39000
C  27.56600 0.61800 25.62900
C  27.64800 0.45700 27.15400
C  25.38800 -0.37900 24.44500
C  28.40500 1.78600 25.08300
C  29.25100 1.41100 23.94300
N  28.14900 0.33000 30.05300
C  29.06700 -0.05900 29.11800
C  30.34300 -0.32600 29.82200
C  30.09200 -0.08800 31.19400
C  28.74100 0.32100 31.26400
C  31.59800 -0.79000 29.15700
C  30.60300 0.01200 32.57200
O  31.71900 -0.22600 33.05100
C  29.44400 0.46900 33.48000
C  29.33100 -0.69600 34.37500
O  28.63700 -1.68600 34.19800
O  29.99500 -0.48200 35.52200
C  29.79800 -1.31800 36.68900
H  22.83200 1.93500 32.63200
H  23.44300 0.92300 26.33000
H  29.65500 -0.36500 27.14400
H  26.99100 0.60500 35.12600
H  24.50700 2.08100 34.61800
H  25.02000 -0.66400 35.14800
H  23.81800 -0.52400 33.88400
H  23.54300 0.32000 35.44900
H  26.37800 3.45000 35.10900
H  27.66200 3.11700 34.05400
H  28.93800 3.19900 35.87900
H  28.20000 1.75400 36.55900
H  20.17600 2.70400 30.50500
H  20.94400 2.14800 31.88100
H  20.14800 0.92200 30.84800
H  19.43100 0.62600 28.73300
H  19.01300 1.41000 27.13900
H  19.30900 2.42100 28.49100
H  25.87300 1.61600 24.84500
H  27.90000 -0.29100 25.13000
H  24.53300 -0.78600 24.98400
H  25.93400 -1.30700 24.27800
H  24.92500 0.07600 23.56900
H  29.03600 2.18400 25.87800
H  27.87800 2.64900 24.67400
H  29.15300 2.15800 23.15500
H  28.93100 0.46500 23.50600
H  30.26100 1.29100 24.33400
H  32.39800 -1.06300 29.84600
H  31.89600 0.09800 28.60100
H  31.46100 -1.60900 28.45100
H  29.68400 1.37300 34.04000
H  29.88500 -2.29500 36.21300
H  28.81900 -1.07700 37.10300
H  30.56900 -1.15000 37.44100

