158

Mg 48.42000 15.50800 28.41000
C  46.33400 15.00700 31.37000
C  50.45500 17.26400 30.33900
C  50.19200 16.21400 25.61700
C  45.77700 14.12300 26.49900
N  48.32800 16.01800 30.61200
C  47.45100 15.74200 31.65200
C  47.90800 16.28500 32.92400
C  49.18800 17.13900 32.56000
C  49.38600 16.79200 31.02200
C  48.98000 18.73700 32.68600
C  48.31200 15.13900 33.91300
C  47.87200 15.17700 35.40100
H  47.55300 16.49200 35.91200
N  50.17500 16.57000 28.05200
C  50.87400 17.21400 28.97400
C  52.07900 17.76100 28.41600
C  52.08900 17.30600 27.05700
C  50.79800 16.63400 26.82300
C  53.11100 18.44800 29.28900
C  53.20600 17.40300 26.03800
O  53.16200 16.70600 25.00300
C  54.46100 18.24500 26.28100
N  48.01600 15.22500 26.36700
C  48.99100 15.51900 25.40800
C  48.39200 15.27000 24.03000
C  46.96500 14.58000 24.27900
C  46.87700 14.71600 25.80500
C  48.23200 16.58600 23.20200
C  46.92700 13.09000 23.73200
C  47.80600 12.11600 24.51800
N  46.46300 14.64200 28.82000
C  45.54700 14.01200 27.94600
C  44.45000 13.57800 28.75900
C  44.69300 13.88300 30.09900
C  45.94600 14.51600 30.07100
C  43.22100 12.93800 28.25500
C  44.27200 13.73500 31.46400
O  43.19200 13.29200 31.91000
C  45.26600 14.48400 32.32400
C  44.44900 15.36800 33.21200
O  44.02600 16.45700 33.00700
O  44.20800 14.65700 34.36000
C  43.41600 15.39400 35.36000
H  51.12300 17.85400 30.96900
H  50.82700 16.41300 24.75100
H  45.05800 13.52900 25.93100
H  47.13700 16.99900 33.21200
H  50.15000 16.89400 33.00900
H  49.72800 19.13300 33.37200
H  47.99600 19.01900 33.06300
H  49.06300 19.35700 31.79300
H  49.37300 15.05300 34.14700
H  48.07000 14.22300 33.37500
H  48.65300 14.84500 36.08400
H  47.03500 14.48300 35.47600
H  53.54400 17.65100 29.89500
H  52.72900 19.18700 29.99300
H  53.81100 18.89400 28.58300
H  54.20000 19.27400 26.52600
H  55.03200 18.21600 25.35300
H  54.95200 17.73900 27.11300
H  49.02000 14.46600 23.64800
H  46.08100 15.18600 24.08300
H  47.74600 17.24900 23.91800
H  47.67400 16.46600 22.27400
H  49.26800 16.83300 22.96900
H  47.36200 13.05700 22.73300
H  45.87300 12.81600 23.69000
H  48.23500 11.48000 23.74400
H  47.22200 11.48100 25.18300
H  48.64900 12.59600 25.01600
H  43.09700 11.91100 28.59900
H  42.96000 13.10100 27.20900
H  42.43700 13.53900 28.71500
H  45.71100 13.69200 32.92600
H  42.55800 15.83500 34.85400
H  43.90900 16.18100 35.93000
H  42.90300 14.62700 35.94000
Mg 41.31000 40.32500 27.38700
C  40.91500 42.79000 29.91600
C  42.38400 38.20800 29.64000
C  41.88000 38.16400 24.82300
C  40.52300 42.90800 25.00900
N  41.63500 40.50400 29.58600
C  41.31600 41.53100 30.46300
C  41.60000 41.15500 31.96300
C  42.37800 39.75900 31.66400
C  42.10600 39.44900 30.19100
C  43.90100 39.89200 31.97300
C  40.26300 41.01100 32.81800
C  40.19300 41.96000 34.05100
H  39.40500 41.48600 35.35100
N  42.07700 38.42900 27.21800
C  42.36500 37.68200 28.33600
C  42.70800 36.30300 27.89500
C  42.45600 36.32700 26.47100
C  42.16400 37.67300 26.10500
C  43.17800 35.22200 28.91500
C  42.38000 35.14900 25.57100
O  41.93400 35.30600 24.46800
C  42.83100 33.87200 25.99100
N  41.29100 40.58600 25.25500
C  41.51500 39.47000 24.47800
C  41.26700 39.81000 23.00300
C  40.61200 41.22300 23.10900
C  40.85700 41.67400 24.53200
C  42.46900 39.72400 22.02600
C  39.04000 41.10200 22.86700
C  38.27400 40.03200 23.54300
N  40.83800 42.44200 27.40400
C  40.50000 43.26000 26.34000
C  40.21800 44.61800 26.92300
C  40.34800 44.40100 28.28700
C  40.66600 43.07800 28.52800
C  39.91600 45.88200 26.04100
C  40.27100 45.10900 29.53300
O  39.84600 46.22400 29.72200
C  40.63000 44.10100 30.63500
C  41.69200 44.70500 31.39100
O  42.81500 44.55800 31.12000
O  41.13700 45.28900 32.57200
C  42.18900 45.92700 33.40100
H  42.69900 37.45600 30.36600
H  42.08300 37.65900 23.87600
H  40.36900 43.72400 24.29900
H  42.27400 41.94600 32.29300
H  42.03000 38.95300 32.31000
H  44.40600 40.85800 31.94700
H  44.47500 39.29400 31.26600
H  44.12300 39.52000 32.97300
H  40.11100 39.98100 33.13900
H  39.44900 41.25700 32.13700
H  39.81200 42.94500 33.78100
H  41.23500 42.08600 34.34600
H  42.54200 34.34100 28.99300
H  43.43600 35.58800 29.90900
H  44.20000 34.98200 28.61900
H  43.83700 33.77700 26.40200
H  42.77800 33.19400 25.14000
H  42.12300 33.51900 26.74100
H  40.75000 38.90600 22.68200
H  41.09200 41.85600 22.36200
H  42.66600 40.66300 21.50900
H  42.35100 38.99300 21.22600
H  43.44400 39.58600 22.49500
H  38.96700 40.92400 21.79400
H  38.47000 42.01500 23.03500
H  37.87800 39.29100 22.84800
H  37.54300 40.61300 24.10600
H  38.92700 39.61400 24.30900
H  39.08700 45.53900 25.42100
H  40.74900 46.04700 25.35800
H  39.62200 46.73100 26.65800
H  39.75500 44.08400 31.28500
H  43.09600 46.29900 32.92400
H  42.46600 45.27700 34.23200
H  41.75300 46.76500 33.94500

