158

Mg 53.12600 22.98800 44.04700
C  50.67400 25.40500 43.46800
C  50.97200 20.53700 43.03300
C  55.76000 20.94300 44.01300
C  55.24200 25.55700 45.37200
N  51.13900 23.02900 43.09800
C  50.31700 24.11500 43.05600
C  49.06200 23.68400 42.23900
C  49.02700 22.15400 42.50800
C  50.43800 21.86300 42.85500
C  48.12100 21.74400 43.72900
C  49.22000 23.95000 40.73300
C  47.95600 23.92700 39.99600
H  47.82700 23.30500 38.58100
N  53.35700 20.98800 43.59200
C  52.32400 20.13900 43.27400
C  52.86200 18.80300 43.09700
C  54.29500 18.90400 43.32000
C  54.53200 20.34300 43.66400
C  52.03600 17.63400 42.79300
C  55.30200 17.71600 43.28000
O  54.77400 16.57800 43.18000
C  56.76100 17.81100 43.39500
N  55.21600 23.25500 44.48800
C  56.08700 22.24800 44.33600
C  57.51500 22.66500 44.68700
C  57.35700 24.12300 45.23700
C  55.90200 24.35600 45.04200
C  58.29500 21.72100 45.65600
C  58.27400 25.28600 44.75500
C  59.07500 26.01800 45.78600
N  52.97700 25.07700 44.38400
C  53.84400 25.95500 45.04600
C  53.21900 27.20600 45.20100
C  51.95300 27.10900 44.54900
C  51.91900 25.74700 44.06800
C  53.80200 28.40600 45.85700
C  50.71100 27.74900 44.15800
O  50.23600 28.84700 44.32800
C  49.90500 26.71200 43.33300
C  49.70900 27.21700 41.99000
O  50.53500 27.21800 41.05000
O  48.41400 27.54300 41.86800
C  47.96300 27.99100 40.56700
H  50.17900 19.79800 42.89900
H  56.59300 20.25500 43.85300
H  55.89500 26.33600 45.77200
H  48.14900 24.15200 42.61000
H  48.71300 21.66100 41.58700
H  47.94200 22.67600 44.26500
H  48.58900 20.97500 44.34300
H  47.20300 21.28400 43.36200
H  49.91200 23.18300 40.38400
H  49.69300 24.90900 40.52100
H  47.62900 24.95700 39.85500
H  47.16000 23.41800 40.54000
H  52.32700 17.23500 41.82200
H  50.97300 17.87600 42.79800
H  52.27200 16.91800 43.58100
H  57.09300 18.59200 42.71100
H  57.20500 16.91700 42.95600
H  57.08500 17.96700 44.42400
H  57.95300 22.63500 43.69000
H  57.50600 24.12500 46.31700
H  58.66800 22.26500 46.52300
H  59.19800 21.33000 45.18800
H  57.63700 20.90400 45.95200
H  57.59600 26.00800 44.30000
H  58.99100 24.89500 44.03300
H  60.13600 25.77400 45.73400
H  58.61300 25.83000 46.75600
H  59.04100 27.09100 45.59700
H  53.59100 28.34400 46.92500
H  53.26300 29.30900 45.56800
H  54.88700 28.50500 45.82700
H  48.94300 26.66700 43.84500
H  47.81600 29.07100 40.58200
H  47.04300 27.45100 40.34500
H  48.69000 27.77100 39.78600
Mg 48.56000 35.36700 26.99400
C  46.62200 34.02700 29.41800
C  49.15000 38.21700 29.24200
C  50.05500 37.21800 24.43400
C  47.70600 32.86600 24.75700
N  47.85900 36.06700 29.04400
C  47.14800 35.20400 29.85800
C  47.13200 35.70100 31.30500
C  47.69700 37.20500 31.22500
C  48.31000 37.14800 29.80600
C  46.70900 38.37500 31.33400
C  48.16000 34.81600 32.12700
C  47.66100 34.33000 33.52300
H  46.48200 35.13700 34.15400
N  49.57000 37.35200 26.90000
C  49.78000 38.25300 27.91800
C  50.45200 39.39900 27.38000
C  50.77500 39.20700 25.98100
C  50.17000 37.89300 25.73400
C  50.74900 40.58500 28.28400
C  51.55500 40.00600 25.01400
O  51.91200 39.56900 23.91900
C  52.01400 41.36900 25.31900
N  48.75200 35.14200 24.89300
C  49.45000 35.97200 24.08300
C  49.59900 35.36600 22.69000
C  48.86000 33.97400 22.84800
C  48.39900 33.98200 24.24300
C  49.28300 36.24100 21.45100
C  49.73700 32.69400 22.51300
C  49.03000 31.58600 21.85600
N  47.48400 33.75100 27.01100
C  47.28300 32.75500 26.09000
C  46.43100 31.71000 26.72500
C  46.10400 32.19800 27.97800
C  46.79900 33.38800 28.10700
C  46.05700 30.41300 26.07000
C  45.34700 32.03900 29.20300
O  44.60800 31.12100 29.46500
C  45.65300 33.13100 30.24500
C  46.21300 32.30500 31.31400
O  47.23400 31.65300 31.28300
O  45.32600 32.23500 32.30700
C  45.55600 31.12700 33.26100
H  49.32100 38.99300 29.99100
H  50.65200 37.66900 23.63900
H  47.35200 32.02800 24.15400
H  46.12400 35.67200 31.71900
H  48.46000 37.45900 31.96100
H  45.82800 38.08800 31.90600
H  46.35900 38.74400 30.36900
H  47.14500 39.12800 31.99100
H  49.07600 35.40000 32.21400
H  48.43600 33.98800 31.47300
H  48.53800 34.36100 34.17000
H  47.43400 33.26700 33.44600
H  49.86100 41.21700 28.28700
H  51.54100 41.21400 27.87800
H  50.94200 40.34100 29.32900
H  52.72400 41.38100 26.14500
H  51.12000 41.97400 25.47000
H  52.49800 41.70400 24.40100
H  50.65400 35.09600 22.73800
H  47.95600 34.05300 22.24500
H  48.62000 35.76700 20.72800
H  50.25400 36.57700 21.08600
H  48.78600 37.15800 21.76600
H  50.10200 32.31800 23.46900
H  50.62500 32.94500 21.93200
H  48.04100 31.75300 21.42900
H  49.02300 30.72200 22.52000
H  49.60400 31.32500 20.96700
H  44.97200 30.36400 25.98300
H  46.44900 29.56800 26.63700
H  46.52100 30.39700 25.08400
H  44.67000 33.57500 30.40400
H  44.70100 31.21400 33.93100
H  46.45600 31.28700 33.85500
H  45.65900 30.13500 32.82300

