158

Mg 36.10300 0.38300 30.41200
C  33.62500 1.55800 32.64200
C  38.43800 0.82700 32.77600
C  38.27200 -0.16400 28.07100
C  33.49300 0.71400 27.81400
N  36.04700 1.21000 32.41200
C  34.93000 1.39600 33.21200
C  35.24700 1.39200 34.73700
C  36.81800 1.67500 34.62800
C  37.15900 1.13800 33.22100
C  37.13600 3.20700 34.94500
C  34.89400 0.05400 35.48600
C  34.21200 0.15500 36.83500
H  34.22900 1.41100 37.81300
N  38.09500 0.29300 30.46300
C  38.89500 0.44700 31.48200
C  40.23100 0.08100 31.04000
C  40.23300 -0.29700 29.70000
C  38.83500 -0.09100 29.32400
C  41.34000 0.09900 32.06100
C  41.35000 -0.69500 28.84300
O  41.21100 -1.08300 27.70900
C  42.70500 -0.84200 29.45000
N  35.88100 0.60900 28.23400
C  36.98000 0.12500 27.58500
C  36.72900 0.07400 26.13400
C  35.19200 0.27000 25.96100
C  34.80400 0.52800 27.39100
C  37.57800 0.91000 25.21800
C  34.48200 -0.89200 25.20300
C  33.98400 -2.07000 26.03300
N  34.01300 0.96900 30.21700
C  33.11500 1.02500 29.13300
C  31.80500 1.24300 29.56700
C  32.00600 1.52200 30.93500
C  33.30600 1.30200 31.27400
C  30.48900 1.30700 28.78600
C  31.26300 1.95400 32.10900
O  30.08000 2.29600 32.16200
C  32.28800 1.85000 33.39200
C  32.30200 3.12800 34.21500
O  33.03600 4.09000 34.04900
O  31.34600 2.96600 35.23400
C  31.13000 4.14200 36.09600
H  39.14100 0.77700 33.61000
H  39.02400 -0.41700 27.32100
H  32.72600 0.64700 27.03900
H  34.74400 2.14600 35.34300
H  37.33200 1.04800 35.35700
H  37.02700 3.76600 34.01600
H  38.17800 3.27200 35.25800
H  36.49900 3.63500 35.71900
H  35.65700 -0.72400 35.46700
H  34.11000 -0.37600 34.86400
H  34.68500 -0.64200 37.40900
H  33.15000 -0.05900 36.71500
H  42.30300 0.38800 31.64000
H  41.55100 -0.87700 32.49800
H  41.08700 0.73600 32.90800
H  42.63600 -1.41100 30.37700
H  43.07500 0.17900 29.54000
H  43.35300 -1.46300 28.83200
H  37.19800 -0.88900 25.93000
H  35.01600 1.21900 25.45400
H  38.50000 1.22000 25.71000
H  37.03300 1.78800 24.87000
H  37.83200 0.33800 24.32600
H  35.18400 -1.27400 24.46200
H  33.69400 -0.37700 24.65300
H  34.31400 -1.94400 27.06400
H  34.44300 -2.96700 25.61800
H  32.92500 -2.30400 25.92100
H  30.48300 0.45500 28.10600
H  30.57500 2.22700 28.20800
H  29.60900 1.27100 29.42900
H  32.00300 0.99400 34.00400
H  31.33000 3.80400 37.11300
H  30.06200 4.35200 36.15200
H  31.76700 5.00700 35.91200
Mg 48.29500 14.32700 28.53700
C  46.20300 14.44800 31.20300
C  50.58400 16.29700 30.36800
C  50.23000 14.49700 25.93500
C  45.74400 12.85200 26.63000
N  48.23600 15.41000 30.51900
C  47.34100 15.14600 31.52100
C  47.73400 15.90800 32.79900
C  49.02000 16.65800 32.39300
C  49.36400 16.08700 31.01800
C  49.03000 18.27300 32.57500
C  47.95400 14.95200 34.02400
C  47.07100 15.20500 35.25200
H  47.71300 15.51500 36.62900
N  50.22000 15.19100 28.19200
C  50.99000 15.97600 29.06300
C  52.19100 16.43500 28.31400
C  52.08800 15.89700 27.04400
C  50.81900 15.11600 27.01200
C  53.23300 17.22600 28.99200
C  52.94000 16.08100 25.86800
O  52.73700 15.56300 24.79700
C  54.19800 16.86700 25.96400
N  47.94000 13.97900 26.42000
C  48.92800 14.09800 25.53700
C  48.59000 13.40800 24.18400
C  47.16000 12.76000 24.52900
C  46.93900 13.19700 25.93900
C  48.51300 14.42400 23.02800
C  47.10300 11.20900 24.18700
C  48.02400 10.33300 25.07500
N  46.41400 13.72900 28.79200
C  45.50700 13.01600 27.97800
C  44.37700 12.57900 28.78400
C  44.62500 13.08000 30.08000
C  45.88300 13.75500 30.01500
C  43.20100 11.84200 28.29300
C  44.10100 13.20800 31.38500
O  43.07600 12.82800 31.87400
C  45.11600 14.02500 32.22500
C  44.30100 15.18500 32.83600
O  43.78400 16.12500 32.24400
O  44.14800 14.98700 34.17700
C  43.34500 15.81500 35.04700
H  51.31000 16.87400 30.94500
H  50.75100 14.47900 24.97500
H  45.05600 12.23300 26.05100
H  47.05000 16.69400 33.11900
H  49.90300 16.23700 32.87300
H  50.04300 18.67700 32.56000
H  48.61300 18.34900 33.57900
H  48.44000 18.82900 31.84600
H  48.96600 15.01600 34.42500
H  47.87900 13.93200 33.64800
H  46.52200 14.28900 35.46900
H  46.35800 15.99100 35.00200
H  54.16700 16.66300 29.01500
H  53.13100 17.41600 30.06000
H  53.47900 18.15100 28.47100
H  55.02200 16.24200 26.30900
H  54.09000 17.86200 26.39600
H  54.41700 17.05800 24.91400
H  49.36000 12.65100 24.03300
H  46.44800 13.35200 23.95500
H  49.17200 15.28500 23.13900
H  47.47400 14.64300 22.78400
H  48.88800 13.87900 22.16100
H  47.56000 10.96900 23.22800
H  46.06500 10.88000 24.22200
H  48.34900 10.71400 26.04400
H  48.95200 10.10200 24.55300
H  47.59000 9.36500 25.32300
H  42.85700 12.53200 27.52300
H  42.49700 11.70800 29.11500
H  43.39500 10.90300 27.77500
H  45.39800 13.35600 33.03800
H  43.01600 16.63400 34.40700
H  44.01500 16.18300 35.82400
H  42.43700 15.33800 35.41500

