158

Mg 24.33000 -4.96500 45.22100
C  26.85600 -3.02100 43.84100
C  22.12400 -3.54600 43.12100
C  22.29000 -7.57000 45.83300
C  26.91500 -6.76200 46.96300
N  24.47600 -3.39500 43.88000
C  25.56000 -2.72700 43.39100
C  25.22500 -1.59500 42.31700
C  23.66600 -1.65800 42.43400
C  23.35200 -2.90700 43.23000
C  22.93900 -0.34900 43.01100
C  25.66800 -2.09900 40.91700
C  26.23800 -0.94900 40.07700
H  26.02000 -0.94200 38.53600
N  22.43600 -5.50600 44.53000
C  21.68300 -4.78900 43.63300
C  20.45100 -5.47500 43.42600
C  20.49300 -6.64500 44.24500
C  21.72400 -6.57600 44.98700
C  19.35800 -4.99200 42.49200
C  19.41500 -7.67900 44.33200
O  18.37800 -7.57700 43.61400
C  19.37000 -8.79500 45.31800
N  24.69600 -7.00100 46.11600
C  23.54400 -7.72500 46.44100
C  23.89100 -8.96500 47.31100
C  25.30200 -8.58100 47.83500
C  25.68600 -7.39900 46.93000
C  22.86400 -9.23700 48.51300
C  26.28700 -9.79100 47.93700
C  26.81100 -10.40900 46.60800
N  26.42800 -4.85700 45.53400
C  27.31800 -5.63000 46.22500
C  28.68800 -5.11900 46.04800
C  28.54300 -4.09300 45.10300
C  27.17900 -3.99700 44.81900
C  29.93400 -5.69200 46.63700
C  29.25700 -3.12500 44.35100
O  30.48600 -2.89600 44.37000
C  28.20400 -2.45000 43.37800
C  28.36200 -1.03300 43.57200
O  27.87700 -0.25300 44.36600
O  29.07000 -0.60500 42.43800
C  28.99100 0.85000 42.06900
H  21.49400 -3.05800 42.37400
H  21.61300 -8.38800 46.08800
H  27.69700 -7.32300 47.47800
H  25.60800 -0.65700 42.72000
H  23.01600 -1.83700 41.57800
H  22.43600 0.21500 42.22600
H  23.62800 0.44000 43.31500
H  22.32600 -0.58500 43.88100
H  24.90300 -2.71000 40.43700
H  26.49700 -2.80600 40.95500
H  27.30800 -0.94600 40.28300
H  25.84300 0.00400 40.43000
H  19.87600 -5.03700 41.53400
H  19.14000 -3.95100 42.72900
H  18.42700 -5.55900 42.46300
H  19.61600 -8.47100 46.33000
H  19.98900 -9.61400 44.95300
H  18.34500 -9.16400 45.33700
H  23.82700 -9.86400 46.69900
H  25.16200 -8.07200 48.78900
H  22.08000 -8.48600 48.61000
H  23.25300 -9.50700 49.49400
H  22.30000 -10.10300 48.16500
H  25.70700 -10.59300 48.39300
H  27.06600 -9.70100 48.69500
H  27.88900 -10.53900 46.69900
H  26.71900 -9.67500 45.80700
H  26.38100 -11.35200 46.27100
H  30.51200 -6.09200 45.80400
H  29.64700 -6.54300 47.25600
H  30.55400 -4.96400 47.16000
H  28.55000 -2.82300 42.41400
H  28.83300 1.44700 42.96800
H  28.27800 0.99200 41.25800
H  29.92700 1.16800 41.61000
Mg 50.54500 44.94200 42.59700
C  47.43300 46.44600 41.79300
C  49.54500 41.99400 41.04900
C  53.66900 43.89800 42.89900
C  51.58100 48.21900 43.78600
N  48.73400 44.35500 41.56400
C  47.54300 45.07400 41.36400
C  46.50700 44.17500 40.76000
C  47.19000 42.76600 40.80000
C  48.62300 43.05900 41.07100
C  46.52400 41.87400 41.96400
C  46.14200 44.66300 39.30900
C  44.57100 44.59000 39.01300
H  44.03000 43.53100 37.99800
N  51.47800 43.13600 42.12800
C  50.88100 42.01800 41.55600
C  51.87800 41.00900 41.53100
C  53.05000 41.52500 42.15000
C  52.80500 42.91800 42.40000
C  51.62400 39.61200 40.85300
C  54.32600 40.72300 42.50200
O  54.27300 39.53900 42.22000
C  55.65600 41.27200 42.89200
N  52.36500 45.97000 43.23300
C  53.53200 45.23100 43.30000
C  54.65600 46.18100 43.76700
C  53.96300 47.55200 44.02700
C  52.56000 47.24000 43.71800
C  55.54400 45.59200 44.91900
C  54.53100 48.71800 43.12500
C  56.01600 49.09700 43.33300
N  49.66400 46.90500 42.93500
C  50.24200 48.06400 43.35500
C  49.19700 49.06900 43.31000
C  48.11600 48.47700 42.71500
C  48.43500 47.15300 42.43500
C  49.28400 50.46900 43.77600
C  46.82500 48.73300 42.10600
O  46.15500 49.73900 42.19200
C  46.33900 47.39700 41.48200
C  45.08700 47.01300 42.14100
O  45.03400 46.70100 43.32500
O  44.03500 47.17100 41.25000
C  42.66800 47.14300 41.86300
H  49.13900 41.07000 40.63400
H  54.66800 43.56800 43.19200
H  51.86700 49.23800 44.05300
H  45.61500 44.14700 41.38700
H  47.14500 42.21100 39.86300
H  45.47300 41.79800 41.68400
H  46.67800 42.36800 42.92300
H  47.03400 40.91100 41.96800
H  46.67600 44.06500 38.57100
H  46.51000 45.68900 39.29000
H  44.30000 45.53600 38.54400
H  43.97900 44.68300 39.92400
H  52.48100 38.99800 40.57700
H  51.15300 39.71200 39.87600
H  51.05000 38.92600 41.47600
H  55.68900 41.73100 43.88000
H  55.86600 42.03300 42.14000
H  56.27600 40.39000 42.73200
H  55.22400 46.33300 42.84900
H  54.11600 47.69900 45.09600
H  55.86300 46.30600 45.67700
H  56.49400 45.31900 44.46100
H  55.22600 44.69200 45.44500
H  54.06100 49.67000 43.36900
H  54.39300 48.48000 42.07000
H  56.36600 49.73200 42.52000
H  56.67900 48.26000 43.55000
H  56.00100 49.70400 44.23900
H  50.27500 50.72200 44.15300
H  48.42200 50.62500 44.42500
H  49.11800 51.01800 42.84900
H  46.17600 47.50000 40.41000
H  42.38400 46.12900 42.14400
H  41.94900 47.52100 41.13600
H  42.51300 47.82400 42.70100

