158

Mg 2.35300 -1.07200 43.88500
C  5.77600 -0.39200 43.33000
C  1.51800 1.51400 41.97600
C  -0.78400 -2.27200 43.99400
C  3.38300 -4.00500 45.68900
N  3.55900 0.26500 42.58500
C  4.91400 0.50300 42.65200
C  5.31000 1.67000 41.70700
C  3.94600 2.39900 41.47400
C  2.91200 1.40100 42.08000
C  3.83500 3.79000 42.25300
C  5.96100 1.22100 40.40400
C  7.32700 1.75400 40.12800
H  7.43500 2.23300 38.67200
N  0.58200 -0.40200 43.18500
C  0.43700 0.71000 42.41600
C  -0.96200 0.95500 42.14300
C  -1.69000 -0.10700 42.70300
C  -0.65500 -0.96000 43.35700
C  -1.41700 2.09700 41.35500
C  -3.25200 -0.26000 42.75800
O  -3.97500 0.61800 42.32600
C  -3.79700 -1.48400 43.45600
N  1.40400 -2.82700 45.04400
C  0.11200 -3.11800 44.66300
C  -0.29100 -4.48500 45.14100
C  1.00800 -5.11000 45.66300
C  1.99100 -3.93500 45.49000
C  -1.51300 -4.48200 46.10500
C  1.55800 -6.43500 44.97700
C  1.90900 -7.56100 45.90700
N  4.24200 -2.02900 44.46100
C  4.46200 -3.16000 45.24300
C  5.94900 -3.34400 45.36700
C  6.49300 -2.23900 44.71200
C  5.42000 -1.48000 44.16800
C  6.62700 -4.51700 46.03400
C  7.73700 -1.53100 44.40300
O  8.91500 -1.90800 44.63800
C  7.28600 -0.23100 43.56800
C  7.68900 0.92300 44.31400
O  6.98800 1.65800 45.03500
O  9.09600 1.04000 44.23600
C  9.71800 2.03800 45.15200
H  1.26100 2.42700 41.43600
H  -1.72700 -2.81700 43.90900
H  3.58500 -4.90600 46.27100
H  5.98100 2.35800 42.22100
H  3.80600 2.57500 40.40800
H  3.12300 3.66800 43.06900
H  3.42400 4.49500 41.53100
H  4.80100 4.18100 42.57100
H  5.35800 1.38900 39.51100
H  6.02900 0.13300 40.40300
H  8.02700 0.92200 40.19800
H  7.56900 2.55100 40.83100
H  -2.46200 2.13100 41.04700
H  -0.71500 2.38100 40.57100
H  -1.31300 2.93900 42.04000
H  -4.85000 -1.31900 43.68300
H  -3.31900 -1.70000 44.41200
H  -3.61100 -2.41100 42.91400
H  -0.61300 -5.00100 44.23600
H  0.92700 -5.31700 46.73000
H  -1.31900 -4.81200 47.12600
H  -2.38500 -4.97400 45.67500
H  -1.79200 -3.45600 46.34900
H  2.44200 -6.13800 44.41400
H  0.82500 -6.74700 44.23300
H  2.98800 -7.70700 45.85100
H  1.48600 -8.52600 45.62700
H  1.72100 -7.44700 46.97400
H  7.39100 -3.96000 46.57600
H  7.09700 -5.25700 45.38600
H  5.99900 -5.03400 46.75900
H  7.85900 -0.31300 42.64400
H  9.58300 1.69500 46.17700
H  9.35100 3.06400 45.11000
H  10.78900 2.03200 44.95200
Mg -11.05800 17.17500 43.02100
C  -7.67000 17.88900 43.35900
C  -11.58000 20.45000 42.44600
C  -14.07300 16.26000 41.85100
C  -10.15800 13.67700 42.87300
N  -9.73200 18.89300 42.87900
C  -8.39900 19.02400 43.18900
C  -7.89900 20.43400 42.98800
C  -9.27000 21.24000 43.21800
C  -10.28600 20.15300 42.89800
C  -9.46200 21.76100 44.64600
C  -7.18100 20.69100 41.65700
C  -5.63200 20.98300 41.75100
H  -5.15900 21.57100 40.44900
N  -12.69500 18.21800 42.35500
C  -12.68100 19.55100 42.17200
C  -13.97500 19.92800 41.69700
C  -14.77300 18.72800 41.63700
C  -13.82900 17.67600 41.92000
C  -14.45500 21.37700 41.49600
C  -16.30900 18.60600 41.14400
O  -16.92100 19.61800 40.76400
C  -16.85700 17.27500 40.81600
N  -11.95800 15.22400 42.34400
C  -13.29000 15.17600 42.14300
C  -13.74900 13.68200 42.09200
C  -12.42000 12.96000 41.95500
C  -11.40700 14.03500 42.44300
C  -14.60700 13.28300 43.37700
C  -12.03600 12.50500 40.45400
C  -12.30500 11.05800 39.94200
N  -9.36500 15.99400 43.28100
C  -9.14700 14.60700 43.28200
C  -7.73000 14.30200 43.65900
C  -7.13100 15.56300 43.63600
C  -8.14600 16.59300 43.47100
C  -7.04200 12.99100 43.83000
C  -5.83400 16.18400 43.72900
O  -4.66500 15.80500 43.82800
C  -6.21000 17.77000 43.76900
C  -5.90800 18.40900 45.06900
O  -6.50900 18.24500 46.15400
O  -4.92800 19.27600 44.87000
C  -4.56200 19.96700 46.05100
H  -11.71100 21.51800 42.26100
H  -15.10200 15.89600 41.80700
H  -9.94100 12.60800 42.84000
H  -7.23700 20.67200 43.82000
H  -9.28700 22.08400 42.52900
H  -9.94200 22.74000 44.63400
H  -8.54000 21.99200 45.18000
H  -10.02200 21.16100 45.36200
H  -7.64700 21.55300 41.18000
H  -7.31900 19.79600 41.05000
H  -5.05900 20.06000 41.84200
H  -5.27900 21.61900 42.56200
H  -13.62500 22.02900 41.76600
H  -15.36500 21.62800 42.04100
H  -14.67900 21.46600 40.43300
H  -16.31500 16.69300 40.07000
H  -17.88300 17.37900 40.46100
H  -16.95900 16.61300 41.67600
H  -14.29900 13.47200 41.17500
H  -12.27100 12.10900 42.62000
H  -13.99100 12.62500 43.99000
H  -15.47600 12.66800 43.14300
H  -14.84100 14.22800 43.86800
H  -11.03500 12.84000 40.18500
H  -12.73700 13.03200 39.80700
H  -11.44000 10.67400 39.40300
H  -13.16900 11.06400 39.27700
H  -12.50300 10.43400 40.81400
H  -7.61000 12.14600 43.43900
H  -6.96000 12.84200 44.90600
H  -6.06100 12.89000 43.36500
H  -5.62900 18.21500 42.96100
H  -3.51500 20.24200 45.92500
H  -4.60600 19.43900 47.00400
H  -5.27100 20.79200 46.12500

