158

Mg 49.03300 34.93400 27.33600
C  46.78200 33.47300 29.66900
C  49.57300 37.28700 29.37000
C  50.18600 36.58400 24.62600
C  48.21200 32.24600 25.14500
N  48.26900 35.27100 29.26600
C  47.43100 34.60500 30.08800
C  47.54600 35.12800 31.52300
C  48.09000 36.52600 31.39700
C  48.78500 36.34600 29.97800
C  47.08700 37.62700 31.37400
C  48.50000 34.24100 32.36600
C  48.19000 34.22400 33.87700
H  49.18500 34.89900 34.83200
N  49.80400 36.75200 27.06400
C  50.01300 37.59000 28.03000
C  50.60200 38.80400 27.51100
C  50.76800 38.65300 26.10400
C  50.22600 37.27900 25.86000
C  51.02400 39.91400 28.42600
C  51.34800 39.58700 25.03300
O  51.35900 39.35400 23.84500
C  51.91600 40.90600 25.46700
N  49.14700 34.47400 25.13800
C  49.70500 35.34700 24.27800
C  49.57900 34.68200 22.88600
C  49.37500 33.18800 23.15900
C  48.86400 33.26500 24.58200
C  48.44200 35.44900 22.08300
C  50.66800 32.29000 23.11900
C  50.62400 31.04600 22.22000
N  47.84500 33.10100 27.36800
C  47.68100 32.13400 26.41400
C  46.73800 31.16100 26.91800
C  46.36800 31.69000 28.23300
C  47.04100 32.87500 28.37000
C  46.40700 29.88700 26.16700
C  45.45900 31.43900 29.36500
O  44.82000 30.41800 29.61600
C  45.70100 32.63400 30.40600
C  46.00300 32.06800 31.73200
O  46.89200 31.28100 32.05900
O  45.09600 32.62500 32.57600
C  45.15400 32.26500 33.91400
H  49.78300 38.12600 30.03800
H  50.59200 37.11500 23.76300
H  47.98600 31.48400 24.39600
H  46.49800 35.09500 31.82300
H  48.73200 36.86000 32.21300
H  47.12300 38.20100 32.30000
H  46.04900 37.30200 31.30300
H  47.22500 38.22600 30.47400
H  49.48600 34.70600 32.35200
H  48.54800 33.27100 31.87200
H  48.30700 33.17700 34.15500
H  47.15500 34.51100 34.06400
H  50.33800 40.75800 28.50300
H  51.97400 40.31900 28.07500
H  51.27700 39.46700 29.38700
H  51.23000 41.61900 25.92500
H  52.25200 41.44300 24.58000
H  52.69100 40.74600 26.21700
H  50.52400 34.68800 22.34100
H  48.57600 32.88700 22.48100
H  47.55700 34.81400 22.03600
H  48.77900 35.53900 21.05100
H  48.30800 36.42800 22.54400
H  50.82700 31.86800 24.11200
H  51.59900 32.84800 23.01800
H  51.58500 30.79400 21.77100
H  49.82500 31.13900 21.48500
H  50.36800 30.21400 22.87500
H  46.26300 30.18900 25.12900
H  45.35500 29.65800 26.33800
H  47.18500 29.16400 26.41100
H  44.80900 33.25800 30.46700
H  45.06400 33.22800 34.41500
H  46.16100 31.96200 34.19800
H  44.48700 31.48700 34.28600
Mg 30.03900 58.26600 40.15600
C  27.35800 56.08500 39.07000
C  32.21900 56.09900 38.69600
C  32.23900 60.60200 40.36100
C  27.35800 60.63000 40.78600
N  29.79900 56.39600 38.87400
C  28.68600 55.64700 38.71900
C  29.04100 54.20100 38.14200
C  30.57300 54.20700 38.10500
C  30.91500 55.65200 38.70200
C  31.37500 52.98400 38.71500
C  28.32800 53.80600 36.80500
C  27.96300 55.03800 35.90900
H  28.21600 54.76400 34.44400
N  32.07100 58.27200 39.74600
C  32.77100 57.27400 39.22000
C  34.15000 57.63300 39.19500
C  34.23200 59.03100 39.52500
C  32.82900 59.38100 39.90600
C  35.15600 56.67500 38.73800
C  35.47600 59.96700 39.51800
O  36.50300 59.51000 39.10000
C  35.45300 61.33000 40.09600
N  29.75300 60.38500 40.33500
C  30.91700 61.03900 40.55200
C  30.60900 62.45600 41.26000
C  29.10400 62.41400 41.38400
C  28.66300 61.09000 40.77900
C  31.28100 62.68900 42.60400
C  28.42000 63.59500 40.65700
C  27.68400 64.64000 41.48500
N  27.82100 58.35800 40.15800
C  27.00900 59.34100 40.45300
C  25.58300 58.87100 40.28300
C  25.70800 57.54900 39.80300
C  27.08500 57.36500 39.64900
C  24.31300 59.71600 40.50600
C  24.89100 56.39600 39.33000
O  23.64700 56.30500 39.26100
C  26.03500 55.40200 38.89800
C  25.80100 54.17000 39.72000
O  25.41600 54.16200 40.88000
O  25.72200 53.08400 38.86900
C  24.96100 51.92100 39.43100
H  32.88200 55.31200 38.33000
H  32.87900 61.40100 40.74200
H  26.68100 61.43300 41.08300
H  28.74600 53.48200 38.90500
H  30.92100 54.25400 37.07400
H  31.80800 53.37200 39.63600
H  32.15200 52.60400 38.05100
H  30.86500 52.07900 39.04400
H  27.60300 52.99500 36.87800
H  29.17000 53.32300 36.30900
H  28.54400 55.91800 36.18800
H  26.89900 55.25100 36.00900
H  35.09200 56.83000 37.66100
H  34.89500 55.68200 39.10300
H  36.11000 56.93000 39.19900
H  36.42000 61.78100 39.87300
H  35.38800 61.13200 41.16600
H  34.66900 61.91400 39.61400
H  30.88100 63.27600 40.59500
H  28.69800 62.48000 42.39300
H  32.00400 61.89300 42.77900
H  30.61600 62.55500 43.45700
H  31.94300 63.55000 42.70000
H  27.75200 63.20900 39.88700
H  29.12700 64.19500 40.08400
H  27.92400 65.59800 41.02200
H  27.64900 64.54800 42.57000
H  26.63900 64.48600 41.21500
H  24.52800 60.26200 41.42500
H  23.36200 59.21400 40.68600
H  24.12000 60.43800 39.71300
H  26.00100 55.05000 37.86700
H  25.56500 51.39600 40.17100
H  24.80400 51.15900 38.66700
H  23.97400 52.08700 39.86300

