158

Mg 17.02800 -1.29100 27.57500
C  16.00500 0.83800 30.12900
C  19.11100 -2.90300 29.68900
C  18.50800 -2.73900 24.84100
C  15.30300 0.87700 25.28700
N  17.64100 -0.90800 29.56500
C  17.00200 -0.08800 30.51800
C  17.29000 -0.51300 31.94000
C  18.46900 -1.52900 31.74100
C  18.54500 -1.73900 30.17900
C  19.85500 -1.05000 32.31800
C  16.06400 -1.21800 32.68200
C  15.81500 -0.69800 34.12600
H  16.90100 0.15100 34.82900
N  18.49900 -2.75600 27.34200
C  19.14400 -3.34000 28.35100
C  19.96300 -4.36800 27.81100
C  19.84900 -4.33300 26.34700
C  18.93900 -3.21700 26.10600
C  20.84100 -5.34400 28.60000
C  20.54200 -5.18500 25.31100
O  20.28200 -5.04800 24.11100
C  21.53300 -6.30300 25.69100
N  16.97000 -0.89200 25.37400
C  17.65000 -1.69700 24.52600
C  17.61000 -1.08800 23.11100
C  16.31700 -0.24400 23.18100
C  16.17100 -0.07600 24.66400
C  18.88400 -0.31400 22.70400
C  15.11900 -0.94400 22.62500
C  14.96600 -0.63000 21.07100
N  15.78600 0.48900 27.63600
C  15.14000 1.24600 26.71200
C  14.32800 2.19400 27.41700
C  14.59600 2.05600 28.76900
C  15.56000 1.10300 28.82400
C  13.42100 3.24300 26.82700
C  14.31100 2.56100 30.07800
O  13.53400 3.45200 30.41400
C  15.30000 1.89400 31.05200
C  16.17600 3.07300 31.50400
O  16.77800 3.85900 30.76600
O  16.16900 3.20800 32.88800
C  16.74700 4.47600 33.34700
H  19.70200 -3.35200 30.48900
H  18.92500 -3.18200 23.93400
H  14.70500 1.48700 24.60600
H  17.77600 0.33400 32.42300
H  18.19200 -2.47900 32.19800
H  20.37200 -0.42100 31.59300
H  20.39900 -1.97400 32.51000
H  19.62600 -0.50600 33.23500
H  16.10400 -2.27500 32.94500
H  15.19000 -1.03500 32.05700
H  15.68600 -1.53700 34.80900
H  14.87500 -0.14700 34.13000
H  21.87700 -5.12200 28.34400
H  20.66200 -6.36800 28.27200
H  20.64800 -5.32700 29.67200
H  21.12100 -7.05200 26.36700
H  22.42800 -5.91000 26.17200
H  21.67300 -6.78500 24.72300
H  17.36600 -1.91400 22.44200
H  16.36800 0.76000 22.76000
H  19.75800 -0.29900 23.35500
H  18.57400 0.69300 22.42500
H  19.29700 -0.72000 21.78100
H  14.20900 -0.81200 23.21000
H  15.29200 -2.01500 22.73500
H  14.02200 -0.10700 20.91600
H  15.04000 -1.57000 20.52500
H  15.89500 -0.16000 20.75000
H  12.86400 2.82300 25.99000
H  13.97800 4.06500 26.37800
H  12.70500 3.49300 27.61000
H  14.71700 1.36400 31.80500
H  17.65400 4.76700 32.81800
H  16.77600 4.55100 34.43400
H  16.06100 5.28400 33.08800
Mg 42.62800 41.87600 26.24600
C  42.01700 44.09100 28.70400
C  43.85800 39.62900 28.62600
C  43.85800 39.75200 23.75700
C  42.13200 44.35400 23.80900
N  42.76900 41.82100 28.39800
C  42.33100 42.79800 29.17800
C  42.47600 42.41400 30.68700
C  43.43700 41.15900 30.61300
C  43.32600 40.80000 29.15100
C  44.92400 41.34600 31.03900
C  41.03000 42.19300 31.28800
C  40.75600 42.88700 32.62400
H  41.78400 42.69100 33.78600
N  43.50000 39.85100 26.21500
C  43.86900 39.12800 27.32200
C  44.33500 37.81300 26.94200
C  44.44900 37.88400 25.47700
C  43.85800 39.20700 25.04200
C  44.54600 36.75900 27.93700
C  44.96300 36.82400 24.53100
O  45.06300 36.93600 23.34400
C  45.46000 35.43500 25.21700
N  42.92500 42.00300 24.13800
C  43.45700 41.01000 23.30300
C  43.40700 41.36200 21.86100
C  42.67100 42.76400 21.85000
C  42.53400 43.06500 23.33400
C  44.92400 41.45000 21.29600
C  41.33400 42.72700 21.14000
C  40.29200 41.83900 21.77200
N  42.06800 43.82800 26.15300
C  41.96200 44.74100 25.14500
C  41.59600 46.04000 25.75700
C  41.53400 45.80900 27.19000
C  41.89300 44.50600 27.31800
C  41.33000 47.23000 24.96800
C  41.33800 46.46200 28.42400
O  41.03400 47.57100 28.70300
C  41.54500 45.33100 29.53300
C  42.54100 45.80000 30.50400
O  43.69600 45.89900 30.20100
O  42.00000 46.14100 31.73800
C  42.92200 46.61900 32.76500
H  44.28200 38.91100 29.33100
H  44.29300 39.04100 23.05100
H  41.96500 45.16800 23.10000
H  42.89200 43.25500 31.24200
H  43.00100 40.33600 31.17900
H  45.66200 41.26700 30.24100
H  45.06100 40.48500 31.69300
H  44.95600 42.20800 31.70400
H  40.78000 41.13200 31.27800
H  40.29000 42.62100 30.61200
H  39.77900 42.56000 32.98000
H  40.60500 43.90500 32.26500
H  43.98100 36.94300 28.85100
H  45.60400 36.61600 28.15500
H  44.21100 35.73600 27.76600
H  44.54700 34.87400 25.41900
H  46.03700 35.45600 26.14200
H  46.03200 34.83400 24.51000
H  42.84000 40.58500 21.34700
H  43.34200 43.46800 21.35800
H  45.71200 41.06800 21.94500
H  45.23500 42.44800 20.98500
H  44.93400 40.75800 20.45500
H  41.48400 42.48200 20.08800
H  40.90100 43.72700 21.13600
H  40.48700 41.42000 22.76000
H  39.97100 41.08600 21.05300
H  39.38600 42.38900 22.02400
H  42.04800 47.16100 24.15100
H  41.53000 48.15700 25.50500
H  40.32400 47.30200 24.55500
H  40.61500 45.12500 30.06300
H  43.40000 47.54500 32.44500
H  43.67600 45.83500 32.83100
H  42.43600 46.92300 33.69200

