158

Mg 47.04900 15.79500 28.22300
C  44.92400 15.60100 31.03200
C  49.27000 17.37300 30.43400
C  49.16300 16.26300 25.63900
C  44.64900 14.48700 26.27900
N  47.05900 16.45400 30.50500
C  46.12800 16.15300 31.43000
C  46.59600 16.41500 32.87800
C  47.91100 17.19900 32.57600
C  48.12600 16.99600 31.09000
C  47.96200 18.72200 32.99100
C  46.66800 15.12100 33.77700
C  46.25700 15.39000 35.25900
H  46.10800 16.82000 35.78500
N  48.98000 16.58600 28.04800
C  49.75800 17.10900 29.07600
C  51.04400 17.29400 28.54100
C  51.03600 17.06300 27.09400
C  49.67400 16.58300 26.86500
C  52.18300 17.75000 29.33800
C  52.17500 17.18800 26.05100
O  52.19600 16.75900 24.89500
C  53.51600 17.80800 26.48800
N  46.97600 15.36300 26.27800
C  47.88600 15.74300 25.36100
C  47.51900 15.39400 23.92300
C  46.11900 14.76400 24.16200
C  45.88400 14.79500 25.68800
C  47.64100 16.52400 22.86000
C  46.01300 13.29200 23.72000
C  45.08400 13.15200 22.59000
N  45.12700 15.17000 28.53900
C  44.28200 14.58100 27.62300
C  43.10100 14.18600 28.31900
C  43.30400 14.54700 29.64900
C  44.55300 15.13700 29.73600
C  41.95500 13.51400 27.63300
C  42.69500 14.54800 31.03400
O  41.66000 14.08400 31.40000
C  43.82800 15.12000 31.99200
C  43.19400 16.26500 32.79800
O  43.21800 17.47600 32.52100
O  42.55800 15.66900 33.90200
C  41.90100 16.65500 34.77000
H  49.98500 17.96900 31.00600
H  49.73900 16.61400 24.77900
H  43.86200 14.08600 25.63700
H  45.84000 17.08000 33.29400
H  48.66900 16.67400 33.15700
H  46.95500 18.99700 33.30300
H  48.27700 19.35000 32.15800
H  48.73000 18.73900 33.76500
H  47.70300 14.80400 33.90800
H  46.21500 14.30200 33.21900
H  46.92600 14.84100 35.92100
H  45.29400 14.88300 35.32800
H  53.13400 17.36800 28.96700
H  52.02900 17.33800 30.33600
H  52.17600 18.84000 29.34000
H  53.50900 18.70300 27.11000
H  54.10000 18.02700 25.59500
H  54.09200 17.02500 26.98100
H  48.19400 14.59500 23.61600
H  45.40000 15.42300 23.67400
H  47.35200 17.50100 23.24700
H  47.07400 16.16200 22.00200
H  48.66300 16.61800 22.49500
H  45.74400 12.59700 24.51600
H  47.02500 13.02400 23.41500
H  45.47700 12.39700 21.90900
H  45.01200 14.11100 22.07700
H  44.10900 12.89800 23.00500
H  41.74200 14.08000 26.72700
H  41.02800 13.48600 28.20500
H  42.22700 12.50000 27.34000
H  44.08800 14.26700 32.61800
H  40.95300 17.03500 34.39100
H  42.48000 17.57400 34.86700
H  41.71700 16.25000 35.76500
Mg 0.64900 43.63700 26.60200
C  3.08000 43.88100 29.17500
C  -1.65100 42.68800 28.86600
C  -1.48700 43.36500 24.01900
C  3.28300 43.83900 24.35400
N  0.69400 43.44300 28.83800
C  1.77000 43.55700 29.67600
C  1.28100 43.50700 31.16700
C  -0.09300 42.75200 30.98400
C  -0.40800 42.95500 29.48800
C  0.11200 41.24100 31.25300
C  1.21700 44.89700 31.73900
C  1.27000 44.86400 33.33300
H  0.99500 43.61600 34.20200
N  -1.30700 43.26200 26.47300
C  -2.13600 42.91600 27.50300
C  -3.51900 42.81800 27.00900
C  -3.49400 43.18900 25.63000
C  -2.07700 43.30800 25.31400
C  -4.70700 42.67600 27.91100
C  -4.68600 43.43200 24.65600
O  -4.56200 43.74500 23.44700
C  -6.16000 43.16400 25.12800
N  0.89400 43.82800 24.42600
C  -0.13500 43.49900 23.64100
C  0.27200 43.57600 22.12800
C  1.76600 43.89900 22.23200
C  2.02900 43.89600 23.72300
C  -0.09400 42.34600 21.23700
C  2.31200 45.22400 21.55700
C  2.05300 46.54000 22.24400
N  2.75100 43.80100 26.71800
C  3.69900 43.79900 25.70200
C  4.96900 43.95400 26.23100
C  4.82700 44.05400 27.64700
C  3.42600 43.98500 27.86300
C  6.16500 44.06300 25.50000
C  5.50800 43.99600 28.90000
O  6.69000 43.94700 29.18100
C  4.38500 44.02700 29.94700
C  4.59500 42.83000 30.77300
O  4.47600 41.66800 30.37700
O  4.98900 43.23900 31.99300
C  5.20700 42.21800 33.02100
H  -2.38800 42.32000 29.58200
H  -2.22600 43.29400 23.21800
H  4.07400 43.96600 23.61100
H  2.06400 42.95100 31.68100
H  -0.95100 43.22000 31.46600
H  0.92000 41.07600 31.96600
H  0.21500 40.78200 30.27000
H  -0.72600 40.76100 31.75900
H  0.29400 45.39200 31.43800
H  2.11000 45.44700 31.43900
H  0.64700 45.71200 33.61300
H  2.23900 45.21300 33.69000
H  -5.31500 41.88400 27.47400
H  -5.32800 43.54500 28.12800
H  -4.45100 42.28200 28.89400
H  -6.33200 42.24800 25.69400
H  -6.79500 43.22500 24.24500
H  -6.60400 43.94700 25.74300
H  -0.24900 44.48600 21.82900
H  2.33500 43.09600 21.76400
H  0.72900 41.81400 20.76000
H  -0.64400 42.69100 20.36100
H  -0.65700 41.55100 21.72600
H  1.75800 45.22900 20.61800
H  3.38400 45.07900 21.42300
H  1.59600 46.62600 23.23000
H  1.41400 47.19000 21.64700
H  3.04700 46.98100 22.31900
H  6.12100 45.03300 25.00500
H  6.33800 43.21200 24.84000
H  6.98500 44.25900 26.19100
H  4.50200 44.98300 30.45700
H  5.81500 42.50700 33.87900
H  5.72300 41.38700 32.54000
H  4.26100 41.79200 33.35400

