158

Mg -2.23500 16.36500 26.60500
C  -2.52900 13.76900 29.08300
C  -2.80400 18.65600 28.91200
C  -2.71100 18.58400 24.14800
C  -2.50600 13.66000 24.27200
N  -2.64200 16.16100 28.75400
C  -2.69800 15.10600 29.60500
C  -2.96500 15.55300 31.08200
C  -3.00200 17.11700 30.99300
C  -2.84600 17.38000 29.42900
C  -4.28000 17.85800 31.58800
C  -2.01500 14.90000 32.17700
C  -1.56500 15.76800 33.33300
H  -0.75400 15.16100 34.49300
N  -2.47000 18.34300 26.51900
C  -2.64500 19.14200 27.61200
C  -2.70000 20.56100 27.16600
C  -2.62600 20.57600 25.76000
C  -2.57500 19.11300 25.37600
C  -2.85400 21.66600 28.09800
C  -2.44600 21.76000 24.77800
O  -2.25300 21.60400 23.59800
C  -2.48300 23.13500 25.34200
N  -2.70700 16.12200 24.56100
C  -2.85700 17.23800 23.74000
C  -3.20100 16.87700 22.28900
C  -2.95900 15.29400 22.29900
C  -2.73500 14.99000 23.80400
C  -4.62800 17.43100 21.91200
C  -1.97200 14.75300 21.28600
C  -0.51100 15.13000 21.49200
N  -2.28400 14.13500 26.61400
C  -2.38600 13.24100 25.59900
C  -2.38200 11.89400 26.13200
C  -2.41200 12.05200 27.52600
C  -2.44300 13.46900 27.74300
C  -2.70400 10.66900 25.37500
C  -2.57900 11.35800 28.73700
O  -2.71400 10.15900 28.96100
C  -2.74500 12.44000 29.76500
C  -1.84400 12.04800 30.95500
O  -0.58600 12.06300 30.99200
O  -2.69300 11.65500 31.91900
C  -2.07600 11.22600 33.25800
H  -2.79600 19.43400 29.67800
H  -2.93200 19.34500 23.39700
H  -2.58100 12.93700 23.45700
H  -3.95300 15.15400 31.31300
H  -2.14200 17.58300 31.47500
H  -5.01100 17.14400 31.96800
H  -4.76600 18.54000 30.89000
H  -4.00500 18.46100 32.45300
H  -1.14800 14.40100 31.74400
H  -2.63400 14.15900 32.68300
H  -2.43300 16.20900 33.82200
H  -0.91800 16.53100 32.90000
H  -3.83500 22.02300 27.78600
H  -1.99500 22.28000 27.82600
H  -2.71700 21.40100 29.14700
H  -3.38200 23.34100 25.92200
H  -2.54900 23.83100 24.50500
H  -1.63900 23.15300 26.03100
H  -2.52900 17.31500 21.55000
H  -3.90600 14.80700 22.06700
H  -5.05900 17.68900 22.88000
H  -5.22600 16.62200 21.49200
H  -4.60300 18.30200 21.25700
H  -2.33100 15.19000 20.35400
H  -2.04100 13.66600 21.31600
H  -0.17300 15.75500 20.66600
H  -0.01000 14.18400 21.69800
H  -0.45900 15.70600 22.41600
H  -3.24100 10.83000 24.44000
H  -3.32100 10.08500 26.05700
H  -1.75800 10.19000 25.12400
H  -3.79700 12.41500 30.04800
H  -2.01100 10.13900 33.29300
H  -2.73200 11.57200 34.05700
H  -1.13000 11.74000 33.43000
Mg 9.26800 47.23400 26.43700
C  7.23200 47.01300 29.26500
C  11.90800 47.99600 28.49600
C  11.09400 48.07500 23.70300
C  6.40900 47.32900 24.36500
N  9.50000 47.45700 28.57400
C  8.59300 47.23200 29.56400
C  9.15800 47.36700 31.03500
C  10.67600 47.73700 30.73400
C  10.72600 47.86400 29.14000
C  11.24100 48.95800 31.45600
C  9.10700 46.07600 31.91800
C  10.18100 45.89000 33.04700
H  9.67600 45.37700 34.38800
N  11.33200 47.64900 26.05300
C  12.22500 47.91600 27.08300
C  13.53400 48.15700 26.50600
C  13.33300 48.24800 25.10000
C  11.91400 47.86400 24.87800
C  14.84800 48.32400 27.26200
C  14.32200 48.60400 23.90100
O  13.91000 48.67500 22.78700
C  15.70500 48.78300 24.19700
N  8.83900 47.42500 24.31600
C  9.76600 47.98100 23.49700
C  9.22200 48.31400 22.12100
C  7.72000 47.86900 22.27800
C  7.63200 47.53600 23.76000
C  9.27300 49.90900 21.82400
C  7.28200 46.71200 21.35500
C  5.86000 46.83200 20.82500
N  7.26300 47.07100 26.70100
C  6.16900 47.13100 25.77300
C  4.97600 46.95900 26.46900
C  5.31800 46.89500 27.84000
C  6.74800 46.94700 27.92500
C  3.56800 46.89300 25.90000
C  4.83400 46.71600 29.15300
O  3.73100 46.38000 29.60700
C  6.04000 46.88800 30.15800
C  5.97400 45.73000 30.99000
O  6.45200 44.60400 30.70700
O  5.41900 46.05900 32.22200
C  5.31500 44.92600 33.18000
H  12.69200 48.29600 29.19500
H  11.76700 48.32700 22.88100
H  5.47600 47.36500 23.79900
H  8.59400 48.16000 31.52600
H  11.36200 46.89300 30.80300
H  11.25600 49.86400 30.84900
H  12.19100 48.59300 31.84600
H  10.78900 49.22700 32.41100
H  9.07500 45.21700 31.24800
H  8.12300 46.15000 32.38200
H  10.68200 46.84100 33.22700
H  10.92700 45.28700 32.52900
H  15.45200 49.14600 26.88000
H  15.45000 47.41900 27.34900
H  14.59000 48.66200 28.26600
H  16.33800 48.87200 23.31400
H  16.09900 48.04400 24.89300
H  15.72100 49.78000 24.63800
H  9.72100 47.67300 21.39400
H  7.11300 48.75200 22.07600
H  10.25700 50.28500 22.10100
H  8.43400 50.47800 22.22500
H  9.21100 50.01800 20.74100
H  7.32200 45.82700 21.99100
H  7.98300 46.64800 20.52300
H  5.37100 47.75500 21.13800
H  5.32300 45.98200 21.24600
H  5.82500 46.70700 19.74300
H  3.09500 45.98100 26.26400
H  3.56900 46.78100 24.81500
H  3.06000 47.77600 26.28900
H  5.85800 47.72500 30.83200
H  4.24000 44.90500 33.35800
H  5.77600 45.37300 34.06200
H  5.80200 43.96900 32.99300

