158

Mg 53.52500 23.09400 44.89500
C  50.95600 25.21500 43.92900
C  51.36400 20.35900 43.98000
C  56.11800 20.87100 44.85000
C  55.55400 25.69100 45.29600
N  51.43000 22.80000 43.84300
C  50.56100 23.86600 43.66700
C  49.16600 23.38400 43.09400
C  49.25900 21.89700 43.59800
C  50.78000 21.63900 43.86900
C  48.56300 21.63000 44.99000
C  49.03400 23.64500 41.63800
C  48.81400 22.46200 40.68600
H  48.45600 22.82500 39.18600
N  53.74000 20.95600 44.45700
C  52.68300 20.03200 44.18200
C  53.28000 18.72400 44.13200
C  54.67600 18.83500 44.25800
C  54.94200 20.28100 44.47900
C  52.44500 17.49600 43.83000
C  55.72700 17.70100 44.04100
O  55.32900 16.60100 43.72400
C  57.23600 17.79700 44.19100
N  55.57900 23.28700 44.80800
C  56.39000 22.19700 45.09500
C  57.71500 22.69300 45.68100
C  57.63100 24.23400 45.68700
C  56.17800 24.44100 45.23000
C  58.09000 22.09500 47.06600
C  58.51300 24.95800 44.67900
C  59.46800 26.10400 45.05900
N  53.34600 25.06800 44.77400
C  54.23300 26.11000 45.04300
C  53.59200 27.43700 45.01800
C  52.26900 27.08200 44.60600
C  52.12800 25.64100 44.46400
C  54.20000 28.85500 45.25900
C  50.99600 27.65900 44.32300
O  50.60600 28.81100 44.50100
C  50.16000 26.54200 43.71500
C  49.93600 26.72800 42.25000
O  50.79200 26.62700 41.40600
O  48.63200 26.99600 41.99100
C  48.26200 27.30500 40.56500
H  50.65800 19.55800 43.75200
H  57.04200 20.32300 45.04400
H  56.16200 26.53100 45.63800
H  48.42700 24.02000 43.58200
H  48.76700 21.17900 42.94200
H  47.50200 21.40100 44.89400
H  48.64400 22.52700 45.60400
H  49.11300 20.79500 45.42400
H  49.90800 24.20900 41.31200
H  48.23500 24.38500 41.59300
H  47.90600 21.93800 40.98500
H  49.67600 21.79600 40.71000
H  51.42700 17.70800 44.15800
H  52.81600 16.60400 44.33500
H  52.34900 17.26100 42.77000
H  57.64100 18.53700 43.50100
H  57.54800 16.82000 43.82300
H  57.51300 17.88100 45.24200
H  58.38000 22.37600 44.87800
H  57.75900 24.67600 46.67500
H  58.01000 22.82600 47.87100
H  59.10900 21.72700 47.18300
H  57.42900 21.25900 47.29400
H  57.93800 25.39500 43.86200
H  59.17900 24.19700 44.27300
H  60.48100 25.85800 44.74000
H  59.44800 26.34300 46.12300
H  59.14100 26.98800 44.51100
H  53.84700 29.53700 44.48500
H  55.28700 28.77000 45.26300
H  53.87800 29.10100 46.27100
H  49.14800 26.51000 44.11800
H  47.20900 27.03100 40.63700
H  48.89200 26.75700 39.86400
H  48.42300 28.36300 40.35700
Mg 47.42100 24.16100 28.31400
C  48.20100 26.34700 30.83600
C  46.50400 21.72700 30.65300
C  46.99600 22.11100 25.74300
C  48.66300 26.52900 25.94500
N  47.53300 23.95900 30.45400
C  47.63000 25.12400 31.25800
C  47.37200 24.70800 32.71700
C  47.20200 23.19200 32.74400
C  47.04900 22.89700 31.23100
C  48.41300 22.34000 33.23600
C  46.27500 25.59200 33.52200
C  46.78100 26.47700 34.64300
H  45.71900 26.96800 35.64900
N  46.82400 22.23100 28.14900
C  46.47000 21.36000 29.23200
C  45.99700 20.06700 28.66200
C  46.12700 20.14500 27.27000
C  46.67500 21.52800 26.99300
C  45.54300 18.92200 29.55600
C  45.88200 18.99000 26.26000
O  46.07400 19.12000 25.00500
C  45.55800 17.60600 26.76200
N  47.77500 24.30400 26.17400
C  47.45300 23.31900 25.32400
C  47.54000 23.64100 23.80400
C  47.95700 25.12400 23.91900
C  48.10300 25.34500 25.44400
C  48.65100 22.82300 23.03400
C  47.07000 26.14500 23.09200
C  45.77000 26.64900 23.72100
N  48.31500 26.06000 28.35600
C  48.72000 26.88800 27.35100
C  49.17200 28.12700 27.93600
C  49.02500 27.99200 29.29200
C  48.37100 26.72400 29.51700
C  49.86700 29.34900 27.26400
C  49.21800 28.71700 30.60400
O  49.66400 29.80000 30.99500
C  48.77400 27.59400 31.57700
C  50.01900 27.26500 32.31900
O  50.89100 26.52400 31.94700
O  49.96900 27.70000 33.61500
C  51.08800 27.31000 34.51800
H  46.20000 20.99900 31.40700
H  46.76500 21.47400 24.88700
H  49.17500 27.17000 25.22300
H  48.31200 24.91900 33.22800
H  46.40100 22.88700 33.41700
H  48.70300 21.54300 32.55100
H  48.17600 21.91800 34.21200
H  49.30300 22.96800 33.19900
H  45.44600 25.04800 33.97700
H  45.83300 26.27100 32.79300
H  47.10500 27.40700 34.17600
H  47.65900 26.06700 35.14400
H  45.28700 19.17200 30.58500
H  46.22900 18.07500 29.54900
H  44.59400 18.60900 29.11900
H  45.81900 16.85200 26.02000
H  44.52500 17.49300 27.09300
H  46.22100 17.38500 27.59800
H  46.71500 23.51300 23.10300
H  48.97600 25.19100 23.53700
H  49.45200 22.61300 23.74200
H  49.04000 23.38200 22.18300
H  48.15800 21.90800 22.70400
H  46.91100 25.70800 22.10600
H  47.69500 27.01600 22.89700
H  45.49800 26.14000 24.64600
H  44.91400 26.71700 23.05000
H  46.00700 27.67300 24.00800
H  50.95000 29.26700 27.35300
H  49.54500 30.19600 27.86900
H  49.61700 29.46600 26.20900
H  47.96200 27.85700 32.25500
H  52.05100 27.69100 34.17900
H  51.15000 26.22800 34.40700
H  51.02000 27.58600 35.57000

