158

Mg 9.38700 2.55900 27.81900
C  10.67400 1.11200 30.72200
C  7.70400 4.82800 29.83800
C  8.13300 3.93700 24.98300
C  11.11100 0.11800 25.82300
N  9.25400 2.91700 30.03500
C  10.03100 2.32200 31.01500
C  9.73900 3.01900 32.36100
C  8.66900 4.19400 32.05600
C  8.48200 3.94900 30.55700
C  7.37500 3.95300 32.84600
C  11.06000 3.42000 33.12800
C  11.03700 4.50000 34.31800
H  10.81300 3.96100 35.69900
N  8.06100 4.11100 27.47800
C  7.44500 4.89800 28.42500
C  6.49400 5.75900 27.78200
C  6.69200 5.61900 26.38300
C  7.67100 4.49600 26.22100
C  5.72700 6.77900 28.53800
C  6.02400 6.37100 25.14300
O  6.25800 6.15100 23.98200
C  4.89500 7.34700 25.50400
N  9.60500 2.07300 25.65800
C  8.98100 2.83700 24.68800
C  9.41400 2.27400 23.30400
C  10.55000 1.22100 23.64800
C  10.38700 1.06800 25.14300
C  8.18400 1.65100 22.64500
C  12.04300 1.62400 23.16600
C  12.68700 0.61900 22.25300
N  10.46600 0.87100 28.10700
C  11.20300 -0.00500 27.22000
C  11.83000 -1.07000 28.00600
C  11.67500 -0.57500 29.34000
C  10.77900 0.51200 29.36300
C  12.57900 -2.16600 27.48100
C  12.12500 -0.80400 30.76100
O  12.86400 -1.65200 31.30000
C  11.55100 0.28100 31.55800
C  10.76600 -0.35000 32.63300
O  9.74400 -0.99900 32.56000
O  11.32700 -0.10700 33.88700
C  10.95200 -0.81600 35.11700
H  7.29500 5.58200 30.51400
H  7.69900 4.41600 24.10300
H  11.70700 -0.58900 25.24200
H  9.26800 2.20900 32.91800
H  8.95100 5.24000 32.17400
H  6.97300 4.94600 33.04800
H  7.47100 3.46100 33.81400
H  6.74000 3.25100 32.30500
H  11.65300 3.82100 32.30600
H  11.47700 2.53100 33.60200
H  10.15500 5.11500 34.14400
H  11.97300 5.05800 34.28800
H  4.67900 6.56000 28.33000
H  5.85900 7.78900 28.15000
H  5.82700 6.72500 29.62200
H  5.29800 8.26900 25.92200
H  4.29600 6.73800 26.18000
H  4.25300 7.59700 24.65900
H  9.81500 2.98700 22.58300
H  10.24000 0.25100 23.26000
H  7.26600 1.58600 23.23000
H  8.21400 0.69000 22.13200
H  7.96600 2.34500 21.83300
H  12.57500 1.91500 24.07200
H  11.73200 2.50600 22.60600
H  12.15200 -0.33100 22.26800
H  13.67400 0.51500 22.70300
H  12.64600 0.97700 21.22400
H  12.96100 -2.79600 28.28400
H  13.37200 -1.77800 26.84200
H  11.97300 -2.82400 26.85800
H  12.42700 0.84800 31.87200
H  10.23700 -1.62900 34.98700
H  10.64600 -0.07000 35.85100
H  11.79300 -1.32200 35.59000
Mg 29.26400 57.91100 40.66400
C  26.53100 56.09100 39.71800
C  31.36200 55.30000 39.47700
C  32.15900 60.02800 40.83500
C  27.38800 60.62100 41.26600
N  28.96100 55.91800 39.73900
C  27.74400 55.33900 39.52900
C  27.79500 53.92100 39.08800
C  29.39000 53.58700 39.24300
C  29.94600 55.05400 39.51500
C  29.93000 52.57000 40.22100
C  27.32200 53.67200 37.58600
C  27.92100 54.40100 36.40300
H  27.08300 55.46000 35.69500
N  31.41500 57.69100 40.28500
C  32.06700 56.56800 39.75600
C  33.47200 56.82000 39.54900
C  33.77400 58.12700 40.06400
C  32.38400 58.68500 40.45600
C  34.41500 55.76500 38.99100
C  35.23400 58.70100 40.25100
O  36.21900 58.05100 39.98100
C  35.50300 60.06500 40.81400
N  29.70900 60.04400 41.01100
C  30.94400 60.66600 41.06100
C  30.85900 62.17200 41.46800
C  29.32900 62.29800 41.75700
C  28.75400 60.90300 41.37900
C  31.80100 62.73700 42.53400
C  28.64300 63.51900 41.04500
C  27.89600 64.42200 42.03600
N  27.38900 58.32500 40.52800
C  26.70700 59.48500 40.80600
C  25.27200 59.33200 40.65600
C  25.16700 57.95300 40.30100
C  26.47000 57.38600 40.20900
C  24.27600 60.33000 40.81100
C  24.19500 56.98500 39.83000
O  23.00400 57.03800 39.66700
C  25.03700 55.64100 39.52500
C  24.47300 54.54600 40.34100
O  24.39500 54.55200 41.55100
O  23.99600 53.53200 39.44500
C  23.18400 52.54400 40.15400
H  31.86100 54.39300 39.12900
H  32.98600 60.73100 40.71400
H  26.75700 61.48700 41.47300
H  27.21000 53.41500 39.85500
H  29.63100 53.21100 38.24900
H  29.08000 52.32600 40.85600
H  30.74100 52.91700 40.86100
H  30.21800 51.65800 39.69800
H  26.24200 53.68400 37.43800
H  27.49600 52.60300 37.46100
H  28.29900 53.65400 35.70600
H  28.76900 54.99800 36.74000
H  33.88200 55.01100 38.41100
H  34.95200 55.25500 39.79100
H  35.12000 56.17800 38.26800
H  35.32400 60.93100 40.17700
H  36.57100 60.04500 41.03200
H  34.83700 60.01400 41.67500
H  31.10400 62.75000 40.57700
H  29.27800 62.44500 42.83500
H  32.31500 61.83200 42.85500
H  31.21000 63.06300 43.39000
H  32.44200 63.55000 42.19400
H  28.08700 63.31000 40.13100
H  29.53000 64.09800 40.78700
H  28.59500 65.25200 42.13500
H  27.66100 63.89400 42.96000
H  26.96500 64.86600 41.68100
H  23.47700 60.11800 40.10000
H  24.63500 61.32900 40.56400
H  23.88900 60.26600 41.82800
H  25.02300 55.38900 38.46500
H  23.64600 51.57700 39.95700
H  22.21800 52.57000 39.65100
H  22.95800 52.64800 41.21600

