158

Mg -0.38100 18.13700 27.90500
C  -0.99400 15.62100 30.47500
C  -1.13300 20.51800 30.32600
C  -0.17900 20.45500 25.54900
C  -0.36200 15.53500 25.53000
N  -1.21700 18.00100 30.09000
C  -1.17900 16.93200 30.97600
C  -1.41900 17.33500 32.45900
C  -1.58400 18.93500 32.32000
C  -1.24700 19.18800 30.82800
C  -3.01100 19.45900 32.72800
C  -0.34100 16.87200 33.43500
C  -0.03600 17.75500 34.66300
H  0.72300 16.98600 35.77000
N  -0.56100 20.19200 27.92700
C  -0.83200 21.02300 29.00500
C  -0.75600 22.36400 28.62000
C  -0.50800 22.41200 27.19900
C  -0.39200 20.98300 26.82100
C  -1.03600 23.52400 29.55100
C  -0.21600 23.59400 26.25500
O  -0.05000 23.46900 25.06200
C  -0.24200 24.95600 26.88200
N  -0.26800 18.04700 25.86000
C  -0.11800 19.09700 25.05800
C  0.00200 18.67200 23.58000
C  0.23900 17.16900 23.69000
C  -0.15000 16.87100 25.11900
C  -1.20800 19.00700 22.71900
C  1.75700 16.68000 23.43600
C  2.74400 17.23100 24.50200
N  -0.56500 15.96300 27.88200
C  -0.66900 15.12000 26.82800
C  -0.90500 13.80200 27.38000
C  -1.07700 13.97900 28.81800
C  -0.80400 15.26200 29.08600
C  -0.95400 12.55400 26.62300
C  -1.38500 13.27400 30.10000
O  -1.69000 12.12700 30.34100
C  -1.28500 14.30200 31.25700
C  -0.23300 13.72100 32.14100
O  0.95600 13.84700 31.97400
O  -0.89300 13.04400 33.11700
C  -0.06400 12.15000 33.87400
H  -1.38100 21.30100 31.04600
H  0.05100 21.17200 24.75800
H  -0.30400 14.68400 24.84900
H  -2.32300 16.78300 32.71300
H  -0.90800 19.52500 32.93800
H  -2.99200 19.92400 33.71400
H  -3.58800 18.53500 32.76200
H  -3.36500 20.23900 32.05500
H  0.64700 16.84700 32.97500
H  -0.49100 15.82000 33.67600
H  -0.88900 18.10300 35.24500
H  0.53500 18.67300 34.52600
H  -1.72800 24.25100 29.12700
H  -0.14700 24.10800 29.78900
H  -1.43400 23.21400 30.51700
H  0.19300 24.98800 27.88100
H  -1.30700 25.17300 26.97000
H  0.22100 25.64400 26.17500
H  0.90000 19.20500 23.27000
H  -0.40300 16.51000 23.10500
H  -1.97800 19.44200 23.35700
H  -1.62500 18.12500 22.23300
H  -0.95100 19.76100 21.97400
H  2.14900 17.17100 22.54500
H  1.71500 15.59200 23.47900
H  2.25000 17.61100 25.39600
H  3.29400 18.06600 24.06800
H  3.36600 16.41700 24.87700
H  -0.22700 11.81300 26.95700
H  -0.77800 12.75600 25.56600
H  -1.93000 12.07900 26.72400
H  -2.24400 14.31700 31.77400
H  -0.70200 11.74000 34.65600
H  0.85200 12.63700 34.21100
H  0.22000 11.36000 33.18000
Mg -4.43000 25.47500 26.24000
C  -3.32700 27.11700 29.09600
C  -6.22300 23.41800 28.19600
C  -4.78900 23.41900 23.59800
C  -2.07800 27.41700 24.43800
N  -4.60400 25.22100 28.38000
C  -4.15500 26.03900 29.37100
C  -4.65100 25.63000 30.76100
C  -5.32300 24.25700 30.44200
C  -5.39900 24.26700 28.90000
C  -4.62200 22.93700 31.06100
C  -5.54900 26.68500 31.42900
C  -6.73800 26.22300 32.24600
H  -6.43700 25.16100 33.26800
N  -5.49800 23.73900 25.87300
C  -6.20700 23.07100 26.83300
C  -6.99100 22.02000 26.17800
C  -6.66300 22.14000 24.82400
C  -5.57600 23.08900 24.69900
C  -8.11200 21.28700 26.86100
C  -7.23100 21.37200 23.68500
O  -6.70200 21.42000 22.56700
C  -8.38700 20.35400 23.79200
N  -3.31000 25.33400 24.39000
C  -3.82000 24.47700 23.45800
C  -3.02400 24.70200 22.13400
C  -2.19600 25.98100 22.33100
C  -2.62900 26.28900 23.79500
C  -2.20100 23.48700 21.65600
C  -2.41200 27.24800 21.33200
C  -1.10300 27.84100 20.83300
N  -3.16600 27.05200 26.62000
C  -2.30400 27.78500 25.79900
C  -1.59500 28.78300 26.54800
C  -2.04400 28.61900 27.86600
C  -2.95100 27.54500 27.82600
C  -0.66300 29.77400 26.10400
C  -2.02800 29.12800 29.22700
O  -1.58400 30.18300 29.69900
C  -2.82300 28.09600 30.11700
C  -1.81500 27.56800 31.06600
O  -0.73400 26.99600 30.79400
O  -2.30000 27.77500 32.32000
C  -1.64600 27.10200 33.39400
H  -6.83800 22.71500 28.76200
H  -5.01900 22.94800 22.64000
H  -1.34100 28.05200 23.94100
H  -3.79200 25.54600 31.42700
H  -6.37700 24.32100 30.71400
H  -4.13000 22.51800 30.18300
H  -5.33400 22.26000 31.53200
H  -3.87900 23.26700 31.78700
H  -5.79200 27.44300 30.68400
H  -4.86800 27.19900 32.10800
H  -7.58500 25.96300 31.61200
H  -7.08900 27.16200 32.67400
H  -7.97800 20.22400 26.66300
H  -9.05500 21.47300 26.34600
H  -8.36900 21.48900 27.90100
H  -9.32600 20.83300 24.07100
H  -8.10200 19.63100 24.55600
H  -8.56400 19.74700 22.90400
H  -3.87100 24.95600 21.49700
H  -1.13400 25.82000 22.51800
H  -2.79900 22.78900 21.07000
H  -1.87900 22.97100 22.56000
H  -1.31000 23.75600 21.08900
H  -2.82100 28.09900 21.87500
H  -3.07900 26.98300 20.51200
H  -0.98600 28.83200 21.27300
H  -1.12700 27.97500 19.75200
H  -0.27400 27.22000 21.17200
H  -1.17400 30.70400 25.85400
H  -0.14000 29.39400 25.22600
H  0.01100 29.94400 26.94300
H  -3.50900 28.77400 30.62400
H  -0.70600 26.63200 33.10600
H  -2.29100 26.27900 33.70000
H  -1.45300 27.78900 34.21800

