158

Mg 45.09400 4.34100 45.85200
C  43.32300 7.30900 45.77200
C  42.05000 2.62400 45.20500
C  46.79200 1.54100 45.24400
C  48.03700 6.23300 45.67800
N  43.03900 4.89000 45.39600
C  42.56700 6.17400 45.54700
C  41.03900 6.27700 45.49000
C  40.59000 4.79000 45.34300
C  41.98000 4.01500 45.28200
C  39.63300 4.32300 46.51500
C  40.48100 7.23700 44.21500
C  41.39900 7.41300 42.94400
H  40.76000 7.21000 41.56500
N  44.51900 2.33300 45.41800
C  43.21300 1.84900 45.19100
C  43.22000 0.45400 44.96900
C  44.63300 0.05500 44.93500
C  45.38300 1.32200 45.22600
C  42.02700 -0.39900 44.69500
C  45.21900 -1.38300 44.69100
O  44.46000 -2.32300 44.50000
C  46.79100 -1.55800 44.50100
N  47.17400 3.98000 45.41600
C  47.60000 2.68500 45.45800
C  49.13300 2.63000 45.67500
C  49.51100 4.14100 45.68600
C  48.18500 4.85400 45.55100
C  49.58700 1.93600 47.02900
C  50.53900 4.58300 44.58700
C  51.70100 3.69000 44.15000
N  45.64600 6.44500 45.84400
C  46.88500 7.07600 45.79800
C  46.71200 8.50000 45.95200
C  45.30300 8.67300 46.00500
C  44.74200 7.41300 45.86800
C  47.84600 9.46900 45.90200
C  44.23600 9.59300 46.14900
O  44.24100 10.81100 46.39700
C  42.91600 8.74900 46.07600
C  42.19600 9.06100 47.29600
O  42.24900 8.43200 48.35700
O  41.42300 10.13000 47.14700
C  40.93400 10.88800 48.27900
H  41.04800 2.26900 44.95200
H  47.51000 0.72300 45.15400
H  48.98900 6.75100 45.80700
H  40.55900 6.72900 46.35800
H  40.02300 4.66900 44.42000
H  39.14600 3.42500 46.13600
H  39.03800 5.16800 46.86200
H  40.37900 4.04300 47.26000
H  40.13200 8.20200 44.58300
H  39.53300 6.76200 43.96200
H  42.20200 6.67600 42.96500
H  41.84500 8.40000 42.82400
H  42.12700 -0.70100 43.65200
H  41.00500 -0.08600 44.90900
H  42.26000 -1.32400 45.22200
H  47.07300 -2.59600 44.32400
H  47.20300 -1.34800 45.48800
H  47.09500 -0.94400 43.65300
H  49.59900 2.21000 44.78400
H  50.02100 4.50100 46.58000
H  49.94700 2.64500 47.77500
H  50.34600 1.16700 46.88600
H  48.74800 1.42700 47.50300
H  50.88700 5.59000 44.81700
H  49.94600 4.89000 43.72500
H  51.65400 3.39100 43.10300
H  51.81300 2.79900 44.76700
H  52.64100 4.22900 44.26600
H  48.35500 9.43200 46.86500
H  47.26800 10.36700 45.68300
H  48.63800 9.27100 45.17900
H  42.41600 9.14100 45.19000
H  41.79700 11.46000 48.61800
H  40.76400 10.25500 49.15000
H  40.10400 11.49500 47.91500
Mg -6.52100 25.23200 26.68200
C  -5.26500 26.58600 29.44500
C  -8.32900 22.89100 28.54400
C  -7.62400 23.85000 23.83000
C  -4.30300 27.15500 24.72700
N  -6.71400 24.72300 28.68100
C  -6.12900 25.47500 29.67300
C  -6.79900 25.19200 31.05600
C  -7.57700 23.85900 30.75800
C  -7.53800 23.77000 29.26700
C  -7.16100 22.63200 31.64400
C  -7.82300 26.32800 31.57000
C  -7.90800 26.51300 33.11500
H  -7.27600 25.40900 34.03800
N  -7.76400 23.57700 26.20900
C  -8.46500 22.81300 27.11100
C  -9.27300 21.83400 26.37000
C  -9.16900 22.17500 25.00200
C  -8.22100 23.28000 24.97500
C  -10.05500 20.81000 27.02800
C  -9.92800 21.52400 23.84200
O  -9.63000 21.83600 22.68500
C  -10.97700 20.43500 24.04400
N  -6.03600 25.52500 24.48700
C  -6.63900 24.76400 23.54100
C  -5.99500 25.02000 22.20500
C  -5.00300 26.22200 22.43500
C  -5.13900 26.37700 23.98700
C  -5.56400 23.74900 21.46000
C  -5.41200 27.50000 21.66000
C  -4.91400 27.34400 20.23700
N  -5.29800 26.75200 26.98700
C  -4.39700 27.36400 26.16200
C  -3.50600 28.23000 26.86000
C  -3.86300 27.95500 28.17000
C  -4.89900 27.05600 28.21700
C  -2.37400 29.06000 26.31000
C  -3.44600 28.16700 29.51600
O  -2.49300 28.87700 29.82400
C  -4.39400 27.31500 30.47400
C  -3.50700 26.46800 31.25600
O  -2.87600 25.43700 30.85200
O  -3.49100 27.04200 32.50100
C  -2.71600 26.32400 33.51900
H  -8.70600 22.16200 29.26400
H  -8.10100 23.36800 22.97400
H  -3.58100 27.79800 24.22000
H  -6.00400 24.98100 31.77200
H  -8.63600 23.92500 31.00700
H  -6.20500 22.70400 32.16100
H  -7.20700 21.73400 31.02900
H  -7.98900 22.37600 32.30500
H  -8.80600 26.09800 31.15900
H  -7.44900 27.24900 31.12200
H  -8.93700 26.75300 33.38300
H  -7.20900 27.32200 33.32600
H  -9.69800 19.79300 26.86400
H  -11.11600 21.01000 26.87700
H  -10.00900 20.94200 28.10900
H  -11.56800 20.37300 23.13000
H  -11.79400 20.65100 24.73200
H  -10.60800 19.43600 24.27600
H  -6.79900 25.35600 21.55000
H  -3.94200 25.98400 22.35700
H  -4.48600 23.75400 21.29900
H  -5.88100 23.82400 20.42000
H  -5.88500 22.82200 21.93600
H  -4.97200 28.40800 22.07100
H  -6.48100 27.68000 21.55100
H  -5.44800 26.52800 19.75100
H  -3.84600 27.34500 20.01900
H  -5.25400 28.27600 19.78500
H  -2.69700 29.81100 25.58800
H  -1.68300 28.36700 25.83100
H  -1.82600 29.43300 27.17500
H  -4.94600 27.98900 31.12800
H  -2.03500 27.08700 33.89500
H  -2.13900 25.41700 33.33800
H  -3.45500 26.10300 34.28900

