158

Mg 23.87600 -4.72700 45.14200
C  26.02000 -2.50100 43.60500
C  21.51300 -4.10600 42.83000
C  22.15800 -7.51100 46.21200
C  26.41900 -5.68000 47.35300
N  23.69100 -3.38300 43.44000
C  24.68800 -2.44300 43.08300
C  24.21400 -1.48900 41.92700
C  22.65100 -1.90200 41.86500
C  22.57800 -3.19900 42.74100
C  21.76000 -0.85900 42.57700
C  25.00900 -1.75000 40.65000
C  25.63000 -0.57900 39.88800
H  25.53200 -0.66700 38.42000
N  22.01100 -5.60700 44.64500
C  21.20900 -5.21400 43.63400
C  20.04600 -6.10500 43.57600
C  20.19900 -7.10800 44.58300
C  21.51500 -6.81800 45.21200
C  18.98200 -6.02000 42.53000
C  19.27900 -8.26600 44.75700
O  18.26100 -8.31600 44.03300
C  19.32900 -9.35800 45.83700
N  24.26800 -6.43200 46.52500
C  23.37200 -7.41900 46.81100
C  23.86000 -8.40700 47.91000
C  25.27600 -7.79100 48.34900
C  25.31200 -6.56300 47.37600
C  22.92800 -8.87700 49.08400
C  26.46400 -8.74600 48.12900
C  27.49600 -8.90500 49.22900
N  25.83300 -4.31300 45.44100
C  26.75900 -4.70300 46.39000
C  28.06600 -4.06100 46.10500
C  27.77000 -3.18800 45.02100
C  26.42000 -3.37600 44.66800
C  29.27500 -4.24900 46.91200
C  28.37900 -2.20100 44.15800
O  29.51500 -1.75400 44.26900
C  27.25600 -1.67500 43.18200
C  27.17200 -0.26000 43.39600
O  26.42300 0.41100 44.08300
O  28.16200 0.32100 42.64900
C  28.21500 1.82300 42.77400
H  20.80200 -3.90900 42.02400
H  21.52700 -8.30600 46.61500
H  27.23800 -5.98900 48.00500
H  24.25000 -0.43500 42.20400
H  22.21700 -2.08300 40.88200
H  20.84400 -1.33800 42.92200
H  21.32900 -0.10500 41.91700
H  22.18700 -0.33200 43.43000
H  24.33700 -2.08500 39.86000
H  25.81900 -2.47800 40.69000
H  26.70100 -0.53800 40.08800
H  25.13800 0.31800 40.26400
H  17.98200 -6.08700 42.95800
H  19.13800 -6.96600 42.01100
H  19.09500 -5.19100 41.83100
H  19.26000 -8.83300 46.79000
H  20.21400 -9.98700 45.74100
H  18.41400 -9.95100 45.81300
H  24.10600 -9.28500 47.31200
H  25.34000 -7.48000 49.39200
H  21.97100 -8.41200 49.32200
H  23.47800 -8.82700 50.02400
H  22.67500 -9.91700 48.87900
H  26.95700 -8.40600 47.21700
H  26.12800 -9.76000 47.91700
H  27.40600 -9.94300 49.54700
H  27.33500 -8.15400 50.00300
H  28.49000 -8.67900 48.84400
H  29.81900 -5.13400 46.58100
H  29.02200 -4.53500 47.93300
H  29.88200 -3.34500 46.86900
H  27.59500 -1.88400 42.16700
H  27.93400 2.20000 43.75800
H  27.54600 2.25900 42.03300
H  29.23700 2.19200 42.69300
Mg 9.27400 48.15500 25.54000
C  6.70700 48.85700 27.97400
C  11.58000 49.07000 27.86800
C  11.66700 47.67400 23.25300
C  6.71500 47.91600 23.18000
N  9.06800 48.85000 27.69900
C  7.98100 48.89200 28.50900
C  8.51800 48.88300 29.99200
C  10.00700 49.33200 29.78800
C  10.25100 49.03100 28.35100
C  10.40700 50.79400 30.14800
C  8.29200 47.54000 30.87600
C  7.79700 47.64300 32.35400
H  8.76100 47.23200 33.48500
N  11.32400 48.47400 25.54500
C  12.09100 48.88100 26.57500
C  13.50600 48.89600 26.10400
C  13.46200 48.23800 24.87700
C  12.09700 48.05400 24.49600
C  14.60200 49.30600 27.04200
C  14.63400 47.65700 24.09600
O  14.49100 47.00900 23.13600
C  16.03900 47.87600 24.59200
N  9.19500 47.97600 23.42900
C  10.31200 47.53700 22.75100
C  9.85800 47.06300 21.39400
C  8.29600 47.47600 21.29800
C  8.04200 47.81500 22.71900
C  10.60800 47.55700 20.23400
C  7.43500 46.30700 20.67700
C  6.81200 46.73600 19.39700
N  7.15300 48.18000 25.53600
C  6.26200 48.09000 24.48400
C  4.85500 48.23000 24.94800
C  5.02600 48.40000 26.36000
C  6.41100 48.50100 26.64200
C  3.54800 48.23800 24.24400
C  4.24600 48.67300 27.58100
O  3.04000 48.72000 27.77100
C  5.34200 49.21600 28.64100
C  5.07000 48.66100 29.98200
O  4.98100 47.44800 30.27900
O  4.79100 49.73200 30.90200
C  4.25900 49.34900 32.22400
H  12.38500 49.31000 28.56600
H  12.32200 47.33200 22.44900
H  5.92600 47.79300 22.43500
H  7.90600 49.55500 30.59300
H  10.69100 48.76800 30.42100
H  11.22100 50.81000 30.87200
H  9.65300 51.28800 30.76100
H  10.67600 51.43000 29.30400
H  9.25400 47.03300 30.94200
H  7.63700 46.90400 30.28100
H  6.82500 47.16400 32.47300
H  7.56600 48.70400 32.45400
H  15.34800 48.55800 27.30900
H  14.34700 49.74300 28.00800
H  15.03600 50.11300 26.45000
H  16.11700 48.93800 24.82300
H  16.67300 47.48100 23.79900
H  16.16000 47.25700 25.48200
H  10.16600 46.03700 21.59300
H  8.10000 48.34100 20.66500
H  9.90800 47.52100 19.39900
H  11.46700 46.93300 19.98900
H  11.05400 48.54700 20.32400
H  6.63900 46.02200 21.36400
H  8.11900 45.48800 20.45500
H  6.60400 45.85600 18.78800
H  7.49000 47.38000 18.83700
H  5.85500 47.25800 19.40600
H  2.70200 47.68400 24.64900
H  3.61800 47.76300 23.26500
H  3.16400 49.25700 24.30300
H  5.44100 50.30000 28.71000
H  5.16400 49.07700 32.76700
H  3.52600 48.55800 32.06100
H  3.69800 50.14000 32.72300

