158

Mg 25.62500 0.61900 29.01200
C  27.72800 0.31500 31.98600
C  22.94900 1.00800 31.06600
C  23.84600 0.88300 26.26000
C  28.47500 -0.23300 27.11800
N  25.41000 0.60500 31.24400
C  26.38700 0.60400 32.27100
C  25.62200 0.89600 33.65800
C  24.09400 1.12600 33.30700
C  24.17500 0.85600 31.80200
C  23.05200 0.23300 34.03000
C  26.21900 2.14400 34.37100
C  25.57400 2.47100 35.80100
H  26.68400 2.50200 36.95200
N  23.67000 0.88900 28.70100
C  22.70800 0.95100 29.63900
C  21.45500 1.17900 28.98000
C  21.69300 1.18000 27.62500
C  23.13700 0.93500 27.44700
C  20.16000 1.28400 29.79300
C  20.71000 1.59800 26.43200
O  21.06100 1.58900 25.27100
C  19.22900 1.94300 26.65200
N  26.10000 0.41300 27.03800
C  25.21300 0.64600 26.03000
C  25.76500 0.64000 24.63600
C  27.22200 0.23000 24.90400
C  27.28400 0.08000 26.43500
C  24.97600 -0.18200 23.59800
C  28.25900 1.19800 24.26300
C  28.96700 0.81300 22.92800
N  27.64700 0.10600 29.39800
C  28.62900 -0.21700 28.50300
C  29.78900 -0.72100 29.25800
C  29.51000 -0.40900 30.60100
C  28.19200 0.09300 30.64100
C  30.99200 -1.35200 28.69200
C  30.06900 -0.40000 31.93700
O  31.17300 -0.78700 32.29200
C  28.92700 0.00200 32.87800
C  28.63900 -1.02300 33.88300
O  27.85400 -1.97300 33.68000
O  29.49800 -0.88700 34.96300
C  29.33700 -2.01200 35.98100
H  22.13600 1.26900 31.74700
H  23.36400 1.24800 25.35000
H  29.15200 -0.66400 26.37700
H  25.77800 0.01100 34.27300
H  23.70300 2.13400 33.45100
H  22.22700 0.90500 34.27000
H  23.42100 -0.07500 35.00800
H  22.78900 -0.61300 33.39600
H  26.13700 3.04200 33.75800
H  27.28700 2.02500 34.55400
H  24.84200 1.69500 36.02500
H  25.11800 3.45900 35.73800
H  19.81900 2.28500 29.52800
H  20.29400 1.18200 30.87000
H  19.40100 0.59900 29.41600
H  18.76500 2.48300 25.82700
H  19.09400 2.62200 27.49300
H  18.73500 0.98300 26.80300
H  25.71400 1.70600 24.41300
H  27.38700 -0.74500 24.44700
H  24.81100 0.51300 22.77500
H  24.04800 -0.61400 23.97300
H  25.59600 -1.02900 23.30500
H  29.12000 1.28600 24.92500
H  27.81900 2.19400 24.21300
H  28.64300 -0.12900 22.48600
H  30.05300 0.86400 23.00800
H  28.64000 1.63700 22.29400
H  31.19300 -0.87100 27.73500
H  30.60200 -2.35000 28.49000
H  31.83000 -1.23300 29.37800
H  29.27500 0.90000 33.38800
H  29.05400 -1.56400 36.93300
H  30.24600 -2.61200 36.02500
H  28.64600 -2.83800 35.81400
Mg 53.35600 23.05100 44.61300
C  51.61300 25.97700 43.85400
C  50.87000 21.17700 43.17800
C  55.44000 20.26900 44.60000
C  55.80300 24.93700 46.07500
N  51.49700 23.55600 43.59000
C  51.01500 24.76200 43.33300
C  49.68900 24.61400 42.63700
C  49.20500 23.21900 43.11100
C  50.58900 22.55400 43.31400
C  48.17100 23.15700 44.33400
C  49.86700 24.68200 41.08000
C  51.13300 25.32900 40.44100
H  50.99100 25.91600 39.08700
N  53.13900 20.95500 44.19000
C  52.04600 20.44900 43.51500
C  52.20300 19.07200 43.30000
C  53.58100 18.80700 43.52700
C  54.16300 20.04700 44.05800
C  51.22100 18.10800 42.58100
C  54.30400 17.47500 43.16000
O  53.69000 16.54500 42.65700
C  55.81400 17.31500 43.36500
N  55.35000 22.64700 45.17200
C  55.99200 21.47800 45.13800
C  57.40800 21.52500 45.69900
C  57.41000 22.98900 46.28500
C  56.10800 23.62200 45.83000
C  57.74300 20.49100 46.75000
C  58.58600 23.85800 45.73300
C  58.60200 24.43000 44.27900
N  53.73300 25.03000 44.83900
C  54.74000 25.68200 45.55100
C  54.45500 27.18600 45.60200
C  53.26500 27.31400 44.94500
C  52.83300 25.99400 44.54300
C  55.20900 28.32900 46.29600
C  52.17500 28.23100 44.51600
O  52.07300 29.46000 44.49600
C  51.09100 27.38000 43.91500
C  50.91000 27.91300 42.54100
O  51.79700 28.50100 41.93500
O  49.62600 27.78500 42.24000
C  49.21400 28.60300 41.02100
H  49.96900 20.62300 42.90600
H  56.12900 19.44200 44.78300
H  56.63700 25.55700 46.40800
H  49.03000 25.35800 43.08300
H  48.62100 22.74700 42.32100
H  47.18400 22.83200 44.00800
H  48.13800 24.17700 44.71900
H  48.51300 22.44500 45.08600
H  49.01300 25.14700 40.58700
H  49.86700 23.64700 40.73900
H  52.06100 24.75800 40.44200
H  51.47400 26.17900 41.03300
H  50.27100 18.64200 42.55300
H  51.25200 17.12900 43.05900
H  51.59000 18.02800 41.55900
H  55.91400 17.27500 44.45000
H  56.25600 18.20300 42.91500
H  56.13000 16.38100 42.90000
H  58.11700 21.54100 44.87200
H  57.38300 23.13500 47.36500
H  56.86500 19.92700 47.06600
H  57.96900 21.02800 47.67100
H  58.51800 19.80900 46.39900
H  59.36000 23.09100 45.71100
H  58.92600 24.56800 46.48800
H  59.30700 23.86400 43.67000
H  58.91200 25.47100 44.36700
H  57.68200 24.38900 43.69500
H  56.18000 28.28300 45.80400
H  55.23000 28.15400 47.37200
H  54.72000 29.26600 46.03100
H  50.16300 27.44800 44.48300
H  48.29800 29.16500 41.19900
H  48.98700 27.90600 40.21500
H  49.96400 29.35700 40.78200

