158

Mg 42.98500 41.64900 25.81300
C  42.24900 43.84900 28.32600
C  44.20300 39.51700 28.01800
C  43.89000 39.82700 23.10800
C  41.87500 44.17300 23.39300
N  43.28600 41.75100 27.92000
C  42.86500 42.70400 28.79400
C  42.92600 42.24800 30.25600
C  43.71700 40.85700 30.13600
C  43.75600 40.72000 28.59200
C  45.07600 40.79400 30.92800
C  41.52300 42.15800 30.90000
C  41.51700 41.54700 32.29600
H  41.00500 42.28100 33.55700
N  43.91400 39.91800 25.63200
C  44.27100 39.15900 26.67200
C  44.70400 37.83000 26.15800
C  44.56300 37.92100 24.75200
C  44.10500 39.29600 24.41000
C  45.10400 36.78400 27.10200
C  44.76900 36.77600 23.76700
O  44.58600 36.96600 22.56100
C  45.20800 35.43100 24.25800
N  42.81800 42.01700 23.54200
C  43.39200 41.04600 22.70200
C  43.33100 41.53000 21.21400
C  42.47100 42.85700 21.36200
C  42.37300 43.03300 22.87600
C  44.77500 41.81000 20.57300
C  41.02000 42.72500 20.72600
C  40.08200 41.69900 21.48200
N  42.29600 43.65500 25.80600
C  41.79200 44.49600 24.78900
C  41.32100 45.73700 25.38900
C  41.44900 45.56100 26.80400
C  42.03300 44.26600 26.97000
C  40.80900 46.90500 24.60600
C  41.25900 46.10700 28.09200
O  40.84600 47.21500 28.40700
C  41.85200 45.04800 29.15300
C  42.88600 45.64900 29.94200
O  43.89400 46.23100 29.57300
O  42.52100 45.37600 31.26700
C  43.50500 45.82200 32.35000
H  44.47700 38.77200 28.76700
H  44.13700 39.18600 22.25900
H  41.52200 44.98100 22.74800
H  43.52600 42.94700 30.83800
H  43.10700 40.03400 30.50800
H  45.28300 41.72600 31.45400
H  45.83600 40.52800 30.19400
H  44.97200 40.01800 31.68600
H  40.83600 41.60200 30.26200
H  41.08600 43.11700 31.18100
H  42.50500 41.14300 32.51700
H  40.88900 40.65700 32.28200
H  45.30000 37.12400 28.11900
H  46.05700 36.37700 26.76400
H  44.48100 35.89000 27.06600
H  44.44500 34.95000 24.87000
H  46.14400 35.60200 24.78800
H  45.33100 34.78100 23.39100
H  42.90600 40.78800 20.53800
H  42.97100 43.76400 21.02000
H  44.98000 42.88100 20.55600
H  44.81700 41.32900 19.59600
H  45.51700 41.32700 21.20900
H  41.14100 42.51600 19.66300
H  40.51500 43.69100 20.71000
H  39.31300 42.24000 22.03200
H  40.59600 41.07700 22.21600
H  39.60400 41.06800 20.73300
H  40.25700 46.62400 23.70900
H  41.64200 47.52500 24.27400
H  40.11900 47.47200 25.23200
H  40.91800 44.81400 29.66300
H  44.42000 46.32900 32.04100
H  43.89300 44.87400 32.72200
H  42.97600 46.39400 33.11200
Mg 17.01900 51.07100 26.90000
C  19.24200 49.93500 29.26900
C  15.00100 52.14600 29.35000
C  15.14100 52.09500 24.43900
C  19.45300 49.85500 24.45700
N  17.05300 50.98700 29.04800
C  18.16300 50.54000 29.84100
C  17.88900 50.76900 31.34200
C  16.33900 51.15700 31.28000
C  16.12000 51.50800 29.80900
C  15.40600 50.05700 31.84300
C  18.77400 51.94000 31.92500
C  18.92900 51.89300 33.53600
H  17.84300 51.20500 34.30800
N  15.30000 51.95000 26.88000
C  14.61100 52.34600 27.96000
C  13.40100 53.04100 27.53600
C  13.41300 53.05500 26.05500
C  14.67100 52.30700 25.70800
C  12.30000 53.49600 28.54700
C  12.41000 53.50600 24.96500
O  12.52400 53.45100 23.76600
C  11.17700 54.16400 25.47800
N  17.32300 50.97600 24.73900
C  16.33100 51.50600 24.00600
C  16.78800 51.54300 22.56000
C  18.23200 51.00300 22.53300
C  18.35900 50.57600 23.96700
C  15.87200 50.92600 21.56100
C  19.26400 52.10900 22.10300
C  20.22700 51.64300 20.99200
N  18.84500 49.87900 26.86500
C  19.75000 49.56100 25.85000
C  20.85700 48.76300 26.34200
C  20.72900 48.96200 27.72100
C  19.51700 49.62000 27.95600
C  22.01000 48.23300 25.58100
C  21.44200 48.77700 28.94600
O  22.46900 48.27100 29.27400
C  20.42100 49.43600 29.98700
C  19.97800 48.38500 30.97200
O  19.14800 47.54100 30.68600
O  20.69700 48.43600 32.17600
C  20.07600 47.59400 33.22300
H  14.33100 52.57200 30.09900
H  14.49300 52.46300 23.64000
H  20.22400 49.61900 23.72200
H  18.20500 49.86200 31.85900
H  16.17200 52.10200 31.79600
H  14.54300 49.96900 31.18200
H  15.03700 50.26600 32.84700
H  15.84400 49.05900 31.81800
H  18.35900 52.92500 31.71100
H  19.73800 51.93400 31.41700
H  19.06800 52.89400 33.94300
H  19.89000 51.38200 33.59600
H  11.32500 53.03100 28.40200
H  12.14100 54.55900 28.36600
H  12.42500 53.36100 29.62200
H  10.76300 53.47900 26.21700
H  10.46800 54.41000 24.68800
H  11.57400 55.12300 25.81200
H  16.69600 52.60100 22.31400
H  18.32300 50.16500 21.84200
H  15.67900 49.93000 21.95800
H  16.41900 50.80700 20.62500
H  14.99400 51.56800 21.49000
H  19.91900 52.32500 22.94800
H  18.78500 53.03800 21.79700
H  19.69200 51.76400 20.05000
H  20.50000 50.60300 21.17200
H  21.12600 52.25900 20.98500
H  22.88200 48.39400 26.21400
H  22.20500 48.65400 24.59500
H  21.83900 47.17800 25.36600
H  21.06500 50.21600 30.39300
H  19.02100 47.34000 33.12200
H  20.27500 47.90000 34.25000
H  20.45800 46.61100 32.94500

