158

Mg 35.31700 0.21800 29.12800
C  33.05700 1.43500 31.36400
C  37.88400 0.31200 31.37900
C  37.45300 -0.69300 26.66700
C  32.70800 0.53700 26.70800
N  35.45600 0.88300 31.13000
C  34.39800 1.24200 31.91100
C  34.84900 1.49500 33.39400
C  36.36100 1.18200 33.33300
C  36.58100 0.69300 31.83200
C  37.24600 2.35600 33.76000
C  34.02200 0.64200 34.42100
C  34.05200 0.85700 35.89300
H  35.00500 1.94100 36.46300
N  37.41700 -0.15300 29.09200
C  38.27800 -0.13200 30.12800
C  39.57800 -0.53500 29.65600
C  39.46500 -1.00100 28.33400
C  38.06900 -0.59600 27.94200
C  40.78800 -0.56600 30.58200
C  40.47200 -1.74200 27.48000
O  40.25700 -2.13600 26.35100
C  41.84000 -2.12000 27.97900
N  35.11500 -0.01100 26.96100
C  36.21600 -0.41800 26.19100
C  35.73400 -0.60100 24.70700
C  34.17700 -0.61500 24.95900
C  33.95200 0.11000 26.21700
C  36.19600 0.49800 23.83800
C  33.59500 -1.99500 25.03400
C  32.57000 -2.24200 23.89300
N  33.28500 0.89700 28.94400
C  32.36000 0.97400 27.92800
C  31.08700 1.50800 28.37600
C  31.27700 1.68200 29.74900
C  32.64000 1.22000 30.05800
C  29.76700 1.58500 27.63700
C  30.65400 2.02400 30.98400
O  29.50200 2.41000 31.18500
C  31.76800 1.86800 32.08000
C  31.79900 3.13500 32.89400
O  32.25800 4.23300 32.59100
O  31.26000 2.88800 34.17200
C  31.15500 4.06700 35.03600
H  38.77100 0.35200 32.01500
H  38.07800 -0.93800 25.80600
H  31.85800 0.48000 26.02500
H  34.67200 2.54800 33.61100
H  36.54600 0.35200 34.01400
H  37.74100 2.16200 34.71200
H  36.72300 3.30600 33.86900
H  37.98200 2.51100 32.97200
H  34.41100 -0.36600 34.27200
H  32.98500 0.67600 34.08500
H  34.20300 -0.05900 36.46500
H  33.08900 1.24500 36.22500
H  41.07800 -1.57400 30.87700
H  40.62800 0.06800 31.45400
H  41.60100 -0.06000 30.06100
H  42.47700 -1.29300 28.29200
H  42.32400 -2.66200 27.16700
H  41.63000 -2.80400 28.80100
H  36.10100 -1.52600 24.26300
H  33.64900 -0.05300 24.18800
H  36.57900 0.03800 22.92700
H  37.03500 1.03000 24.28700
H  35.32200 1.07000 23.52500
H  33.17800 -2.18400 26.02300
H  34.37300 -2.75800 24.99800
H  31.63800 -2.60000 24.33000
H  32.91800 -3.01400 23.20600
H  32.36900 -1.37000 23.27200
H  29.09200 0.79100 27.95600
H  30.04100 1.75300 26.59500
H  29.23800 2.51100 27.86000
H  31.57200 1.03700 32.75800
H  31.99100 4.08900 35.73400
H  30.18100 4.11500 35.52200
H  31.23300 5.02800 34.52700
Mg 47.40400 14.37600 27.41800
C  45.41900 14.27400 30.31400
C  49.61500 16.43200 29.10100
C  49.24600 14.30600 24.64000
C  44.88200 12.54600 25.77100
N  47.50300 15.21900 29.45100
C  46.64100 14.95000 30.53100
C  47.13900 15.65000 31.77500
C  48.24700 16.57600 31.25000
C  48.45600 16.05500 29.80500
C  47.98400 18.16600 31.21100
C  47.54600 14.67300 32.90500
C  47.16200 15.21200 34.28200
H  48.03600 14.83900 35.49500
N  49.19000 15.35400 26.93400
C  49.97100 16.07200 27.79100
C  51.19100 16.43500 27.12600
C  51.14700 15.84000 25.81700
C  49.83400 15.09500 25.72000
C  52.31200 17.23800 27.76700
C  52.07000 15.84500 24.70800
O  51.91500 15.17000 23.66900
C  53.36900 16.65800 24.76000
N  46.93100 13.74600 25.38100
C  47.93500 13.75300 24.46200
C  47.52500 13.13500 23.14000
C  46.15200 12.43100 23.53400
C  45.98700 12.86200 24.99100
C  47.42800 14.08000 21.93100
C  46.21800 10.89600 23.33800
C  46.68600 10.09600 24.55800
N  45.56800 13.57800 27.88100
C  44.63100 12.90500 27.09300
C  43.47900 12.55900 27.91300
C  43.73000 13.07100 29.14900
C  45.01200 13.65600 29.13800
C  42.25400 11.85300 27.57700
C  43.19300 13.29800 30.41700
O  42.12600 13.03200 30.87800
C  44.31500 13.98400 31.34000
C  43.67900 15.15600 32.09100
O  43.06300 16.04100 31.48400
O  43.79500 15.14600 33.43600
C  42.97300 16.19100 34.09400
H  50.24900 17.17600 29.58800
H  49.76900 14.18600 23.69000
H  44.22400 11.88200 25.20800
H  46.29500 16.32700 31.91100
H  49.22900 16.32000 31.64600
H  47.20700 18.50300 31.89700
H  47.65600 18.49000 30.22400
H  48.85800 18.80700 31.32100
H  48.61600 14.48000 32.82900
H  47.00800 13.73200 32.79300
H  46.19900 14.75400 34.50800
H  47.05200 16.29300 34.37100
H  52.33200 17.25700 28.85600
H  52.12700 18.29600 27.57900
H  53.34100 17.02300 27.47700
H  54.14900 16.09700 25.27600
H  53.24500 17.65900 25.17100
H  53.69300 16.83000 23.73400
H  48.28000 12.40500 22.85000
H  45.30800 12.82500 22.96700
H  47.87500 15.03700 22.19900
H  46.38300 14.14600 21.62600
H  48.02600 13.66000 21.12200
H  46.88800 10.54800 22.55300
H  45.20500 10.58600 23.08000
H  47.16200 9.15800 24.27100
H  45.83100 9.59900 25.01600
H  47.41600 10.58200 25.20600
H  42.04000 12.10800 26.53900
H  41.47800 12.29000 28.20600
H  42.24500 10.78900 27.81200
H  44.65000 13.28500 32.10600
H  41.99600 16.17300 33.61100
H  43.56200 17.10700 34.06000
H  42.88900 15.93400 35.15000

