158

Mg -0.09100 8.13200 26.89000
C  0.50800 10.01900 29.62500
C  -0.20800 5.30400 28.87500
C  -0.34600 6.27500 24.04200
C  0.23900 10.98200 24.85100
N  0.12900 7.73700 28.96300
C  0.31500 8.69300 29.90800
C  0.23800 8.03500 31.37800
C  0.29300 6.47400 31.09100
C  0.09200 6.49700 29.53000
C  1.65500 5.67600 31.41300
C  -1.11300 8.41500 32.05600
C  -1.19400 8.37600 33.60100
H  0.02600 7.92000 34.43900
N  -0.40900 6.13800 26.47400
C  -0.33500 5.13300 27.46600
C  -0.56300 3.84000 26.80900
C  -0.64300 4.06000 25.38700
C  -0.43700 5.53700 25.21000
C  -0.66400 2.49100 27.51700
C  -0.90400 3.07200 24.21600
O  -0.92200 3.44000 23.08900
C  -1.28500 1.66400 24.57400
N  -0.10800 8.58600 24.84900
C  -0.25400 7.64500 23.84100
C  -0.17600 8.32500 22.39400
C  -0.34000 9.80700 22.72100
C  0.00900 9.79500 24.19700
C  1.18200 8.11800 21.64600
C  -1.64400 10.48700 22.32500
C  -2.99900 9.80900 22.47200
N  0.40600 10.11700 27.17300
C  0.48700 11.17000 26.25200
C  0.86500 12.32700 26.99100
C  0.98000 11.91500 28.29900
C  0.58800 10.60200 28.35100
C  1.17900 13.66900 26.36900
C  1.27500 12.32900 29.65400
O  1.65900 13.46200 30.06000
C  0.84900 11.15200 30.55300
C  2.11900 10.85000 31.37700
O  3.14400 10.33100 30.98800
O  1.90200 11.13200 32.68600
C  2.90900 10.63000 33.63200
H  -0.27100 4.40500 29.49200
H  -0.24200 5.66200 23.14400
H  0.24200 11.85700 24.19700
H  1.14400 8.32000 31.91400
H  -0.45700 5.82900 31.54900
H  1.53200 4.72600 31.93300
H  2.25500 6.35500 32.01900
H  2.20500 5.46600 30.49600
H  -1.92000 7.78300 31.68500
H  -1.44100 9.42700 31.81500
H  -2.10200 7.84100 33.87600
H  -1.35600 9.41300 33.89500
H  -1.65400 2.06700 27.68300
H  -0.16200 2.62700 28.47600
H  -0.05300 1.74000 27.01600
H  -0.40000 1.07300 24.80800
H  -1.62500 1.25000 23.62400
H  -2.01800 1.74200 25.37600
H  -0.95400 8.03000 21.69000
H  0.43600 10.35300 22.18400
H  1.09100 7.33900 20.88900
H  1.97600 7.78000 22.31200
H  1.44400 8.92600 20.96400
H  -1.44800 10.70400 21.27500
H  -1.72600 11.39900 22.91600
H  -3.31600 9.53100 21.46700
H  -3.71000 10.49100 22.94000
H  -2.88600 8.95000 23.13300
H  1.20700 14.48400 27.09200
H  0.58900 14.01300 25.51900
H  2.16700 13.40800 25.98900
H  0.03400 11.47000 31.20300
H  2.73700 11.06900 34.61500
H  3.95100 10.78800 33.35300
H  2.67900 9.57300 33.76600
Mg 57.21400 23.31500 45.16700
C  55.34100 25.96600 44.20600
C  54.98500 21.09400 43.66300
C  59.60000 20.74500 45.47400
C  59.74900 25.53200 46.22800
N  55.49400 23.52100 43.97000
C  54.85600 24.74100 43.71200
C  53.47700 24.51500 43.05600
C  53.21800 22.97500 43.34100
C  54.66300 22.48000 43.68500
C  52.16800 22.55500 44.38000
C  53.66700 24.91400 41.60800
C  52.65800 25.85500 40.98300
H  51.64600 25.36200 39.94200
N  57.28600 21.21700 44.71300
C  56.21500 20.55000 44.09000
C  56.58200 19.22600 44.04500
C  57.79600 19.06800 44.70400
C  58.28900 20.36000 45.03500
C  55.52900 18.20500 43.47700
C  58.42200 17.66500 44.95800
O  57.97400 16.73600 44.30400
C  59.66000 17.47500 45.81800
N  59.37300 23.13800 45.58900
C  60.07600 22.03800 45.78800
C  61.47500 22.19100 46.34900
C  61.59600 23.77500 46.33200
C  60.13800 24.20700 46.04700
C  61.68700 21.47800 47.65300
C  62.57100 24.37000 45.23400
C  64.08300 24.28500 45.60700
N  57.43900 25.34400 45.34800
C  58.47600 26.15200 45.83700
C  58.02500 27.50300 45.93900
C  56.78100 27.51100 45.27200
C  56.55100 26.16900 44.89700
C  58.72700 28.72200 46.61200
C  55.65700 28.31100 44.89300
O  55.52000 29.51800 45.04700
C  54.76000 27.34900 44.07100
C  54.63400 27.95500 42.73800
O  55.46400 27.89400 41.88800
O  53.42500 28.65700 42.61500
C  53.22800 29.33300 41.31300
H  54.15800 20.49400 43.27700
H  60.34000 19.97700 45.70900
H  60.46500 26.29200 46.54800
H  52.61800 25.03700 43.47700
H  52.91600 22.52000 42.39700
H  51.49200 21.80300 43.97300
H  51.57900 23.40500 44.72600
H  52.69200 22.16700 45.25400
H  53.65300 24.06700 40.92300
H  54.68200 25.27900 41.45200
H  53.32000 26.61300 40.56500
H  52.05400 26.40900 41.70100
H  55.45000 18.43600 42.41500
H  54.54600 18.33300 43.93200
H  55.76700 17.14200 43.46400
H  60.57100 17.76500 45.29500
H  59.77100 16.42800 46.09800
H  59.45500 18.09300 46.69200
H  61.99400 21.60700 45.58900
H  61.91500 24.18200 47.29200
H  62.74100 21.20100 47.69300
H  61.00100 20.63300 47.69800
H  61.47500 22.13900 48.49300
H  62.37600 25.40900 44.96700
H  62.45200 23.86700 44.27500
H  64.58400 23.34300 45.38500
H  64.14900 24.48300 46.67700
H  64.63900 25.02600 45.03300
H  59.78800 28.50600 46.73400
H  58.31400 28.78000 47.62000
H  58.61500 29.66000 46.06700
H  53.77600 27.36300 44.54000
H  54.20300 29.53600 40.87100
H  52.64400 30.25100 41.37800
H  52.63000 28.73900 40.62200

