158

Mg 6.75300 53.70000 41.61300
C  6.25600 50.35200 41.25200
C  10.05000 53.38900 40.41300
C  6.93700 57.11400 41.42400
C  3.25700 54.05000 42.12600
N  7.88700 52.06700 40.78500
C  7.53000 50.72600 40.84400
C  8.66500 49.87800 40.25400
C  9.89100 50.87000 40.48300
C  9.23300 52.20900 40.47700
C  10.62600 50.72900 41.85300
C  8.42900 49.38900 38.77600
C  8.15000 50.52700 37.69800
H  6.94600 50.24500 36.78800
N  8.27300 55.06300 41.07200
C  9.56100 54.75800 40.62700
C  10.36100 56.00500 40.59500
C  9.48900 57.05800 41.04900
C  8.13500 56.43800 41.17200
C  11.86000 55.92900 40.47100
C  10.01000 58.53800 41.26500
O  11.19000 58.88300 41.03100
C  9.16400 59.58700 41.71400
N  5.26800 55.37500 41.84700
C  5.65300 56.69600 41.70000
C  4.45300 57.62500 41.92900
C  3.25600 56.59600 42.07700
C  3.93000 55.25200 41.97700
C  4.58400 58.64900 43.08600
C  2.22000 56.71300 40.85200
C  0.77800 56.40200 41.15400
N  5.06700 52.48600 41.80800
C  3.71300 52.75300 42.11600
C  2.97100 51.55200 42.19100
C  3.99700 50.54200 41.94200
C  5.16300 51.20100 41.62700
C  1.49100 51.25900 42.33800
C  4.21000 49.12700 41.86200
O  3.37900 48.24000 41.97700
C  5.66400 48.96800 41.36700
C  5.39700 48.18100 40.13100
O  4.94600 48.66600 39.11900
O  6.04100 47.04600 40.13900
C  5.92900 46.17000 39.03700
H  11.11700 53.36500 40.18600
H  7.04900 58.20000 41.38800
H  2.22300 54.25400 42.41300
H  8.84600 48.97400 40.83600
H  10.61200 50.72800 39.67800
H  11.68800 50.80100 41.62000
H  10.28300 49.74500 42.17300
H  10.30600 51.52400 42.52800
H  7.66200 48.61500 38.77100
H  9.36500 48.88000 38.54600
H  8.94600 50.59300 36.95600
H  8.01800 51.44200 38.27600
H  12.05700 55.27300 39.62300
H  12.33300 55.51700 41.36300
H  12.31200 56.90900 40.31200
H  8.48600 59.69900 40.86700
H  9.65300 60.51000 42.02500
H  8.57300 59.30000 42.58400
H  4.39700 58.16100 40.98200
H  2.78500 56.71000 43.05300
H  3.74200 58.65600 43.77800
H  4.62900 59.66300 42.68800
H  5.46400 58.41600 43.68600
H  2.59500 56.04600 40.07500
H  2.13800 57.73200 40.47500
H  0.22400 57.33800 41.22900
H  0.63800 55.93900 42.13100
H  0.32200 55.72200 40.43500
H  1.13200 50.65900 41.50100
H  1.04900 52.25500 42.32800
H  1.26900 50.76300 43.28200
H  6.09000 48.34800 42.15600
H  4.96100 45.70100 39.21300
H  6.71000 45.41300 39.10200
H  6.04500 46.57600 38.03300
Mg -12.82200 39.36800 42.78100
C  -11.11100 36.36600 41.76100
C  -10.42500 41.10900 41.04000
C  -14.61900 41.99500 43.26100
C  -15.46200 37.22200 43.82600
N  -10.92300 38.71300 41.54700
C  -10.45600 37.43700 41.31700
C  -9.19500 37.52200 40.34000
C  -8.87300 39.06500 40.30600
C  -10.09300 39.70700 40.97900
C  -7.55800 39.51800 40.95400
C  -9.34200 36.87400 38.97700
C  -8.14700 36.02700 38.43600
H  -7.23200 36.75300 37.56900
N  -12.51100 41.31300 42.33000
C  -11.50600 41.85300 41.55100
C  -11.75800 43.26300 41.39000
C  -12.88600 43.60100 42.23200
C  -13.41400 42.29500 42.65700
C  -10.75700 44.25400 40.66700
C  -13.40600 45.04000 42.59200
O  -12.90200 45.97700 41.94300
C  -14.29100 45.25900 43.69600
N  -14.80300 39.52900 43.34300
C  -15.27200 40.80600 43.58100
C  -16.58000 40.75700 44.35300
C  -16.82300 39.19300 44.63900
C  -15.63500 38.63000 43.87500
C  -16.73100 41.71900 45.56700
C  -18.17800 38.69200 44.14400
C  -19.12100 38.41200 45.43300
N  -13.23200 37.20400 42.77600
C  -14.34800 36.53700 43.22200
C  -14.07700 35.12700 43.29800
C  -12.79800 34.99700 42.67500
C  -12.37200 36.29200 42.42800
C  -14.94700 34.07200 43.90900
C  -11.74600 34.05000 42.38600
O  -11.72600 32.79600 42.49000
C  -10.67700 34.90800 41.66000
C  -9.33100 34.62800 42.20800
O  -8.90000 35.00300 43.25000
O  -8.78200 33.48900 41.60600
C  -7.53900 32.88200 42.13000
H  -9.65000 41.65600 40.49900
H  -15.17900 42.91100 43.46300
H  -16.29200 36.57400 44.11500
H  -8.42100 36.88700 40.77100
H  -8.74600 39.39100 39.27400
H  -7.13600 38.78000 41.63700
H  -7.63600 40.35100 41.65200
H  -6.88900 39.83400 40.15300
H  -9.36800 37.62100 38.18400
H  -10.28600 36.33600 38.88300
H  -8.64100 35.22400 37.88900
H  -7.74300 35.38000 39.21500
H  -10.29100 45.05400 41.24200
H  -11.25300 44.73200 39.82200
H  -9.83100 43.85200 40.25600
H  -15.32500 45.34200 43.36000
H  -14.14100 46.23100 44.16600
H  -14.12000 44.54600 44.50200
H  -17.37100 41.09700 43.68500
H  -16.69300 38.99700 45.70400
H  -16.82700 41.26000 46.55100
H  -17.65700 42.27000 45.40900
H  -15.91600 42.44100 45.62300
H  -18.03800 37.77900 43.56600
H  -18.64700 39.44600 43.51300
H  -20.05900 38.92700 45.22700
H  -18.72100 39.01300 46.25000
H  -19.23500 37.38700 45.78700
H  -15.21000 34.47100 44.88900
H  -14.69200 33.01500 43.97700
H  -15.90600 34.23500 43.41700
H  -10.65900 34.56900 40.62400
H  -6.68800 33.54200 42.29600
H  -7.17800 32.21900 41.34500
H  -7.72400 32.31300 43.04200

