158

Mg 24.03900 -4.62300 46.08400
C  26.18400 -2.22300 44.52300
C  21.54100 -3.29400 44.10100
C  22.22000 -7.25400 46.76400
C  26.83900 -5.95500 47.69600
N  23.88300 -3.00400 44.37700
C  24.92700 -2.17000 44.04000
C  24.38900 -1.01700 43.12100
C  22.82400 -1.26900 43.21100
C  22.70800 -2.60600 43.95700
C  22.01300 -0.09100 43.72300
C  25.00800 -1.24800 41.64800
C  25.02000 -0.04400 40.77200
H  24.39700 -0.30000 39.37000
N  22.17600 -5.20400 45.56400
C  21.26100 -4.51600 44.70000
C  20.02100 -5.30400 44.62300
C  20.17500 -6.46100 45.47800
C  21.51000 -6.29200 46.06600
C  18.91500 -4.79100 43.77100
C  19.09700 -7.55400 45.71100
O  18.07900 -7.45800 45.03900
C  19.21400 -8.55200 46.79100
N  24.43100 -6.27800 47.12300
C  23.52300 -7.30000 47.26500
C  24.10400 -8.56100 47.85900
C  25.41700 -7.96100 48.44300
C  25.58100 -6.62800 47.76000
C  23.26100 -9.34900 48.89600
C  26.59000 -8.98100 48.33700
C  27.65800 -8.92200 49.45100
N  26.15500 -4.20400 46.20700
C  27.13100 -4.79600 46.92100
C  28.42900 -4.17800 46.66200
C  28.07100 -3.10900 45.73000
C  26.68900 -3.14200 45.51200
C  29.69600 -4.72000 46.97900
C  28.62000 -1.98400 44.92200
O  29.76600 -1.63600 44.75100
C  27.46400 -1.36900 44.08600
C  27.24300 0.11400 44.40300
O  26.79400 0.55800 45.44700
O  27.54500 0.85500 43.35600
C  27.45800 2.32000 43.53300
H  20.67100 -2.76100 43.71300
H  21.67100 -8.18500 46.91900
H  27.66100 -6.44500 48.22000
H  24.66200 -0.06400 43.57300
H  22.44200 -1.53900 42.22700
H  22.72000 0.73800 43.75000
H  21.66600 -0.35400 44.72200
H  21.23200 0.05800 42.97800
H  24.43000 -1.97800 41.08200
H  26.02600 -1.63400 41.70800
H  25.99700 0.40500 40.59600
H  24.41500 0.68600 41.31000
H  19.08900 -5.24000 42.79200
H  18.87400 -3.70900 43.64500
H  17.92100 -5.18800 43.97800
H  18.34000 -9.20200 46.83200
H  19.33100 -8.17600 47.80700
H  20.01100 -9.26000 46.56300
H  24.40200 -9.24500 47.06400
H  25.13700 -7.74500 49.47400
H  22.60400 -10.18900 48.67400
H  22.70100 -8.55500 49.39000
H  23.95600 -9.68600 49.66500
H  27.12000 -8.74200 47.41500
H  26.26500 -10.01600 48.22500
H  27.95400 -9.91100 49.80100
H  27.28300 -8.36200 50.30700
H  28.41800 -8.34200 48.92700
H  30.49100 -4.05900 46.63400
H  29.76700 -5.76300 46.66900
H  29.74600 -4.62700 48.06400
H  27.67400 -1.68100 43.06300
H  27.93500 2.62700 44.46300
H  26.41000 2.59700 43.64800
H  28.02500 2.81100 42.74200
Mg 54.21100 24.76800 43.47700
C  51.62700 27.25700 43.39800
C  51.91900 22.46900 42.78000
C  56.76500 22.58300 43.20600
C  56.52300 27.41300 43.73500
N  51.98100 24.96200 42.94100
C  51.20200 26.00200 43.00900
C  49.73800 25.57500 42.65400
C  49.78400 24.01000 42.80200
C  51.32700 23.72300 42.76100
C  49.06200 23.40500 44.06200
C  49.14300 26.12600 41.21100
C  50.20000 26.70900 40.15200
H  50.28000 26.29000 38.63900
N  54.35200 22.81700 43.09900
C  53.27800 22.00400 42.84800
C  53.77300 20.50700 42.74900
C  55.19000 20.53500 42.95000
C  55.52000 22.02200 43.07100
C  52.89100 19.37300 42.46200
C  56.07000 19.31500 43.11100
O  55.58900 18.18800 43.02500
C  57.51900 19.38100 43.46000
N  56.38000 25.05000 43.19700
C  57.18800 23.95700 43.27900
C  58.69700 24.37200 43.44700
C  58.57200 25.87300 43.24800
C  57.07700 26.18200 43.44600
C  59.18400 23.90300 44.80100
C  59.05800 26.41900 41.87500
C  59.80800 27.79700 41.77100
N  54.18800 26.89300 43.55600
C  55.18900 27.80600 43.82500
C  54.55200 29.11600 44.20100
C  53.13600 28.92500 44.06400
C  52.95000 27.56300 43.64600
C  55.22900 30.49300 44.57300
C  51.82300 29.52100 44.24100
O  51.48800 30.58800 44.72900
C  50.82700 28.49100 43.72000
C  50.33600 29.13500 42.46900
O  50.95400 29.39900 41.48700
O  48.95500 29.50000 42.63200
C  48.30900 30.07500 41.48000
H  51.16800 21.68100 42.68800
H  57.53100 21.81800 43.35400
H  57.21300 28.23800 43.92600
H  49.21800 25.85400 43.57100
H  49.43200 23.53700 41.88600
H  48.89200 24.08800 44.89400
H  49.58800 22.57300 44.53000
H  48.12600 22.92800 43.77100
H  48.44600 26.91800 41.48400
H  48.56600 25.34300 40.71800
H  51.23300 26.70900 40.50100
H  49.89800 27.75000 40.03300
H  52.92100 18.73500 43.34500
H  53.22300 18.76300 41.62200
H  51.85100 19.68500 42.37000
H  57.91000 18.36800 43.55800
H  57.66800 19.87900 44.41800
H  57.94400 19.89400 42.59700
H  59.22600 23.94800 42.59300
H  59.08300 26.39200 44.05800
H  59.37300 22.83000 44.77700
H  58.45400 23.99400 45.60500
H  60.12300 24.41700 45.00600
H  58.24700 26.45900 41.14800
H  59.73800 25.69900 41.42000
H  60.85400 27.65800 41.49700
H  59.73200 28.42200 42.66100
H  59.51300 28.42400 40.92900
H  55.13100 30.82300 45.60700
H  54.68600 31.26500 44.02700
H  56.30500 30.49900 44.40000
H  49.99400 28.43500 44.42000
H  48.36800 29.43900 40.59600
H  48.80700 31.00300 41.19800
H  47.29300 30.26400 41.82600

