158

Mg 0.69900 8.61400 28.05600
C  1.71100 10.78400 30.60900
C  0.61900 5.99100 30.25300
C  0.33500 6.53700 25.35800
C  1.49000 11.24100 25.76000
N  1.11000 8.46200 30.20000
C  1.40100 9.51800 31.10100
C  1.32500 8.98600 32.53300
C  1.41500 7.43300 32.30200
C  0.96000 7.27200 30.81700
C  2.83900 7.00300 32.59900
C  -0.00500 9.45800 33.17100
C  -0.18800 9.35300 34.69600
H  0.84800 8.72200 35.61100
N  0.39000 6.63100 27.79700
C  0.31800 5.68200 28.89600
C  -0.12000 4.42800 28.36800
C  -0.27900 4.60300 26.91300
C  0.10100 5.95300 26.66200
C  -0.27100 3.12300 29.25200
C  -0.63800 3.59500 25.80400
O  -0.62800 3.77000 24.59700
C  -1.06300 2.19900 26.22100
N  0.78900 8.88700 25.89300
C  0.74000 7.84700 25.05000
C  1.26600 8.20400 23.65300
C  1.26200 9.79900 23.74100
C  1.15200 10.01900 25.20100
C  2.65000 7.73200 23.20000
C  0.19400 10.52500 22.87300
C  -1.30700 10.15300 22.95000
N  1.39900 10.61400 28.10700
C  1.61900 11.57800 27.12000
C  1.94800 12.84700 27.70700
C  1.92200 12.54700 29.08300
C  1.59600 11.21800 29.26600
C  2.34200 14.10700 26.92700
C  2.14400 13.17000 30.35800
O  2.38300 14.34100 30.67800
C  1.87300 12.15500 31.43900
C  2.93500 12.06100 32.43800
O  4.11200 11.88100 32.25300
O  2.30800 12.33300 33.66700
C  3.17600 12.55000 34.82900
H  0.66400 5.18900 30.99300
H  0.47500 5.89300 24.48700
H  1.90700 11.93000 25.02300
H  2.17800 9.44100 33.03700
H  0.61400 6.84900 32.75400
H  3.46600 6.77900 31.73600
H  2.69200 6.04600 33.10000
H  3.36600 7.74000 33.20500
H  -0.69800 8.73600 32.74000
H  -0.22500 10.47800 32.85300
H  -1.10900 8.83800 34.96600
H  -0.37900 10.39500 34.95600
H  -1.33000 2.88200 29.15200
H  0.07600 3.20400 30.28200
H  0.32600 2.26000 28.95800
H  -1.49600 1.65500 25.38100
H  -1.89500 2.30700 26.91600
H  -0.17300 1.61700 26.46100
H  0.58500 7.77100 22.92100
H  2.22300 10.18300 23.39700
H  2.97000 8.50000 22.49500
H  2.67500 6.73300 22.76700
H  3.33900 7.70100 24.04500
H  0.63300 10.33700 21.89300
H  0.16400 11.59600 23.07400
H  -1.32100 9.15600 22.50900
H  -2.01700 10.85700 22.51700
H  -1.61100 10.09900 23.99600
H  2.31400 14.97800 27.58100
H  1.65000 14.13800 26.08600
H  3.34200 13.95500 26.52000
H  0.91600 12.39600 31.90100
H  3.83900 13.41500 34.80000
H  3.64900 11.69700 35.31500
H  2.43100 12.86000 35.56300
Mg 16.69800 51.98700 26.17300
C  18.46300 50.60600 28.94700
C  14.20100 52.92300 28.26500
C  15.12400 53.32500 23.47700
C  18.93500 50.37500 24.06500
N  16.35100 51.70700 28.29200
C  17.25100 51.27000 29.27900
C  16.86500 51.64500 30.67100
C  15.38600 52.14400 30.44700
C  15.33200 52.35500 28.90800
C  14.29900 51.12900 30.90300
C  17.90300 52.55700 31.33500
C  17.93500 52.70400 32.86700
H  16.85200 52.08100 33.65700
N  14.87200 53.00500 25.90000
C  13.94900 53.17600 26.85900
C  12.80500 53.84700 26.27900
C  13.04200 54.09600 24.87700
C  14.38600 53.49200 24.68200
C  11.54700 54.21600 27.07500
C  12.17500 54.69300 23.83900
O  12.54900 54.77000 22.66700
C  10.76500 55.13000 24.22600
N  17.05100 51.92900 24.05500
C  16.27400 52.56800 23.18100
C  16.74000 52.31800 21.79200
C  18.12600 51.58200 21.98200
C  18.08800 51.25600 23.46000
C  15.81300 51.61300 20.85400
C  19.27600 52.42200 21.63800
C  20.56100 51.67500 21.28200
N  18.41800 50.83100 26.40100
C  19.17000 50.18400 25.45000
C  20.18400 49.33300 26.12100
C  19.91600 49.48200 27.45800
C  18.89600 50.42300 27.60400
C  21.21200 48.49600 25.37900
C  20.34200 49.03500 28.79200
O  21.26000 48.31400 29.23300
C  19.41200 49.74500 29.81100
C  18.74400 48.89300 30.82500
O  17.92900 48.02000 30.64600
O  19.24200 49.20400 32.05500
C  18.77800 48.31900 33.17300
H  13.38900 53.21800 28.93300
H  14.70900 53.75800 22.56400
H  19.63800 49.84700 23.41700
H  16.86700 50.74100 31.28100
H  15.22700 53.03600 31.05300
H  13.91200 50.51500 30.09000
H  13.41100 51.52100 31.39800
H  14.64400 50.53000 31.74600
H  17.74400 53.58000 30.99500
H  18.86500 52.13900 31.03800
H  17.88500 53.77600 33.05800
H  18.91700 52.31700 33.14100
H  11.79200 54.29700 28.13400
H  10.76500 53.46000 26.99800
H  11.23100 55.24700 26.91300
H  10.21300 55.27400 23.29700
H  10.79100 56.00900 24.86900
H  10.12800 54.35800 24.65800
H  16.96600 53.31900 21.42400
H  18.17700 50.62100 21.47000
H  14.89700 51.34200 21.37800
H  16.33300 50.73600 20.47100
H  15.59200 52.26500 20.00800
H  19.63900 53.16000 22.35400
H  19.06100 53.00200 20.74100
H  21.16000 52.15300 20.50700
H  20.61800 50.60700 21.07000
H  21.17000 51.84100 22.17100
H  21.63000 47.95000 26.22500
H  21.93600 49.09000 24.82200
H  20.73000 47.82800 24.66600
H  20.02200 50.48300 30.33200
H  19.61800 48.29400 33.86600
H  18.65500 47.27000 32.90500
H  17.92900 48.69800 33.74200

