158

Mg 34.46700 3.28200 30.12500
C  32.37600 3.91000 32.81100
C  37.21000 3.11800 32.43200
C  36.60200 2.77700 27.54900
C  31.87600 3.73500 28.00100
N  34.76400 3.48300 32.26100
C  33.67700 3.57700 33.21000
C  34.13100 3.42100 34.71400
C  35.70200 3.45000 34.59600
C  35.95900 3.42700 33.03900
C  36.31500 4.72700 35.25300
C  33.52900 2.16300 35.37600
C  32.67300 2.54100 36.65800
H  33.38000 3.44500 37.72200
N  36.54100 2.88100 30.00100
C  37.47900 2.87400 31.06400
C  38.75000 2.41500 30.57600
C  38.67500 2.38800 29.12800
C  37.22400 2.68400 28.83400
C  40.00600 2.07700 31.41200
C  39.76400 2.11000 28.10800
O  39.62000 2.00100 26.94100
C  41.22000 1.94800 28.64200
N  34.28900 3.40800 27.99000
C  35.31900 3.10400 27.17000
C  34.79300 2.93900 25.70800
C  33.23700 2.81200 25.88100
C  33.08100 3.31300 27.37400
C  35.23100 3.96500 24.64600
C  32.69800 1.37100 25.80400
C  31.43400 1.24300 24.89600
N  32.49700 3.92000 30.27300
C  31.55000 4.11300 29.32000
C  30.25900 4.37000 29.97700
C  30.60900 4.34100 31.36800
C  31.88300 4.04200 31.46900
C  28.94300 4.41700 29.39600
C  29.98300 4.42000 32.63700
O  28.86400 4.70200 33.00900
C  31.13000 4.19200 33.66900
C  31.27200 5.38200 34.47500
O  31.85500 6.42200 34.13600
O  30.58100 5.26700 35.68800
C  30.67200 6.45800 36.53800
H  38.05700 2.99400 33.11100
H  37.30200 2.62100 26.72500
H  30.96300 3.77400 27.40400
H  33.60800 4.25700 35.17900
H  36.12900 2.58300 35.10100
H  35.51000 5.26500 35.75300
H  36.97000 5.28700 34.58600
H  36.95300 4.35900 36.05800
H  34.29700 1.43500 35.63800
H  32.79400 1.70800 34.71200
H  32.30900 1.59600 37.06400
H  31.83700 3.09200 36.22800
H  40.28100 1.02500 31.33500
H  39.76100 2.14400 32.47200
H  40.81500 2.79500 31.27500
H  41.60300 2.81400 29.18200
H  41.75000 1.74600 27.71200
H  41.14300 1.04500 29.24600
H  35.13100 1.99900 25.27100
H  32.78400 3.49700 25.16500
H  34.36000 4.57000 24.39300
H  35.61700 3.48100 23.74900
H  35.93200 4.64500 25.13100
H  32.51700 0.90700 26.77400
H  33.47800 0.76500 25.34200
H  30.72500 0.69500 25.51700
H  31.55200 0.60400 24.02000
H  30.95400 2.18100 24.61800
H  28.95700 4.44100 28.30600
H  28.33300 5.24200 29.76500
H  28.35100 3.56400 29.72700
H  30.80600 3.36700 34.30400
H  31.70600 6.57400 36.86300
H  30.13400 6.12400 37.42600
H  30.24900 7.40700 36.20900
Mg 53.97600 24.68800 44.58100
C  51.32300 26.73700 44.13800
C  51.69600 22.04700 43.62000
C  56.54200 22.66800 43.99200
C  56.07600 27.40200 45.19100
N  51.77500 24.37900 43.90400
C  50.96700 25.46800 43.87300
C  49.51300 25.01000 43.54600
C  49.53900 23.49200 43.98200
C  51.05900 23.29000 43.80600
C  48.94900 23.15300 45.40500
C  49.18700 25.19800 42.04300
C  50.37900 25.30300 41.05900
H  49.96800 24.99900 39.57200
N  54.13600 22.62200 44.05900
C  53.10100 21.73100 43.72100
C  53.69900 20.47700 43.37500
C  55.08500 20.53100 43.67700
C  55.30400 21.99900 43.95900
C  52.86200 19.22100 43.04100
C  56.15900 19.46000 43.57400
O  55.84000 18.32100 43.34100
C  57.59800 19.64900 44.01400
N  55.99500 25.03600 44.40100
C  56.89600 24.04500 44.16700
C  58.38100 24.53900 44.31100
C  58.18700 26.10500 44.55900
C  56.64600 26.22800 44.73300
C  59.21400 23.92900 45.51200
C  58.86400 27.04500 43.44500
C  58.10500 27.11200 42.15900
N  53.77800 26.66300 44.82700
C  54.69100 27.68100 45.12800
C  53.92900 28.92200 45.27400
C  52.64900 28.56400 44.86000
C  52.60100 27.19300 44.60400
C  54.54000 30.17100 45.71900
C  51.32700 29.12800 44.63900
O  50.99700 30.28400 44.66200
C  50.41100 27.95600 44.20100
C  49.72700 28.46500 42.95900
O  50.24900 28.55800 41.84300
O  48.39600 28.77100 43.27100
C  47.64300 29.12400 42.07000
H  51.08900 21.16600 43.40100
H  57.41700 22.04000 43.80900
H  56.80000 28.16300 45.49100
H  48.85500 25.63700 44.14900
H  48.90300 23.00300 43.24300
H  49.68400 22.75600 46.10500
H  48.09100 22.49100 45.29100
H  48.54600 24.02700 45.91700
H  48.49100 26.03700 42.06200
H  48.60400 24.33600 41.71900
H  51.21700 24.65200 41.31000
H  50.74900 26.32700 41.10700
H  51.86200 19.46300 42.68200
H  52.70500 18.70200 43.98700
H  53.47900 18.70600 42.30500
H  58.06200 18.68700 44.23200
H  57.62500 20.19500 44.95700
H  58.24000 20.14900 43.28900
H  58.86800 24.40700 43.34500
H  58.54500 26.46600 45.52400
H  60.16100 23.62600 45.06500
H  58.67800 23.06200 45.89600
H  59.45000 24.71400 46.23100
H  59.86600 26.62900 43.33700
H  58.97800 28.05500 43.84000
H  57.16000 26.57000 42.12500
H  58.65500 26.83800 41.25900
H  57.79700 28.14600 42.00500
H  54.18500 30.93600 45.02800
H  55.62700 30.14400 45.78500
H  54.03700 30.38400 46.66300
H  49.68600 27.90400 45.01200
H  48.14900 29.81000 41.39100
H  46.79700 29.75000 42.35300
H  47.29300 28.29700 41.45200

