158

Mg 47.71500 16.24100 28.49200
C  45.76000 16.16800 31.39000
C  50.14000 17.85900 30.28000
C  49.72100 16.23100 25.70400
C  45.19400 14.80900 26.72600
N  47.81200 17.12000 30.62400
C  46.96500 16.80000 31.69000
C  47.54300 17.15800 33.05900
C  48.78500 17.98600 32.63800
C  48.93500 17.63600 31.06100
C  48.80800 19.43300 33.03200
C  47.84700 16.02900 33.95700
C  47.41000 16.28700 35.47400
H  47.34200 17.74600 36.02800
N  49.66800 16.81500 28.06600
C  50.43100 17.51600 28.95700
C  51.76300 17.77000 28.36900
C  51.66200 17.42000 27.03200
C  50.36000 16.72900 26.83900
C  52.94700 18.22000 29.21800
C  52.76400 17.55400 25.99700
O  52.74100 17.07200 24.88500
C  53.95400 18.43900 26.27000
N  47.44300 15.63900 26.54200
C  48.43200 15.64400 25.53300
C  47.97500 15.17000 24.20300
C  46.58200 14.56300 24.55600
C  46.39400 14.96900 26.01000
C  48.05800 16.31500 23.20900
C  46.46900 13.02400 24.43500
C  45.99100 12.51300 23.03400
N  45.84700 15.67900 28.88200
C  44.93300 15.07400 28.10100
C  43.77700 14.74800 28.86800
C  44.03900 15.02500 30.21700
C  45.31900 15.69800 30.12000
C  42.53900 14.08200 28.25500
C  43.56600 14.90300 31.50900
O  42.57800 14.34200 31.99900
C  44.73800 15.74300 32.33400
C  44.07300 16.90400 33.05800
O  44.09900 18.08300 32.79500
O  43.50400 16.41800 34.19100
C  42.87800 17.51200 34.95500
H  50.86100 18.40200 30.89400
H  50.26300 16.33300 24.76100
H  44.36400 14.39300 26.15200
H  46.84100 17.88300 33.47100
H  49.63200 17.53800 33.15800
H  48.94000 20.01700 32.12100
H  49.53400 19.55600 33.83600
H  47.83900 19.79500 33.37600
H  48.89500 15.75400 33.83100
H  47.19200 15.20300 33.68000
H  48.12000 15.84900 36.17600
H  46.39500 15.89700 35.54400
H  52.93100 17.81600 30.23000
H  52.99100 19.30700 29.27800
H  53.92100 17.97800 28.79200
H  53.56600 19.27100 26.85700
H  54.30900 18.72300 25.28000
H  54.69400 17.82000 26.77800
H  48.67600 14.42700 23.82300
H  45.80900 15.06000 23.97000
H  49.05900 16.39800 22.78500
H  47.72800 17.26100 23.63900
H  47.31800 16.01800 22.46600
H  45.82700 12.61500 25.21600
H  47.44500 12.56100 24.58100
H  46.77700 11.82300 22.72600
H  45.93000 13.28800 22.27100
H  45.05000 11.96600 22.97500
H  41.85200 13.87400 29.07500
H  42.84300 13.17500 27.73200
H  41.99000 14.72000 27.56300
H  45.04300 15.06200 33.12800
H  42.05500 17.84300 34.32100
H  43.61800 18.29000 35.14300
H  42.44800 17.14200 35.88600
Mg 30.49800 57.60400 39.68600
C  27.68600 55.51100 38.59800
C  32.54100 54.82600 38.52000
C  32.92300 59.54800 39.55100
C  28.25200 60.23500 39.98500
N  30.09200 55.39200 38.46500
C  28.88200 54.83100 38.35500
C  29.00300 53.33100 38.04500
C  30.58900 53.12900 38.01800
C  31.13700 54.52700 38.35900
C  31.11900 52.01000 39.00600
C  28.33100 52.98600 36.57900
C  28.66500 53.71300 35.24300
H  27.63800 54.59400 34.46900
N  32.53300 57.21100 39.28300
C  33.14800 56.11400 38.74800
C  34.58100 56.43200 38.66300
C  34.71700 57.78600 38.91100
C  33.37300 58.23300 39.30700
C  35.55500 55.41000 38.41400
C  35.95600 58.59500 38.70400
O  36.96700 58.09900 38.16100
C  36.09000 60.06600 39.09000
N  30.55400 59.59200 39.64100
C  31.77300 60.22900 39.73900
C  31.67400 61.76100 39.78400
C  30.12700 61.99800 39.95300
C  29.57500 60.55000 39.85000
C  32.50500 62.54000 40.80600
C  29.45800 62.81100 38.73800
C  29.11800 64.24200 38.97900
N  28.36600 57.84200 39.45000
C  27.65500 59.02900 39.72800
C  26.31200 58.70700 39.58700
C  26.22200 57.40200 39.16800
C  27.52700 56.86300 39.08400
C  25.16200 59.71700 39.87500
C  25.36200 56.31600 38.85500
O  24.14500 56.31100 38.87100
C  26.21900 55.07200 38.45300
C  25.89600 53.99400 39.36100
O  26.27800 53.97300 40.50500
O  24.93700 53.17200 38.89900
C  24.11400 52.22300 39.76400
H  33.16200 53.94300 38.35500
H  33.64500 60.35600 39.41500
H  27.58000 61.07700 40.16500
H  28.37100 52.68600 38.65500
H  30.94100 52.87700 37.01800
H  31.41000 52.50500 39.93300
H  31.90300 51.39800 38.56000
H  30.27200 51.33800 39.14900
H  27.26200 53.17900 36.67300
H  28.47900 51.94800 36.28300
H  28.97000 53.00900 34.46900
H  29.54400 54.30400 35.50200
H  36.04100 55.52400 37.44500
H  35.20400 54.37800 38.41700
H  36.22800 55.42700 39.27100
H  37.07300 60.53000 39.01300
H  35.62900 60.32600 40.04300
H  35.50200 60.67900 38.40700
H  31.89300 62.14500 38.78700
H  29.81600 62.40900 40.91400
H  31.93600 63.17500 41.48600
H  33.25400 63.09500 40.24100
H  33.01100 61.83600 41.46600
H  28.50200 62.37500 38.44800
H  30.14900 62.81000 37.89600
H  29.08800 64.70200 37.99100
H  29.99900 64.66500 39.46100
H  28.13400 64.39600 39.42200
H  25.32300 60.53600 39.17500
H  25.23400 60.07100 40.90400
H  24.22400 59.16300 39.91700
H  25.78100 54.98700 37.45900
H  23.29500 51.78700 39.19200
H  23.71700 52.82500 40.58100
H  24.68300 51.42100 40.23400

