158

Mg -1.70800 16.96500 26.28600
C  -2.23200 15.01800 29.08000
C  -1.95700 19.76100 28.16200
C  -1.87400 18.78500 23.31200
C  -1.89700 14.07300 24.23500
N  -2.21000 17.26700 28.35200
C  -2.34900 16.36100 29.33300
C  -2.70800 17.05200 30.74200
C  -2.50400 18.61600 30.36500
C  -2.16000 18.53100 28.85700
C  -3.71600 19.54400 30.69300
C  -1.75300 16.50700 31.87200
C  -1.49400 17.39100 33.11600
H  -1.25500 16.58100 34.42500
N  -1.73500 18.97600 25.80300
C  -1.97800 19.98500 26.70000
C  -2.18600 21.24600 25.99600
C  -2.19000 20.95300 24.60100
C  -1.86300 19.54500 24.51700
C  -2.41900 22.55800 26.66400
C  -2.54600 21.87600 23.47900
O  -2.52800 21.53200 22.30500
C  -3.17900 23.18300 23.75700
N  -1.75000 16.43600 24.02700
C  -1.85100 17.42500 23.05200
C  -1.84300 16.75700 21.64900
C  -1.69900 15.21600 21.90100
C  -1.81600 15.17800 23.44800
C  -3.02300 17.21600 20.74000
C  -0.53500 14.36700 21.28800
C  0.89800 14.74000 21.79700
N  -1.99300 15.00200 26.53600
C  -2.03200 14.00400 25.63600
C  -2.07100 12.74800 26.36600
C  -2.15000 13.06900 27.68600
C  -2.10700 14.49700 27.77100
C  -2.06700 11.34300 25.80000
C  -2.19600 12.52900 28.99900
O  -2.20800 11.36200 29.37600
C  -2.32000 13.76600 30.02900
C  -1.25100 13.56800 31.01300
O  -0.05000 13.70300 30.81100
O  -1.77000 13.02300 32.15600
C  -0.79600 12.73100 33.13300
H  -1.96800 20.62700 28.82700
H  -1.94300 19.34200 22.37600
H  -1.86800 13.17300 23.61800
H  -3.75500 16.86500 30.97900
H  -1.58600 19.02800 30.78500
H  -3.26600 20.38600 31.21900
H  -4.37500 19.08500 31.43100
H  -4.30800 19.88000 29.84200
H  -0.83600 16.23700 31.34700
H  -2.18900 15.61200 32.31600
H  -2.31500 18.08100 33.30900
H  -0.61100 18.00200 32.92300
H  -1.53300 23.17300 26.50600
H  -2.60000 22.37700 27.72400
H  -3.32100 23.06700 26.32400
H  -4.11500 22.99900 24.28500
H  -3.30300 23.65900 22.78500
H  -2.58900 23.86900 24.36500
H  -0.85300 16.92300 21.22500
H  -2.55400 14.69800 21.46800
H  -3.52100 17.84000 21.48200
H  -3.73000 16.45700 20.40400
H  -2.76400 17.89100 19.92500
H  -0.54100 14.81600 20.29400
H  -0.72300 13.29300 21.28500
H  1.52200 15.22600 21.04700
H  1.39000 13.93000 22.33500
H  0.95000 15.51600 22.56100
H  -1.61900 10.74700 26.59500
H  -1.56500 11.31100 24.83300
H  -3.09600 11.03600 25.61600
H  -3.21000 13.82600 30.65500
H  -0.33000 13.68700 33.37400
H  -0.00700 12.06400 32.78400
H  -1.19300 12.28300 34.04400
Mg -1.79400 34.79300 25.97800
C  -3.02200 32.79900 28.68900
C  -0.09000 36.65200 28.32900
C  -0.89200 36.70700 23.47100
C  -3.44600 32.64900 23.85800
N  -1.49900 34.68000 28.31200
C  -2.26100 33.88800 29.18100
C  -1.73500 34.06500 30.63000
C  -0.85900 35.37400 30.49000
C  -0.85900 35.65900 28.93800
C  -1.34700 36.58800 31.32100
C  -1.08600 32.82300 31.20200
C  -1.68800 32.20200 32.49900
H  -0.75800 31.92800 33.70000
N  -0.51100 36.36600 25.88000
C  0.18400 36.91100 26.92700
C  1.05400 37.92200 26.46000
C  0.82700 37.95200 25.08400
C  -0.26800 37.07500 24.72200
C  2.01300 38.67500 27.24000
C  1.45800 38.87800 24.01400
O  1.13000 38.93900 22.81700
C  2.57300 39.83300 24.43200
N  -2.31600 34.80600 23.99100
C  -1.76200 35.70100 23.14200
C  -1.97800 35.28400 21.61300
C  -2.55800 33.82800 21.82800
C  -2.73400 33.76400 23.31000
C  -2.92100 36.23300 20.77500
C  -1.61300 32.65300 21.24800
C  -0.22000 32.56800 21.86900
N  -2.99800 33.12400 26.19900
C  -3.59300 32.31000 25.22500
C  -4.35200 31.25600 25.73400
C  -4.14000 31.41100 27.15600
C  -3.39100 32.54200 27.38500
C  -5.20700 30.22700 24.96300
C  -4.46200 30.86500 28.47700
O  -5.21600 29.94300 28.80200
C  -3.69400 31.74000 29.52700
C  -4.57500 32.47700 30.47700
O  -4.97200 33.61200 30.40900
O  -4.88400 31.55400 31.48500
C  -5.55000 32.07600 32.69300
H  0.38500 37.27700 29.08900
H  -0.54700 37.20400 22.56200
H  -3.92800 31.93000 23.19200
H  -2.51200 34.36900 31.33200
H  0.15300 35.18200 30.84600
H  -1.86200 37.31400 30.69200
H  -0.58600 37.09000 31.91900
H  -2.05800 36.26100 32.07900
H  -0.09600 33.16200 31.50900
H  -0.94500 32.10600 30.39300
H  -2.00300 31.25000 32.07100
H  -2.54400 32.76500 32.87100
H  2.22300 38.34700 28.25800
H  1.74000 39.73000 27.22600
H  2.99300 38.46800 26.81000
H  3.32000 39.23600 24.95500
H  2.12100 40.55600 25.11100
H  2.99100 40.44300 23.63100
H  -1.08300 35.24100 20.99200
H  -3.54700 33.79300 21.37100
H  -3.40800 36.88500 21.50000
H  -3.73400 35.70600 20.27700
H  -2.35600 36.80600 20.04000
H  -1.62600 32.67200 20.15900
H  -2.12600 31.74500 21.56500
H  -0.14300 32.79900 22.93100
H  0.46700 33.15800 21.26300
H  -0.00000 31.50100 21.90700
H  -6.07100 30.80200 24.62900
H  -5.42300 29.37400 25.60600
H  -4.70700 29.81600 24.08600
H  -3.00000 31.19200 30.16400
H  -4.92300 32.90100 33.03300
H  -5.43000 31.28200 33.42900
H  -6.60800 32.29400 32.55100

