158

Mg 24.87700 1.18000 30.09300
C  27.25200 0.72700 32.61100
C  22.47700 1.61900 32.53200
C  22.55500 1.29400 27.57100
C  27.34300 0.21300 27.62600
N  24.89800 1.15900 32.32100
C  26.01700 1.11100 33.12300
C  25.68200 1.31500 34.56600
C  24.13900 1.43200 34.61100
C  23.76800 1.40300 33.06100
C  23.29800 0.32700 35.44400
C  26.39800 2.58300 35.15100
C  27.24100 2.59300 36.40900
H  26.51900 1.89300 37.59300
N  22.81700 1.40500 30.02700
C  22.02300 1.56000 31.15500
C  20.64000 1.68900 30.71000
C  20.66000 1.67700 29.31300
C  21.99900 1.47300 28.91900
C  19.53900 1.86300 31.75000
C  19.42000 1.70600 28.35800
O  19.44700 1.45000 27.13600
C  18.13000 2.09600 28.90700
N  24.94800 0.82400 27.86700
C  23.84300 1.03500 27.12500
C  24.22200 1.19400 25.68200
C  25.72100 0.76700 25.66700
C  26.06800 0.59700 27.11400
C  23.33700 0.30500 24.68100
C  26.58000 1.74300 24.86100
C  26.75500 3.13100 25.57400
N  26.78200 0.42200 30.09900
C  27.69100 0.23600 29.02300
C  29.01200 -0.06300 29.55600
C  28.87700 0.05700 30.95800
C  27.50200 0.43200 31.22000
C  30.21800 -0.40300 28.63400
C  29.61400 -0.02800 32.13600
O  30.74100 -0.47300 32.39000
C  28.54700 0.41700 33.28500
C  28.45000 -0.60500 34.42700
O  27.79300 -1.62000 34.47300
O  29.42600 -0.24600 35.38000
C  29.32400 -1.00400 36.60900
H  21.74100 1.82100 33.31400
H  21.82200 1.53800 26.79900
H  28.15500 -0.01300 26.93200
H  25.93600 0.39300 35.08700
H  23.90400 2.39300 35.06700
H  22.99300 0.85200 36.34900
H  23.88700 -0.53400 35.75900
H  22.46200 -0.06800 34.86700
H  25.63900 3.34800 35.31800
H  26.99700 2.96800 34.32600
H  27.52100 3.59600 36.73200
H  28.14400 2.05200 36.12600
H  19.82300 1.68800 32.78800
H  18.66000 1.24400 31.57000
H  19.26100 2.91700 31.77100
H  17.91400 1.29700 29.61700
H  17.39900 1.89500 28.12400
H  18.05600 3.12300 29.26300
H  24.18200 2.26400 25.47600
H  25.80200 -0.27400 25.35300
H  22.82500 0.87900 23.90900
H  22.61800 -0.25500 25.27900
H  23.91700 -0.38300 24.06500
H  26.17100 1.81800 23.85400
H  27.58100 1.33300 24.72800
H  26.42200 2.94000 26.59400
H  26.27700 3.95600 25.04600
H  27.75900 3.54600 25.66700
H  31.07900 -0.57800 29.27900
H  30.37500 0.26100 27.78400
H  29.95900 -1.39000 28.25100
H  28.92100 1.32000 33.76800
H  29.88000 -1.94200 36.63500
H  28.29700 -1.27200 36.85800
H  29.76500 -0.29400 37.30900
Mg 28.29800 58.69700 42.35200
C  25.80900 56.92100 40.69000
C  30.67600 56.73800 40.86400
C  30.66600 60.77700 43.56300
C  25.75600 60.76300 43.67400
N  28.17900 56.95900 40.93700
C  27.08000 56.38300 40.36400
C  27.47000 55.32900 39.35900
C  28.92700 55.08100 39.81300
C  29.34200 56.31000 40.62500
C  28.99200 53.81700 40.65400
C  27.34700 55.92500 37.93200
C  26.69000 54.90400 36.93000
H  27.39700 54.67800 35.62700
N  30.39300 58.77300 42.20200
C  31.17600 57.88200 41.60000
C  32.52400 58.39600 41.60900
C  32.57000 59.62500 42.37200
C  31.19900 59.73700 42.77500
C  33.60400 57.77500 40.83900
C  33.73500 60.39800 42.65500
O  34.85800 59.95700 42.32800
C  33.70800 61.73300 43.33700
N  28.20400 60.45500 43.58400
C  29.33300 61.05300 43.99300
C  29.01100 62.34000 44.78400
C  27.45500 62.29400 44.86500
C  27.10400 61.10400 43.94700
C  29.76600 62.45900 46.14900
C  26.76200 63.64600 44.47300
C  26.34200 64.62900 45.61500
N  26.14900 58.81200 42.30900
C  25.27700 59.72100 42.84800
C  23.92000 59.35100 42.52000
C  24.07800 58.28400 41.57900
C  25.45800 57.95500 41.53300
C  22.79600 60.15500 42.94600
C  23.37500 57.36900 40.77200
O  22.22700 57.18100 40.54500
C  24.49400 56.50900 40.11300
C  24.03100 55.08600 40.55300
O  23.88500 54.69400 41.68700
O  23.88900 54.33100 39.44200
C  23.62500 52.92700 39.53000
H  31.37800 55.96300 40.54900
H  31.28600 61.60000 43.92600
H  25.08800 61.49100 44.13800
H  26.82700 54.45100 39.41600
H  29.69300 54.82100 39.08300
H  29.66500 53.10200 40.18100
H  28.02200 53.33300 40.76400
H  29.31300 54.01600 41.67700
H  28.36200 56.13600 37.59700
H  26.73400 56.82500 37.88100
H  25.70600 55.30100 36.68200
H  26.61900 53.89400 37.33500
H  34.18100 57.01000 41.36000
H  34.18900 58.59800 40.42800
H  33.21100 57.25500 39.96600
H  32.88100 62.37800 43.04000
H  34.63300 62.23800 43.05800
H  33.72600 61.59000 44.41700
H  29.37800 63.15700 44.16300
H  27.19200 62.20100 45.91900
H  30.54300 61.69500 46.14800
H  29.13200 62.30000 47.02100
H  30.27400 63.41800 46.04500
H  25.82000 63.46000 43.95600
H  27.36900 64.27200 43.81900
H  25.26200 64.76700 45.65700
H  26.94600 65.53200 45.52700
H  26.76800 64.28300 46.55800
H  21.88700 59.65000 42.62000
H  22.79900 61.09300 42.39100
H  22.72600 60.27500 44.02700
H  24.51200 56.61100 39.02800
H  22.71300 52.74200 40.09700
H  24.42300 52.35100 40.00000
H  23.40000 52.51100 38.54900

