158

Mg 47.50400 25.06500 29.32800
C  48.77300 27.23200 31.67500
C  46.30400 23.05800 31.82800
C  46.85600 22.77000 26.92200
C  48.95300 27.10800 26.85600
N  47.44000 25.19200 31.53300
C  48.07000 26.13400 32.33500
C  47.66000 25.94000 33.77800
C  47.01200 24.56700 33.76400
C  46.86900 24.23400 32.28400
C  47.65300 23.40700 34.63400
C  46.63600 27.05300 34.37100
C  47.00800 27.73200 35.61400
H  45.88300 27.95600 36.63700
N  46.55800 23.21800 29.34000
C  46.15100 22.59700 30.46600
C  45.57500 21.29300 29.96500
C  45.64800 21.28900 28.53300
C  46.37100 22.47400 28.18600
C  45.05300 20.19000 30.91300
C  45.05300 20.22600 27.60200
O  45.25800 20.31200 26.41000
C  44.07800 19.09100 28.15600
N  47.96700 24.83300 27.17500
C  47.64700 23.76300 26.41000
C  47.94400 23.98300 24.98200
C  48.39200 25.50900 24.90600
C  48.44300 25.83700 26.39900
C  48.97400 22.96200 24.49300
C  47.51600 26.54700 24.21200
C  48.13000 27.29300 23.02200
N  48.60900 26.83500 29.25700
C  49.15900 27.55700 28.15900
C  49.98500 28.66300 28.68300
C  49.72200 28.66500 30.05900
C  48.98700 27.42800 30.34600
C  50.93600 29.63500 27.93400
C  49.99400 29.34900 31.27100
O  50.65600 30.36500 31.47200
C  49.37000 28.46600 32.37200
C  50.42800 28.18600 33.32200
O  51.42000 27.51400 33.02800
O  50.08500 28.74300 34.54800
C  51.11400 28.53300 35.55600
H  46.01100 22.37100 32.62400
H  46.73400 22.07300 26.09000
H  49.24600 27.82700 26.08800
H  48.49800 25.92900 34.47600
H  46.04500 24.52900 34.26500
H  48.08900 22.60200 34.04200
H  46.86600 22.92700 35.21500
H  48.54600 23.84500 35.08000
H  45.64400 26.60100 34.39300
H  46.54200 27.83800 33.62100
H  47.47500 28.65400 35.26800
H  47.82500 27.17000 36.06500
H  45.15600 20.53600 31.94200
H  45.60000 19.24900 30.96800
H  44.05000 20.11900 30.49300
H  44.52800 18.47800 28.93600
H  43.76200 18.49300 27.30200
H  43.17600 19.61000 28.48000
H  47.04100 23.87600 24.38100
H  49.39000 25.67100 24.50100
H  49.15800 22.28400 25.32700
H  49.88600 23.23300 23.96200
H  48.48700 22.28000 23.79600
H  47.24700 27.30200 24.95100
H  46.71400 25.95000 23.77800
H  47.61600 27.20600 22.06500
H  49.15300 26.95200 22.86200
H  48.11400 28.36200 23.23500
H  51.02900 29.28500 26.90600
H  51.92900 29.56600 28.38000
H  50.48400 30.62600 27.92900
H  48.50900 28.96600 32.81700
H  51.61300 27.56900 35.46200
H  50.76500 28.78600 36.55700
H  51.96900 29.20600 35.48800
Mg 49.22700 35.09700 27.57700
C  47.33200 33.49200 30.16800
C  49.69800 37.69400 29.85500
C  50.87600 36.70100 25.17300
C  48.58100 32.40100 25.53900
N  48.60500 35.50300 29.78200
C  48.00100 34.65500 30.60500
C  48.07500 35.15500 32.03200
C  48.39900 36.73900 31.86200
C  48.91300 36.70700 30.43500
C  47.15200 37.71500 31.88200
C  49.21500 34.48000 32.84700
C  49.03300 34.42800 34.36700
H  47.94500 35.30700 35.03400
N  50.23500 36.93300 27.49700
C  50.34400 37.84000 28.59500
C  50.95300 39.01200 28.01800
C  51.36800 38.67900 26.71900
C  50.90000 37.37300 26.43600
C  51.24400 40.17600 28.95700
C  52.06000 39.58500 25.69800
O  52.21000 39.28100 24.53100
C  52.23500 41.04600 26.06400
N  49.64400 34.63900 25.61800
C  50.46000 35.40400 24.79100
C  50.85100 34.63100 23.45100
C  50.19100 33.25400 23.76400
C  49.48300 33.33600 25.06200
C  50.48000 35.31100 22.12500
C  51.14200 32.02800 23.76300
C  50.74400 30.76100 22.95600
N  48.02100 33.39600 27.71600
C  47.87400 32.41700 26.77500
C  46.90000 31.45000 27.23900
C  46.71000 31.76900 28.57700
C  47.37000 32.98400 28.80900
C  46.54600 30.10100 26.57400
C  46.01200 31.37000 29.76900
O  45.23000 30.47100 29.98400
C  46.35800 32.44600 30.86000
C  46.58400 31.85200 32.21300
O  47.57100 31.21600 32.59200
O  45.50200 32.27500 33.08600
C  45.80700 32.01900 34.49900
H  49.72300 38.55800 30.52200
H  51.40300 37.11600 24.31200
H  48.47300 31.58300 24.82400
H  47.06200 35.04700 32.42000
H  49.21700 37.00600 32.53100
H  47.18300 38.12400 30.87300
H  47.28100 38.57200 32.54400
H  46.22100 37.16300 32.01200
H  50.16200 34.99100 32.67100
H  49.26400 33.47500 32.42900
H  50.02000 34.68400 34.75200
H  48.92300 33.40100 34.71400
H  50.36900 40.43800 29.55300
H  51.48500 41.09700 28.42500
H  52.06500 40.05400 29.66300
H  52.82000 41.53400 25.28500
H  52.75000 41.24600 27.00400
H  51.25500 41.51500 25.98900
H  51.92500 34.52600 23.60300
H  49.36500 33.06900 23.07700
H  49.95800 36.20600 22.46500
H  49.78900 34.74500 21.50000
H  51.41200 35.62900 21.65900
H  51.29500 31.63600 24.76900
H  52.15800 32.29800 23.47900
H  51.18500 29.93800 23.51900
H  51.21100 30.83900 21.97400
H  49.65700 30.73400 22.88200
H  45.48000 30.00900 26.36800
H  46.90800 29.26500 27.17200
H  47.04000 29.91000 25.62100
H  45.45100 33.03200 31.00600
H  45.05200 32.53600 35.09100
H  46.75600 32.44700 34.82300
H  45.66200 30.95200 34.66800

