158

Mg 24.90800 1.16200 29.94800
C  26.97800 0.68700 32.62400
C  22.30400 1.04500 32.28000
C  22.64200 1.22700 27.39200
C  27.43700 0.63900 27.72000
N  24.71200 0.84500 32.24300
C  25.73300 0.98300 33.06100
C  25.22200 1.15600 34.51100
C  23.72100 0.89800 34.42500
C  23.56700 0.92700 32.86500
C  23.19800 -0.44300 35.02000
C  25.60900 2.42900 35.18600
C  26.20900 2.21400 36.57300
H  26.08600 3.28100 37.69300
N  22.85700 1.10300 29.85600
C  21.94000 1.03300 30.89900
C  20.57100 1.11000 30.37200
C  20.74200 1.15300 28.97500
C  22.14500 1.24400 28.68900
C  19.34500 1.23100 31.26800
C  19.65500 1.06900 27.89300
O  19.81800 0.96500 26.64600
C  18.15700 1.10300 28.30600
N  25.04600 0.94400 27.82500
C  23.99200 1.02500 26.93400
C  24.45000 1.07700 25.43100
C  25.99000 0.91200 25.58100
C  26.19800 0.81600 27.10900
C  23.70400 0.00900 24.57300
C  26.85300 1.97200 24.86700
C  26.60900 3.43200 25.27600
N  26.87200 0.76800 30.14400
C  27.80700 0.62000 29.11400
C  29.15500 0.39500 29.78100
C  28.82700 0.50400 31.14100
C  27.46500 0.66900 31.37800
C  30.51300 0.25300 29.13100
C  29.45800 0.44700 32.50300
O  30.60400 0.35900 32.96000
C  28.28100 0.72100 33.55900
C  28.24300 -0.31300 34.71100
O  27.69800 -1.37400 34.68600
O  29.13900 -0.02500 35.70000
C  29.05800 -0.90600 36.86800
H  21.35200 1.11600 32.81000
H  22.01000 1.50400 26.54600
H  28.24800 0.43500 27.01800
H  25.63200 0.28700 35.02500
H  23.13300 1.71700 34.84100
H  23.84200 -0.91200 35.76400
H  23.10400 -1.12600 34.17600
H  22.22200 -0.35300 35.49800
H  24.73900 3.07600 35.30000
H  26.30100 3.03800 34.60500
H  27.29100 2.10000 36.51100
H  25.77900 1.30000 36.98400
H  18.70000 2.00800 30.85800
H  19.50900 1.64800 32.26100
H  18.77900 0.30000 31.31800
H  17.97900 0.26800 28.98300
H  17.55100 0.97400 27.40900
H  17.84700 2.02600 28.79500
H  24.28900 2.10100 25.09300
H  26.32900 -0.07300 25.26100
H  24.35300 -0.74800 24.13300
H  23.44100 0.47300 23.62200
H  22.94100 -0.50000 25.16100
H  26.68400 1.83500 23.79900
H  27.90800 1.74200 25.01300
H  26.06400 3.39200 26.21900
H  26.06300 3.94100 24.48200
H  27.56400 3.92600 25.45700
H  30.68900 -0.81100 28.97500
H  31.14000 0.68200 29.91200
H  30.56900 0.79500 28.18600
H  28.48900 1.74400 33.87300
H  28.16300 -0.80100 37.48200
H  29.94000 -0.63600 37.44900
H  29.28400 -1.91200 36.51600
Mg -4.52700 25.39000 25.81400
C  -3.17900 26.26300 28.86300
C  -6.68000 22.98200 27.53500
C  -5.26100 23.73400 22.91400
C  -2.52300 27.48600 24.21900
N  -4.75200 24.62100 27.96600
C  -4.03400 25.14100 29.05500
C  -4.46200 24.40000 30.30500
C  -5.44100 23.29700 29.78900
C  -5.67100 23.65600 28.33100
C  -4.83900 21.86900 29.98800
C  -5.02600 25.42800 31.43200
C  -5.91400 24.73900 32.53200
H  -5.46200 24.79800 33.95200
N  -5.77900 23.62200 25.33500
C  -6.69100 22.94100 26.12000
C  -7.48500 22.04300 25.39000
C  -7.06900 22.13500 24.04100
C  -5.99900 23.25200 24.06600
C  -8.51400 21.05200 26.03500
C  -7.46600 21.41500 22.78300
O  -6.89300 21.63400 21.71100
C  -8.52200 20.29300 22.73500
N  -3.70400 25.42500 23.88900
C  -4.26200 24.75100 22.90000
C  -3.71300 25.19200 21.51200
C  -3.00400 26.56600 21.87500
C  -3.06600 26.50900 23.42700
C  -2.75700 24.12800 20.93100
C  -3.67600 27.81000 21.23000
C  -2.78500 28.75000 20.33800
N  -3.17900 26.69200 26.34200
C  -2.50400 27.53200 25.58200
C  -1.76500 28.41700 26.47400
C  -1.91500 27.93400 27.76300
C  -2.82500 26.84000 27.62500
C  -0.74900 29.61900 26.04500
C  -1.50100 28.07600 29.14200
O  -0.55600 28.69700 29.62300
C  -2.47600 27.07800 29.95200
C  -1.57400 26.33800 30.84400
O  -0.81000 25.46300 30.51400
O  -1.85100 26.71700 32.10800
C  -0.99400 26.10100 33.11900
H  -7.32700 22.39500 28.19100
H  -5.52300 23.44500 21.89400
H  -1.93000 28.21300 23.66100
H  -3.60700 23.96700 30.82300
H  -6.39000 23.30800 30.32400
H  -3.81900 21.83200 30.37200
H  -4.82000 21.36600 29.02100
H  -5.48100 21.29900 30.65900
H  -5.56400 26.10200 30.76500
H  -4.19000 25.92200 31.92700
H  -5.98000 23.66600 32.35300
H  -6.87600 25.21500 32.34400
H  -9.47400 21.48300 26.32100
H  -8.07700 20.68100 26.96200
H  -8.63900 20.20400 25.36200
H  -8.16300 19.52700 23.42200
H  -8.69000 19.90800 21.72900
H  -9.52700 20.61600 23.01000
H  -4.48200 25.41500 20.77300
H  -1.97400 26.56200 21.51900
H  -1.91300 24.60000 20.42800
H  -3.38400 23.77400 20.11300
H  -2.45600 23.34500 21.62700
H  -4.14100 28.41100 22.01200
H  -4.52600 27.41200 20.67600
H  -1.71600 28.54400 20.40700
H  -2.83700 29.80700 20.59700
H  -3.14800 28.77800 19.31100
H  0.07100 29.25300 25.42700
H  -0.39100 29.97800 27.01000
H  -1.34200 30.38400 25.54300
H  -3.18500 27.77100 30.40500
H  -0.77500 25.04500 32.96600
H  -1.53200 26.02800 34.06500
H  -0.08900 26.65800 33.36400

