158

Mg 25.56400 0.18100 29.58100
C  27.48000 0.29900 32.54000
C  22.75900 0.89200 31.37000
C  23.85400 0.27100 26.63800
C  28.47800 -0.83100 27.92800
N  25.24900 0.67800 31.71600
C  26.15200 0.70200 32.74600
C  25.46400 0.90700 34.09600
C  23.93800 0.88700 33.65200
C  23.98000 0.79400 32.16800
C  22.95400 -0.00600 34.49000
C  25.88700 2.18100 34.91500
C  26.53800 1.94700 36.34500
H  26.39000 2.94100 37.51200
N  23.54900 0.38400 29.05600
C  22.56200 0.79600 29.93700
C  21.28600 1.03800 29.16200
C  21.67700 0.95400 27.77100
C  23.08700 0.56400 27.76000
C  20.01000 1.20600 29.81100
C  20.84600 1.22800 26.59600
O  21.26500 1.28100 25.43400
C  19.41000 1.66400 26.71000
N  25.95000 -0.27400 27.58500
C  25.16100 -0.13300 26.49900
C  25.87900 -0.42400 25.12800
C  27.38100 -0.42700 25.56800
C  27.25100 -0.55500 27.15200
C  25.45100 -1.69600 24.41300
C  28.08800 0.90000 25.23500
C  28.90500 0.95800 23.93100
N  27.55100 -0.30200 30.09300
C  28.66600 -0.64600 29.33400
C  29.87100 -0.76900 30.15100
C  29.46500 -0.34200 31.37800
C  28.04400 -0.11200 31.35200
C  31.18800 -1.23600 29.72400
C  29.84600 -0.04700 32.80400
O  30.93600 -0.23200 33.29800
C  28.60800 0.40700 33.63200
C  28.48800 -0.47900 34.79000
O  27.83800 -1.51700 34.85000
O  29.32300 -0.00700 35.73300
C  29.10600 -0.69500 37.04000
H  21.85700 1.27300 31.85400
H  23.35400 0.41400 25.67700
H  29.42600 -1.05400 27.43500
H  25.74800 0.07200 34.73700
H  23.51900 1.87500 33.84400
H  23.51500 -0.63000 35.18500
H  22.40000 -0.70900 33.86800
H  22.34800 0.60900 35.15500
H  25.07900 2.90200 35.03500
H  26.61100 2.76900 34.35000
H  27.62000 1.97900 36.22200
H  26.27000 0.94400 36.67700
H  19.78500 2.27300 29.79400
H  19.96000 0.88700 30.85200
H  19.26100 0.64900 29.24800
H  18.84900 0.89100 27.23500
H  18.99900 1.77300 25.70600
H  19.28300 2.61200 27.23200
H  25.65500 0.38800 24.43700
H  27.95600 -1.27300 25.19000
H  26.32200 -2.03000 23.85000
H  24.76700 -1.44500 23.60200
H  24.95900 -2.48200 24.98500
H  28.78700 1.06800 26.05400
H  27.28600 1.63700 25.26600
H  29.99000 1.04200 23.98300
H  28.56200 1.73000 23.24200
H  28.71500 0.02800 23.39400
H  31.12300 -1.88400 28.85000
H  31.62800 -1.78600 30.55600
H  31.68400 -0.28800 29.52100
H  28.60700 1.46800 33.88500
H  28.05300 -0.65200 37.31900
H  29.66400 -0.06800 37.73600
H  29.49200 -1.71400 37.07900
Mg -2.14100 34.87800 26.36100
C  -3.76900 32.88200 28.73800
C  -0.52100 36.49900 28.94900
C  -0.95600 36.86800 24.06400
C  -3.75200 32.97400 23.86700
N  -2.18300 34.68700 28.61600
C  -2.89900 33.80900 29.36900
C  -2.74900 34.14600 30.82400
C  -1.70600 35.35500 30.84400
C  -1.51100 35.54000 29.35900
C  -2.26100 36.61800 31.56500
C  -2.22700 32.88000 31.67800
C  -2.98500 32.50000 32.98500
H  -2.23900 32.40900 34.36100
N  -0.94900 36.58500 26.48400
C  -0.29500 37.02400 27.61400
C  0.68700 38.00800 27.21100
C  0.56000 38.09300 25.77700
C  -0.52100 37.21700 25.40700
C  1.40100 38.89400 28.14000
C  1.37700 39.03600 24.81100
O  1.09700 39.18300 23.59600
C  2.56200 39.75400 25.35600
N  -2.43400 35.06300 24.28600
C  -1.83100 35.98800 23.51400
C  -2.07000 35.70400 22.05100
C  -2.52600 34.24200 22.06100
C  -2.91600 34.05600 23.51400
C  -3.08400 36.67600 21.38800
C  -1.53600 33.12800 21.54400
C  -0.06900 33.24600 21.93200
N  -3.58100 33.19000 26.26100
C  -4.17000 32.58100 25.13000
C  -5.00200 31.51900 25.63000
C  -4.95900 31.58800 27.04100
C  -4.06500 32.62800 27.39000
C  -5.79000 30.46800 24.84800
C  -5.43500 31.08600 28.27300
O  -6.19300 30.17100 28.55400
C  -4.71700 31.99000 29.46200
C  -5.76900 32.71500 30.14300
O  -6.34000 33.69800 29.73700
O  -5.96000 32.09200 31.38200
C  -6.92800 32.70400 32.33300
H  0.06000 36.90700 29.77900
H  -0.50700 37.39100 23.21700
H  -4.12600 32.36200 23.04400
H  -3.73400 34.48200 31.14700
H  -0.76600 35.04300 31.29800
H  -3.19700 36.40300 32.08000
H  -2.55600 37.28800 30.75800
H  -1.54300 37.09400 32.23300
H  -1.17400 33.01500 31.92700
H  -2.21700 31.91200 31.17600
H  -3.34200 31.49700 32.75100
H  -3.70600 33.30600 33.12700
H  2.41300 38.51500 28.28300
H  0.88200 38.95300 29.09700
H  1.45000 39.90900 27.74500
H  2.13700 40.64300 25.82200
H  3.09000 39.94300 24.42200
H  3.09000 39.01500 25.95900
H  -1.12100 35.76100 21.51800
H  -3.50900 34.17600 21.59400
H  -4.05900 36.24600 21.16100
H  -2.60900 36.98100 20.45500
H  -3.27900 37.48200 22.09600
H  -1.56600 33.09700 20.45500
H  -1.95500 32.21800 21.97100
H  0.58200 33.26000 21.05800
H  0.23200 32.35900 22.49100
H  0.13800 34.08200 22.60000
H  -5.61100 29.45500 25.20700
H  -5.41800 30.52900 23.82500
H  -6.87000 30.61500 24.85000
H  -4.24900 31.25600 30.11800
H  -6.40700 32.87700 33.27500
H  -7.77200 32.04300 32.52800
H  -7.24100 33.67000 31.93800

