158

Mg 34.51000 2.91900 28.94000
C  32.60600 3.95800 31.83300
C  37.28500 2.75100 30.95700
C  36.40600 2.71700 26.28600
C  31.62700 3.88900 27.00500
N  34.82700 3.38900 31.14300
C  33.95200 3.72500 32.12300
C  34.62800 3.74200 33.53700
C  36.12700 3.66500 33.12000
C  36.07000 3.15800 31.63700
C  36.99100 4.94100 33.33900
C  34.06400 2.56200 34.38900
C  33.93400 2.85900 35.91000
H  34.55800 4.14000 36.44100
N  36.58600 2.52900 28.63400
C  37.54200 2.44900 29.60800
C  38.81900 2.19700 28.95400
C  38.54200 2.10500 27.57200
C  37.12400 2.40300 27.39000
C  40.06400 2.00300 29.74000
C  39.54700 1.69800 26.44200
O  39.17600 1.51400 25.30200
C  40.92100 1.63900 26.77400
N  34.10600 3.34200 26.97200
C  35.10400 3.14900 26.05700
C  34.61800 3.42000 24.67600
C  33.07100 3.42600 24.79800
C  32.87200 3.53300 26.34300
C  35.09800 4.84700 24.22800
C  32.46300 2.17400 24.15800
C  30.87200 2.13300 23.96200
N  32.45100 3.68500 29.33800
C  31.43000 3.90700 28.40000
C  30.21900 4.26000 29.14700
C  30.64100 4.27400 30.50200
C  32.01000 3.99700 30.54900
C  28.86600 4.52000 28.71400
C  30.18100 4.51600 31.81600
O  29.09800 4.81300 32.23000
C  31.50200 4.21100 32.72400
C  31.73900 5.44400 33.47400
O  32.15800 6.49900 33.06300
O  31.25500 5.20900 34.79600
C  31.38700 6.31500 35.80800
H  38.23400 2.79300 31.49500
H  36.96600 2.60000 25.35500
H  30.88800 4.12300 26.23600
H  34.52200 4.72900 33.98700
H  36.38800 2.85700 33.80300
H  37.56100 5.20100 32.44700
H  37.64500 4.73800 34.18700
H  36.46400 5.81600 33.71900
H  34.63900 1.65300 34.21400
H  33.06200 2.22100 34.13100
H  34.31400 2.05000 36.53500
H  32.86800 2.89200 36.13600
H  40.57100 1.14000 29.30700
H  39.86600 1.59900 30.73300
H  40.64000 2.92800 29.74000
H  41.30200 2.53000 27.27200
H  41.35600 1.58100 25.77600
H  41.08400 0.68300 27.27100
H  34.95400 2.56300 24.09100
H  32.68200 4.33100 24.33100
H  35.22400 4.89100 23.14600
H  36.04400 5.08000 24.71500
H  34.45100 5.68900 24.47200
H  32.65800 1.37900 24.87800
H  32.95000 1.95600 23.20700
H  30.48500 2.24700 22.94900
H  30.38100 2.95200 24.48600
H  30.56400 1.17100 24.37300
H  28.17300 3.96000 29.34100
H  28.70600 4.25500 27.66800
H  28.79800 5.59700 28.86600
H  31.24000 3.33500 33.31700
H  32.10800 7.06400 35.47900
H  31.73600 5.96200 36.77800
H  30.43800 6.85100 35.80000
Mg 53.10200 25.42200 44.48300
C  50.57700 27.78200 43.85800
C  50.80500 22.92000 43.46500
C  55.66300 23.33500 43.67400
C  55.31800 27.88500 44.99800
N  50.94500 25.39300 43.46500
C  50.10400 26.48800 43.54700
C  48.72400 26.06000 43.09000
C  48.70400 24.52900 43.49700
C  50.24700 24.20900 43.49700
C  47.90500 24.29900 44.89300
C  48.29900 26.30200 41.58800
C  49.38300 26.71700 40.53900
H  49.58400 25.89500 39.28400
N  53.20100 23.39400 43.81800
C  52.12300 22.58500 43.51700
C  52.65300 21.28400 43.23600
C  54.06400 21.27100 43.39300
C  54.35000 22.67900 43.63700
C  51.76100 20.10800 42.71600
C  55.08300 20.08600 43.31600
O  54.57800 18.96900 43.23600
C  56.57400 20.20800 43.33500
N  55.21200 25.57200 44.22600
C  56.02100 24.54500 44.15000
C  57.55500 24.97700 44.28300
C  57.44100 26.47500 44.64900
C  55.89500 26.72400 44.55500
C  58.33600 24.13400 45.34600
C  58.19600 27.38100 43.55300
C  58.93200 28.53400 44.17500
N  53.02900 27.44600 44.51800
C  53.98800 28.31900 44.99300
C  53.29900 29.50800 45.45300
C  52.01600 29.41600 44.94100
C  51.88900 28.13900 44.38300
C  53.93100 30.72200 46.01800
C  50.69500 30.11400 44.74200
O  50.47800 31.28100 45.06000
C  49.78700 29.05700 43.97700
C  49.48700 29.53700 42.62300
O  50.30000 29.73400 41.73400
O  48.16700 29.83200 42.55200
C  47.61900 30.51300 41.39100
H  49.99200 22.19400 43.40900
H  56.55000 22.70500 43.58000
H  56.04500 28.65200 45.27200
H  48.09200 26.65000 43.75500
H  48.25600 23.85600 42.76600
H  48.56900 23.91100 45.66700
H  47.18800 23.51300 44.65500
H  47.36300 25.20300 45.16900
H  47.52300 27.06300 41.67200
H  47.86400 25.37800 41.20600
H  50.34000 26.65600 41.05600
H  49.12900 27.74500 40.28300
H  52.16900 19.36200 42.03500
H  50.95200 20.58400 42.16100
H  51.21800 19.52200 43.45700
H  56.98400 19.23600 43.06000
H  57.04000 20.47400 44.28400
H  56.88800 20.93200 42.58300
H  57.98100 24.75100 43.30600
H  57.83400 26.72900 45.63400
H  57.60000 23.67800 46.00800
H  59.01400 24.76900 45.91700
H  58.81000 23.29100 44.84400
H  57.41300 27.79500 42.91700
H  58.88400 26.80300 42.93600
H  59.30700 28.29700 45.17100
H  58.13500 29.25300 44.36400
H  59.76700 28.93600 43.60100
H  53.18900 31.33400 46.52900
H  54.40900 31.27500 45.20900
H  54.57100 30.38200 46.83200
H  48.87100 28.99600 44.56400
H  48.02200 30.07500 40.47900
H  47.88800 31.56900 41.41300
H  46.54300 30.34900 41.45000

