158

Mg 46.81500 34.99000 28.39200
C  45.23100 32.91100 30.80900
C  47.12000 37.43200 30.72500
C  47.91500 37.00100 25.96000
C  46.23600 32.49100 25.98900
N  46.27400 35.15200 30.47600
C  45.69800 34.17900 31.29100
C  45.87700 34.54000 32.80500
C  46.09600 36.10400 32.66200
C  46.53300 36.24700 31.16500
C  44.85300 36.87100 33.11100
C  47.19600 33.79200 33.27000
C  47.38200 33.76300 34.79400
H  46.41200 34.55300 35.61700
N  47.49400 37.03100 28.39500
C  47.60500 37.84300 29.48200
C  48.27600 39.12200 29.11800
C  48.48600 38.95300 27.70900
C  47.91700 37.61800 27.29200
C  48.61500 40.24200 30.04900
C  49.04500 40.03800 26.70000
O  49.19900 39.82300 25.54300
C  49.51000 41.43600 27.16300
N  47.00700 34.78100 26.22500
C  47.55000 35.72800 25.45300
C  47.78400 35.25500 23.98600
C  47.36300 33.77800 24.07300
C  46.84300 33.67100 25.53600
C  46.99600 36.02800 22.84600
C  48.46100 32.66300 23.71000
C  48.13300 31.84600 22.47400
N  46.03500 33.07700 28.30200
C  45.84200 32.18700 27.29200
C  45.09800 30.99600 27.73500
C  44.79500 31.20900 29.05700
C  45.38500 32.46900 29.42100
C  44.69900 29.90700 26.78500
C  44.02500 30.72400 30.29600
O  43.27000 29.76300 30.47200
C  44.17100 31.89500 31.33800
C  44.57500 31.34900 32.70400
O  45.51800 30.63000 32.96300
O  43.51600 31.66500 33.55800
C  43.66000 31.19700 34.99400
H  47.36700 38.09400 31.55700
H  48.31100 37.65500 25.18000
H  46.03200 31.66300 25.30700
H  45.07200 34.28400 33.49400
H  46.90700 36.31400 33.35900
H  44.95200 37.65500 33.86300
H  44.21900 36.17400 33.65800
H  44.36400 37.36500 32.27200
H  48.01600 34.42700 32.93500
H  47.20000 32.78600 32.85100
H  48.40800 34.08900 34.96200
H  47.27200 32.75200 35.18500
H  48.20900 41.22000 29.79300
H  49.69000 40.42100 30.00900
H  48.47200 40.01700 31.10600
H  48.77800 42.20600 26.91800
H  50.43700 41.61900 26.62000
H  49.82400 41.52100 28.20300
H  48.87300 35.27000 23.94300
H  46.46200 33.63100 23.47800
H  46.82300 37.08900 23.02400
H  46.08900 35.64400 22.38000
H  47.74300 36.12600 22.05800
H  48.75600 32.02900 24.54600
H  49.40000 33.20100 23.57500
H  47.25000 32.10300 21.88900
H  48.13600 30.80300 22.79400
H  49.03900 31.95200 21.87800
H  44.86500 29.00900 27.37900
H  45.26900 29.83600 25.85800
H  43.63700 29.96200 26.54700
H  43.18900 32.35600 31.44600
H  44.23800 30.28200 35.12000
H  42.67400 30.87100 35.32700
H  43.98100 31.97100 35.69000
Mg -4.93900 25.15000 25.82600
C  -3.17300 26.68700 28.53900
C  -6.15900 22.95200 28.17700
C  -6.58500 23.67400 23.34900
C  -3.43600 27.40600 23.68600
N  -4.85700 25.00900 28.14400
C  -4.04400 25.72000 28.98200
C  -4.40400 25.39400 30.41600
C  -5.13500 24.00600 30.30300
C  -5.31800 23.93600 28.74900
C  -4.44600 22.81700 31.00600
C  -5.12900 26.50100 31.15200
C  -4.74000 26.80900 32.68500
H  -4.47700 25.47400 33.39400
N  -6.15300 23.47000 25.74900
C  -6.51800 22.74800 26.83200
C  -7.47100 21.74900 26.36200
C  -7.68000 21.95200 24.93700
C  -6.81700 23.07100 24.61300
C  -8.08100 20.64300 27.24200
C  -8.48600 21.20500 23.93700
O  -8.38600 21.39400 22.72200
C  -9.24100 20.02600 24.33800
N  -4.75500 25.34200 23.78400
C  -5.63800 24.66000 22.98400
C  -5.70800 25.26200 21.52700
C  -4.71000 26.45100 21.61600
C  -4.27200 26.40200 23.11000
C  -5.37500 24.28000 20.37800
C  -5.25200 27.89200 21.37400
C  -6.20600 28.20500 20.12900
N  -3.52100 26.68400 26.02900
C  -3.04200 27.49500 25.00300
C  -2.08400 28.42400 25.63600
C  -2.14300 28.12400 26.95900
C  -3.01700 27.11100 27.22200
C  -1.28200 29.48800 24.94600
C  -1.63200 28.50700 28.30300
O  -0.88900 29.43200 28.59800
C  -2.30000 27.58300 29.34100
C  -1.27000 26.79900 30.10000
O  -0.35700 26.15600 29.60000
O  -1.37300 26.86200 31.45700
C  -0.44100 26.08700 32.27700
H  -6.64500 22.32300 28.92500
H  -7.23200 23.24400 22.58100
H  -2.93900 28.11300 23.01800
H  -3.44800 25.34300 30.93600
H  -6.10800 24.01800 30.79300
H  -5.13500 22.32600 31.69300
H  -3.48700 22.97500 31.50000
H  -4.23300 22.02200 30.29100
H  -6.19100 26.26600 31.08700
H  -4.94400 27.49200 30.73700
H  -5.61800 27.27900 33.12900
H  -3.89900 27.48500 32.83900
H  -9.17000 20.65500 27.20300
H  -7.91900 20.78900 28.31000
H  -7.69600 19.68300 26.89800
H  -8.47300 19.36500 24.73900
H  -9.61000 19.50000 23.45700
H  -9.96700 20.29700 25.10400
H  -6.72500 25.61200 21.34700
H  -3.86600 26.15700 20.99100
H  -4.62700 23.62200 20.82000
H  -4.99900 24.70100 19.44500
H  -6.16500 23.57800 20.11400
H  -4.38100 28.52200 21.19800
H  -5.81700 28.41500 22.14600
H  -6.39700 27.29000 19.56800
H  -5.67800 28.86900 19.44500
H  -7.14900 28.67200 20.41300
H  -1.89700 29.92700 24.16000
H  -0.45000 29.03800 24.40600
H  -0.89900 30.31800 25.54000
H  -2.82100 28.23900 30.03700
H  0.48300 26.66400 32.33100
H  -0.14700 25.15000 31.80500
H  -0.75000 25.90000 33.30500

