158

Mg -1.89000 17.03900 26.12600
C  -1.77700 14.79700 28.89000
C  -2.00800 19.61400 28.25800
C  -2.07300 19.03700 23.44200
C  -2.15100 14.17100 24.09200
N  -2.10100 17.11700 28.32900
C  -1.90900 16.15400 29.25900
C  -2.01000 16.81000 30.68000
C  -2.35800 18.30800 30.35000
C  -2.11500 18.36000 28.85700
C  -3.78800 18.78300 30.68300
C  -0.82200 16.55200 31.57300
C  -0.57200 17.60900 32.72000
H  -0.00100 17.01900 33.97700
N  -1.88800 19.06400 25.89600
C  -1.83800 19.98400 26.89600
C  -1.85200 21.32000 26.27900
C  -1.87900 21.14900 24.90500
C  -1.94900 19.72600 24.72100
C  -1.93200 22.59200 27.16600
C  -1.69700 22.15200 23.84300
O  -1.67500 21.85700 22.66600
C  -1.40500 23.60100 24.13600
N  -2.07100 16.68900 24.13300
C  -2.10000 17.64800 23.20000
C  -2.02700 17.09400 21.74700
C  -1.81800 15.63200 21.96700
C  -2.00600 15.45500 23.49500
C  -3.17800 17.57200 20.79400
C  -0.43000 14.96800 21.51400
C  -0.48400 14.35900 20.06800
N  -1.96900 14.98600 26.38400
C  -2.10600 13.90700 25.46800
C  -1.95000 12.73700 26.13600
C  -1.84400 12.97200 27.47300
C  -1.91900 14.40400 27.59400
C  -2.01300 11.42100 25.47700
C  -1.65400 12.39300 28.77600
O  -1.44700 11.24400 29.05600
C  -1.74700 13.56200 29.78500
C  -0.53000 13.27500 30.65800
O  0.66400 13.58700 30.51900
O  -1.11300 12.72000 31.74600
C  -0.40100 12.62200 33.04300
H  -2.02000 20.51100 28.88100
H  -2.14200 19.61500 22.51800
H  -2.06300 13.31400 23.42100
H  -2.89100 16.41900 31.18800
H  -1.68000 19.06100 30.75300
H  -4.29700 18.40000 31.56700
H  -4.45800 18.63400 29.83700
H  -3.76000 19.87000 30.76100
H  0.07100 16.52200 30.94900
H  -0.96200 15.54400 31.96300
H  -1.46100 18.12300 33.08300
H  0.12300 18.33400 32.29600
H  -2.21700 22.31900 28.18100
H  -2.53000 23.40800 26.76000
H  -0.90900 22.96800 27.14600
H  -2.25100 24.21600 24.44400
H  -1.11500 24.11300 23.21900
H  -0.59700 23.68100 24.86300
H  -1.16900 17.43900 21.17000
H  -2.53400 15.09600 21.34500
H  -3.86100 18.20000 21.36700
H  -3.73100 16.70600 20.42800
H  -2.88800 18.21500 19.96400
H  -0.08300 14.17900 22.18200
H  0.39600 15.67700 21.45900
H  0.53700 14.53600 19.73100
H  -1.09000 14.86400 19.31500
H  -0.68500 13.29100 20.14600
H  -1.63400 11.38900 24.45600
H  -3.01600 11.00700 25.58800
H  -1.40400 10.76400 26.09900
H  -2.67800 13.37800 30.32200
H  -0.64000 13.51200 33.62500
H  0.67500 12.55400 32.88400
H  -0.84200 11.80600 33.61500
Mg 8.72500 47.38800 27.18900
C  7.09500 46.85500 30.25100
C  11.64800 47.81300 28.97200
C  10.25300 48.68000 24.29000
C  5.64700 47.94000 25.64300
N  9.31400 47.35900 29.39000
C  8.53000 47.03000 30.42600
C  9.28000 47.17900 31.81300
C  10.71000 47.70600 31.31800
C  10.56700 47.66800 29.81400
C  11.01100 49.13600 31.82900
C  9.34900 45.84200 32.76800
C  9.04900 46.14900 34.27300
H  9.25600 45.14600 35.34900
N  10.68700 48.03000 26.66500
C  11.73300 47.95200 27.54200
C  12.98900 48.28200 26.82500
C  12.61000 48.47200 25.46700
C  11.17000 48.43000 25.38200
C  14.35000 48.39200 27.44300
C  13.52300 48.62000 24.28100
O  13.14700 48.86300 23.16700
C  14.96500 48.61600 24.37500
N  8.10200 48.18900 25.33200
C  8.88800 48.48500 24.31100
C  8.09700 48.91100 23.00500
C  6.59100 48.48300 23.41800
C  6.82900 48.07200 24.86900
C  8.34000 50.42800 22.55400
C  6.15200 47.28600 22.48200
C  5.85500 47.65400 20.97500
N  6.76900 47.25600 27.73100
C  5.65100 47.57000 27.05400
C  4.49100 47.22300 27.84500
C  5.02800 46.91300 29.14100
C  6.44400 47.00600 29.04000
C  3.08800 47.36100 27.39700
C  4.71200 46.71100 30.53500
O  3.63200 46.69700 31.04800
C  6.05200 46.52400 31.28600
C  6.07900 45.20100 32.03600
O  6.49700 44.12800 31.52300
O  5.71100 45.30000 33.34000
C  5.87700 44.10100 34.10500
H  12.55200 47.75300 29.58200
H  10.62500 49.12000 23.36200
H  4.68300 47.95000 25.12900
H  8.70600 47.90500 32.38900
H  11.50300 47.03000 31.63900
H  10.83600 49.87200 31.04400
H  12.09700 49.21500 31.88100
H  10.56100 49.48500 32.75800
H  10.35200 45.42000 32.70300
H  8.75100 45.07400 32.27700
H  8.04000 46.54300 34.39800
H  9.71100 46.94200 34.62300
H  14.99100 47.57000 27.12600
H  14.14600 48.33500 28.51200
H  14.70300 49.35800 27.08000
H  15.27700 49.44200 25.01500
H  15.36700 48.78600 23.37700
H  15.21900 47.62800 24.75800
H  8.48300 48.29400 22.19400
H  5.99700 49.39200 23.31700
H  8.93300 50.53700 21.64600
H  8.83600 51.04600 23.30300
H  7.38900 50.93700 22.39400
H  5.27100 46.73800 22.81900
H  6.96000 46.55500 22.50500
H  6.67900 47.23100 20.39900
H  5.68600 48.71800 20.81200
H  4.93300 47.09200 20.82800
H  2.90300 48.00900 26.54000
H  2.45500 47.56500 28.26000
H  2.81200 46.35400 27.08200
H  6.15700 47.28300 32.06100
H  5.86800 44.31700 35.17300
H  6.89000 43.70100 34.04600
H  5.31400 43.26500 33.68900

