158

Mg -2.45900 17.45400 25.75400
C  -2.75500 15.24300 28.59900
C  -3.18900 19.99600 27.85200
C  -2.00600 19.45500 23.09400
C  -1.87400 14.65000 23.76900
N  -2.94700 17.56500 27.97300
C  -2.89500 16.60700 28.97500
C  -3.20800 17.16100 30.36600
C  -3.88000 18.55600 29.88400
C  -3.27200 18.76100 28.50400
C  -5.46000 18.50700 29.81900
C  -1.96700 17.38400 31.22200
C  -2.28400 18.07500 32.53200
H  -1.86000 17.26700 33.77100
N  -2.45500 19.43600 25.58100
C  -2.72300 20.35800 26.57900
C  -2.66600 21.71700 25.96900
C  -2.38400 21.52300 24.57000
C  -2.26300 20.07900 24.38300
C  -2.95700 23.00100 26.82100
C  -2.39300 22.60400 23.49900
O  -2.50300 22.38000 22.29000
C  -2.44700 24.07900 23.88600
N  -2.08800 17.01900 23.67400
C  -1.96200 18.07800 22.77100
C  -1.59000 17.52600 21.33700
C  -1.51100 15.98200 21.63300
C  -1.86100 15.80300 23.11800
C  -2.71900 17.89600 20.34000
C  0.00400 15.56000 21.28200
C  1.21200 16.07300 22.14900
N  -2.48700 15.34200 26.06700
C  -2.15700 14.32000 25.14300
C  -2.20800 13.11900 25.78000
C  -2.28900 13.41000 27.23200
C  -2.51700 14.76200 27.33600
C  -2.11200 11.78400 25.17100
C  -2.35300 12.84200 28.51100
O  -2.12200 11.70600 28.83300
C  -2.72800 13.99400 29.50700
C  -1.58900 13.99900 30.44100
O  -0.42400 14.38400 30.24900
O  -1.95400 13.31800 31.54100
C  -0.85200 12.63800 32.32800
H  -3.40500 20.83400 28.51800
H  -1.88400 20.11900 22.23500
H  -1.61500 13.74100 23.22200
H  -3.98500 16.57200 30.85400
H  -3.50300 19.46100 30.36100
H  -5.87400 19.25300 30.49700
H  -5.78600 17.48900 30.03600
H  -5.78500 18.66100 28.79000
H  -1.42000 18.04500 30.54900
H  -1.39700 16.46200 31.33000
H  -3.35400 18.27400 32.59700
H  -1.81700 19.05900 32.47000
H  -3.18700 22.84500 27.87500
H  -3.83100 23.52500 26.43300
H  -2.11100 23.66100 26.63000
H  -2.51000 24.60400 22.93200
H  -1.61300 24.40700 24.50600
H  -3.42800 24.25400 24.32700
H  -0.64400 18.03400 21.14900
H  -2.10800 15.27200 21.06100
H  -3.50900 18.36200 20.92900
H  -3.25800 17.08900 19.84300
H  -2.25700 18.47400 19.54100
H  0.16600 15.98800 20.29300
H  -0.01100 14.50300 21.01900
H  1.77000 16.82700 21.59500
H  1.79100 15.17900 22.38400
H  0.90200 16.64500 23.02300
H  -1.44200 11.65900 24.32100
H  -3.14100 11.43800 25.07000
H  -1.61300 11.13200 25.88800
H  -3.57900 13.58000 30.04900
H  -0.08700 13.33700 32.66700
H  -0.37200 11.94700 31.63500
H  -1.26700 12.02800 33.13000
Mg 7.03300 53.72200 40.55600
C  6.80400 50.19200 40.06700
C  10.26700 53.52600 39.31700
C  7.24600 57.08600 40.53500
C  3.78900 53.74700 41.37100
N  8.31700 52.09700 39.61600
C  8.05000 50.75500 39.73800
C  9.35500 50.00000 39.50500
C  10.46400 51.08200 39.55100
C  9.63200 52.30200 39.37600
C  11.27700 51.09400 40.91000
C  9.38300 49.09300 38.19500
C  9.02400 49.70100 36.84200
H  8.02200 48.99600 35.94500
N  8.63100 55.11100 40.07800
C  9.86700 54.81000 39.61900
C  10.61700 55.95100 39.48100
C  9.82600 57.05000 39.94300
C  8.52100 56.46100 40.29500
C  12.06300 55.99000 39.07300
C  10.22500 58.47600 40.09900
O  11.40900 58.71800 39.80300
C  9.32200 59.63800 40.47800
N  5.56600 55.21700 40.65500
C  6.00200 56.54000 40.86800
C  4.82000 57.43000 41.25000
C  3.75700 56.37000 41.64500
C  4.38500 55.00200 41.13200
C  4.93800 58.57600 42.20400
C  2.27400 56.63500 41.06900
C  1.12100 57.05500 41.98600
N  5.50000 52.29400 40.64500
C  4.22600 52.45300 41.06400
C  3.61000 51.16900 41.17400
C  4.56000 50.23100 40.87500
C  5.70000 50.96200 40.49500
C  2.16200 50.93900 41.57200
C  4.89300 48.82000 40.70200
O  4.17500 47.84200 40.98900
C  6.30300 48.72700 40.20500
C  6.25900 47.81900 39.06000
O  5.81100 48.13000 37.96000
O  6.70400 46.53900 39.41700
C  6.29300 45.49600 38.41700
H  11.34900 53.41900 39.21600
H  7.42200 58.16400 40.56700
H  2.77800 53.80200 41.78000
H  9.46700 49.33800 40.36300
H  11.12000 51.00400 38.68400
H  11.51900 50.05400 41.12800
H  10.77800 51.55300 41.76400
H  12.24100 51.57800 40.75000
H  8.70600 48.24700 38.31300
H  10.40300 48.71000 38.16200
H  9.98500 49.74900 36.33100
H  8.69400 50.70500 37.10800
H  12.21100 56.28400 38.03400
H  12.53600 55.00800 39.08600
H  12.68600 56.63800 39.69000
H  8.62400 59.65700 39.64100
H  9.92000 60.54700 40.54400
H  9.02500 59.42700 41.50500
H  4.54000 57.85100 40.28400
H  3.64900 56.29500 42.72800
H  5.92100 58.72500 42.65000
H  4.32900 58.41000 43.09200
H  4.64500 59.49300 41.69200
H  1.98200 55.75200 40.50000
H  2.43600 57.52700 40.46400
H  0.67000 57.96100 41.58000
H  1.48800 57.21100 43.00000
H  0.29100 56.35300 42.05900
H  1.59900 51.83300 41.84000
H  2.19500 50.13600 42.30800
H  1.45000 50.51500 40.86300
H  6.83900 48.17100 40.97500
H  6.48200 45.87000 37.41100
H  5.23700 45.24300 38.52000
H  6.76600 44.51500 38.47000

