158

Mg 1.31100 7.98800 25.57700
C  2.15600 9.92000 28.35500
C  1.70600 5.18700 27.29500
C  0.86700 6.25300 22.69900
C  1.45900 10.85300 23.62700
N  1.77900 7.64600 27.57600
C  1.91900 8.57000 28.60700
C  2.17000 7.91300 29.88200
C  2.11700 6.32800 29.61400
C  1.89300 6.40800 28.05200
C  3.42400 5.54200 29.95700
C  1.10900 8.38200 30.98400
C  1.51400 8.60400 32.51900
H  2.76600 7.86400 33.08200
N  1.28700 5.99300 25.09300
C  1.38500 5.00900 25.97200
C  1.25500 3.75200 25.30800
C  0.84600 4.04700 23.99300
C  0.99300 5.43500 23.81300
C  1.31700 2.40600 26.04000
C  0.35900 3.10400 22.89900
O  0.07900 3.54500 21.78400
C  0.44400 1.66800 23.04200
N  1.14100 8.51700 23.44400
C  0.95700 7.60500 22.46300
C  1.16100 8.30000 21.02100
C  1.09200 9.76700 21.38800
C  1.26000 9.73300 22.88200
C  2.53400 7.82600 20.30600
C  -0.18300 10.54200 20.95500
C  -0.04800 11.64100 19.94700
N  1.59000 10.00500 25.91700
C  1.70200 11.01400 25.00100
C  1.94800 12.21000 25.76100
C  2.15400 11.78500 27.05100
C  1.97600 10.44200 27.09700
C  2.06600 13.67700 25.18900
C  2.50600 12.25800 28.38700
O  2.75400 13.39800 28.74900
C  2.27200 11.01500 29.32800
C  3.49800 10.95300 30.25200
O  4.56500 10.40500 30.02500
O  3.16600 11.69900 31.37600
C  4.14700 11.66700 32.53600
H  2.05900 4.36600 27.92200
H  0.81800 5.64700 21.79200
H  1.57100 11.83900 23.17200
H  3.18500 8.17200 30.18300
H  1.32000 5.78400 30.12100
H  4.21300 6.14800 30.40400
H  3.89600 5.01200 29.13000
H  3.20800 4.84000 30.76200
H  0.35000 7.61500 30.83000
H  0.65900 9.34100 30.72900
H  0.65000 8.26900 33.09300
H  1.56900 9.66900 32.74600
H  0.36000 1.92100 25.84800
H  1.53800 2.61800 27.08600
H  2.12400 1.81400 25.60800
H  -0.39900 1.44200 23.69500
H  1.40500 1.32300 23.42500
H  0.28800 1.17000 22.08500
H  0.37400 7.85700 20.41100
H  1.99600 10.27300 21.05100
H  3.11600 8.68000 19.96200
H  2.32100 7.34200 19.35300
H  3.23300 7.19200 20.85100
H  -0.73600 10.91500 21.81700
H  -0.83500 9.85800 20.41200
H  -0.34300 11.30800 18.95200
H  1.01800 11.86400 19.92800
H  -0.53400 12.52700 20.35600
H  2.49000 13.78300 24.19100
H  2.67400 14.23800 25.89800
H  1.07400 14.12800 25.15900
H  1.37100 11.22800 29.90300
H  3.68200 10.99400 33.25600
H  4.35100 12.60100 33.06000
H  5.15800 11.27800 32.41100
Mg 25.88000 0.02700 29.00300
C  27.91400 -0.23300 31.83900
C  23.23100 0.26300 31.01900
C  23.87600 0.43700 26.16900
C  28.50900 -0.60400 26.88100
N  25.64000 0.05400 31.21400
C  26.58600 0.04200 32.17500
C  26.00100 0.37600 33.55500
C  24.47200 0.51600 33.26300
C  24.40600 0.30400 31.74900
C  23.35000 -0.13700 34.10500
C  26.72800 1.55400 34.26000
C  26.82400 1.39200 35.79400
H  26.37200 2.41400 36.78000
N  23.85200 0.24700 28.68200
C  22.91000 0.28700 29.66700
C  21.62000 0.40600 29.06300
C  21.80000 0.59200 27.65200
C  23.23000 0.44400 27.43900
C  20.33700 0.47400 29.94900
C  20.76700 0.85300 26.61600
O  20.92600 0.84800 25.38700
C  19.37800 1.24500 26.97600
N  26.16500 0.05500 26.88800
C  25.18600 0.22300 25.92800
C  25.84800 0.14300 24.53800
C  27.29000 -0.30500 24.80200
C  27.31700 -0.25400 26.30600
C  25.04800 -0.77800 23.51100
C  28.32300 0.53200 24.07100
C  28.77900 1.83600 24.74000
N  27.72100 -0.51200 29.27500
C  28.76200 -0.72200 28.30000
C  30.03300 -0.91600 28.98300
C  29.74100 -0.79500 30.37800
C  28.35800 -0.47500 30.50400
C  31.33700 -1.21100 28.38900
C  30.32300 -0.75600 31.70200
O  31.49100 -0.83400 32.05200
C  29.18100 -0.27300 32.66300
C  29.02300 -1.24500 33.83600
O  28.28300 -2.17000 33.81200
O  29.71700 -0.85400 34.99100
C  29.37600 -1.48800 36.25500
H  22.31900 0.44200 31.59200
H  23.13000 0.31200 25.38200
H  29.34100 -0.84100 26.21500
H  26.21600 -0.46700 34.21200
H  24.14000 1.54300 33.41700
H  22.77800 -0.89000 33.56300
H  22.69100 0.59400 34.57300
H  23.70000 -0.68600 34.97900
H  26.23800 2.51000 34.07400
H  27.65400 1.85200 33.76700
H  27.88600 1.15800 35.86800
H  26.33200 0.46200 36.07700
H  19.42700 0.05800 29.51800
H  20.12400 1.51200 30.20700
H  20.40700 0.04100 30.94700
H  19.24500 1.88000 27.85200
H  18.85800 0.29700 27.10900
H  18.91700 1.67900 26.08900
H  25.88600 1.14500 24.11100
H  27.50900 -1.33400 24.52000
H  24.04100 -0.96400 23.88400
H  25.54900 -1.73700 23.37900
H  25.05300 -0.28300 22.53900
H  27.81500 0.88000 23.17100
H  29.19600 -0.07200 23.82300
H  28.46800 1.99500 25.77300
H  28.27800 2.64000 24.20000
H  29.85300 2.02200 24.74200
H  32.00200 -0.38400 28.63900
H  31.23200 -1.32000 27.30900
H  31.69600 -2.17900 28.73800
H  29.50400 0.71200 33.00000
H  30.29700 -1.76300 36.76900
H  28.68600 -2.33200 36.27500
H  28.80600 -0.73800 36.80400

