158

Mg 26.84000 50.35000 26.49700
C  24.56600 51.36300 29.01600
C  29.14100 49.34000 28.79700
C  28.76700 49.46700 23.91500
C  24.68200 52.08700 24.19100
N  26.90200 50.46500 28.62200
C  25.82900 50.76100 29.48300
C  26.16000 50.24400 30.91500
C  27.59400 49.73300 30.76800
C  27.97000 49.86600 29.32700
C  28.65700 50.37800 31.77700
C  25.13600 49.14600 31.27400
C  24.26800 49.47300 32.51100
H  24.44500 48.72000 33.82900
N  28.65400 49.46200 26.40600
C  29.45500 49.05200 27.46100
C  30.56500 48.31600 26.89400
C  30.39700 48.28100 25.44700
C  29.23500 49.14300 25.20900
C  31.54700 47.66000 27.85900
C  31.13800 47.57400 24.37900
O  30.77200 47.46600 23.22400
C  32.27600 46.84700 24.95500
N  26.74300 50.67400 24.40800
C  27.68700 50.17900 23.53200
C  27.42200 50.48500 22.05400
C  26.01700 51.11800 22.18300
C  25.78000 51.34100 23.69800
C  28.50300 51.36800 21.35300
C  24.93600 50.27500 21.46700
C  24.15500 49.18800 22.23000
N  25.04000 51.53500 26.54300
C  24.38900 52.21400 25.56300
C  23.31700 52.94900 26.16100
C  23.21900 52.52700 27.48300
C  24.34000 51.70400 27.66600
C  22.34600 53.84700 25.40700
C  22.46400 52.66000 28.76600
O  21.50300 53.31200 29.14000
C  23.27400 51.78400 29.77000
C  23.37700 52.59800 31.05700
O  24.16900 53.50900 31.28400
O  22.31900 52.25100 31.86700
C  22.19800 53.15000 33.06400
H  29.76900 48.77200 29.48700
H  29.34300 49.09400 23.06500
H  24.10600 52.61400 23.42700
H  26.10900 51.02700 31.67100
H  27.59800 48.64300 30.75300
H  29.60500 49.84600 31.69100
H  28.24700 50.21200 32.77300
H  28.76800 51.45400 31.64400
H  25.65100 48.19800 31.43300
H  24.42000 49.04200 30.45900
H  23.25000 49.32400 32.15400
H  24.30700 50.53300 32.76100
H  31.50800 46.57100 27.88800
H  31.48700 48.07500 28.86500
H  32.60700 47.83900 27.68300
H  31.92700 46.06600 25.63000
H  32.86600 47.61700 25.45200
H  32.65400 46.22600 24.14200
H  27.46200 49.59600 21.42500
H  26.05500 52.08300 21.67700
H  29.39800 51.31400 21.97400
H  28.25300 52.42500 21.27100
H  28.69300 50.92800 20.37400
H  25.46800 49.75800 20.66800
H  24.24600 50.93200 20.93800
H  24.40000 49.16500 23.29200
H  24.41500 48.18400 21.89200
H  23.07100 49.29600 22.18500
H  21.94800 53.35200 24.52100
H  22.87400 54.71600 25.01400
H  21.54400 54.20400 26.05200
H  22.77900 50.85600 30.05800
H  21.11400 53.25500 33.09900
H  22.52200 54.18200 32.92500
H  22.59800 52.76300 34.00100
Mg 9.04200 48.14300 26.00400
C  7.38200 48.33800 29.08300
C  11.84700 49.61100 27.43700
C  10.67000 47.95800 22.98500
C  6.04700 47.63000 24.41300
N  9.56400 48.87800 27.99500
C  8.76400 48.69900 29.15300
C  9.53200 49.02500 30.39400
C  10.85300 49.66700 29.83300
C  10.75700 49.43800 28.27800
C  10.92400 51.18200 30.30400
C  9.80700 47.82500 31.34200
C  9.19300 47.95000 32.79200
H  9.45700 46.79300 33.77500
N  11.01700 48.66200 25.35800
C  12.01900 49.22800 26.11300
C  13.28700 49.21200 25.36400
C  12.92500 48.66500 24.09000
C  11.50100 48.43500 24.01800
C  14.70900 49.49300 26.04400
C  13.87700 48.38700 22.92700
O  13.54100 47.91800 21.83300
C  15.25300 48.71100 23.11900
N  8.38000 48.04300 24.02400
C  9.28900 47.80600 22.96800
C  8.54700 47.52500 21.59800
C  7.05600 47.53400 22.06500
C  7.15200 47.70500 23.58800
C  8.92800 48.51200 20.46300
C  6.31600 46.25900 21.56600
C  6.29300 45.05000 22.48500
N  7.03700 48.02200 26.58100
C  5.91300 47.74500 25.85100
C  4.79100 47.67300 26.76300
C  5.30100 47.92800 28.02900
C  6.69100 48.10800 27.84000
C  3.48000 47.28700 26.23400
C  4.97600 48.20000 29.44600
O  3.88500 48.27200 29.94600
C  6.35400 48.21800 30.21100
C  6.45600 46.87100 30.87400
O  7.11600 45.90400 30.51200
O  5.78000 46.90600 32.12000
C  5.69100 45.60400 32.78100
H  12.69900 50.12500 27.88600
H  11.12400 47.71600 22.02100
H  5.07000 47.49600 23.94500
H  8.96800 49.76400 30.96300
H  11.74000 49.12900 30.16800
H  11.42400 51.27300 31.26800
H  9.93300 51.54500 30.57600
H  11.35100 51.77900 29.49700
H  10.86600 47.65800 31.54100
H  9.42600 46.89500 30.91800
H  8.12900 48.17000 32.88500
H  9.76300 48.83300 33.07900
H  14.49300 49.79100 27.07000
H  15.34400 50.21600 25.53200
H  15.23700 48.55500 26.21300
H  15.67600 48.16800 23.96400
H  15.28100 49.80100 23.13100
H  15.78200 48.25700 22.28100
H  8.83000 46.57400 21.14900
H  6.47700 48.30500 21.55700
H  9.52000 49.36500 20.79600
H  8.04100 48.83900 19.92100
H  9.60900 48.06200 19.74000
H  6.65700 45.93100 20.58400
H  5.27100 46.48500 21.35600
H  6.64600 44.17000 21.94800
H  5.35700 44.81000 22.99000
H  6.95900 45.28800 23.31500
H  3.24500 48.09700 25.54400
H  2.70000 47.23700 26.99300
H  3.44500 46.35800 25.66400
H  6.47900 49.04400 30.91200
H  4.99900 44.91900 32.29100
H  5.50800 45.82200 33.83300
H  6.71500 45.23000 32.77800

