158

Mg -1.08900 7.31800 26.31900
C  -0.00500 9.38100 28.97500
C  -0.87500 4.62500 28.62200
C  -1.59300 5.17900 23.82800
C  -0.34700 9.93000 24.15700
N  -0.45700 7.04200 28.56500
C  -0.33900 8.06300 29.44400
C  -0.40500 7.61200 30.93900
C  -0.38300 6.02700 30.74500
C  -0.52400 5.84700 29.20500
C  0.63800 5.16700 31.55600
C  -1.70200 8.16000 31.65000
C  -1.75900 8.09600 33.22900
H  -0.44300 7.63500 33.87000
N  -1.19100 5.17500 26.29200
C  -1.09500 4.25200 27.30700
C  -1.38800 2.93100 26.78800
C  -1.59100 3.05700 25.35500
C  -1.50300 4.55800 25.06700
C  -1.55500 1.63500 27.59000
C  -1.94200 1.99900 24.32400
O  -2.17300 2.30400 23.19000
C  -1.70900 0.52400 24.73100
N  -0.95400 7.53600 24.23300
C  -1.34800 6.48100 23.40900
C  -1.56700 7.09000 21.89900
C  -1.06000 8.59800 22.10600
C  -0.81500 8.70700 23.59300
C  -0.76400 6.37800 20.71200
C  -1.88800 9.71200 21.44500
C  -3.04600 10.29800 22.22400
N  -0.38100 9.32400 26.45000
C  -0.13800 10.23600 25.51900
C  0.47500 11.41900 26.07800
C  0.45400 11.17300 27.46400
C  0.00400 9.83100 27.60400
C  0.82000 12.78500 25.34000
C  0.83600 11.59300 28.83500
O  1.38900 12.60200 29.25900
C  0.42300 10.51200 29.80000
C  1.57600 10.25800 30.67300
O  2.45300 9.46100 30.40000
O  1.51000 11.12700 31.75200
C  2.68100 11.11000 32.69600
H  -0.95700 3.75500 29.27600
H  -1.84800 4.57500 22.95500
H  -0.22600 10.67400 23.36700
H  0.50700 7.90300 31.46000
H  -1.30500 5.62000 31.16100
H  1.06500 5.76000 32.36500
H  1.53100 4.84800 31.01700
H  0.24700 4.28300 32.05900
H  -2.54300 7.65200 31.17900
H  -1.77000 9.19500 31.31400
H  -2.54100 7.46900 33.65700
H  -1.86400 9.14200 33.51600
H  -2.43500 1.12300 27.19900
H  -1.74600 1.96100 28.61300
H  -0.67900 0.99400 27.48900
H  -1.41300 -0.11700 23.90100
H  -2.58000 0.17600 25.28500
H  -0.86300 0.50100 25.41700
H  -2.61200 7.11400 21.59200
H  -0.05400 8.67600 21.69400
H  -1.54300 6.03500 20.03100
H  -0.22200 5.50300 21.07000
H  -0.14900 7.05600 20.12000
H  -2.38900 9.26000 20.58900
H  -1.30800 10.51000 20.98100
H  -4.03300 10.07500 21.81900
H  -2.88600 11.37500 22.28300
H  -2.97600 9.91800 23.24300
H  1.43200 12.48800 24.48900
H  1.41200 13.31400 26.08800
H  -0.09800 13.31800 25.09200
H  -0.41000 11.04000 30.26500
H  2.55700 12.00900 33.29900
H  3.61600 11.19400 32.14300
H  2.60000 10.16500 33.23300
Mg 30.22200 58.18400 40.10300
C  27.62400 55.67300 39.50600
C  32.39800 55.68500 39.36900
C  32.50300 60.58900 40.07900
C  27.65600 60.43200 40.74500
N  30.00000 55.83200 39.62300
C  28.88400 55.17500 39.21800
C  29.27000 53.75300 38.69200
C  30.83600 53.63600 39.10900
C  31.11000 55.09600 39.40700
C  31.10200 52.60600 40.27800
C  29.17400 53.59600 37.13500
C  27.75100 53.17500 36.66800
H  27.00500 54.13400 35.65600
N  32.19000 58.15200 39.72300
C  32.93600 57.03200 39.50300
C  34.29400 57.40900 39.35600
C  34.37300 58.83000 39.41000
C  33.01700 59.28400 39.69400
C  35.49100 56.43500 39.34700
C  35.66100 59.66600 39.29800
O  36.75400 59.15400 39.09100
C  35.67500 61.12100 39.52000
N  30.05300 60.31000 40.17800
C  31.18400 61.06300 40.27200
C  30.79300 62.48100 40.77800
C  29.24400 62.42600 41.07200
C  28.96600 60.94800 40.68400
C  31.73600 63.06800 41.89800
C  28.33400 63.42800 40.19600
C  27.21700 64.11200 40.97800
N  28.10700 58.14300 40.13800
C  27.25100 59.16300 40.44900
C  25.87900 58.62400 40.34600
C  26.00300 57.22600 40.06700
C  27.34600 57.00100 39.91800
C  24.66200 59.44700 40.62600
C  25.32200 55.93300 39.90000
O  24.11500 55.76000 39.96800
C  26.28400 54.84500 39.42400
C  26.18700 53.71400 40.48200
O  26.66200 53.70800 41.54900
O  25.47800 52.61900 40.00600
C  25.44300 51.48800 40.94700
H  33.13400 54.91700 39.12500
H  33.19600 61.38200 40.36600
H  26.90900 61.16800 41.04700
H  28.58600 53.07600 39.20400
H  31.47700 53.33500 38.28100
H  31.92900 51.95700 39.99000
H  30.21800 52.00400 40.48800
H  31.53200 53.01300 41.19300
H  29.81500 52.76100 36.85200
H  29.47000 54.55900 36.72000
H  27.10800 52.94600 37.51800
H  27.77200 52.20700 36.16800
H  36.04400 56.53700 38.41400
H  35.31600 55.39300 39.61500
H  36.12400 56.81100 40.15100
H  34.92500 61.58700 38.88200
H  36.68600 61.49700 39.36200
H  35.47900 61.45600 40.53800
H  30.83800 63.08800 39.87400
H  28.99200 62.59700 42.11800
H  32.33200 62.23700 42.27600
H  31.28700 63.50600 42.78900
H  32.31000 63.84500 41.39400
H  27.92300 62.91200 39.32800
H  29.06200 64.16000 39.84600
H  27.42500 65.17700 41.07700
H  27.22900 63.61300 41.94700
H  26.38500 63.88600 40.31100
H  23.80700 58.87300 40.98200
H  24.45100 59.75900 39.60300
H  24.88400 60.24500 41.33400
H  25.95400 54.40700 38.48200
H  25.57900 50.50800 40.49000
H  24.43400 51.31800 41.32300
H  26.05000 51.53000 41.85200

