158

Mg 47.84800 24.86700 28.14800
C  48.60200 27.02100 30.89800
C  47.62700 22.24200 30.49100
C  47.31700 22.82200 25.65200
C  49.03600 27.31400 25.87900
N  48.01100 24.62800 30.42600
C  48.30500 25.68400 31.30600
C  48.28500 25.17400 32.76400
C  48.26200 23.67700 32.56900
C  47.91200 23.50800 31.10500
C  49.62200 22.94600 33.00500
C  47.06100 25.71000 33.57400
C  47.42500 26.67100 34.74600
H  46.42500 26.62300 35.83400
N  47.41300 22.78700 28.12800
C  47.25100 21.92500 29.13900
C  46.68300 20.69700 28.62300
C  46.45900 20.96900 27.27200
C  47.10100 22.21400 26.96100
C  46.46500 19.46700 29.48400
C  45.65300 20.10100 26.27900
O  45.38600 20.41500 25.12200
C  44.88200 18.97500 26.87000
N  48.28700 25.00200 26.06600
C  47.78400 24.04900 25.28400
C  47.81300 24.47400 23.76200
C  48.19400 26.03500 23.93300
C  48.52300 26.10400 25.38600
C  48.61300 23.60000 22.79500
C  46.99000 26.91400 23.50600
C  47.18200 27.87000 22.31900
N  48.65500 26.80700 28.33600
C  49.16300 27.62900 27.27500
C  49.64200 28.84300 27.97200
C  49.37400 28.70500 29.38200
C  48.82800 27.38200 29.56000
C  50.23600 30.02400 27.28900
C  49.46600 29.35000 30.66100
O  49.91400 30.43900 30.96400
C  48.91100 28.24500 31.68800
C  50.05700 28.01000 32.54900
O  50.92100 27.17600 32.49300
O  49.97800 28.96600 33.61100
C  50.99500 28.87700 34.64500
H  47.54100 21.45800 31.24600
H  46.95100 22.19100 24.83900
H  49.36500 28.06300 25.15600
H  49.16700 25.50100 33.31400
H  47.43200 23.22900 33.11500
H  50.09300 22.31600 32.25100
H  49.39900 22.22900 33.79500
H  50.31000 23.69300 33.40200
H  46.64100 24.86500 34.11900
H  46.33200 26.01100 32.82200
H  47.53400 27.68100 34.34900
H  48.37600 26.30600 35.13200
H  45.42800 19.13400 29.52600
H  46.74900 19.62400 30.52400
H  47.07400 18.67700 29.04400
H  45.61500 18.26000 27.24200
H  44.33500 18.57800 26.01500
H  44.22400 19.35500 27.65100
H  46.76500 24.45100 23.46500
H  49.11900 26.24000 23.39400
H  48.92400 22.71300 23.34600
H  49.51900 24.15300 22.54500
H  48.06200 23.36300 21.88500
H  46.74900 27.59800 24.32000
H  46.17600 26.24600 23.22400
H  46.29400 27.81000 21.69000
H  48.06800 27.52600 21.78400
H  47.28800 28.92000 22.59300
H  50.88400 30.41500 28.07300
H  49.50100 30.78800 27.03800
H  50.78200 29.57000 26.46100
H  48.07500 28.68500 32.23000
H  50.83500 28.10000 35.39200
H  50.96300 29.85400 35.12900
H  51.96700 28.82300 34.15400
Mg 50.93400 45.64900 43.52200
C  48.08100 47.04100 42.15800
C  50.18500 42.65400 42.06000
C  54.10800 44.63300 44.11600
C  51.74100 48.70600 44.90100
N  49.29500 45.01300 42.25600
C  48.20000 45.65300 41.90900
C  47.16400 44.78000 41.20100
C  47.82500 43.35100 41.39500
C  49.24600 43.68400 41.94500
C  47.22900 42.40700 42.50200
C  46.96500 45.31400 39.74700
C  45.50300 45.53200 39.37300
H  44.93800 44.59700 38.31400
N  51.96400 43.84200 43.19300
C  51.47300 42.69000 42.57200
C  52.59100 41.71400 42.45100
C  53.78100 42.31600 42.94900
C  53.29700 43.63100 43.48200
C  52.47200 40.38700 41.77800
C  55.22900 41.76500 42.95400
O  55.47700 40.54700 42.60800
C  56.49600 42.50800 43.42200
N  52.65700 46.52600 44.40200
C  53.83400 45.90500 44.49300
C  54.91900 46.74600 45.20700
C  54.06800 47.94400 45.69800
C  52.75600 47.73300 44.92700
C  55.86200 46.18500 46.32500
C  54.84100 49.24300 45.32500
C  54.74300 50.29000 46.43900
N  50.06000 47.55300 43.66600
C  50.47400 48.71700 44.23500
C  49.54100 49.80700 43.95800
C  48.55000 49.13400 43.15700
C  48.97100 47.80700 42.91600
C  49.59300 51.17100 44.47400
C  47.35200 49.39000 42.36500
O  46.80400 50.40500 42.05700
C  46.95500 47.99000 41.71100
C  45.52500 47.65100 42.16600
O  45.30600 46.96400 43.13100
O  44.52900 48.06500 41.24100
C  43.19100 47.78500 41.80500
H  50.00700 41.69500 41.56900
H  55.15700 44.38500 44.28600
H  52.00900 49.62700 45.42300
H  46.27300 45.03400 41.77500
H  47.90400 42.73800 40.49600
H  47.79600 42.42600 43.43300
H  47.31600 41.35900 42.21500
H  46.19300 42.67200 42.71100
H  47.47500 44.56900 39.13700
H  47.46000 46.23900 39.45000
H  45.37300 46.54400 38.98900
H  44.85300 45.47300 40.24600
H  53.44300 40.03500 41.42900
H  51.83700 40.52200 40.90300
H  51.99200 39.66100 42.43400
H  56.54700 42.67500 44.49800
H  56.53200 43.49600 42.96400
H  57.38600 41.92100 43.19400
H  55.48700 47.10900 44.35100
H  53.83100 47.76700 46.74700
H  55.63400 45.11900 46.34500
H  55.59800 46.70000 47.24900
H  56.86100 46.43600 45.97100
H  54.42100 49.60200 44.38500
H  55.91100 49.07000 45.21000
H  54.14400 51.11300 46.04900
H  55.72100 50.73300 46.62800
H  54.30800 50.02800 47.40300
H  49.02000 51.68300 43.70200
H  50.56900 51.64700 44.57100
H  49.09900 51.16800 45.44600
H  46.86800 48.20200 40.64600
H  42.48200 48.44900 41.30900
H  43.10400 47.83300 42.89000
H  43.05400 46.77100 41.42900

