158

Mg 35.73400 1.37800 29.23300
C  33.52200 2.44200 31.69600
C  38.20200 1.06500 31.62400
C  37.83000 0.51100 26.83700
C  33.23300 2.00000 26.73300
N  35.87100 1.87300 31.36600
C  34.81600 2.12000 32.17200
C  35.22500 2.02400 33.68500
C  36.72600 1.77000 33.57600
C  36.98400 1.49700 32.09500
C  37.53300 3.00800 33.97600
C  34.42100 0.85800 34.43200
C  33.97600 1.37000 35.82100
H  34.75500 2.41900 36.52000
N  37.68200 0.95200 29.25600
C  38.50800 0.69700 30.32600
C  39.77300 0.10500 29.90600
C  39.75500 0.09100 28.46500
C  38.40200 0.55500 28.09600
C  40.78700 -0.25300 30.91200
C  40.88500 -0.23000 27.52100
O  40.85400 -0.11800 26.27200
C  42.03900 -0.99600 28.10800
N  35.49400 1.23700 27.17000
C  36.54400 0.90100 26.34800
C  36.20800 0.71800 24.89300
C  34.76700 1.24700 24.78200
C  34.42300 1.43500 26.31100
C  37.24500 1.37000 23.87900
C  33.83300 0.22200 24.08100
C  32.58900 0.67200 23.30900
N  33.74800 2.09400 29.16200
C  32.92700 2.33800 28.10200
C  31.70400 2.87200 28.63400
C  31.89800 2.95600 30.01300
C  33.13000 2.46800 30.30200
C  30.44200 3.07200 27.95100
C  31.25000 3.26900 31.22900
O  30.17900 3.67900 31.30800
C  32.25300 2.96400 32.37700
C  32.53700 4.20500 33.18000
O  33.29300 5.07200 32.83500
O  31.79900 4.26200 34.30900
C  31.96100 5.47800 35.20700
H  39.06200 1.04300 32.29700
H  38.50800 0.07000 26.10300
H  32.56600 2.23400 25.90100
H  35.00700 2.98900 34.14100
H  36.99500 0.85800 34.10900
H  36.85900 3.69100 34.49400
H  37.98600 3.51800 33.12600
H  38.30800 2.65400 34.65500
H  35.12900 0.03700 34.54900
H  33.50600 0.74300 33.85200
H  34.02200 0.55300 36.54100
H  32.97300 1.74300 35.61500
H  40.84900 0.53600 31.66200
H  41.82700 -0.39900 30.62200
H  40.62800 -1.24200 31.34100
H  41.90500 -1.73500 28.89900
H  42.77200 -0.24900 28.41300
H  42.43200 -1.55100 27.25600
H  36.22500 -0.34200 24.63800
H  34.60000 2.17800 24.23800
H  36.72800 1.99500 23.15100
H  37.65300 0.61100 23.21200
H  38.06600 1.85400 24.40800
H  33.57200 -0.52400 24.83200
H  34.44300 -0.30700 23.34900
H  32.52600 0.14000 22.36000
H  32.49100 1.75200 23.19900
H  31.72500 0.28900 23.85100
H  30.22400 2.15700 27.40000
H  30.53900 3.85600 27.20000
H  29.62500 3.24100 28.65200
H  31.89000 2.15200 33.00800
H  32.72200 6.19900 34.90800
H  32.22900 5.21000 36.23000
H  30.98300 5.95900 35.24000
Mg 29.59500 59.10800 38.43400
C  26.72300 56.99200 37.80000
C  31.57600 56.37100 37.43500
C  32.39000 61.12100 38.37500
C  27.56500 61.78000 38.72000
N  29.14200 56.98800 37.77100
C  27.94000 56.35200 37.59800
C  28.10600 54.82900 37.27400
C  29.67800 54.68900 37.42900
C  30.16700 56.16900 37.47800
C  30.28200 53.90300 38.57400
C  27.73900 54.51200 35.76100
C  26.33500 53.88400 35.53800
H  25.39100 54.59200 34.52000
N  31.77500 58.73000 37.99600
C  32.31100 57.56500 37.69400
C  33.77100 57.63600 37.78000
C  34.03500 58.99200 38.13700
C  32.76200 59.72400 38.21300
C  34.67900 56.48900 37.34000
C  35.42200 59.58300 38.47100
O  36.44400 58.86800 38.44600
C  35.73300 61.06400 38.79500
N  29.96600 61.14100 38.15900
C  31.14900 61.75700 38.32800
C  30.97300 63.26600 38.58000
C  29.40700 63.45700 38.48200
C  28.91100 62.06000 38.49300
C  31.59700 64.00600 39.78700
C  28.90500 64.21200 37.26300
C  27.97000 65.37700 37.65300
N  27.61700 59.37800 38.49800
C  26.88400 60.50900 38.67600
C  25.48200 60.33400 38.56500
C  25.41000 58.93600 38.31100
C  26.67600 58.45000 38.18900
C  24.47300 61.33300 38.55100
C  24.43600 57.87400 38.10100
O  23.20800 57.89500 37.94300
C  25.22700 56.61100 37.74600
C  24.92400 55.61100 38.78700
O  25.58400 55.48300 39.78300
O  23.71700 54.98100 38.48800
C  23.55100 53.83000 39.39900
H  32.12600 55.51800 37.03300
H  33.34400 61.63200 38.52100
H  27.00800 62.71800 38.77300
H  27.57600 54.23400 38.01800
H  30.13900 54.32900 36.51000
H  29.53300 53.25700 39.03400
H  30.68100 54.50500 39.39000
H  31.00400 53.16700 38.21800
H  28.51400 54.01100 35.18200
H  27.58700 55.50900 35.34700
H  25.78300 53.79500 36.47400
H  26.49300 52.87300 35.16100
H  35.08100 56.80000 36.37600
H  34.10200 55.57700 37.18500
H  35.42900 56.13400 38.04700
H  36.77400 61.15800 39.10600
H  35.06200 61.45700 39.55900
H  35.65000 61.60500 37.85300
H  31.45800 63.73900 37.72500
H  29.02000 63.93000 39.38500
H  32.47800 63.50100 40.18200
H  30.89400 63.95600 40.61900
H  31.83400 65.01800 39.46100
H  28.42400 63.55300 36.54000
H  29.80500 64.59600 36.78200
H  28.56800 66.23900 37.95100
H  27.26800 65.16500 38.46000
H  27.51100 65.78000 36.75000
H  24.22100 61.56800 37.51700
H  24.93300 62.22900 38.96700
H  23.60300 61.00000 39.11700
H  24.80300 56.45500 36.75500
H  22.63200 53.30800 39.13300
H  23.46800 54.14700 40.43900
H  24.43000 53.21400 39.20900

