158

Mg 50.61900 44.83600 42.29300
C  47.37500 45.22300 41.07900
C  50.39700 41.38400 41.28000
C  53.92500 44.49200 42.53600
C  51.02200 48.37400 42.05000
N  49.07200 43.49600 41.20000
C  47.82900 43.91200 40.90600
C  47.08200 42.78200 40.22400
C  47.94600 41.47400 40.65300
C  49.27500 42.14300 40.95900
C  47.45800 40.63400 41.91200
C  47.11000 43.02900 38.67400
C  45.80500 42.65000 37.90200
H  46.01600 42.28600 36.43100
N  51.94600 43.13000 42.08200
C  51.62000 41.84600 41.78600
C  52.84600 41.04900 41.93700
C  53.86700 41.88200 42.41100
C  53.26300 43.23300 42.42800
C  52.95600 39.60400 41.49300
C  55.35600 41.43400 42.64500
O  55.74900 40.27000 42.58500
C  56.32700 42.43100 43.13000
N  52.21500 46.27700 42.14900
C  53.50900 45.84800 42.44400
C  54.44800 47.08700 42.50900
C  53.45600 48.22600 42.32200
C  52.12200 47.63100 42.20100
C  55.29900 47.20800 43.85500
C  53.76900 49.10300 41.00700
C  53.56800 50.62700 41.20900
N  49.41500 46.45200 41.86400
C  49.69700 47.86400 41.82700
C  48.50400 48.57100 41.47600
C  47.59200 47.62500 41.16000
C  48.17900 46.32700 41.40500
C  48.42800 50.09100 41.48900
C  46.23800 47.36300 40.62300
O  45.39400 48.09300 40.17300
C  46.00200 45.80600 40.65100
C  44.86100 45.37900 41.41400
O  43.96900 44.68700 40.98300
O  44.79600 46.05600 42.56700
C  43.42200 46.15900 43.15100
H  50.25000 40.31500 41.11000
H  55.00300 44.33600 42.62200
H  51.08200 49.46100 41.97600
H  46.02900 42.73700 40.50100
H  48.15900 40.77800 39.84200
H  46.38900 40.79300 42.05400
H  47.89100 40.93600 42.86600
H  47.58000 39.56300 41.74900
H  47.93900 42.49700 38.20700
H  47.22700 44.10800 38.57600
H  45.08200 43.46600 37.90300
H  45.32300 41.82600 38.42600
H  51.95200 39.24500 41.26700
H  53.38400 39.04200 42.32300
H  53.69400 39.33600 40.73600
H  55.72200 42.89100 43.91100
H  56.60800 43.11900 42.33300
H  57.15300 42.04400 43.72700
H  55.05700 46.97100 41.61200
H  53.39900 48.92500 43.15600
H  56.27600 47.64400 43.64600
H  55.57600 46.24500 44.28300
H  54.89200 47.87300 44.61700
H  53.20000 48.80700 40.12500
H  54.83300 49.07100 40.77100
H  54.50000 51.08400 40.87700
H  53.41700 50.99100 42.22500
H  52.77500 51.01600 40.57000
H  49.00100 50.48900 42.32700
H  47.36400 50.32000 41.55100
H  48.77000 50.40700 40.50400
H  45.66800 45.46900 39.67000
H  43.48000 45.59600 44.08300
H  42.59100 45.79100 42.55000
H  43.22500 47.16300 43.52600
Mg 30.28800 57.98200 40.62500
C  27.61000 55.79200 39.43900
C  32.50200 55.76900 39.12100
C  32.60300 60.33800 40.92900
C  27.68600 60.29200 41.36600
N  30.03400 55.96200 39.61400
C  28.86300 55.37900 39.10100
C  29.20100 54.01800 38.43900
C  30.73800 53.94800 38.58100
C  31.17000 55.33200 39.07800
C  31.20600 52.91100 39.64500
C  28.81600 53.94200 36.91300
C  29.12700 55.20600 35.98600
H  28.07900 55.62800 34.90800
N  32.30000 58.06200 40.11800
C  32.96300 57.05500 39.48400
C  34.39700 57.42100 39.36300
C  34.51100 58.71900 39.98500
C  33.12000 59.09300 40.39600
C  35.57000 56.60100 38.81300
C  35.78800 59.64000 40.15100
O  36.93300 59.19600 39.85500
C  35.61000 61.01400 40.86000
N  30.16300 59.96000 41.29800
C  31.27100 60.75300 41.25900
C  30.89200 62.22200 41.62000
C  29.32800 62.16800 41.72900
C  29.00600 60.72900 41.38200
C  31.54300 62.74900 42.93600
C  28.54300 63.24400 40.97600
C  28.23600 62.98400 39.52100
N  28.12200 58.01400 40.58900
C  27.25500 59.05900 40.85300
C  25.90600 58.63900 40.67600
C  26.01600 57.44000 40.11100
C  27.35900 57.09300 40.04600
C  24.73700 59.51100 41.14200
C  25.21700 56.32900 39.63400
O  24.01700 56.20300 39.49200
C  26.19200 55.23100 39.13400
C  25.95800 54.06000 40.10400
O  25.75700 54.18200 41.32700
O  25.76400 52.82000 39.50400
C  25.08800 51.84100 40.38400
H  33.18500 55.08500 38.61300
H  33.29400 61.18300 40.94800
H  26.89300 61.04100 41.32900
H  28.77600 53.12900 38.90400
H  31.25300 53.83900 37.62600
H  30.32100 52.75100 40.26100
H  32.05600 53.34800 40.16800
H  31.56500 51.95000 39.27600
H  27.75200 53.81000 36.71900
H  29.35700 53.06100 36.56600
H  29.96800 54.96100 35.33800
H  29.50700 56.06500 36.53900
H  36.16200 57.11500 38.05600
H  35.20300 55.77900 38.19900
H  36.06100 56.14400 39.67200
H  35.36900 61.83400 40.18400
H  36.61300 61.21300 41.23700
H  34.94700 60.96000 41.72400
H  31.22000 62.84700 40.78900
H  28.98000 62.22300 42.76000
H  32.38600 62.13000 43.24300
H  30.81900 62.84100 43.74500
H  31.99300 63.72000 42.72800
H  29.19100 64.11900 41.02100
H  27.66900 63.50400 41.57200
H  27.17500 62.78200 39.37800
H  28.72400 62.08200 39.15100
H  28.54000 63.88300 38.98500
H  24.32300 60.02800 40.27700
H  25.01400 60.22200 41.92100
H  23.95500 58.87300 41.55500
H  25.95000 54.92300 38.11700
H  24.38900 51.34400 39.71200
H  24.54800 52.12600 41.28600
H  25.83700 51.07500 40.58700

