158

Mg 36.31800 2.29300 30.25400
C  33.88400 3.27900 32.37400
C  38.69100 2.34300 32.71600
C  38.57800 1.37300 27.90800
C  33.95300 2.64700 27.54100
N  36.26700 2.81100 32.27700
C  35.17400 3.17000 33.00400
C  35.48400 3.30600 34.41100
C  37.05300 3.29500 34.41800
C  37.39200 2.76900 33.06900
C  37.78300 4.63900 34.69600
C  34.84300 2.26500 35.30600
C  34.72600 2.65300 36.77500
H  35.30800 3.97200 37.26600
N  38.25100 1.70500 30.32400
C  39.09800 1.81600 31.43100
C  40.39000 1.33700 31.10700
C  40.46600 1.22600 29.67300
C  39.04800 1.43700 29.20500
C  41.45900 1.23600 32.14400
C  41.68800 0.86800 28.80900
O  41.63100 0.93500 27.59200
C  42.92800 0.52000 29.58700
N  36.26500 2.21900 27.95000
C  37.38000 1.77000 27.28300
C  37.06100 1.45700 25.83400
C  35.47200 1.68100 25.76700
C  35.20300 2.18200 27.16400
C  37.79900 2.19700 24.70900
C  34.71500 0.43600 25.34500
C  33.24800 0.65400 24.88100
N  34.38500 2.82600 29.97100
C  33.53100 2.95800 28.85000
C  32.23100 3.33800 29.31800
C  32.28600 3.41600 30.67200
C  33.57300 3.09600 31.01300
C  30.93400 3.62400 28.45100
C  31.53300 3.86300 31.82100
O  30.41500 4.34100 31.94100
C  32.51400 3.62200 33.02600
C  32.38300 4.81000 34.01300
O  32.83100 5.89000 33.83900
O  31.66100 4.35900 35.10800
C  31.34400 5.38600 36.14200
H  39.45600 2.41900 33.49200
H  39.40900 1.05000 27.27800
H  33.14400 2.71100 26.81000
H  35.06500 4.28100 34.66000
H  37.41300 2.59600 35.17300
H  38.62500 4.51000 35.37600
H  37.03900 5.24800 35.21000
H  38.12700 5.11700 33.77900
H  35.46200 1.36900 35.34800
H  33.90000 1.98300 34.83700
H  34.93400 1.83900 37.46900
H  33.66700 2.88100 36.89800
H  41.36900 0.29500 32.68800
H  41.35800 2.03500 32.87900
H  42.49900 1.40200 31.86300
H  43.48400 1.36300 29.99700
H  43.54000 -0.06200 28.89700
H  42.68500 -0.21000 30.35900
H  37.24800 0.38700 25.74400
H  35.17500 2.48300 25.09200
H  38.16200 1.51900 23.93600
H  38.58500 2.78000 25.18700
H  37.05000 2.78800 24.18100
H  34.66800 -0.37900 26.06800
H  35.34300 -0.03700 24.59000
H  33.00400 0.20900 23.91600
H  32.90400 1.68500 24.79100
H  32.67000 0.05400 25.58400
H  31.36300 4.00400 27.52400
H  30.16500 4.20000 28.96600
H  30.42100 2.75100 28.04700
H  32.26200 2.70100 33.55200
H  30.62700 6.10700 35.74900
H  32.20700 5.94300 36.50600
H  30.97400 4.82500 37.00000
Mg 6.23600 53.85700 41.26500
C  5.35500 50.39400 40.95900
C  9.29300 53.05100 40.35500
C  6.72500 57.06000 41.11500
C  2.68100 54.41700 41.82100
N  7.07600 51.99000 40.53800
C  6.62000 50.68600 40.54500
C  7.68300 49.64700 40.03900
C  8.93800 50.48400 40.43600
C  8.40200 51.95100 40.48400
C  9.73300 50.02100 41.73500
C  7.50500 49.13800 38.56500
C  6.80100 50.01100 37.56900
H  6.28600 49.44700 36.22600
N  7.84200 54.93600 40.87600
C  9.02100 54.41400 40.38400
C  9.92600 55.53400 40.09800
C  9.22200 56.72600 40.38500
C  7.90200 56.28400 40.81000
C  11.34300 55.44000 39.51700
C  9.67600 58.14500 40.27600
O  10.84700 58.41700 39.91800
C  8.84800 59.47300 40.47900
N  4.81500 55.48700 41.35000
C  5.37300 56.76200 41.22900
C  4.23200 57.78000 41.35700
C  2.89600 56.96500 41.24300
C  3.44000 55.56100 41.50800
C  4.12100 58.60900 42.68600
C  2.21600 56.92500 39.88300
C  0.84800 57.62500 39.77800
N  4.41000 52.68400 41.43600
C  3.08400 53.08800 41.77100
C  2.25600 51.94000 41.90400
C  3.17500 50.83900 41.73800
C  4.45000 51.35600 41.36000
C  0.84000 51.97300 42.39300
C  3.24700 49.42000 41.70700
O  2.40200 48.52600 41.95200
C  4.62200 49.08400 41.13400
C  4.27100 48.34900 39.81300
O  3.89500 48.86900 38.74500
O  4.31800 47.03900 40.03700
C  4.19000 46.16700 38.90200
H  10.34700 52.84100 40.16100
H  6.86100 58.12100 41.33500
H  1.63100 54.68300 41.95800
H  7.57100 48.83600 40.75900
H  9.56800 50.55100 39.54900
H  9.93500 50.88000 42.37400
H  10.70600 49.60700 41.47200
H  9.21600 49.27900 42.34300
H  6.89900 48.23300 38.61100
H  8.45100 48.80300 38.13900
H  7.48100 50.82500 37.31900
H  6.00200 50.60700 38.01200
H  11.09400 55.85600 38.54000
H  11.76200 54.44900 39.34100
H  12.13700 56.01300 39.99400
H  9.50300 60.34300 40.44400
H  8.46300 59.33400 41.49000
H  7.97500 59.48800 39.82700
H  4.34300 58.48900 40.53600
H  2.14100 57.18100 42.00000
H  3.91100 57.98500 43.55500
H  3.26500 59.28300 42.68400
H  5.05000 59.13000 42.92000
H  2.17600 55.87900 39.58100
H  2.90900 57.46100 39.23400
H  0.82800 58.11200 40.75300
H  0.07100 56.86200 39.72200
H  0.86500 58.35000 38.96500
H  0.21000 52.19800 41.53200
H  0.71100 52.72000 43.17600
H  0.55200 50.97600 42.72700
H  5.11100 48.41700 41.84400
H  4.97300 46.32600 38.16000
H  3.21800 46.14500 38.40800
H  4.37400 45.15100 39.25100

