158

Mg 25.82300 -0.72900 29.38800
C  27.89400 -0.88500 32.19900
C  23.14300 -0.49900 31.46000
C  23.94800 -0.70400 26.57100
C  28.58800 -1.50300 27.37600
N  25.59500 -0.55400 31.61200
C  26.59500 -0.63500 32.63700
C  26.05000 -0.34200 33.99600
C  24.52200 -0.25000 33.73100
C  24.40000 -0.56600 32.18300
C  23.73300 -1.33900 34.44400
C  26.68800 0.86900 34.72200
C  27.48800 0.51100 35.96600
H  27.38500 1.33000 37.20700
N  23.77100 -0.58800 29.05900
C  22.84000 -0.38600 30.03000
C  21.58100 -0.18200 29.40900
C  21.82200 -0.40300 28.08500
C  23.21400 -0.60900 27.80400
C  20.35300 -0.07200 30.13900
C  20.74900 -0.38600 26.96100
O  20.92300 -0.82100 25.80400
C  19.31500 0.12400 27.21400
N  26.17600 -1.11300 27.28200
C  25.28200 -0.89100 26.30900
C  25.90300 -0.77500 24.96700
C  27.41800 -0.89000 25.19000
C  27.44200 -1.17700 26.70700
C  25.32100 -1.80100 23.89500
C  28.27600 0.26900 24.72200
C  28.45300 1.52000 25.57100
N  27.85300 -1.08600 29.63200
C  28.82900 -1.39500 28.76300
C  30.07700 -1.52500 29.50200
C  29.77800 -1.32200 30.82800
C  28.38000 -1.09800 30.86900
C  31.40900 -1.93900 28.86200
C  30.37500 -1.34600 32.11500
O  31.53300 -1.52200 32.45900
C  29.18200 -1.04200 33.09000
C  29.04600 -2.16100 34.01800
O  28.49700 -3.26400 33.84600
O  29.57000 -1.76800 35.21800
C  29.48400 -2.69500 36.30500
H  22.30700 -0.28500 32.12800
H  23.36200 -0.43500 25.68900
H  29.49200 -1.53100 26.76400
H  26.19600 -1.30500 34.48600
H  24.17700 0.75500 33.97700
H  24.23000 -1.61200 35.37500
H  23.59200 -2.27000 33.89500
H  22.72300 -0.98900 34.65500
H  25.93100 1.58600 35.03900
H  27.39000 1.50100 34.17800
H  28.51900 0.64800 35.64000
H  27.35800 -0.55300 36.16500
H  19.91700 0.89700 29.89800
H  20.55900 -0.23900 31.19600
H  19.65500 -0.81400 29.75000
H  19.27100 1.00500 27.85400
H  18.69800 -0.68800 27.59800
H  18.86500 0.41100 26.26400
H  25.77600 0.25700 24.64000
H  27.77600 -1.79000 24.69000
H  25.86500 -2.74300 23.96500
H  25.39500 -1.35700 22.90200
H  24.26200 -2.06000 23.90800
H  27.97900 0.56500 23.71600
H  29.26100 -0.16500 24.54800
H  29.51100 1.75100 25.69600
H  27.91100 1.48400 26.51500
H  28.14300 2.44300 25.08100
H  32.10500 -1.10800 28.97500
H  31.38800 -2.35100 27.85300
H  31.81700 -2.65700 29.57400
H  29.33400 -0.09900 33.61500
H  28.43300 -2.61500 36.57900
H  30.07700 -2.17000 37.05400
H  29.85000 -3.71000 36.15300
Mg 35.52300 1.29300 29.64700
C  33.31500 1.95800 32.29700
C  38.14700 1.12400 31.86200
C  37.68300 0.52400 27.06700
C  32.88600 1.34000 27.42800
N  35.64600 1.60500 31.78700
C  34.64500 1.86100 32.69200
C  35.17400 1.86800 34.04700
C  36.68400 1.94400 33.88000
C  36.89400 1.43200 32.41500
C  37.41700 3.31200 34.06700
C  34.74700 0.55100 34.81000
C  34.19400 0.71100 36.28200
H  34.80900 1.77400 37.16600
N  37.58900 0.92700 29.46800
C  38.44000 0.77500 30.58900
C  39.78800 0.38900 30.11100
C  39.77700 0.35900 28.70400
C  38.30000 0.53900 28.35600
C  41.00300 0.07000 31.03600
C  40.85100 0.00800 27.60700
O  40.73300 0.32000 26.45200
C  42.14700 -0.47900 28.03900
N  35.31600 0.94100 27.52100
C  36.39500 0.66500 26.66200
C  35.94300 0.65100 25.21100
C  34.41500 0.76300 25.36300
C  34.16300 1.07100 26.83100
C  36.70100 1.54100 24.16200
C  33.53500 -0.47000 24.82800
C  32.20100 -0.14500 24.05800
N  33.59000 1.74000 29.78600
C  32.66200 1.82300 28.73000
C  31.36800 2.15100 29.27800
C  31.53200 2.06900 30.66300
C  32.90900 1.87300 30.95400
C  30.20100 2.49900 28.45400
C  30.87200 2.16900 31.95100
O  29.68500 2.33600 32.08200
C  31.94200 2.12700 33.00400
C  31.81300 3.37800 33.80500
O  32.20100 4.48700 33.40300
O  31.27500 3.10800 35.03500
C  31.18500 4.29800 35.89600
H  38.97100 1.11900 32.57800
H  38.35000 0.38000 26.21500
H  32.04200 1.30000 26.73700
H  34.77800 2.72700 34.58800
H  37.19000 1.22700 34.52600
H  37.61100 3.68300 33.06000
H  38.30200 3.01700 34.63100
H  36.83100 3.97200 34.70700
H  35.51300 -0.21500 34.92600
H  33.91200 0.27300 34.16700
H  34.32900 -0.23800 36.80000
H  33.16600 1.07000 36.23300
H  40.73800 -0.13900 32.07200
H  41.80900 0.79700 30.94400
H  41.39100 -0.85400 30.60700
H  42.43000 0.17400 28.86500
H  42.85700 -0.35100 27.22200
H  42.09600 -1.51300 28.38000
H  36.16200 -0.32800 24.78500
H  34.03800 1.63200 24.82500
H  35.88300 1.92900 23.55500
H  37.48800 1.03300 23.60400
H  37.18000 2.32200 24.75100
H  33.30700 -1.08800 25.69700
H  34.20100 -0.94200 24.10500
H  32.49000 -0.03800 23.01300
H  31.91300 0.89600 24.19800
H  31.38400 -0.86400 24.11700
H  29.87800 3.46100 28.85300
H  29.52700 1.65100 28.57200
H  30.50800 2.60700 27.41400
H  31.57200 1.34100 33.66200
H  32.16200 4.76200 36.03300
H  30.90900 4.10700 36.93300
H  30.46900 4.93300 35.37400

