158

Mg 24.43300 -5.37400 46.06000
C  26.42100 -2.83700 44.61000
C  21.92800 -4.31500 43.99900
C  22.94800 -8.22700 46.65500
C  27.34000 -6.37500 47.75300
N  24.37400 -3.77900 44.51300
C  25.20000 -2.79800 44.08700
C  24.51800 -1.90200 43.03900
C  23.02900 -2.14900 43.43100
C  23.09200 -3.51200 43.97800
C  22.33500 -1.19200 44.42000
C  24.80700 -2.36600 41.54800
C  25.51700 -1.40600 40.66500
H  26.27900 -2.06400 39.45400
N  22.74400 -6.18800 45.44300
C  21.80400 -5.55700 44.63900
C  20.60800 -6.39800 44.61700
C  20.83300 -7.60300 45.37000
C  22.20900 -7.39300 45.87600
C  19.40800 -6.15000 43.67800
C  19.86500 -8.75100 45.46300
O  18.75800 -8.78800 44.90800
C  20.34200 -10.05900 46.11500
N  25.07100 -7.08600 47.15100
C  24.23700 -8.15600 47.15900
C  24.99300 -9.39100 47.66800
C  26.34300 -8.75400 48.24600
C  26.25300 -7.30700 47.73900
C  24.17500 -10.32800 48.68400
C  27.55300 -9.60100 47.96100
C  28.45400 -9.94100 49.21400
N  26.45100 -4.69400 46.35100
C  27.46100 -5.16300 47.10600
C  28.66000 -4.30200 46.91700
C  28.24400 -3.38300 45.96300
C  26.88900 -3.64900 45.60200
C  30.02700 -4.40800 47.68600
C  28.71400 -2.31600 45.16600
O  29.81500 -1.88700 45.06200
C  27.57900 -1.92400 44.24500
C  27.31600 -0.50700 44.33200
O  27.76600 0.27100 43.55200
O  26.59100 -0.21000 45.46200
C  26.47000 1.18900 45.79300
H  21.06800 -4.06600 43.37500
H  22.51200 -9.22700 46.70400
H  28.22600 -6.55500 48.36700
H  24.84700 -0.89700 43.30200
H  22.42200 -2.12200 42.52600
H  22.28300 -1.59000 45.43300
H  21.35900 -1.00300 43.97200
H  22.92100 -0.27900 44.52500
H  23.83400 -2.58200 41.10800
H  25.27200 -3.34800 41.62900
H  26.29400 -0.93200 41.26500
H  24.70800 -0.83000 40.21600
H  19.52900 -6.76200 42.78400
H  19.30800 -5.09800 43.41100
H  18.48200 -6.35800 44.21400
H  21.11100 -10.37200 45.41000
H  19.52600 -10.78000 46.05500
H  20.67300 -9.92100 47.14400
H  25.10400 -10.06400 46.81700
H  26.30200 -8.52900 49.31200
H  23.24700 -10.47500 48.13100
H  23.88900 -9.91100 49.64900
H  24.83300 -11.19700 48.71200
H  28.17500 -9.00400 47.29400
H  27.34000 -10.50700 47.39400
H  29.50900 -10.12900 49.01800
H  28.09000 -10.73800 49.86200
H  28.40300 -8.97200 49.71000
H  30.18000 -5.47000 47.88000
H  29.92300 -3.85800 48.62100
H  30.88900 -3.96300 47.18900
H  27.88000 -2.12200 43.21600
H  26.19400 1.31000 46.84100
H  25.64000 1.65900 45.26600
H  27.38600 1.75900 45.63500
Mg -1.93500 34.78200 26.87900
C  -3.39500 32.77400 29.43500
C  -0.56400 36.61300 29.24300
C  -0.86000 36.88700 24.50400
C  -3.74000 33.02300 24.58500
N  -1.99700 34.67800 29.16200
C  -2.58500 33.81400 30.02100
C  -2.26300 34.04500 31.47600
C  -1.35900 35.33400 31.37900
C  -1.23800 35.54500 29.83900
C  -1.95300 36.67200 32.07700
C  -1.54000 32.87900 32.23200
C  -2.05700 32.55700 33.61700
H  -0.98900 32.43500 34.72000
N  -0.79400 36.58300 26.83900
C  -0.38100 37.19900 27.96000
C  0.48000 38.31400 27.57500
C  0.45200 38.35400 26.14100
C  -0.45900 37.22200 25.76900
C  1.15100 39.26900 28.61800
C  1.11500 39.20500 25.15100
O  1.05100 39.06400 23.92100
C  2.11100 40.21300 25.74400
N  -2.38100 34.96900 24.90900
C  -1.81200 35.92800 24.10600
C  -2.10800 35.78300 22.62700
C  -2.64200 34.30900 22.66700
C  -2.93200 34.06400 24.12700
C  -3.11700 36.85300 22.06000
C  -1.63400 33.26400 22.18900
C  -1.33400 33.18300 20.69900
N  -3.32700 33.22300 26.97300
C  -3.95400 32.63800 25.89700
C  -4.81200 31.52800 26.39800
C  -4.61700 31.54600 27.75300
C  -3.71700 32.60800 28.06200
C  -5.74600 30.61400 25.55000
C  -4.86000 30.82600 28.96700
O  -5.60500 29.87300 29.23100
C  -4.20300 31.65000 30.10000
C  -5.28800 32.10600 30.98400
O  -6.37500 32.55300 30.58500
O  -5.00300 31.88500 32.33500
C  -6.20300 31.73500 33.10700
H  -0.09400 37.22400 30.01700
H  -0.66400 37.58800 23.69000
H  -4.13000 32.53500 23.68900
H  -3.19100 34.30900 31.98300
H  -0.36000 35.03200 31.69400
H  -1.08800 37.14300 32.54500
H  -2.59400 36.24100 32.84600
H  -2.44300 37.43100 31.46700
H  -0.46000 32.99200 32.13600
H  -1.79700 31.98100 31.67000
H  -2.67600 31.66000 33.58800
H  -2.78800 33.29000 33.95900
H  2.19600 38.96600 28.68600
H  0.69000 38.99300 29.56700
H  0.99400 40.31800 28.36700
H  2.62400 40.60000 24.86400
H  2.86200 39.72700 26.36700
H  1.63800 41.11200 26.14000
H  -1.28500 36.00300 21.94600
H  -3.65200 34.10400 22.31100
H  -2.97300 37.83800 22.50400
H  -4.15600 36.52300 22.04800
H  -2.87200 36.95300 21.00300
H  -2.08600 32.31400 22.47500
H  -0.71200 33.40500 22.75300
H  -1.45500 32.15600 20.35300
H  -0.26200 33.30900 20.55500
H  -1.91400 33.82300 20.03500
H  -6.66100 31.19500 25.43700
H  -5.91800 29.61600 25.95300
H  -5.37500 30.46200 24.53700
H  -3.54000 30.97000 30.63500
H  -5.95200 32.20200 34.05900
H  -6.34100 30.67300 33.31100
H  -7.07500 32.30700 32.78900

