158

Mg 36.15900 49.22900 24.67500
C  36.29300 47.41700 27.79100
C  35.13100 51.94200 26.50900
C  35.40800 50.68500 21.76500
C  36.83900 46.19500 23.08700
N  35.68700 49.60800 26.99700
C  35.89000 48.77200 28.06400
C  35.57200 49.41900 29.34300
C  34.95400 50.83600 28.89500
C  35.21000 50.79000 27.37300
C  33.36800 51.06800 29.22300
C  36.83900 49.57100 30.27300
C  36.64800 49.29700 31.73400
H  35.23600 49.25700 32.23700
N  35.46000 51.04600 24.18600
C  35.27000 52.11100 25.07500
C  35.09400 53.27300 24.33600
C  35.06900 52.94800 22.92300
C  35.33900 51.50700 22.91200
C  34.94100 54.63200 25.06600
C  34.84000 53.82900 21.72000
O  34.96400 53.39300 20.60400
C  34.47900 55.31100 21.70900
N  35.99100 48.54000 22.61500
C  35.79800 49.36700 21.57700
C  36.06600 48.64300 20.27400
C  36.66100 47.27900 20.77200
C  36.40700 47.29900 22.24600
C  34.77000 48.62200 19.44100
C  38.18000 47.03200 20.36300
C  39.29800 47.72400 21.17500
N  36.47500 47.25100 25.24600
C  36.84900 46.13900 24.49600
C  37.41300 45.10100 25.31700
C  37.13900 45.53400 26.64600
C  36.54400 46.81800 26.52700
C  37.97000 43.68900 24.88100
C  37.21100 45.09800 28.04100
O  37.55300 44.02600 28.51700
C  36.73600 46.36700 28.85200
C  35.60700 45.79300 29.59200
O  34.50800 45.60000 29.11600
O  35.97800 45.57100 30.91200
C  34.93200 44.89000 31.71600
H  34.91600 52.83300 27.10400
H  35.18700 51.16700 20.81000
H  37.19700 45.35500 22.48800
H  34.84600 48.76200 29.82200
H  35.59100 51.66300 29.21000
H  32.93900 51.44000 28.29300
H  33.31900 51.78700 30.04200
H  32.93700 50.14300 29.60600
H  37.20300 50.58500 30.10800
H  37.67100 48.92200 29.99900
H  37.25200 49.99700 32.31200
H  37.12600 48.34300 31.95700
H  35.50900 54.55300 25.99300
H  33.91700 54.74600 25.42200
H  35.18500 55.56400 24.55600
H  33.79900 55.51100 22.53700
H  33.94500 55.51000 20.78000
H  35.47200 55.75000 21.80200
H  36.86200 49.20900 19.79000
H  36.10400 46.39800 20.45200
H  34.59700 47.69600 18.89400
H  34.75300 49.37000 18.64800
H  33.93100 48.89700 20.08100
H  38.41800 47.37500 19.35600
H  38.40900 45.97700 20.51300
H  39.95300 48.32100 20.54100
H  39.90700 46.98100 21.69000
H  38.76000 48.27900 21.94300
H  37.67700 42.93300 25.60900
H  39.05100 43.62700 24.75300
H  37.53400 43.53900 23.89300
H  37.48300 46.69200 29.57500
H  34.05500 45.49600 31.48800
H  35.15100 44.95000 32.78200
H  34.77900 43.84800 31.43700
Mg -11.89800 17.56500 40.54900
C  -8.80800 15.62000 40.59900
C  -10.03000 20.16800 39.78700
C  -14.76200 19.09300 40.19400
C  -13.67200 14.47000 40.85000
N  -9.71200 17.75300 40.14800
C  -8.63000 16.97200 40.24600
C  -7.27400 17.76500 40.06600
C  -7.74300 19.25400 40.14000
C  -9.29600 19.04200 40.06800
C  -7.32900 20.13700 41.34000
C  -6.51000 17.44100 38.73700
C  -5.01100 17.36500 38.76500
H  -4.31800 17.17600 37.45500
N  -12.33800 19.47500 40.06700
C  -11.44600 20.44400 39.64800
C  -12.15100 21.67200 39.42100
C  -13.52300 21.34800 39.57000
C  -13.60100 19.92700 40.00500
C  -11.52100 23.04200 38.95600
C  -14.58100 22.32900 39.48000
O  -14.37900 23.54100 39.23800
C  -16.07600 21.94200 39.64900
N  -13.99500 16.83600 40.49300
C  -14.94600 17.73200 40.41900
C  -16.35700 17.06000 40.50000
C  -16.00900 15.53500 40.97700
C  -14.45300 15.58500 40.80500
C  -17.35000 17.75000 41.45800
C  -16.69500 14.50400 40.01800
C  -16.67800 13.06100 40.52100
N  -11.37800 15.49600 40.70500
C  -12.26800 14.43200 40.82900
C  -11.45700 13.18900 40.86900
C  -10.11100 13.67500 40.84300
C  -10.11300 15.05400 40.73100
C  -11.96700 11.78900 40.70500
C  -8.71500 13.22600 40.84400
O  -8.38700 12.07000 40.84200
C  -7.79900 14.48400 40.56800
C  -6.73500 14.59300 41.62400
O  -6.93700 15.28000 42.62600
O  -5.51100 14.01800 41.25800
C  -4.41700 14.23300 42.21300
H  -9.46200 21.09900 39.84200
H  -15.75900 19.53900 40.21300
H  -14.08200 13.49500 41.12000
H  -6.66100 17.40200 40.89100
H  -7.53300 19.85800 39.25700
H  -8.11300 20.10200 42.09700
H  -7.09700 21.18200 41.13300
H  -6.46300 19.55600 41.65700
H  -6.68400 18.18100 37.95600
H  -6.85700 16.53500 38.24000
H  -4.70800 16.55300 39.42700
H  -4.61000 18.27500 39.21000
H  -10.47500 22.91100 38.67900
H  -11.67700 23.76000 39.76100
H  -12.03100 23.34600 38.04100
H  -16.47900 21.26700 38.89400
H  -16.71400 22.82600 39.63700
H  -16.12900 21.45100 40.62100
H  -16.85600 16.96200 39.53600
H  -16.23300 15.38900 42.03400
H  -17.96500 17.05900 42.03500
H  -18.11500 18.25400 40.86800
H  -16.83800 18.54200 42.00400
H  -16.00500 14.65200 39.18800
H  -17.70200 14.87500 39.82700
H  -15.78200 12.62100 40.08200
H  -17.60700 12.57300 40.22600
H  -16.55500 13.00800 41.60200
H  -12.09300 11.43300 41.72800
H  -11.32400 11.13200 40.11900
H  -13.01500 11.82600 40.40900
H  -7.40700 14.46100 39.55000
H  -4.47000 15.10500 42.86500
H  -3.56200 14.26300 41.53800
H  -4.32700 13.29200 42.75600

