158

Mg 48.61100 44.90300 42.95000
C  45.18900 45.15600 41.77000
C  48.42200 41.53500 42.39800
C  51.97500 44.79300 43.30500
C  48.74200 48.30400 42.99100
N  46.88300 43.46400 42.15600
C  45.63500 43.76700 41.79000
C  44.88300 42.52100 41.32300
C  45.92900 41.33600 41.68900
C  47.15700 42.15100 42.13400
C  45.49500 40.31700 42.77500
C  44.38500 42.57300 39.89800
C  45.08800 43.50300 38.80500
H  45.49700 42.77500 37.41800
N  49.99300 43.37600 42.89300
C  49.69200 42.07400 42.71000
C  50.85400 41.34000 42.80500
C  51.92600 42.19500 43.08000
C  51.36300 43.54400 43.10800
C  50.92100 39.87700 42.60900
C  53.37400 41.76300 43.24700
O  53.78400 40.60000 43.14300
C  54.42200 42.70800 43.61900
N  50.21300 46.35500 43.09700
C  51.49700 46.06700 43.27400
C  52.32100 47.38300 43.28900
C  51.23800 48.51700 43.22300
C  49.93300 47.68200 43.06600
C  53.30100 47.46100 44.41500
C  51.38300 49.51600 42.05500
C  51.02200 50.97200 42.26600
N  47.10700 46.44600 42.73100
C  47.42200 47.81300 42.73200
C  46.27800 48.55800 42.34500
C  45.32000 47.54200 41.96600
C  45.93900 46.29500 42.22500
C  46.07500 50.06300 42.21200
C  44.04400 47.27700 41.37800
O  43.18300 48.05200 40.95400
C  43.92200 45.71700 41.15100
C  42.68900 45.25700 41.80900
O  41.84200 44.56700 41.26300
O  42.53300 45.78800 43.04300
C  41.12300 45.79500 43.67200
H  48.35000 40.46500 42.19300
H  53.04500 44.62400 43.16600
H  48.76000 49.39200 43.07900
H  44.02200 42.47700 41.99000
H  46.08100 40.75900 40.77700
H  45.27700 39.35900 42.30300
H  44.56100 40.53600 43.29200
H  46.28500 40.11700 43.50000
H  43.33500 42.86600 39.88800
H  44.40800 41.55200 39.51800
H  45.90500 43.99700 39.33200
H  44.30700 44.13200 38.37900
H  51.61700 39.43200 43.32000
H  51.38400 39.66000 41.64600
H  49.98100 39.32700 42.65100
H  55.32100 42.16300 43.90700
H  54.05900 43.36100 44.41300
H  54.66900 43.37300 42.79200
H  52.92800 47.45100 42.38700
H  51.26900 49.09400 44.14700
H  53.10700 46.74700 45.21600
H  53.39000 48.48800 44.76900
H  54.26200 47.13400 44.01800
H  50.74700 49.20200 41.22800
H  52.39100 49.66600 41.66800
H  51.71800 51.60700 41.71800
H  51.03800 51.28800 43.30900
H  50.09600 51.21300 41.74400
H  46.39200 50.59800 43.10700
H  45.04600 50.42500 42.20800
H  46.65100 50.31000 41.32000
H  43.84500 45.51800 40.08300
H  40.41100 46.35700 43.06800
H  41.16500 46.37900 44.59200
H  40.80200 44.76000 43.78900
Mg 6.91500 54.11600 40.90500
C  6.76100 50.38800 41.07800
C  10.22500 53.65600 40.29000
C  6.96800 57.37000 40.17400
C  3.43600 54.08800 41.20000
N  8.34000 52.19400 40.60100
C  8.05800 50.84400 40.66800
C  9.31400 50.03300 40.43100
C  10.47500 51.09300 40.52900
C  9.66400 52.39200 40.47100
C  11.33100 51.00200 41.81400
C  9.20400 49.14300 39.12600
C  9.12500 49.93500 37.80400
H  7.76400 49.96700 37.11200
N  8.39000 55.33600 40.31400
C  9.69400 54.91500 40.14200
C  10.49800 56.09700 39.88500
C  9.63200 57.25500 40.06900
C  8.26500 56.71200 40.21600
C  11.99600 56.01000 39.50300
C  10.11600 58.63000 40.02200
O  11.26500 58.91500 39.71600
C  9.13200 59.73800 40.41400
N  5.40900 55.47400 40.49900
C  5.68100 56.82200 40.21400
C  4.45500 57.60500 40.15800
C  3.27800 56.46800 40.12200
C  4.05600 55.29500 40.73700
C  4.22500 58.45600 41.47400
C  2.87000 56.13500 38.65100
C  1.63600 56.69300 37.96000
N  5.35100 52.62500 41.17200
C  4.06000 52.79900 41.37500
C  3.47400 51.54600 41.84000
C  4.49600 50.59900 41.73200
C  5.65700 51.29100 41.32800
C  2.07500 51.36700 42.38600
C  4.79900 49.18900 41.85100
O  4.06700 48.33900 42.32600
C  6.30300 48.95500 41.33700
C  6.01100 48.11400 40.14000
O  5.22900 48.47400 39.26300
O  6.55500 46.82500 40.19700
C  6.29400 45.92400 39.01600
H  11.23400 53.60000 39.87600
H  6.90000 58.45500 40.07900
H  2.34600 54.13100 41.24100
H  9.26400 49.37300 41.29700
H  11.16600 50.97800 39.69400
H  11.32400 50.02800 42.30300
H  11.14400 51.74600 42.58900
H  12.37700 51.13300 41.53900
H  8.36700 48.44900 39.20100
H  10.07600 48.49200 39.18600
H  9.88300 49.44700 37.19200
H  9.48900 50.93200 38.05300
H  12.02500 55.61100 38.48800
H  12.58200 55.29700 40.08200
H  12.54100 56.95100 39.58300
H  8.59100 60.06100 39.52500
H  9.77000 60.50600 40.85100
H  8.42300 59.45400 41.19200
H  4.46300 58.24700 39.27700
H  2.46100 56.79500 40.76400
H  4.78600 58.06300 42.32200
H  3.14200 58.52200 41.57200
H  4.66500 59.45300 41.45000
H  2.74700 55.05400 38.57300
H  3.66500 56.45100 37.97600
H  1.14400 57.48200 38.52700
H  0.84700 55.94200 37.93100
H  1.88800 57.10700 36.98300
H  1.44300 50.88100 41.64400
H  1.58300 52.33600 42.47700
H  1.99400 50.76300 43.29000
H  6.86800 48.39300 42.08100
H  5.54100 45.24600 39.41800
H  7.10800 45.27400 38.69600
H  5.77900 46.36200 38.16100

