158

Mg 45.28800 5.17400 47.68800
C  43.34700 7.84200 46.97300
C  42.80300 3.12400 46.72100
C  47.45800 2.59100 47.89000
C  48.00300 7.41400 48.02100
N  43.34800 5.49600 46.84700
C  42.73800 6.64800 46.70300
C  41.25200 6.53000 46.24100
C  41.01800 5.00600 46.41900
C  42.48000 4.47700 46.66500
C  40.09400 4.56800 47.51400
C  41.14800 7.01700 44.73000
C  39.88200 7.88000 44.37700
H  39.14500 7.67200 43.03800
N  45.13300 3.11700 47.35900
C  44.05600 2.45300 46.89400
C  44.42000 1.08100 46.63500
C  45.75400 0.90000 47.05900
C  46.17700 2.20000 47.55700
C  43.50200 0.00600 46.13400
C  46.55800 -0.41400 46.87200
O  46.10700 -1.36900 46.28300
C  47.89400 -0.48900 47.60400
N  47.42900 5.05600 47.74900
C  48.04100 3.84700 48.02900
C  49.51000 3.99300 48.25600
C  49.71500 5.55500 48.33600
C  48.28700 6.05800 48.11900
C  49.97700 3.20400 49.48300
C  50.66800 6.14500 47.25300
C  51.47600 7.27900 47.69700
N  45.65700 7.27600 47.62200
C  46.72400 8.04700 47.84000
C  46.42700 9.45600 47.74700
C  45.07500 9.45500 47.32300
C  44.65700 8.13900 47.35700
C  47.39000 10.60100 47.77700
C  43.94300 10.27400 46.97700
O  43.79800 11.47200 46.82600
C  42.73600 9.24000 46.78900
C  41.71200 9.54200 47.84400
O  41.49600 8.96400 48.85900
O  40.76800 10.44600 47.30800
C  39.50400 10.61600 48.14800
H  41.97600 2.45100 46.48500
H  48.24800 1.84600 48.00200
H  48.85800 8.08800 48.10900
H  40.58700 7.15700 46.83500
H  40.63200 4.52900 45.51900
H  39.41300 5.39700 47.70200
H  40.47400 4.18500 48.46200
H  39.63400 3.66900 47.10500
H  41.21100 6.11600 44.12100
H  42.06000 7.60300 44.61100
H  40.20400 8.91500 44.26300
H  39.08100 7.88400 45.11500
H  43.73800 -0.35300 45.13200
H  42.42600 0.17800 46.13600
H  43.75100 -0.85900 46.75000
H  48.09200 -1.54800 47.76700
H  47.50400 -0.05600 48.52600
H  48.77100 0.04500 47.24000
H  50.00800 3.60200 47.36800
H  49.92600 5.93500 49.33600
H  50.28100 2.16700 49.34200
H  49.06400 3.17300 50.07700
H  50.68900 3.82000 50.03100
H  49.93700 6.47400 46.51500
H  51.30200 5.33700 46.88800
H  52.44500 7.13700 47.21900
H  51.54700 7.22000 48.78300
H  51.07200 8.20800 47.29500
H  46.87700 11.55100 47.62200
H  48.06200 10.55000 46.92000
H  48.03100 10.62100 48.65900
H  42.19000 9.42600 45.86400
H  39.57700 11.09400 49.12500
H  39.17000 9.60700 48.38700
H  38.77200 11.09400 47.49800
Mg 9.83700 47.81600 25.98300
C  7.97600 47.77800 28.90000
C  12.40700 49.17900 27.67300
C  11.59300 47.47800 23.18100
C  6.86500 46.75000 24.27900
N  10.06000 48.55700 27.94200
C  9.23200 48.33900 29.04100
C  9.94500 48.85400 30.38300
C  11.07100 49.75200 29.75700
C  11.23700 49.08700 28.37300
C  10.82800 51.28000 29.54500
C  10.47100 47.76000 31.32600
C  10.13400 47.96000 32.85300
H  10.47300 46.79100 33.79800
N  11.74900 48.20900 25.51600
C  12.65300 48.75500 26.35700
C  13.87000 49.00600 25.60700
C  13.74000 48.36200 24.33200
C  12.27900 48.02500 24.24700
C  15.10900 49.73800 26.16900
C  14.75500 48.18200 23.24100
O  14.45700 47.63300 22.18100
C  16.16600 48.70100 23.40800
N  9.22900 47.29600 23.98100
C  10.23700 47.18200 23.02100
C  9.68500 46.65700 21.68700
C  8.24200 46.24300 22.08400
C  8.07000 46.71600 23.54200
C  9.84400 47.73900 20.52800
C  7.90100 44.75500 21.90400
C  8.74900 43.76400 22.72300
N  7.68500 47.60000 26.37900
C  6.64200 47.14400 25.59300
C  5.45800 47.08500 26.44600
C  5.95800 47.17600 27.76100
C  7.30800 47.48200 27.66600
C  4.10000 46.77600 25.99100
C  5.55300 47.13500 29.14700
O  4.47300 46.88100 29.66700
C  6.88000 47.37700 29.89100
C  7.14500 46.25500 30.80500
O  7.92800 45.37800 30.57300
O  6.46200 46.37900 31.96100
C  6.42400 45.19000 32.84000
H  13.20400 49.64300 28.25800
H  12.17800 47.17000 22.31200
H  6.10400 46.16100 23.76300
H  9.25200 49.44700 30.98000
H  11.98000 49.54900 30.32300
H  9.84000 51.63100 29.84300
H  10.91300 51.44600 28.47100
H  11.60000 51.81000 30.10200
H  11.55500 47.65600 31.35600
H  9.96700 46.88300 30.92100
H  9.05000 48.06500 32.86000
H  10.59100 48.92000 33.09500
H  15.93700 49.02900 26.12800
H  14.90600 50.02400 27.20100
H  15.34700 50.60500 25.55300
H  15.97500 49.77100 23.49100
H  16.74900 48.46000 22.51900
H  16.67900 48.34400 24.30100
H  10.33400 45.91500 21.22200
H  7.54500 46.80800 21.46500
H  10.16200 48.64600 21.04200
H  8.83900 47.91300 20.14400
H  10.59100 47.41100 19.80500
H  8.02700 44.71900 20.82200
H  6.84800 44.52600 22.06200
H  9.39600 44.41400 23.31200
H  9.31000 43.15700 22.01100
H  8.15600 43.03900 23.28100
H  4.12500 46.29300 25.01500
H  3.59000 47.73800 26.04400
H  3.81400 46.14200 26.83000
H  6.63000 48.22200 30.53200
H  6.59300 45.56900 33.84700
H  7.34900 44.61500 32.79000
H  5.49600 44.63300 32.70700

