158

Mg 24.21400 -7.39000 46.42600
C  26.27600 -4.94100 45.23200
C  21.76300 -6.38300 43.96000
C  22.35900 -10.03900 47.16300
C  26.76400 -8.57600 48.40600
N  24.04700 -5.86500 44.71700
C  25.11200 -4.95700 44.43400
C  24.77700 -4.07800 43.27600
C  23.19700 -4.45200 43.03500
C  22.93600 -5.59800 43.97400
C  22.27300 -3.27900 43.28700
C  25.61700 -4.29400 41.97100
C  26.31900 -3.03100 41.31600
H  26.11100 -3.00400 39.78500
N  22.35600 -8.03500 45.77500
C  21.45500 -7.47300 44.84400
C  20.24100 -8.16600 44.87100
C  20.39700 -9.18300 45.88200
C  21.67200 -9.09800 46.36600
C  19.04400 -8.04200 44.03100
C  19.29800 -10.20400 46.21000
O  18.26500 -10.24100 45.50700
C  19.34700 -11.16000 47.32300
N  24.58900 -9.18100 47.47700
C  23.59700 -10.08200 47.78900
C  24.16000 -11.24800 48.58400
C  25.56600 -10.69000 49.10400
C  25.65600 -9.35300 48.32600
C  23.28500 -11.79300 49.74300
C  26.68400 -11.73600 48.78300
C  26.65600 -13.02600 49.65400
N  26.04600 -6.94000 46.84700
C  26.97000 -7.36800 47.75500
C  28.14800 -6.60400 47.79900
C  27.96500 -5.66200 46.71900
C  26.61300 -5.92800 46.27000
C  29.41400 -6.86700 48.58800
C  28.55800 -4.53900 46.02800
O  29.60100 -3.95700 46.06800
C  27.44500 -4.09500 45.02400
C  27.21300 -2.67300 45.32000
O  26.83900 -2.16200 46.40400
O  27.77300 -1.97600 44.24500
C  27.69000 -0.47600 44.39500
H  20.92100 -6.21200 43.28600
H  21.75700 -10.87200 47.53200
H  27.41700 -8.89600 49.22100
H  24.91600 -3.01900 43.49200
H  23.01500 -4.77000 42.00800
H  21.69900 -3.58800 44.16100
H  21.61700 -3.12200 42.43100
H  22.77700 -2.33200 43.48000
H  24.90400 -4.71700 41.26300
H  26.41700 -4.99800 42.19800
H  27.40100 -3.05500 41.44100
H  26.01300 -2.08100 41.75500
H  18.14700 -7.91900 44.63800
H  18.96200 -8.89500 43.35700
H  19.14500 -7.14800 43.41600
H  19.42300 -10.71800 48.31700
H  20.12200 -11.89800 47.11600
H  18.39300 -11.68400 47.37800
H  24.25100 -12.00300 47.80300
H  25.64800 -10.54300 50.18100
H  23.18100 -12.87200 49.62900
H  22.26300 -11.41400 49.76000
H  23.72000 -11.49600 50.69700
H  27.72000 -11.48300 49.00700
H  26.57700 -11.93700 47.71700
H  27.61100 -13.54400 49.73700
H  25.96500 -13.69900 49.14700
H  26.23400 -12.75300 50.62100
H  29.96700 -7.62700 48.03600
H  29.11600 -7.20700 49.58000
H  29.99100 -5.94200 48.57200
H  27.76600 -4.20700 43.98800
H  26.61900 -0.28800 44.33000
H  28.21300 -0.04600 43.54000
H  28.17700 -0.14100 45.31100
Mg 47.59000 23.84000 28.34100
C  48.37000 26.05100 30.94200
C  46.67000 21.45400 30.69100
C  47.16400 21.58300 25.82900
C  48.51700 26.14900 26.08400
N  47.42100 23.83400 30.58500
C  47.77000 24.84000 31.45700
C  47.70200 24.34100 32.89200
C  47.25400 22.89100 32.72700
C  47.03300 22.70900 31.24900
C  48.26000 21.87800 33.22500
C  46.79400 25.30700 33.81200
C  47.18200 25.30700 35.36400
H  46.53100 26.39800 36.21300
N  46.88100 21.80300 28.18700
C  46.59700 21.04300 29.31200
C  46.19900 19.74100 28.87200
C  46.37800 19.71300 27.43400
C  46.72500 21.07400 27.08600
C  45.80500 18.56700 29.80400
C  46.22300 18.51700 26.46700
O  46.23300 18.74900 25.25900
C  46.01700 17.08700 26.90900
N  47.75300 23.91700 26.29500
C  47.60400 22.84200 25.45700
C  48.01600 23.12500 24.05000
C  48.17700 24.65700 24.09300
C  48.18000 24.94200 25.58500
C  49.28300 22.23600 23.63600
C  47.06900 25.37900 23.28000
C  45.78500 25.62300 24.02100
N  48.45200 25.65800 28.41800
C  48.74800 26.52800 27.43800
C  49.25900 27.75100 27.95200
C  49.14000 27.55700 29.30700
C  48.59700 26.31400 29.57300
C  49.76100 29.00000 27.21300
C  49.43300 28.26100 30.52800
O  50.08500 29.28000 30.78700
C  48.86300 27.39100 31.68100
C  49.99300 27.20800 32.55400
O  50.97100 26.48800 32.28600
O  49.65000 27.70200 33.78600
C  50.67200 27.55500 34.82900
H  46.32300 20.67700 31.37500
H  47.14500 20.92400 24.95800
H  48.90100 26.84200 25.33200
H  48.72100 24.48300 33.25100
H  46.32600 22.79200 33.29100
H  47.70600 21.04900 33.66300
H  48.99800 22.17600 33.97000
H  48.86200 21.57700 32.36700
H  45.73200 25.06400 33.80000
H  46.92700 26.35000 33.52300
H  48.27100 25.28300 35.41100
H  46.79400 24.31400 35.59000
H  45.70800 17.57600 29.36000
H  44.82500 18.79600 30.22200
H  46.46600 18.49300 30.66800
H  45.11300 16.88800 27.48400
H  46.89500 16.82000 27.49800
H  46.11100 16.35900 26.10300
H  47.18800 22.93500 23.36700
H  49.05700 24.90800 23.50100
H  48.87500 21.38200 23.09500
H  49.73400 21.91100 24.57500
H  50.02300 22.83300 23.10300
H  46.93600 24.81500 22.35700
H  47.43200 26.36000 22.97400
H  45.69300 24.97300 24.89200
H  45.02100 25.28700 23.31900
H  45.65000 26.64200 24.38200
H  50.60600 29.35700 27.80100
H  48.90200 29.66600 27.13000
H  50.09000 28.72700 26.21000
H  48.07100 27.93900 32.19200
H  50.07200 27.35000 35.71600
H  51.02000 28.58700 34.87500
H  51.52600 26.90500 34.63900

