158

Mg -0.34400 43.49600 26.91900
C  2.05700 43.26500 29.34800
C  -2.70900 42.31100 29.19300
C  -2.68900 43.46800 24.37400
C  2.16400 44.13800 24.61700
N  -0.31600 42.85500 29.03500
C  0.76600 43.15500 29.86200
C  0.38500 43.15200 31.34600
C  -1.08600 42.55400 31.31300
C  -1.45000 42.61300 29.79700
C  -1.16000 41.07800 31.79900
C  0.45700 44.58600 32.03500
C  0.72100 44.47900 33.49800
H  0.43100 43.30900 34.37200
N  -2.44000 43.00800 26.77400
C  -3.14400 42.45500 27.85800
C  -4.45400 42.03400 27.23400
C  -4.45300 42.48400 25.89100
C  -3.16800 43.05500 25.64700
C  -5.46800 41.34900 28.17400
C  -5.56700 42.20300 24.96600
O  -5.39600 42.43000 23.76500
C  -6.85100 41.44300 25.30200
N  -0.29800 43.66100 24.77600
C  -1.40800 43.72700 23.99400
C  -1.00800 43.97300 22.55400
C  0.46100 44.37400 22.66600
C  0.80600 44.02200 24.12100
C  -1.18200 42.78200 21.53500
C  0.78500 45.82700 22.29100
C  0.24200 46.88900 23.24200
N  1.72800 43.55800 26.87700
C  2.64400 43.75800 25.86600
C  4.00700 43.71400 26.36200
C  3.78500 43.56200 27.76100
C  2.45400 43.49400 28.03700
C  5.25700 43.70800 25.46000
C  4.52100 43.41000 29.01100
O  5.69100 43.44200 29.15400
C  3.40700 43.39500 30.15700
C  3.62100 42.18300 30.99800
O  3.45600 41.04600 30.55100
O  4.21400 42.55400 32.16700
C  4.81100 41.43900 32.98400
H  -3.35100 41.99000 30.01600
H  -3.32300 43.31700 23.49800
H  2.88300 44.55000 23.90600
H  1.10800 42.48900 31.82100
H  -1.74300 43.16800 31.92900
H  -0.35700 40.46600 31.38900
H  -2.09200 40.75900 31.33300
H  -1.14500 40.98100 32.88500
H  -0.51000 45.08000 31.92900
H  1.21100 45.20200 31.54400
H  0.43400 45.43500 33.93400
H  1.80800 44.54800 33.52800
H  -6.39800 41.91500 28.10100
H  -5.24500 41.25400 29.23700
H  -5.67600 40.33500 27.83500
H  -7.37700 42.25700 25.80000
H  -6.66400 40.61600 25.98700
H  -7.38500 41.10000 24.41600
H  -1.69000 44.70000 22.11200
H  1.17200 43.79300 22.07800
H  -2.25600 42.60900 21.60300
H  -0.51500 42.02500 21.94700
H  -0.84500 42.96900 20.51500
H  0.32900 45.94100 21.30800
H  1.85800 45.80700 22.10100
H  -0.60900 47.40000 22.79200
H  1.16100 47.46100 23.36600
H  -0.15900 46.44800 24.15500
H  5.35700 42.77200 24.91000
H  6.10700 43.81000 26.13400
H  5.31300 44.57800 24.80600
H  3.38700 44.36400 30.65500
H  4.41200 40.47500 32.66900
H  4.48500 41.58900 34.01300
H  5.88300 41.42600 32.78600
Mg -1.30900 34.53600 26.71100
C  -3.02000 32.75700 29.31600
C  -0.29400 36.73200 28.95800
C  -0.26800 36.39200 24.24700
C  -2.94900 32.32400 24.45900
N  -1.75300 34.71100 28.91200
C  -2.31100 33.82400 29.80600
C  -2.09400 34.19900 31.31600
C  -1.27300 35.58700 31.05100
C  -1.00400 35.68700 29.56200
C  -1.93600 36.91300 31.54200
C  -1.33300 33.11900 32.12000
C  -2.17200 32.49300 33.28700
H  -1.43700 32.24200 34.63600
N  -0.30500 36.28500 26.58800
C  0.05700 37.05200 27.64400
C  0.88800 38.12800 27.21400
C  0.99000 38.03600 25.78700
C  0.12200 36.88200 25.46100
C  1.53800 39.20800 28.10600
C  1.70300 38.86500 24.81500
O  1.72200 38.73000 23.59600
C  2.62400 39.95700 25.21500
N  -1.61800 34.33400 24.65000
C  -0.98400 35.21000 23.85700
C  -1.12600 34.80200 22.34300
C  -1.80900 33.38100 22.42300
C  -2.15900 33.33100 23.90900
C  -1.89300 35.85400 21.39800
C  -1.01100 32.14900 21.87100
C  0.36600 32.02300 22.50100
N  -2.68100 32.79500 26.84200
C  -3.25600 32.08600 25.85000
C  -4.20600 31.08100 26.42100
C  -4.06100 31.27700 27.82400
C  -3.11900 32.28700 28.02200
C  -5.04600 29.98500 25.77200
C  -4.48600 30.80900 29.09200
O  -5.28100 29.91700 29.46900
C  -3.93200 31.76000 30.14600
C  -4.98000 32.36700 30.95400
O  -5.62400 33.40400 30.62600
O  -5.12900 31.70600 32.17800
C  -5.69100 32.47900 33.24400
H  0.14900 37.45400 29.64600
H  0.12100 36.94300 23.38900
H  -3.19200 31.43700 23.87100
H  -3.05900 34.41700 31.77400
H  -0.29600 35.51400 31.53000
H  -1.35400 37.41500 32.31500
H  -2.87900 36.53700 31.93700
H  -2.15800 37.59200 30.71900
H  -0.47700 33.61700 32.57600
H  -0.83500 32.41800 31.45000
H  -2.55800 31.51600 32.99500
H  -2.99700 33.14600 33.57300
H  1.07000 40.13900 27.78700
H  2.61100 39.24400 27.91900
H  1.37800 39.00200 29.16500
H  3.09700 40.23800 24.27400
H  3.36500 39.52500 25.88800
H  2.14200 40.70200 25.84800
H  -0.11800 34.64700 21.95900
H  -2.74500 33.16300 21.90900
H  -1.18000 36.26500 20.68300
H  -2.26900 36.73600 21.91600
H  -2.79800 35.46700 20.92800
H  -0.99000 32.19200 20.78200
H  -1.50300 31.18300 21.98300
H  1.17000 32.56000 21.99700
H  0.71200 30.99400 22.59000
H  0.21900 32.36000 23.52700
H  -5.98200 30.08400 26.32200
H  -4.67000 28.97600 25.94200
H  -5.15300 30.16200 24.70200
H  -3.29000 31.23600 30.85400
H  -6.21000 31.79300 33.91300
H  -6.46100 33.19100 32.94700
H  -5.01100 33.06800 33.86100

