158

Mg 1.14500 -1.64500 43.11000
C  4.61100 -0.86600 42.67600
C  0.26700 1.02700 41.33700
C  -1.86300 -2.87000 43.14400
C  2.36800 -4.89300 44.48800
N  2.32000 -0.24700 41.94600
C  3.69500 -0.00100 42.03500
C  4.02700 1.28300 41.31900
C  2.64400 1.96900 41.17800
C  1.66000 0.84100 41.49400
C  2.50300 3.27200 42.02400
C  4.77500 1.01100 39.95900
C  6.10200 1.86900 39.81000
H  6.01500 2.76200 38.59000
N  -0.62300 -0.92700 42.32800
C  -0.80500 0.20000 41.63300
C  -2.13700 0.47500 41.45900
C  -2.82700 -0.67800 41.98200
C  -1.80700 -1.62000 42.50900
C  -2.56700 1.77800 40.83400
C  -4.30800 -0.81800 41.96700
O  -5.02600 -0.05900 41.39700
C  -4.94600 -2.02000 42.60100
N  0.36200 -3.72300 43.47900
C  -0.97200 -3.91200 43.56300
C  -1.35500 -5.33300 44.03800
C  -0.00500 -5.88200 44.62800
C  0.99500 -4.79200 44.12200
C  -2.41300 -5.29100 45.18700
C  0.32900 -7.29400 44.11700
C  0.36200 -8.35000 45.26700
N  3.08100 -2.75000 43.53900
C  3.36400 -4.00300 44.07000
C  4.84600 -4.14200 44.22900
C  5.40500 -2.97500 43.64000
C  4.29400 -2.14300 43.24800
C  5.65500 -5.27300 44.78500
C  6.68600 -2.23600 43.24300
O  7.84000 -2.54900 43.41000
C  6.16300 -0.91500 42.53100
C  6.67800 0.32600 43.24200
O  6.43500 0.59900 44.38500
O  7.57200 1.13900 42.53300
C  7.82500 2.41100 43.26200
H  0.07200 1.92700 40.75100
H  -2.87300 -3.27600 43.23600
H  2.78000 -5.80000 44.93800
H  4.70200 1.91600 41.89600
H  2.53800 2.23900 40.12800
H  2.20200 4.13100 41.42300
H  3.49000 3.51400 42.42000
H  1.76700 3.17500 42.82200
H  4.17200 1.37300 39.12600
H  4.95600 -0.06100 39.89100
H  6.95500 1.19100 39.83600
H  6.26800 2.55400 40.64100
H  -3.59600 2.13400 40.87200
H  -2.37200 1.86400 39.76500
H  -2.03700 2.60600 41.30500
H  -4.54400 -2.95300 42.20500
H  -6.01200 -2.04800 42.37600
H  -4.87500 -1.96000 43.68700
H  -1.72700 -5.91600 43.19500
H  0.00300 -5.83500 45.71700
H  -2.58900 -4.27300 45.53300
H  -2.03300 -5.80500 46.07100
H  -3.31100 -5.81300 44.85700
H  1.31100 -7.21500 43.65200
H  -0.48900 -7.64600 43.48900
H  1.08600 -9.14700 45.10400
H  -0.58800 -8.86800 45.40000
H  0.61400 -7.81900 46.18500
H  6.69100 -4.93300 44.78500
H  5.64000 -6.11100 44.08800
H  5.26600 -5.49300 45.77900
H  6.55700 -0.84900 41.51700
H  8.53900 2.20900 44.06100
H  6.98800 2.90900 43.75200
H  8.22300 3.13000 42.54700
Mg 48.11100 25.69100 28.05000
C  49.12200 27.89200 30.62400
C  47.71500 23.23800 30.40800
C  47.32200 23.56800 25.60400
C  49.69200 27.84800 25.73400
N  48.37200 25.62800 30.30200
C  48.65700 26.66800 31.13100
C  48.40200 26.31300 32.62800
C  48.10400 24.73400 32.53000
C  48.10500 24.47400 30.97500
C  48.85900 23.69000 33.32900
C  47.32600 27.32100 33.25700
C  46.59900 26.88800 34.51200
H  46.60000 27.82000 35.78900
N  47.51800 23.70200 28.07800
C  47.52000 22.80300 29.09300
C  46.89400 21.54000 28.64000
C  46.61400 21.73900 27.24500
C  47.19000 23.02800 26.90600
C  46.75400 20.36800 29.51700
C  45.87200 20.85500 26.30400
O  45.67700 21.15600 25.14800
C  45.44900 19.52700 26.79500
N  48.36700 25.71500 25.99500
C  47.88700 24.77700 25.20600
C  48.15200 25.08300 23.68700
C  48.85300 26.44800 23.74000
C  48.97200 26.73900 25.26100
C  49.01600 23.99600 22.92100
C  48.14100 27.63700 22.99400
C  48.98200 28.36300 21.99900
N  49.10000 27.55600 28.10400
C  49.72100 28.30200 27.10200
C  50.22500 29.55600 27.59000
C  50.00600 29.40400 28.96400
C  49.34500 28.16700 29.26000
C  50.89100 30.63300 26.77900
C  50.19100 30.04700 30.22700
O  50.79600 31.07500 30.44500
C  49.61500 29.13500 31.32800
C  50.70900 28.91000 32.33300
O  51.77600 28.32800 32.16300
O  50.29900 29.33800 33.55900
C  51.02800 28.77700 34.68600
H  47.36300 22.52000 31.15100
H  46.91300 22.98900 24.77400
H  50.11200 28.51400 24.97700
H  49.34200 26.40900 33.17200
H  47.05100 24.62200 32.78500
H  48.22400 23.28600 34.11700
H  49.74100 24.03600 33.86800
H  49.27300 22.85100 32.77100
H  46.64100 27.39600 32.41200
H  47.85100 28.25000 33.48000
H  47.06400 25.92700 34.73200
H  45.57700 26.67700 34.19600
H  47.20300 19.47400 29.08300
H  45.68900 20.23400 29.71000
H  47.19600 20.51300 30.50200
H  44.66100 19.61300 27.54300
H  46.30400 18.97400 27.18500
H  45.05500 18.88600 26.00600
H  47.19800 25.15700 23.16400
H  49.85400 26.27000 23.35000
H  50.07000 23.88000 23.17300
H  48.86000 24.09500 21.84700
H  48.54600 23.04400 23.16500
H  47.85000 28.37800 23.73800
H  47.41200 27.18000 22.32400
H  49.95100 27.86900 21.93100
H  49.07100 29.43200 22.19500
H  48.45800 28.32500 21.04400
H  50.18400 30.99400 26.03100
H  51.68800 30.12000 26.24200
H  51.26400 31.48900 27.34100
H  48.85500 29.72900 31.83600
H  50.31400 28.79300 35.50900
H  51.76500 29.45800 35.11000
H  51.37600 27.76200 34.49200

