158

Mg 17.59200 51.36300 25.99200
C  19.40200 49.97900 28.58400
C  15.13500 52.22100 28.22800
C  15.54200 52.22400 23.32900
C  19.66500 49.59800 23.72000
N  17.31500 51.02400 28.22000
C  18.23300 50.52600 29.05500
C  17.62600 50.66100 30.50300
C  16.17400 51.09900 30.33100
C  16.21900 51.46700 28.86500
C  15.15400 49.93000 30.67200
C  18.34900 51.71200 31.42500
C  18.47600 51.45500 32.98100
H  17.30600 52.10500 33.81600
N  15.81800 52.40700 25.80900
C  14.97700 52.69500 26.90300
C  13.95700 53.54900 26.37700
C  14.09200 53.57600 24.94600
C  15.18800 52.72600 24.62900
C  13.01900 54.19900 27.32000
C  13.21600 54.37200 23.87400
O  13.54200 54.48700 22.71200
C  11.98100 55.10900 24.35800
N  17.50300 50.80500 23.82000
C  16.61700 51.39300 22.98300
C  16.93100 50.99500 21.50900
C  18.33900 50.33700 21.62700
C  18.57800 50.28900 23.14900
C  15.87200 50.21300 20.83300
C  19.49300 50.99500 20.80900
C  20.38800 52.17400 21.33900
N  19.19000 50.06500 26.09900
C  19.93500 49.48200 25.09300
C  20.99500 48.73000 25.72000
C  20.83900 48.89900 27.08600
C  19.66600 49.73400 27.28200
C  22.09700 47.93200 24.97100
C  21.37500 48.51400 28.31700
O  22.37500 47.87200 28.50900
C  20.41600 49.22500 29.34600
C  19.82400 48.12800 30.16700
O  18.73300 47.58200 29.94100
O  20.44200 48.11500 31.32700
C  19.88000 47.33000 32.43600
H  14.36800 52.36500 28.99200
H  14.88800 52.52500 22.50800
H  20.40100 49.16300 23.04100
H  17.69600 49.72300 31.05400
H  15.89800 51.99700 30.88300
H  14.92000 49.25400 29.85000
H  14.16600 50.27800 30.97300
H  15.60100 49.30900 31.44900
H  17.88400 52.67900 31.23700
H  19.34600 51.85400 31.00900
H  19.37800 51.91700 33.38300
H  18.41100 50.37000 33.06500
H  13.50900 54.40900 28.27100
H  12.09600 53.62000 27.31700
H  12.70300 55.17100 26.94200
H  11.29600 55.40600 23.56500
H  12.29700 56.03000 24.84700
H  11.49000 54.36800 24.98900
H  17.05100 51.88600 20.89300
H  18.22600 49.30100 21.30800
H  15.18500 50.93800 20.39600
H  15.40600 49.50000 21.51300
H  16.27500 49.64000 19.99700
H  18.99000 51.41400 19.93700
H  20.12200 50.19400 20.41900
H  21.46600 52.05600 21.22900
H  20.11700 52.35900 22.37800
H  20.13300 53.09000 20.80600
H  22.99300 48.55200 24.93200
H  21.84000 47.66900 23.94500
H  22.34400 47.01700 25.50900
H  20.92900 49.87300 30.05600
H  20.11100 46.30400 32.14800
H  18.82700 47.56300 32.59300
H  20.33000 47.54100 33.40500
Mg -12.63200 16.30500 42.79600
C  -9.38300 15.08100 42.18100
C  -11.88500 19.17200 41.23300
C  -16.06100 17.08000 42.44900
C  -13.65500 13.13100 43.95700
N  -10.82000 17.04300 41.88100
C  -9.54600 16.41900 41.85400
C  -8.45600 17.43700 41.34400
C  -9.29000 18.78100 41.31900
C  -10.74400 18.29900 41.51200
C  -9.01100 19.84300 42.32300
C  -7.88600 17.00600 39.97200
C  -6.33000 16.89800 39.77400
H  -5.79400 15.66400 39.11400
N  -13.86200 17.98500 41.99300
C  -13.23100 19.05700 41.48900
C  -14.24100 20.05000 41.19700
C  -15.48200 19.40800 41.40100
C  -15.16500 18.04800 41.89700
C  -14.02200 21.38400 40.59800
C  -16.83500 20.05200 41.15600
O  -16.91800 21.15100 40.61300
C  -18.12600 19.34600 41.49200
N  -14.64600 15.20100 43.13700
C  -15.82600 15.79000 42.96400
C  -16.95700 14.85500 43.36900
C  -16.21100 13.51000 43.90300
C  -14.79400 13.96100 43.70000
C  -18.04200 15.32900 44.30400
C  -16.65500 12.25800 43.12800
C  -15.74200 11.81400 41.98700
N  -11.77900 14.48300 43.08400
C  -12.26100 13.23800 43.53300
C  -11.18100 12.25600 43.65700
C  -10.10700 12.93400 43.03900
C  -10.46100 14.29800 42.76000
C  -11.28600 10.84900 44.29700
C  -8.68400 12.80800 42.67200
O  -7.95400 11.80100 42.84300
C  -8.17700 14.18800 42.08700
C  -7.14200 14.72900 43.09000
O  -7.30500 15.50900 43.99600
O  -5.95300 14.08600 42.81700
C  -4.78200 14.49300 43.58600
H  -11.53200 20.09700 40.77300
H  -17.12600 17.29700 42.34600
H  -13.73800 12.13300 44.39200
H  -7.56800 17.54400 41.96700
H  -8.96400 19.29900 40.41700
H  -8.06500 19.57000 42.79000
H  -9.76800 19.93400 43.10200
H  -9.06600 20.79300 41.79200
H  -8.20700 17.66900 39.16800
H  -8.36000 16.10700 39.57700
H  -5.84800 16.95100 40.75000
H  -5.88800 17.76100 39.27600
H  -14.34700 21.34900 39.55800
H  -12.95600 21.57000 40.72700
H  -14.59100 22.12100 41.16400
H  -19.04500 19.91500 41.35800
H  -17.99400 19.18700 42.56200
H  -18.07400 18.41900 40.92000
H  -17.50900 14.79300 42.43100
H  -16.41100 13.30800 44.95600
H  -17.66500 16.24400 44.76300
H  -18.38500 14.64300 45.07900
H  -18.94800 15.52800 43.73200
H  -17.63700 12.34500 42.66400
H  -16.67300 11.43200 43.83900
H  -15.15100 10.94500 42.27700
H  -15.01700 12.55900 41.66100
H  -16.38800 11.68900 41.11800
H  -11.63600 10.88900 45.32800
H  -10.29800 10.40300 44.18100
H  -12.07800 10.25600 43.84100
H  -7.75600 14.16100 41.08200
H  -4.34300 15.45000 43.30500
H  -3.98100 13.78800 43.35900
H  -5.05900 14.49800 44.64000

