158

Mg 40.51700 7.44900 29.22600
C  42.23100 8.94900 32.01400
C  38.65200 5.84700 31.43700
C  39.28900 5.95600 26.68000
C  43.03500 8.83700 27.23200
N  40.45000 7.50900 31.50300
C  41.12600 8.30000 32.40800
C  40.61800 8.00900 33.81500
C  39.66500 6.78600 33.61300
C  39.59200 6.66300 32.12600
C  39.85100 5.52200 34.47000
C  39.97100 9.23100 34.58900
C  40.02500 9.09100 36.10400
H  40.85600 10.13600 36.89700
N  39.06900 6.12500 29.05100
C  38.32200 5.64100 30.06200
C  37.39300 4.69500 29.49300
C  37.54100 4.67300 28.08300
C  38.63500 5.60800 27.85300
C  36.48200 3.93700 30.43800
C  36.85000 3.80700 27.04500
O  37.16100 3.75000 25.85700
C  35.62800 2.97800 27.59100
N  41.19500 7.24400 27.28900
C  40.36800 6.73300 26.36300
C  40.95400 6.81100 24.95800
C  41.94300 7.96400 25.14900
C  42.03200 8.05500 26.67800
C  41.59000 5.61400 24.33700
C  41.44500 9.31100 24.56100
C  40.37000 10.10100 25.35500
N  42.27100 8.59600 29.51500
C  43.17000 9.07700 28.56100
C  44.22000 9.93000 29.22600
C  43.78700 9.97900 30.54500
C  42.67900 9.12000 30.66000
C  45.36900 10.67800 28.56400
C  44.16300 10.47800 31.84600
O  45.13700 11.16300 32.16700
C  43.06800 9.90100 32.85700
C  43.80200 9.14500 33.95600
O  44.49800 8.15000 33.79200
O  43.77100 9.84500 35.20200
C  44.81100 9.48600 36.16700
H  38.14000 5.26200 32.20400
H  38.74900 5.53200 25.83100
H  43.60900 9.45000 26.53300
H  41.45000 7.54800 34.34800
H  38.67200 7.18400 33.82200
H  40.62100 5.61200 35.23700
H  40.06800 4.59400 33.94200
H  38.92800 5.28500 34.99800
H  38.91100 9.14000 34.35100
H  40.35600 10.19500 34.25600
H  40.47000 8.17600 36.49400
H  39.00300 8.87300 36.41400
H  36.43300 4.35400 31.44400
H  36.68900 2.86800 30.48700
H  35.44200 4.15800 30.19900
H  35.02300 2.52900 26.80300
H  34.93100 3.69000 28.03200
H  35.99700 2.16400 28.21500
H  40.16300 7.12400 24.27700
H  42.89400 7.72700 24.67300
H  40.75700 4.91000 24.34600
H  42.35400 5.25600 25.02700
H  42.03600 5.70600 23.34600
H  40.90700 9.09200 23.63900
H  42.22600 10.05600 24.41000
H  39.57700 10.35100 24.65000
H  40.78700 11.02600 25.75500
H  39.90600 9.48300 26.12300
H  45.60500 11.48900 29.25300
H  44.94900 11.03800 27.62500
H  46.15000 9.91700 28.53300
H  42.47300 10.69900 33.30100
H  44.59200 8.49500 36.56400
H  44.84500 10.28300 36.90900
H  45.74200 9.36500 35.61400
Mg 41.19400 41.36200 27.76600
C  40.44200 43.92500 30.01200
C  41.99000 39.28700 30.41000
C  42.02300 38.90900 25.60400
C  40.91700 43.60700 25.11500
N  41.04400 41.63800 29.88600
C  40.63700 42.73400 30.63200
C  40.63700 42.51100 32.11800
C  41.21500 41.00800 32.24800
C  41.41700 40.62800 30.76800
C  42.36800 40.76200 33.21200
C  39.23000 42.76400 32.78200
C  38.75600 41.99000 34.07600
H  38.27800 42.80500 35.27200
N  41.75200 39.31000 27.97500
C  42.19000 38.69200 29.13400
C  42.77000 37.41800 28.87600
C  42.58800 37.27100 27.49200
C  42.14000 38.54100 26.93800
C  43.36200 36.54600 29.86200
C  42.77600 35.97000 26.71700
O  42.70200 35.85500 25.50700
C  43.00700 34.60700 27.51800
N  41.68500 41.38500 25.69700
C  41.82600 40.18200 25.04000
C  41.78400 40.33300 23.51300
C  41.25900 41.78800 23.40000
C  41.32800 42.33400 24.79800
C  43.08600 40.00800 22.81200
C  39.85800 41.92300 22.81500
C  38.63700 41.61800 23.79400
N  40.93600 43.49600 27.51400
C  40.71800 44.21300 26.37800
C  40.34700 45.57800 26.84800
C  40.31900 45.52100 28.26400
C  40.58500 44.19400 28.60600
C  40.20500 46.70800 25.95000
C  40.01100 46.26100 29.44300
O  39.60900 47.42800 29.61400
C  40.10900 45.21300 30.64800
C  41.22100 45.73500 31.38100
O  42.34200 45.88600 30.97600
O  40.78500 46.16400 32.63000
C  41.95300 46.40500 33.47100
H  42.18600 38.64900 31.27400
H  42.40700 38.13900 24.93200
H  40.89700 44.27000 24.24800
H  41.42700 43.16700 32.48500
H  40.49600 40.31500 32.68500
H  42.30800 41.17700 34.21800
H  43.20100 41.14000 32.62000
H  42.43300 39.67700 33.29100
H  38.41000 42.76000 32.06400
H  39.30800 43.81600 33.05800
H  39.55200 41.37000 34.48800
H  37.94000 41.40500 33.65100
H  44.19600 36.13200 29.29500
H  42.68200 35.72500 30.08700
H  43.72600 37.02800 30.76900
H  42.96300 33.71900 26.88800
H  42.26400 34.55300 28.31400
H  44.02500 34.65300 27.90700
H  41.00600 39.72500 23.05000
H  41.84700 42.42500 22.73800
H  43.72900 39.59200 23.58700
H  43.50800 40.91400 22.37800
H  42.95300 39.39000 21.92300
H  39.76400 41.12900 22.07400
H  39.69500 42.83400 22.23900
H  38.91000 41.80000 24.83300
H  38.37600 40.56000 23.81100
H  37.80400 42.27100 23.53000
H  40.53700 47.59600 26.48800
H  39.22600 47.00100 25.57100
H  40.82100 46.40800 25.10200
H  39.24000 45.26000 31.30400
H  42.45500 47.32100 33.15900
H  42.66200 45.58300 33.36600
H  41.61500 46.51200 34.50100

