158

Mg 35.72600 1.99100 29.90400
C  33.42700 3.28900 32.22300
C  38.03800 1.70100 32.50000
C  37.97100 1.44700 27.50700
C  33.23200 2.51900 27.36500
N  35.77300 2.49200 32.05600
C  34.64800 2.84900 32.77900
C  34.93900 2.75500 34.32700
C  36.40500 2.37500 34.41600
C  36.73400 2.17600 32.90100
C  37.34700 3.55500 34.90600
C  33.95700 1.73400 35.04300
C  33.13900 2.28700 36.25100
H  33.62700 3.56200 37.00800
N  37.75600 1.56800 30.01200
C  38.54500 1.41700 31.17900
C  39.81500 0.86600 30.73200
C  39.87800 0.92500 29.29900
C  38.46600 1.34100 28.90200
C  40.84000 0.25600 31.72700
C  40.98300 0.66200 28.34200
O  40.86400 0.72100 27.10500
C  42.30300 0.31800 28.76100
N  35.56700 1.62300 27.71700
C  36.70500 1.59600 26.98500
C  36.30300 1.50900 25.47100
C  34.67700 1.73600 25.42400
C  34.43600 1.96200 26.94600
C  36.99200 2.42300 24.49900
C  33.87200 0.51100 24.92800
C  32.55000 0.82500 24.26700
N  33.74200 2.61300 29.83600
C  32.88300 2.80200 28.71300
C  31.63900 3.42800 29.20800
C  31.78300 3.51900 30.60300
C  33.07300 3.09500 30.86100
C  30.49300 3.83000 28.34500
C  31.10500 3.91000 31.81400
O  29.94400 4.11000 32.04300
C  32.22300 3.82200 32.95300
C  32.42400 5.11900 33.55100
O  33.09200 6.02500 33.02000
O  31.59000 5.32500 34.57700
C  31.51900 6.62000 35.27900
H  38.76500 1.42800 33.26800
H  38.63900 1.24100 26.66900
H  32.43400 2.80200 26.67500
H  34.82700 3.72900 34.80400
H  36.57400 1.44300 34.95400
H  37.83500 4.11800 34.11100
H  38.21700 3.27700 35.50100
H  36.82200 4.35500 35.42800
H  34.47700 0.83400 35.37200
H  33.18100 1.47500 34.32200
H  33.25100 1.63700 37.11900
H  32.07400 2.37400 36.03800
H  41.57300 1.04100 31.91200
H  41.33700 -0.62100 31.31200
H  40.42300 -0.00700 32.69900
H  42.39500 -0.76800 28.73300
H  42.60200 0.74500 29.71900
H  43.00900 0.76200 28.05900
H  36.52700 0.50000 25.12700
H  34.36300 2.69500 25.01200
H  37.34800 3.35900 24.92900
H  36.26100 2.76200 23.76500
H  37.73900 1.80200 24.00400
H  33.61700 -0.18100 25.73100
H  34.56000 0.04900 24.22000
H  32.60400 1.89400 24.06200
H  31.67400 0.45700 24.80200
H  32.45100 0.32700 23.30300
H  30.19900 2.99900 27.70400
H  30.84800 4.71300 27.81200
H  29.61200 4.21300 28.86100
H  31.88900 3.14900 33.74200
H  30.68700 7.12700 34.79200
H  32.37000 7.25100 35.02200
H  31.09200 6.50700 36.27600
Mg 26.51300 50.05900 26.11800
C  24.58400 51.35300 28.73700
C  28.99900 49.42800 28.24500
C  28.31000 48.82700 23.45900
C  24.14000 51.36200 23.88900
N  26.79100 50.62100 28.22300
C  25.81300 50.96000 29.15100
C  26.24300 50.65300 30.61200
C  27.77100 50.32600 30.37900
C  27.88300 50.07700 28.81700
C  28.52400 51.63500 30.75000
C  25.52600 49.42500 31.25300
C  25.23700 49.37300 32.75600
H  26.04500 50.16400 33.71400
N  28.35200 49.27500 25.85100
C  29.24600 49.06700 26.90200
C  30.42300 48.42800 26.45200
C  30.18800 48.11100 25.06000
C  28.96000 48.80300 24.69600
C  31.58300 48.16800 27.38100
C  31.03400 47.38700 24.14300
O  30.82500 47.40300 22.98400
C  32.24400 46.66200 24.55000
N  26.31500 50.15100 23.92200
C  27.06400 49.34000 23.09500
C  26.49800 49.41600 21.65800
C  25.07700 50.02000 21.87000
C  25.15800 50.51000 23.31900
C  27.37400 50.34800 20.74500
C  23.81500 49.19400 21.55500
C  24.00200 47.70300 21.91700
N  24.67900 51.01000 26.21400
C  23.85200 51.50200 25.22300
C  22.76600 52.21200 25.88200
C  22.91600 52.02000 27.23800
C  24.14100 51.43900 27.37000
C  21.69400 52.97200 25.23300
C  22.35200 52.27100 28.53400
O  21.25800 52.77200 28.75500
C  23.35500 51.75200 29.64000
C  23.58100 52.82900 30.56600
O  24.33600 53.74000 30.35400
O  22.76100 52.76800 31.65700
C  23.04100 53.71200 32.73300
H  29.64500 49.07900 29.05300
H  28.69900 48.42000 22.52300
H  23.40800 51.84600 23.23900
H  25.91800 51.51500 31.19500
H  28.08900 49.48300 30.99200
H  28.87700 52.08900 29.82300
H  29.47500 51.49800 31.26500
H  27.91600 52.37200 31.27500
H  26.14600 48.58500 30.93900
H  24.53200 49.24800 30.84200
H  25.46800 48.36200 33.09200
H  24.16700 49.54000 32.87500
H  32.60700 48.12700 27.01200
H  31.31100 47.28300 27.95500
H  31.68100 48.93800 28.14600
H  32.70900 46.13400 23.71700
H  31.84900 45.89200 25.21300
H  32.96700 47.30200 25.05600
H  26.54900 48.45200 21.15100
H  25.01400 50.86200 21.18100
H  26.86300 51.09400 20.13700
H  28.18700 49.86400 20.20300
H  27.91300 50.94800 21.47900
H  23.61800 49.18600 20.48300
H  22.90200 49.61200 21.97800
H  24.21800 47.10500 21.03200
H  23.08800 47.28800 22.34200
H  24.79300 47.62000 22.66200
H  21.58900 52.74500 24.17200
H  21.85700 54.03600 25.40600
H  20.80100 52.62900 25.75500
H  22.95900 50.89300 30.18200
H  22.09400 53.69100 33.27300
H  23.30800 54.73000 32.45300
H  23.88700 53.48400 33.38100

