158

Mg 34.83700 3.31700 29.81500
C  32.69800 4.24500 32.45200
C  37.49100 3.29500 31.96200
C  36.72800 2.67900 27.20900
C  32.04300 3.78200 27.67300
N  35.03600 3.83100 32.03800
C  33.99900 3.99200 32.93500
C  34.54000 3.97300 34.36600
C  36.09000 3.78800 34.17100
C  36.27800 3.67700 32.60300
C  36.94700 4.98000 34.72100
C  33.89700 2.76900 35.16500
C  33.44800 3.12500 36.65000
H  34.14600 4.23600 37.48000
N  36.82300 2.94300 29.65200
C  37.78900 2.96300 30.62300
C  39.02900 2.50200 30.02100
C  38.84900 2.51200 28.62900
C  37.43600 2.65700 28.47500
C  40.27400 2.26500 30.78000
C  39.86900 2.46700 27.40100
O  39.59000 2.56800 26.26100
C  41.38300 2.44700 27.72700
N  34.40400 3.34700 27.68100
C  35.42000 3.05000 26.79400
C  34.89000 2.96100 25.39700
C  33.41100 3.15100 25.57200
C  33.24600 3.42800 27.05600
C  35.54300 4.02600 24.39600
C  32.56400 1.89500 25.11300
C  31.13100 2.18700 24.66600
N  32.80300 3.99100 29.94900
C  31.81600 4.13500 29.04000
C  30.59400 4.46500 29.64900
C  30.90900 4.52700 30.96100
C  32.27300 4.32300 31.06100
C  29.29700 4.72600 28.90600
C  30.29900 4.75500 32.28300
O  29.17900 5.00900 32.66500
C  31.54000 4.58600 33.29200
C  31.56500 5.92200 33.95100
O  32.16800 6.86100 33.45300
O  31.01300 5.76000 35.20500
C  31.17500 6.85200 36.14700
H  38.34900 3.11700 32.61300
H  37.26300 2.44600 26.28600
H  31.11000 3.79800 27.10600
H  34.23700 4.87700 34.89600
H  36.52600 2.93300 34.68700
H  36.42200 5.57800 35.46600
H  37.25800 5.63500 33.90700
H  37.86100 4.56800 35.15000
H  34.60300 1.95100 35.31100
H  33.06600 2.32300 34.61800
H  33.40500 2.19500 37.21600
H  32.42000 3.41700 36.43200
H  40.84100 1.40000 30.43400
H  39.95000 2.14900 31.81400
H  40.91600 3.12800 30.60500
H  41.90500 2.70300 26.80500
H  41.68700 1.42300 27.94500
H  41.61200 3.11200 28.56000
H  35.04500 1.93800 25.05400
H  33.20500 4.12800 25.13400
H  34.79100 4.55400 23.81000
H  36.03300 3.52400 23.56200
H  36.23700 4.67900 24.92500
H  32.67400 1.14300 25.89400
H  33.10800 1.42100 24.29500
H  30.45600 1.99000 25.49900
H  30.75300 1.46500 23.94100
H  30.91500 3.20400 24.33700
H  28.67600 3.83100 28.94100
H  29.46000 4.89200 27.84100
H  28.73600 5.46400 29.47900
H  31.28900 3.85800 34.06400
H  30.25800 7.43100 36.25800
H  31.96900 7.53800 35.85500
H  31.42200 6.44700 37.12900
Mg 42.77700 42.17500 26.31700
C  41.64500 44.13100 28.90800
C  44.11800 39.96900 28.63100
C  43.92800 40.28700 23.76900
C  42.00000 44.71400 24.01700
N  42.85800 42.06100 28.53200
C  42.21500 42.91300 29.34400
C  42.23300 42.35300 30.82300
C  43.29300 41.22600 30.74300
C  43.50600 41.06000 29.19300
C  44.66900 41.47400 31.37200
C  40.75900 42.07400 31.34900
C  40.19600 43.02500 32.41700
H  39.71200 42.51200 33.75800
N  43.78900 40.34000 26.14500
C  44.25800 39.62300 27.21600
C  44.83300 38.40700 26.68300
C  44.70400 38.40000 25.27000
C  44.12600 39.71900 24.99600
C  45.63400 37.47900 27.59000
C  45.21700 37.47000 24.25100
O  45.34700 37.74300 23.07200
C  45.63500 36.14600 24.70200
N  43.14000 42.54900 24.17100
C  43.46000 41.54400 23.35200
C  43.35900 41.94700 21.81200
C  42.67800 43.37800 22.00700
C  42.62300 43.62100 23.50700
C  44.72200 41.93600 21.10000
C  41.37500 43.49200 21.18500
C  40.01200 43.02800 21.79800
N  42.07600 44.07600 26.36500
C  41.74000 45.03400 25.37600
C  41.03000 46.17400 25.96700
C  41.02500 45.84900 27.32000
C  41.71800 44.58800 27.54500
C  40.49500 47.39200 25.26600
C  40.56000 46.31900 28.62300
O  39.92500 47.32100 28.91000
C  40.89500 45.27800 29.69500
C  41.73900 45.84800 30.75000
O  42.93600 45.85200 30.70200
O  40.89900 46.27400 31.82300
C  41.55800 46.74700 33.07600
H  44.53500 39.30400 29.39000
H  44.27900 39.75200 22.88400
H  41.62900 45.39000 23.24400
H  42.59800 43.20700 31.39400
H  42.94800 40.21900 30.97700
H  45.31400 41.77200 30.54600
H  44.95500 40.59300 31.94700
H  44.46500 42.13200 32.21600
H  40.77300 41.13000 31.89300
H  39.96100 41.99900 30.61100
H  39.34100 43.57000 32.01700
H  40.99100 43.75300 32.58200
H  45.65400 37.82100 28.62500
H  46.61500 37.50900 27.11800
H  45.18500 36.48700 27.54400
H  44.80100 35.63400 25.18200
H  46.52800 36.32000 25.30100
H  45.83200 35.49400 23.85100
H  42.59200 41.33500 21.33700
H  43.40000 44.08900 21.60400
H  45.16400 40.94000 21.11600
H  45.33100 42.67500 21.62100
H  44.52900 42.31300 20.09500
H  41.49600 42.94500 20.25000
H  41.47400 44.53900 20.90000
H  39.35600 43.89700 21.75900
H  40.02700 42.63900 22.81600
H  39.53300 42.29300 21.15100
H  40.02400 46.88500 24.42400
H  41.35400 47.94800 24.89100
H  39.87500 47.96500 25.95600
H  39.96000 44.97700 30.16700
H  42.63400 46.78000 32.90300
H  41.21500 46.08500 33.87100
H  41.22000 47.76900 33.24400

