158

Mg 40.84800 41.33500 26.90500
C  39.82200 43.80000 29.14100
C  41.21600 39.14000 29.71100
C  42.01500 39.05400 24.76400
C  40.83700 43.69100 24.36200
N  40.61400 41.47500 29.20800
C  40.19300 42.61400 29.84800
C  39.97300 42.34100 31.35700
C  40.63100 40.88100 31.55600
C  40.83400 40.42600 30.09600
C  41.96300 40.85700 32.36200
C  38.50400 42.57700 31.80200
C  38.14500 41.93000 33.19300
H  37.49900 42.79800 34.28000
N  41.51100 39.39600 27.17500
C  41.58300 38.66500 28.42500
C  42.05300 37.36100 28.11700
C  42.26400 37.29800 26.67800
C  41.90400 38.59700 26.14400
C  42.21100 36.22500 29.13300
C  42.74300 36.11300 25.90500
O  42.72000 36.00700 24.71400
C  43.22500 34.87400 26.51400
N  41.49200 41.41700 24.89900
C  41.85800 40.27400 24.18400
C  41.89300 40.57200 22.69900
C  41.61500 42.07600 22.60400
C  41.23800 42.40500 24.03300
C  43.15800 39.97900 21.97600
C  40.51100 42.43700 21.56200
C  39.02200 42.26700 22.00900
N  40.37400 43.30900 26.71000
C  40.52600 44.11900 25.68100
C  40.09100 45.49000 26.10300
C  39.83700 45.39600 27.45900
C  40.01300 44.06200 27.80400
C  39.89400 46.71700 25.18400
C  39.37000 46.16900 28.60200
O  39.15100 47.41600 28.74500
C  39.41300 45.16000 29.78300
C  40.36300 45.58200 30.84900
O  41.61100 45.36700 30.80800
O  39.68300 46.01700 31.97500
C  40.41900 45.85000 33.31100
H  41.05900 38.40200 30.49900
H  42.47000 38.33400 24.08100
H  40.77600 44.49400 23.62500
H  40.56400 43.09000 31.88300
H  39.86200 40.19900 31.91900
H  42.06700 41.88500 32.70800
H  42.83500 40.58000 31.77000
H  41.99300 40.21400 33.24100
H  37.90100 42.08300 31.04100
H  38.41500 43.62800 32.07900
H  38.99700 41.45500 33.68000
H  37.63400 40.99400 32.96900
H  41.49400 35.42400 28.95500
H  42.05400 36.58700 30.14900
H  43.24900 35.90200 29.20600
H  44.14000 35.06200 27.07600
H  43.46600 34.15400 25.73200
H  42.51200 34.46400 27.22900
H  41.05100 39.99800 22.31300
H  42.52800 42.57500 22.28100
H  43.90700 39.48900 22.59900
H  43.62200 40.82500 21.47000
H  42.71700 39.33700 21.21400
H  40.59200 41.75300 20.71800
H  40.68900 43.44300 21.18300
H  38.80200 42.40700 23.06700
H  38.54100 41.34900 21.67300
H  38.53100 43.05600 21.43800
H  39.30700 46.43500 24.31000
H  40.90200 47.03100 24.91400
H  39.39000 47.45800 25.80400
H  38.47000 45.16500 30.33000
H  39.84000 45.27800 34.03500
H  40.49700 46.87900 33.66500
H  41.47100 45.56400 33.33100
Mg 25.67300 50.99600 26.06500
C  23.55300 51.96400 28.71600
C  28.00500 50.13100 28.49300
C  27.93700 50.49000 23.55000
C  23.28000 52.20000 23.73600
N  25.81800 51.11200 28.39100
C  24.73300 51.37300 29.24000
C  25.16100 51.08200 30.75700
C  26.69500 50.70300 30.57200
C  26.88100 50.64800 29.08300
C  27.75700 51.57300 31.27100
C  24.15400 50.10500 31.42100
C  23.52100 50.54500 32.72500
H  24.47700 51.28500 33.70900
N  27.69700 50.38000 26.01700
C  28.45500 49.97200 27.13900
C  29.68000 49.41600 26.71500
C  29.74400 49.52800 25.25900
C  28.44200 50.18200 24.85500
C  30.69300 48.72500 27.70600
C  30.78700 49.22400 24.38400
O  30.74200 49.34400 23.13400
C  32.00800 48.59500 24.83900
N  25.69600 51.40100 23.97500
C  26.75300 51.03800 23.11500
C  26.36300 51.25700 21.62300
C  24.86800 51.88200 21.64200
C  24.54700 51.75300 23.21600
C  27.41400 52.09000 20.82100
C  23.79700 51.25100 20.58900
C  23.77300 52.00200 19.20200
N  23.86500 52.02400 26.17500
C  22.98800 52.40300 25.15100
C  21.86800 53.15100 25.79600
C  22.02200 53.02300 27.20600
C  23.24000 52.27200 27.35600
C  20.82900 53.90400 25.08100
C  21.46900 53.36500 28.52100
O  20.50200 54.05900 28.84600
C  22.44900 52.67400 29.54100
C  22.98100 53.76500 30.41500
O  23.78100 54.64800 29.99900
O  22.39700 53.71900 31.71200
C  22.72300 54.82100 32.56700
H  28.60000 49.60900 29.24500
H  28.61300 50.28300 22.71700
H  22.40900 52.46000 23.13100
H  25.09900 52.07400 31.20400
H  26.78900 49.65100 30.84200
H  28.38200 52.06100 30.52200
H  28.27800 51.06700 32.08400
H  27.18400 52.33600 31.79800
H  24.60300 49.15600 31.71300
H  23.29200 49.93700 30.77400
H  23.26000 49.58200 33.16400
H  22.57900 51.05600 32.52400
H  30.33200 48.69400 28.73400
H  31.60000 49.32800 27.66700
H  30.98600 47.75600 27.30300
H  31.83100 47.57500 25.17800
H  32.41500 49.27100 25.59100
H  32.74200 48.60400 24.03300
H  26.35500 50.23300 21.24800
H  24.77600 52.95500 21.47600
H  28.24400 52.40700 21.45400
H  26.94200 52.95600 20.35700
H  27.83800 51.47000 20.03100
H  22.79800 51.35900 21.00900
H  23.98900 50.18900 20.43100
H  24.52100 51.54300 18.55500
H  24.10500 53.04000 19.18900
H  22.71500 51.98800 18.94100
H  19.92400 53.30100 25.00800
H  21.20400 54.16800 24.09200
H  20.69300 54.77700 25.72000
H  21.92700 51.91200 30.12000
H  22.87500 55.76700 32.04600
H  23.61000 54.51800 33.12300
H  21.89600 54.91300 33.27100

