158

Mg -2.20500 17.33600 25.98900
C  -2.61400 15.11200 28.58300
C  -2.77300 19.90900 28.09700
C  -2.02800 19.50100 23.29900
C  -1.84800 14.63600 23.80500
N  -2.64000 17.50900 28.08100
C  -2.77600 16.47900 28.96400
C  -3.27900 16.94100 30.35000
C  -3.21500 18.50700 30.16300
C  -2.89000 18.67300 28.68100
C  -4.46900 19.37900 30.61300
C  -2.47500 16.51900 31.58500
C  -2.60100 17.40700 32.85300
H  -2.70200 16.50800 34.10700
N  -2.34100 19.44900 25.75500
C  -2.64700 20.31000 26.74800
C  -2.55400 21.68900 26.28700
C  -2.09300 21.52800 24.92600
C  -2.18200 20.14600 24.64300
C  -2.87800 22.86500 27.19500
C  -1.67400 22.62300 24.00000
O  -1.32800 22.53000 22.82600
C  -1.58400 24.03600 24.49100
N  -2.16800 17.07300 23.80200
C  -2.00500 18.14600 22.94100
C  -1.86400 17.73400 21.50600
C  -1.59900 16.13300 21.69500
C  -1.83200 15.92600 23.22900
C  -3.05800 18.04200 20.59200
C  -0.20000 15.68700 21.23200
C  0.93400 15.75800 22.24200
N  -2.31200 15.27500 26.08900
C  -2.13200 14.28800 25.14400
C  -2.08600 13.02500 25.74300
C  -2.28800 13.25500 27.10800
C  -2.44300 14.65800 27.27800
C  -1.68900 11.69900 25.06700
C  -2.40500 12.62000 28.47100
O  -2.33300 11.45800 28.81000
C  -2.55200 13.84600 29.45300
C  -1.30600 13.85600 30.21800
O  -0.44300 14.72200 30.04600
O  -1.24400 12.81600 31.10100
C  -0.16700 12.89200 32.10800
H  -2.95100 20.66000 28.86900
H  -1.88100 20.21800 22.48800
H  -1.53800 13.86400 23.09700
H  -4.25500 16.53700 30.61900
H  -2.36300 18.91400 30.70700
H  -5.09600 19.59500 29.74800
H  -4.01300 20.27800 31.02600
H  -5.04800 18.85100 31.37000
H  -1.40800 16.43100 31.38100
H  -2.81200 15.49000 31.71200
H  -3.59600 17.85200 32.88600
H  -1.81700 18.16100 32.77200
H  -3.42000 23.61000 26.61200
H  -1.91500 23.20700 27.57600
H  -3.43900 22.63100 28.09900
H  -2.52100 24.59000 24.55400
H  -1.02300 24.62900 23.76900
H  -1.08800 23.93100 25.45600
H  -0.95000 18.21000 21.15100
H  -2.34500 15.46800 21.25900
H  -3.38600 17.11700 20.11800
H  -2.68300 18.67200 19.78400
H  -3.88400 18.50400 21.13300
H  0.15900 16.44200 20.53300
H  -0.25000 14.73900 20.69600
H  0.65200 16.20800 23.19400
H  1.87800 16.09400 21.81200
H  1.13400 14.72100 22.51300
H  -1.20100 11.80300 24.09800
H  -2.51100 11.04400 24.77800
H  -0.97600 11.27500 25.77500
H  -3.33700 13.79900 30.20900
H  -0.30900 13.71800 32.80500
H  0.74900 13.08800 31.55000
H  0.06800 12.00100 32.69000
Mg -5.54400 25.47000 26.28400
C  -4.00500 26.73200 29.14000
C  -7.44000 23.42900 28.45700
C  -6.66100 23.90000 23.65100
C  -3.55600 27.50400 24.32300
N  -5.62700 25.12200 28.49900
C  -4.97800 25.84500 29.43000
C  -5.61900 25.71400 30.79100
C  -6.45900 24.33900 30.66800
C  -6.58100 24.27200 29.09800
C  -5.77200 23.09400 31.35600
C  -6.45700 27.05900 31.28500
C  -6.15400 27.43700 32.72400
H  -5.88100 26.23600 33.61300
N  -7.06600 23.98100 26.06300
C  -7.64600 23.27700 27.09000
C  -8.52300 22.25500 26.47200
C  -8.24600 22.35600 25.02000
C  -7.24900 23.42500 24.87900
C  -9.41400 21.30400 27.26300
C  -8.70200 21.42600 23.88700
O  -8.32700 21.55200 22.69600
C  -9.69100 20.32200 24.23100
N  -5.35000 25.84300 24.25800
C  -5.86000 24.98800 23.27500
C  -5.55600 25.48500 21.84700
C  -4.48700 26.65500 22.12100
C  -4.46000 26.70500 23.71600
C  -4.99700 24.52200 20.83800
C  -4.92500 28.09200 21.55500
C  -5.68100 28.16500 20.23100
N  -3.90100 26.62700 26.60800
C  -3.30500 27.49000 25.68200
C  -2.36300 28.34300 26.45400
C  -2.60000 28.04700 27.72900
C  -3.51100 26.98300 27.85500
C  -1.52700 29.50600 25.88000
C  -2.30000 28.56600 29.05900
O  -1.52000 29.40500 29.42600
C  -3.15400 27.74300 30.05400
C  -2.24900 26.94100 30.93000
O  -1.81200 25.82100 30.75000
O  -1.96300 27.63700 32.06800
C  -1.42900 26.86300 33.20100
H  -7.96600 22.80500 29.18300
H  -6.99900 23.35800 22.76600
H  -3.08700 28.22900 23.65400
H  -4.79100 25.51600 31.47200
H  -7.47800 24.36200 31.05400
H  -5.14000 23.34600 32.20700
H  -5.24600 22.51300 30.59900
H  -6.55100 22.44200 31.75000
H  -7.53800 26.95300 31.19000
H  -6.24000 27.86800 30.58700
H  -7.02700 27.93700 33.14300
H  -5.35800 28.18200 32.71800
H  -9.36100 21.59700 28.31200
H  -9.04700 20.31500 26.98800
H  -10.43400 21.30700 26.87900
H  -9.80700 19.74000 23.31600
H  -10.59400 20.65600 24.74200
H  -9.12100 19.65500 24.87800
H  -6.49800 25.90200 21.49000
H  -3.42900 26.45800 21.94700
H  -3.97300 24.66100 20.49100
H  -5.76400 24.44700 20.06800
H  -5.06800 23.56100 21.34700
H  -3.91800 28.48800 21.42100
H  -5.44600 28.69600 22.29800
H  -6.41800 28.94000 20.01900
H  -6.05900 27.23100 19.81600
H  -4.83500 28.33200 19.56400
H  -2.04900 29.81800 24.97500
H  -0.54400 29.15800 25.56500
H  -1.51700 30.29200 26.63500
H  -3.78200 28.42100 30.63200
H  -0.35800 27.00900 33.34700
H  -1.50300 25.77600 33.17300
H  -1.99100 27.19500 34.07400

