158

Mg -0.58300 7.59400 26.34600
C  0.11400 9.55200 29.09300
C  -0.77300 4.88800 28.57200
C  -1.04400 5.47000 23.70000
C  -0.37800 10.32900 24.21900
N  -0.27000 7.25200 28.54300
C  -0.15500 8.30300 29.42700
C  -0.33700 7.76500 30.91000
C  -0.57300 6.26900 30.73800
C  -0.56900 6.12300 29.21000
C  0.45800 5.35800 31.52200
C  -1.46400 8.45800 31.71800
C  -1.29100 8.76500 33.19100
H  -0.05700 8.19500 33.90200
N  -0.66300 5.45300 26.11400
C  -0.81200 4.57900 27.19300
C  -1.12300 3.22000 26.69800
C  -1.23000 3.34800 25.23500
C  -0.92900 4.82500 24.94700
C  -1.22600 1.99400 27.56700
C  -1.53300 2.29600 24.13600
O  -1.62200 2.61100 22.96600
C  -1.67600 0.85400 24.51000
N  -0.80400 7.85100 24.27800
C  -0.98800 6.81700 23.34100
C  -1.13700 7.42900 21.93200
C  -0.99700 8.96800 22.12500
C  -0.71200 9.08400 23.61000
C  -0.09400 6.85000 20.91200
C  -2.24900 9.83000 21.79800
C  -3.35400 10.01100 22.81100
N  -0.07700 9.53500 26.53400
C  -0.09600 10.55600 25.63000
C  0.26200 11.79100 26.30300
C  0.38700 11.43400 27.66100
C  0.15600 10.04900 27.76500
C  0.56500 13.11300 25.61300
C  0.72600 11.97400 29.02600
O  1.14900 13.07400 29.33600
C  0.45400 10.73200 29.95200
C  1.61000 10.62000 30.86900
O  2.72900 10.28900 30.55400
O  1.23800 11.37400 31.91700
C  2.32000 11.83100 32.79400
H  -0.93100 4.06100 29.26800
H  -1.23700 4.78900 22.86800
H  -0.39100 11.22900 23.60000
H  0.63100 7.94000 31.37900
H  -1.56500 6.11400 31.16100
H  -0.12700 4.59500 32.03500
H  1.10700 5.97800 32.14000
H  0.99400 4.87200 30.70700
H  -2.42100 7.93900 31.65100
H  -1.72900 9.37800 31.19600
H  -2.21400 8.38800 33.63200
H  -1.20800 9.83000 33.41100
H  -0.41100 1.29900 27.36600
H  -2.11700 1.43100 27.28800
H  -1.29400 2.20400 28.63400
H  -1.92200 0.28600 23.61300
H  -2.50300 0.76200 25.21500
H  -0.71200 0.56400 24.92700
H  -2.12000 7.20300 21.51900
H  -0.19300 9.50200 21.62000
H  -0.50700 6.17200 20.16500
H  0.60400 6.18500 21.42100
H  0.55400 7.58200 20.43000
H  -2.65100 9.38500 20.88800
H  -1.84700 10.76300 21.40300
H  -3.02200 10.16400 23.83800
H  -4.07500 9.20100 22.70000
H  -3.85800 10.94700 22.56700
H  0.97300 13.76500 26.38500
H  -0.43900 13.46300 25.37300
H  1.09400 12.92800 24.67800
H  -0.41900 10.97900 30.55600
H  3.14900 12.29900 32.26400
H  2.72100 10.97300 33.33400
H  1.89500 12.48500 33.55600
Mg 40.97500 10.02700 30.20600
C  43.07000 10.95100 32.69000
C  38.76500 8.69800 32.59200
C  38.92100 8.78800 27.76400
C  43.20200 11.07300 27.79800
N  40.95400 9.80000 32.43300
C  41.89100 10.35000 33.20000
C  41.35600 10.46100 34.65800
C  40.10200 9.53100 34.64300
C  39.87000 9.31400 33.15000
C  40.19500 8.08800 35.42100
C  41.11300 11.95900 35.10200
C  41.77100 12.32400 36.48200
H  40.89000 12.74000 37.68500
N  39.18900 8.81800 30.21700
C  38.50000 8.39200 31.31100
C  37.33700 7.68000 30.88500
C  37.28900 7.71400 29.43300
C  38.50000 8.44300 29.07500
C  36.36000 6.99900 31.87400
C  36.31000 7.06500 28.38400
O  36.49400 7.05600 27.12900
C  35.28600 6.05900 28.86100
N  41.18200 9.76200 27.98500
C  40.01400 9.43000 27.29200
C  40.31900 9.62800 25.79700
C  41.73700 10.29400 25.79800
C  42.00000 10.51100 27.25800
C  40.16700 8.44200 24.88000
C  42.03100 11.48200 24.80300
C  41.21400 12.72400 25.21100
N  42.86000 10.70800 30.24000
C  43.57400 11.15400 29.19200
C  44.79800 11.76600 29.69400
C  44.64500 11.74600 31.06300
C  43.45900 11.01400 31.35600
C  45.85700 12.28000 28.78400
C  45.20700 12.16100 32.25300
O  46.30100 12.73100 32.47600
C  44.18200 11.66800 33.46200
C  44.88700 10.81200 34.45100
O  44.91200 9.58600 34.61000
O  45.50600 11.67600 35.36400
C  46.04600 11.02600 36.60000
H  38.05100 8.40400 33.36400
H  38.31200 8.29200 27.00600
H  43.84300 11.53800 27.04700
H  42.17500 9.94900 35.16400
H  39.32600 10.14400 35.10300
H  40.71300 8.34600 36.34500
H  40.68200 7.27600 34.88100
H  39.19500 7.78200 35.72900
H  40.08000 12.28600 35.22700
H  41.50500 12.59100 34.30500
H  42.49900 13.11200 36.29100
H  42.40600 11.47600 36.73900
H  36.50100 7.15300 32.94300
H  36.19900 5.94600 31.63900
H  35.43100 7.48800 31.58100
H  34.48800 6.60000 29.37100
H  35.77400 5.37800 29.55700
H  34.92300 5.37900 28.09000
H  39.55200 10.33500 25.48100
H  42.42300 9.58200 25.34100
H  40.88700 8.37300 24.06400
H  39.14100 8.38700 24.51500
H  40.33400 7.59000 25.53800
H  41.71300 11.25700 23.78500
H  43.10400 11.66400 24.75800
H  40.62300 12.53900 26.10700
H  40.55100 13.13100 24.44800
H  41.85500 13.53600 25.55500
H  45.49000 13.15800 28.25100
H  46.15800 11.56000 28.02300
H  46.75300 12.40500 29.39200
H  43.80800 12.57300 33.94300
H  46.87900 10.38300 36.31600
H  45.28700 10.45900 37.13800
H  46.65700 11.64900 37.25300

