158

Mg -2.03300 16.91100 26.45400
C  -2.37000 14.56000 29.07300
C  -2.96800 19.31700 28.74000
C  -2.34200 19.05900 23.87700
C  -1.92900 14.25700 24.16900
N  -2.71900 16.90600 28.73400
C  -2.56700 15.86200 29.59000
C  -2.73400 16.24300 31.06300
C  -2.86300 17.80500 30.91200
C  -2.96300 18.03600 29.37600
C  -4.08600 18.42900 31.73600
C  -1.73900 15.74200 32.23700
C  -1.67000 16.59100 33.47800
H  -1.24900 15.98500 34.76400
N  -2.32000 18.90600 26.36400
C  -2.72000 19.72400 27.40400
C  -2.71400 21.06400 26.88600
C  -2.61500 21.02800 25.53500
C  -2.35700 19.64500 25.17800
C  -2.98700 22.26600 27.78900
C  -2.84600 22.20300 24.54400
O  -2.98000 22.03500 23.34800
C  -3.13800 23.64600 24.94900
N  -2.26800 16.67000 24.33100
C  -2.32300 17.73900 23.53400
C  -2.30700 17.27700 22.06000
C  -1.78700 15.84300 22.16900
C  -1.95900 15.55800 23.63100
C  -3.68100 17.45900 21.33700
C  -0.36800 15.57400 21.75700
C  0.87600 16.08800 22.50100
N  -2.15500 14.82500 26.49100
C  -2.03000 13.85700 25.48000
C  -2.10800 12.53800 26.03800
C  -2.18500 12.75400 27.40200
C  -2.23700 14.13700 27.65000
C  -2.11500 11.27000 25.15700
C  -2.34200 12.08600 28.68800
O  -2.41400 10.90200 28.98000
C  -2.49000 13.26700 29.79900
C  -1.39500 12.97200 30.80200
O  -0.24500 13.44200 30.81000
O  -1.87800 12.05300 31.72400
C  -1.10900 11.57000 32.85600
H  -3.12800 20.13600 29.44400
H  -2.35600 19.69400 22.98900
H  -1.69900 13.54400 23.37500
H  -3.68700 15.89800 31.46500
H  -1.94700 18.33400 31.17300
H  -4.46300 17.69200 32.44500
H  -4.89900 18.66500 31.04900
H  -3.76100 19.31600 32.27900
H  -0.71700 15.67200 31.86400
H  -2.15000 14.77400 32.52300
H  -2.69700 16.90700 33.65800
H  -1.03400 17.46300 33.32600
H  -2.74400 22.15200 28.84600
H  -4.03600 22.55700 27.73000
H  -2.33700 23.09800 27.51900
H  -2.41300 23.91900 25.71700
H  -4.08500 23.54000 25.47800
H  -3.17600 24.32300 24.09600
H  -1.52900 17.89000 21.60600
H  -2.37300 15.06600 21.68000
H  -4.20800 18.14100 22.00400
H  -4.32500 16.58200 21.39200
H  -3.61500 17.78100 20.29700
H  -0.15200 15.69700 20.69600
H  -0.23900 14.49200 21.77000
H  1.44200 16.73500 21.83100
H  1.59000 15.30100 22.74700
H  0.57300 16.58000 23.42400
H  -1.43400 11.34100 24.30800
H  -3.12700 10.91400 24.96200
H  -1.62400 10.49100 25.74000
H  -3.51300 13.17000 30.16300
H  -0.14800 12.05500 33.02400
H  -0.84200 10.52300 32.71300
H  -1.68600 11.66200 33.77600
Mg 0.54800 7.53000 25.26700
C  0.99600 9.40600 28.21000
C  1.19100 4.75600 27.21500
C  0.38300 5.74400 22.54300
C  0.74300 10.53100 23.43100
N  1.02600 7.15100 27.54200
C  0.96200 8.05500 28.52300
C  1.03800 7.36000 29.91300
C  1.29600 5.87700 29.55300
C  1.17000 5.93100 28.02300
C  2.63700 5.22500 30.05500
C  -0.24700 7.69200 30.71000
C  -0.14800 7.55100 32.25200
H  1.17700 7.01000 32.82700
N  0.37600 5.49700 24.96500
C  0.79500 4.57700 25.85100
C  0.51200 3.31900 25.17700
C  0.26600 3.59200 23.77500
C  0.37900 4.99400 23.69400
C  0.60300 1.97400 25.90400
C  -0.11900 2.62600 22.58500
O  -0.23500 2.96500 21.44300
C  -0.53700 1.20300 22.99300
N  0.72500 8.07200 23.22900
C  0.40700 7.14200 22.38400
C  0.32800 7.76300 20.98900
C  -0.01900 9.27000 21.38500
C  0.46200 9.32500 22.77800
C  1.49400 7.63900 20.03600
C  -1.47800 9.65300 21.26900
C  -1.82700 11.10000 20.70600
N  0.87800 9.61200 25.72000
C  0.98900 10.66400 24.85600
C  1.33800 11.87300 25.62600
C  1.40100 11.38500 26.95500
C  1.04300 10.05000 26.93600
C  1.35500 13.26100 25.07900
C  1.59600 11.83000 28.29800
O  1.93600 12.90700 28.72900
C  1.21400 10.59000 29.21900
C  2.44900 10.44200 30.16100
O  3.51700 9.85400 29.78800
O  2.24100 11.08300 31.32600
C  3.46800 11.03400 32.14300
H  1.45100 3.86100 27.78500
H  0.18000 5.26300 21.58400
H  0.81100 11.42000 22.80100
H  1.88900 7.85500 30.38200
H  0.52600 5.19400 29.91000
H  3.24900 5.99300 30.52700
H  3.21800 4.83900 29.21700
H  2.40500 4.32400 30.62400
H  -0.97300 6.96100 30.35600
H  -0.62400 8.67500 30.42500
H  -0.89200 6.83000 32.59200
H  -0.30000 8.47200 32.81300
H  1.09100 2.01900 26.87700
H  1.04800 1.20300 25.27500
H  -0.41900 1.65600 26.10900
H  0.34800 0.60400 23.20600
H  -0.95400 0.80300 22.06900
H  -1.28800 1.30500 23.77600
H  -0.51800 7.30000 20.48100
H  0.52500 9.86900 20.65400
H  2.26000 7.12900 20.62000
H  2.02700 8.56900 19.83900
H  1.18300 7.16000 19.10800
H  -2.03200 9.59100 22.20500
H  -1.98200 8.92100 20.63800
H  -2.17500 10.96200 19.68200
H  -0.95000 11.73500 20.83200
H  -2.66000 11.42200 21.33000
H  0.56000 13.26300 24.33300
H  2.31900 13.43000 24.59900
H  1.33900 13.92500 25.94300
H  0.29600 10.82100 29.76000
H  3.38000 11.73400 32.97300
H  4.36000 11.25600 31.55800
H  3.49400 10.02700 32.55900

