158

Mg 8.96300 3.18700 27.20500
C  10.17700 1.65300 30.08300
C  7.29800 5.42900 29.22600
C  7.77700 4.52600 24.43900
C  10.56300 0.69600 25.34500
N  8.67200 3.40200 29.51300
C  9.31800 2.73000 30.49700
C  9.05000 3.34600 31.90300
C  8.02700 4.49300 31.54800
C  7.98700 4.43300 30.01300
C  6.69500 4.51100 32.20300
C  10.44600 3.79900 32.50300
C  10.54700 4.58800 33.81800
H  11.22100 4.00200 35.03600
N  7.80800 4.82100 26.82700
C  7.14900 5.58300 27.80200
C  6.42500 6.56200 27.11600
C  6.62200 6.32500 25.73600
C  7.45900 5.20000 25.59000
C  5.80000 7.72600 27.77000
C  6.02700 7.20200 24.61400
O  6.20500 7.00400 23.42200
C  4.86600 8.16300 24.93700
N  9.21100 2.69400 25.15100
C  8.58300 3.41200 24.15000
C  8.74000 2.79800 22.74000
C  9.72700 1.63000 23.10100
C  9.84400 1.63900 24.62800
C  7.44000 2.22200 22.05600
C  11.11500 1.93100 22.51500
C  11.37100 1.70700 20.95400
N  10.00200 1.39300 27.59700
C  10.66500 0.53600 26.74800
C  11.40100 -0.40400 27.50700
C  11.12100 -0.08600 28.85800
C  10.31900 1.09300 28.85600
C  12.24200 -1.58400 27.03900
C  11.37100 -0.50200 30.16500
O  12.08700 -1.41800 30.59100
C  10.86700 0.68100 31.07100
C  10.03400 0.08500 32.12500
O  8.96600 -0.38900 32.08200
O  10.82300 0.06900 33.20600
C  10.07000 0.17500 34.44500
H  6.75300 6.20000 29.77500
H  7.29400 5.06100 23.61800
H  11.10000 -0.02000 24.71900
H  8.58500 2.51300 32.43000
H  8.49800 5.44600 31.79000
H  5.99000 5.03700 31.55900
H  6.79400 5.10400 33.11200
H  6.33400 3.56400 32.60400
H  10.86500 4.31200 31.63800
H  10.96300 2.84800 32.63700
H  9.52300 4.70800 34.17000
H  10.95000 5.58000 33.61600
H  6.26200 7.86700 28.74700
H  4.75900 7.45200 27.93900
H  5.93300 8.67200 27.24400
H  4.40200 8.32600 23.96500
H  5.50400 9.01700 25.16400
H  4.21500 7.87200 25.76200
H  9.17700 3.59100 22.13300
H  9.42200 0.65300 22.72500
H  7.25500 2.75600 21.12400
H  6.62300 2.29000 22.77400
H  7.51100 1.15200 21.86400
H  11.83200 1.37600 23.12100
H  11.35100 2.97200 22.73800
H  11.61300 2.62300 20.41500
H  10.51000 1.43000 20.34400
H  12.15300 0.97900 20.73800
H  13.04900 -1.86600 27.71600
H  12.56100 -1.25200 26.05100
H  11.53700 -2.41400 27.02400
H  11.75100 1.16000 31.49200
H  9.70100 1.20100 34.46300
H  10.62500 0.09400 35.38000
H  9.17800 -0.44700 34.52400
Mg 8.65800 48.46200 24.72700
C  6.66100 48.70600 27.38900
C  11.28600 49.83200 26.47600
C  10.51400 48.35800 21.94900
C  5.82000 47.90200 22.68900
N  8.97800 49.05700 26.69000
C  7.97400 49.08800 27.65300
C  8.53300 49.59900 28.94500
C  9.77800 50.28900 28.46000
C  10.06600 49.62700 27.12400
C  9.54600 51.81900 28.28000
C  8.94300 48.42100 29.87400
C  9.00900 48.65900 31.32200
H  8.40900 47.60500 32.23800
N  10.69200 48.77300 24.34100
C  11.60800 49.31400 25.22600
C  12.91900 49.25700 24.68400
C  12.77800 48.82900 23.26700
C  11.30200 48.57700 23.13400
C  14.16700 49.66400 25.52600
C  13.82000 48.61400 22.13700
O  13.46600 48.33900 20.95000
C  15.33200 48.78800 22.44800
N  8.14600 48.29000 22.54700
C  9.12200 48.34700 21.65700
C  8.60400 48.07700 20.23800
C  7.14100 47.62600 20.59900
C  7.00200 48.00200 21.97600
C  8.70200 49.27900 19.25600
C  6.81100 46.11800 20.29600
C  5.44000 45.97600 19.68100
N  6.60600 48.24700 24.94300
C  5.63100 48.02100 24.06300
C  4.34400 47.99200 24.76100
C  4.71700 48.19800 26.12400
C  6.08500 48.33600 26.15700
C  3.02400 47.89300 24.14200
C  4.28200 48.22100 27.44600
O  3.21200 47.87200 27.96700
C  5.45300 48.80500 28.33900
C  5.45000 48.07200 29.69900
O  5.54000 46.85100 29.85500
O  5.19500 49.03000 30.61300
C  4.91500 48.51400 32.00700
H  12.11500 50.30500 27.00600
H  11.02200 48.44500 20.98600
H  4.95800 47.78700 22.02700
H  7.85600 50.30200 29.42900
H  10.65900 50.19300 29.09500
H  8.53200 52.10100 27.99600
H  10.24600 52.10100 27.49300
H  9.67600 52.18400 29.29900
H  9.91600 47.99400 29.63400
H  8.25300 47.61000 29.64100
H  8.56200 49.61800 31.58300
H  10.04900 48.76200 31.63200
H  13.89300 49.77400 26.57500
H  14.50400 50.66900 25.27000
H  14.97700 48.93400 25.50000
H  15.89000 48.27100 21.66700
H  15.50500 48.36800 23.43900
H  15.48900 49.86500 22.50200
H  9.19300 47.25600 19.82900
H  6.37000 48.04100 19.95000
H  9.14600 50.11000 19.80400
H  7.67400 49.41900 18.92200
H  9.27800 49.00600 18.37200
H  6.86000 45.52300 21.20800
H  7.58600 45.73300 19.63300
H  5.27700 44.90000 19.61600
H  5.41100 46.43100 18.69100
H  4.61600 46.32300 20.30500
H  2.28800 47.61900 24.89700
H  3.12400 47.04700 23.46300
H  2.70700 48.79800 23.62400
H  5.33700 49.87400 28.51200
H  4.87100 49.32700 32.73100
H  5.67800 47.82100 32.36300
H  3.99400 47.93300 31.95100

