158

Mg 24.69000 -5.22700 46.18300
C  26.63400 -2.80200 44.58200
C  22.05000 -4.55500 44.23600
C  23.42000 -8.27300 46.97200
C  27.72700 -6.32400 47.79800
N  24.51400 -3.95600 44.50600
C  25.35400 -2.98200 44.06300
C  24.67000 -2.03400 42.96500
C  23.14400 -2.44200 43.16700
C  23.21400 -3.71100 43.99500
C  22.30000 -1.27300 43.68500
C  25.27500 -2.49400 41.63400
C  25.68500 -1.29700 40.72900
H  25.13300 -1.26200 39.27900
N  22.91300 -6.15800 45.81500
C  21.92000 -5.72400 45.02300
C  20.78500 -6.58900 45.05600
C  21.18300 -7.66300 45.81600
C  22.56700 -7.40700 46.29200
C  19.55000 -6.30900 44.26600
C  20.28000 -8.75300 46.29100
O  19.13900 -8.81000 45.84300
C  20.67200 -9.92300 47.24700
N  25.39900 -7.02600 47.45000
C  24.71700 -8.14400 47.44900
C  25.49900 -9.27500 48.12100
C  26.89700 -8.69100 48.48900
C  26.67200 -7.24500 47.87400
C  24.83100 -10.02000 49.32200
C  28.21600 -9.43900 47.87500
C  28.20700 -10.98800 47.86500
N  26.69200 -4.57500 46.37100
C  27.77400 -5.11600 47.04300
C  28.96800 -4.25600 46.81100
C  28.55800 -3.34800 45.83000
C  27.18400 -3.59100 45.53800
C  30.28100 -4.33300 47.44400
C  28.98600 -2.36500 45.00100
O  30.09600 -1.95100 44.83100
C  27.79200 -1.87900 44.12600
C  27.45100 -0.47500 44.34100
O  27.03600 -0.11900 45.43700
O  27.79100 0.30100 43.25200
C  27.88400 1.74400 43.40100
H  21.19400 -4.28100 43.61700
H  23.17000 -9.33400 47.02500
H  28.66200 -6.68600 48.23000
H  24.76700 -0.99600 43.28400
H  22.67300 -2.73600 42.23000
H  22.87300 -0.44700 44.10700
H  21.56100 -1.48700 44.45700
H  21.63100 -0.96700 42.88100
H  24.55400 -3.10300 41.08900
H  26.18900 -3.02900 41.89400
H  26.77100 -1.20700 40.74500
H  25.21000 -0.40000 41.12700
H  19.01400 -7.23100 44.04100
H  19.74800 -5.72500 43.36700
H  18.73700 -5.84800 44.82600
H  19.75600 -10.49100 47.41100
H  21.03300 -9.54700 48.20500
H  21.38800 -10.65100 46.86500
H  25.68700 -9.94700 47.28400
H  26.97000 -8.52200 49.56300
H  24.87900 -11.07200 49.04100
H  23.79900 -9.67900 49.41300
H  25.32300 -9.93500 50.29100
H  29.07300 -9.15600 48.48500
H  28.38800 -9.20300 46.82500
H  28.78400 -11.49700 48.63700
H  28.66300 -11.29600 46.92400
H  27.15600 -11.26400 47.95600
H  30.79400 -5.24400 47.13600
H  30.25400 -4.47100 48.52500
H  30.88400 -3.44900 47.23300
H  28.01700 -1.92100 43.06100
H  27.86900 2.05100 44.44700
H  27.06600 2.26900 42.90900
H  28.85200 2.08700 43.03500
Mg 40.47700 9.67600 29.68600
C  42.29600 10.62600 32.41100
C  38.05200 8.37400 31.80300
C  38.68800 8.40400 26.99000
C  43.17300 10.54300 27.58200
N  40.24900 9.52900 31.79900
C  41.08600 10.09400 32.72600
C  40.37300 10.10800 34.05300
C  39.01500 9.27600 33.94100
C  39.09400 9.01800 32.42800
C  38.88500 8.00300 34.73100
C  40.29300 11.60400 34.64900
C  39.56600 11.77100 35.92700
H  40.17200 12.62100 37.09600
N  38.55200 8.64300 29.43700
C  37.71600 8.22900 30.40900
C  36.51000 7.59200 29.83600
C  36.64200 7.68000 28.40000
C  38.01300 8.25200 28.22400
C  35.45300 6.91000 30.69000
C  35.64000 7.32700 27.36100
O  35.82400 7.38700 26.12300
C  34.18000 6.96900 27.75700
N  40.82900 9.45900 27.72600
C  39.94900 8.95600 26.73900
C  40.55200 9.12100 25.35300
C  41.84000 9.89500 25.57400
C  41.99100 9.97300 27.06000
C  40.56900 7.82000 24.50800
C  42.11500 11.21100 24.77200
C  41.46500 12.48900 25.33000
N  42.37400 10.45600 29.89500
C  43.34700 10.72800 28.97700
C  44.53500 11.20900 29.66800
C  44.11700 11.31600 31.02300
C  42.85200 10.71200 31.13200
C  45.84700 11.74200 29.09400
C  44.43100 11.72300 32.34000
O  45.49400 12.23300 32.69500
C  43.34600 11.38000 33.30200
C  43.77900 10.54000 34.42500
O  44.21700 9.42100 34.29200
O  43.97700 11.28500 35.57800
C  44.67600 10.65400 36.69200
H  37.24900 8.01500 32.45000
H  38.11600 7.97100 26.16600
H  43.96900 10.84600 26.89900
H  41.08300 9.69700 34.77000
H  38.14700 9.91000 34.11800
H  39.02800 7.16000 34.05500
H  37.93400 7.94800 35.26100
H  39.72200 7.90200 35.42200
H  39.67100 12.25500 34.03400
H  41.25300 12.03600 34.93000
H  39.36000 10.75800 36.27200
H  38.59200 12.22000 35.73400
H  35.27600 5.87000 30.41400
H  34.58800 7.57300 30.69900
H  35.71100 6.87600 31.74900
H  34.23500 5.99300 28.24000
H  33.68100 6.94000 26.78800
H  33.84000 7.79400 28.38200
H  39.93000 9.90900 24.92800
H  42.59000 9.19500 25.20600
H  40.11500 7.03500 25.11300
H  41.58300 7.49700 24.27200
H  40.06800 7.83800 23.54000
H  41.90200 11.02500 23.71900
H  43.17600 11.41300 24.91300
H  40.76800 12.32200 26.15100
H  41.00000 13.14900 24.59700
H  42.24800 13.07500 25.81200
H  46.67000 11.59300 29.79400
H  45.81200 12.75800 28.70200
H  46.06100 11.11100 28.23100
H  42.95100 12.29900 33.73400
H  44.93700 9.60900 36.52700
H  43.98800 10.92200 37.49400
H  45.52800 11.28000 36.95900

