158

Mg 44.56900 4.13300 46.43800
C  42.31100 6.75100 46.54800
C  41.87600 1.89600 45.89800
C  46.78700 1.60700 45.56800
C  47.14100 6.40400 46.10500
N  42.38800 4.33600 46.24000
C  41.66600 5.52300 46.31300
C  40.17500 5.23700 46.36200
C  40.00700 3.67400 46.13900
C  41.51100 3.26100 46.15000
C  39.12000 2.88500 47.24300
C  39.36900 6.08100 45.39700
C  39.33100 5.85000 43.89500
H  39.51200 7.03700 42.90000
N  44.36200 2.02500 45.98700
C  43.18100 1.35800 45.86400
C  43.43300 -0.02000 45.44400
C  44.85200 -0.15800 45.47000
C  45.46400 1.18000 45.65900
C  42.34100 -1.02000 45.11800
C  45.60200 -1.43500 45.19100
O  45.08400 -2.54600 44.98000
C  47.16800 -1.53700 45.14800
N  46.74400 3.99600 45.88800
C  47.39100 2.79500 45.78700
C  48.88800 2.98600 45.53100
C  48.96600 4.58800 45.41500
C  47.58700 5.05000 45.90900
C  49.85700 2.28700 46.55300
C  49.09300 5.17400 43.98500
C  50.54500 5.25400 43.57500
N  44.73100 6.12800 46.31100
C  45.83900 6.89700 46.39500
C  45.55300 8.27600 46.69700
C  44.15900 8.24800 46.79500
C  43.71600 6.96100 46.46200
C  46.45800 9.44100 46.77300
C  42.99100 9.02100 47.25900
O  42.93900 10.18000 47.61000
C  41.71600 8.12200 46.94500
C  40.85000 8.09400 48.07000
O  40.95500 7.41700 49.10700
O  39.76600 8.85200 47.76800
C  38.56900 8.65200 48.66000
H  41.02100 1.21900 45.84700
H  47.45600 0.81800 45.21900
H  47.93200 7.15400 46.17700
H  39.82000 5.53000 47.35000
H  39.47900 3.40700 45.22400
H  38.24000 2.33800 46.90500
H  38.75200 3.69100 47.87800
H  39.81000 2.32400 47.87400
H  39.55900 7.15200 45.46600
H  38.33200 6.20300 45.71100
H  38.34400 5.46500 43.64000
H  40.09500 5.10800 43.66200
H  42.67400 -1.73900 44.37000
H  41.37900 -0.59400 44.83300
H  42.08300 -1.54800 46.03600
H  47.69100 -1.25700 46.06200
H  47.62200 -1.00900 44.31000
H  47.50100 -2.57200 45.06300
H  49.06300 2.59500 44.52900
H  49.81600 4.83000 46.05300
H  50.62300 1.90000 45.88000
H  49.39700 1.48400 47.12900
H  50.40100 3.05100 47.10700
H  48.67600 6.17600 43.88200
H  48.60000 4.64400 43.17000
H  51.16700 4.95600 44.41900
H  50.78500 6.27200 43.26800
H  50.73400 4.48900 42.82200
H  47.25200 9.44800 46.02600
H  46.83100 9.37200 47.79500
H  45.96600 10.38900 46.55500
H  41.19800 8.61300 46.12100
H  37.71200 8.68000 47.98800
H  38.40200 9.47900 49.35000
H  38.52600 7.72200 49.22700
Mg 46.53500 26.02100 29.03500
C  47.65400 27.77600 31.92900
C  45.25000 23.66600 31.22700
C  45.94100 24.06600 26.50800
C  48.65300 28.06500 27.12600
N  46.47000 25.77800 31.30200
C  46.91900 26.63800 32.24400
C  46.55700 26.13300 33.58000
C  45.72200 24.86600 33.38300
C  45.90000 24.69000 31.90100
C  46.16200 23.65600 34.18000
C  45.86900 27.29300 34.47300
C  46.51900 27.50900 35.82400
H  45.82300 28.21500 37.03800
N  45.56600 24.20700 28.91500
C  45.00100 23.44200 29.89500
C  44.33100 22.26000 29.21200
C  44.50100 22.43700 27.83700
C  45.38300 23.58800 27.67900
C  43.73600 21.12200 30.00000
C  44.12700 21.59800 26.59800
O  44.35600 21.86600 25.40000
C  43.39000 20.34200 26.91500
N  47.35900 25.98000 27.07500
C  46.84600 25.11900 26.19900
C  47.41600 25.39500 24.77000
C  48.07500 26.88600 24.94500
C  48.04200 27.05200 26.48100
C  48.26000 24.19800 24.27100
C  47.22500 27.96600 24.24900
C  47.01900 27.69800 22.74700
N  47.82700 27.61700 29.41000
C  48.56400 28.40000 28.47500
C  49.14300 29.53900 29.16200
C  48.88200 29.29600 30.56900
C  48.05300 28.15000 30.60900
C  50.07000 30.52400 28.53800
C  49.12800 29.72500 31.87200
O  49.94100 30.58800 32.21500
C  48.43100 28.78700 32.80500
C  49.52700 28.09800 33.42100
O  49.96200 27.08100 32.90500
O  49.85300 28.55700 34.65300
C  50.77400 27.70900 35.35000
H  44.97700 22.75700 31.76700
H  45.67700 23.64400 25.53700
H  48.87600 28.75700 26.31100
H  47.54700 25.95300 33.99900
H  44.68700 25.03600 33.67900
H  47.15400 23.53200 33.74700
H  45.56200 22.76600 33.99000
H  46.43600 23.81100 35.22300
H  44.87900 26.91100 34.72300
H  45.74600 28.24100 33.95000
H  47.49600 27.97200 35.68500
H  46.75900 26.50800 36.18200
H  42.66700 21.30600 29.89500
H  43.91700 21.07300 31.07400
H  43.92000 20.10800 29.64600
H  43.90300 19.56000 27.47500
H  43.06900 19.86100 25.99100
H  42.55600 20.70500 27.51500
H  46.54200 25.39300 24.11800
H  49.07900 27.04300 24.55100
H  48.19000 23.22300 24.75300
H  49.28800 24.49700 24.48000
H  48.20500 24.16300 23.18300
H  47.80600 28.88300 24.34900
H  46.26400 28.07700 24.75200
H  47.52100 26.79200 22.40500
H  47.50300 28.46600 22.14300
H  45.95800 27.82400 22.53300
H  50.06800 31.55700 28.88700
H  49.63100 30.55400 27.54100
H  51.05900 30.14900 28.27400
H  47.90800 29.33000 33.59200
H  50.42300 26.86200 35.94100
H  51.33500 28.36600 36.01400
H  51.46900 27.36700 34.58400

