158

Mg 36.29500 49.53400 24.65700
C  36.46400 48.02200 27.81300
C  35.46700 52.56000 26.34500
C  36.02800 50.98900 21.64800
C  36.94900 46.38300 23.14300
N  35.91600 50.18000 26.81300
C  36.10300 49.38900 27.94200
C  35.73400 50.18500 29.19900
C  35.50800 51.64900 28.70400
C  35.63100 51.45200 27.16300
C  34.25500 52.36000 29.17700
C  36.64700 50.02600 30.49700
C  35.96000 49.65500 31.84700
H  34.43400 49.98400 32.05300
N  35.78600 51.51100 24.04400
C  35.54400 52.56600 24.87400
C  35.28100 53.70900 23.95100
C  35.37200 53.22200 22.62600
C  35.76900 51.84700 22.71000
C  35.00800 55.09700 24.48200
C  35.31500 54.10500 21.42100
O  35.44800 53.63100 20.31500
C  35.18700 55.59800 21.47500
N  36.44600 48.81600 22.65900
C  36.24900 49.63800 21.61700
C  36.38200 48.78800 20.30500
C  36.82300 47.34600 20.77000
C  36.80600 47.53600 22.25800
C  35.11500 48.74500 19.45400
C  38.29100 47.03100 20.37100
C  38.48600 45.58200 19.80500
N  36.65100 47.69300 25.24500
C  36.85200 46.47400 24.52700
C  36.92700 45.40500 25.41700
C  36.81100 45.99700 26.69400
C  36.64100 47.39100 26.55000
C  37.06200 43.92900 25.13500
C  36.83800 45.66000 28.12100
O  37.03800 44.62700 28.70300
C  36.44800 46.93300 28.85700
C  35.13800 46.77600 29.50700
O  34.07100 47.21500 29.14600
O  35.27800 45.96200 30.61500
C  34.08700 45.54400 31.27800
H  35.28000 53.49400 26.88000
H  35.91100 51.37900 20.63500
H  37.13300 45.37400 22.76800
H  34.74300 49.83700 29.49200
H  36.34300 52.30800 28.94400
H  33.54400 52.40300 28.35200
H  34.60900 53.30200 29.59500
H  33.81500 51.69000 29.91600
H  37.40900 50.80600 30.51100
H  37.23200 49.14200 30.24400
H  36.40900 50.21100 32.67000
H  36.14900 48.61600 32.11600
H  33.98900 55.28100 24.14100
H  35.73900 55.81200 24.10400
H  34.98900 55.07700 25.57100
H  34.33500 55.94900 22.05700
H  35.00800 55.96200 20.46300
H  36.02400 56.14800 21.90500
H  37.14000 49.30600 19.71600
H  36.12300 46.58800 20.41700
H  34.48200 47.92000 19.77900
H  35.62900 48.48300 18.52900
H  34.69200 49.74100 19.31900
H  38.81500 47.19100 21.31400
H  38.76500 47.73100 19.68300
H  37.62600 44.93200 19.97000
H  39.26600 45.08000 20.37700
H  38.71100 45.58100 18.73900
H  37.86900 43.68000 24.44600
H  36.17200 43.45600 24.72100
H  37.23100 43.36600 26.05300
H  37.17300 47.17800 29.63400
H  33.99100 46.19500 32.14700
H  34.25500 44.55400 31.70400
H  33.16200 45.63600 30.70900
Mg -1.79600 34.34700 26.83200
C  -3.22500 32.51300 29.57300
C  -0.31400 36.34600 29.04400
C  -0.84400 36.13600 24.13400
C  -3.54500 32.14300 24.72900
N  -1.80300 34.29700 29.06700
C  -2.38700 33.55000 29.98700
C  -2.06100 33.96300 31.46600
C  -1.10700 35.22400 31.19700
C  -1.06100 35.29700 29.63600
C  -1.47000 36.59700 31.91500
C  -1.43000 32.89400 32.29300
C  -2.23000 32.51400 33.62300
H  -1.45600 32.22600 34.88700
N  -0.66900 35.98400 26.70800
C  -0.06500 36.69300 27.70000
C  0.71500 37.68300 27.14600
C  0.53800 37.69900 25.73800
C  -0.45700 36.63100 25.45300
C  1.48300 38.69000 28.05300
C  1.13100 38.63600 24.67000
O  0.74700 38.70700 23.47200
C  2.24000 39.54200 25.00800
N  -2.19200 34.20300 24.73300
C  -1.62400 35.03700 23.78700
C  -1.94800 34.59800 22.34300
C  -2.52100 33.17900 22.63300
C  -2.73200 33.10300 24.14900
C  -3.03700 35.53300 21.71900
C  -1.59200 32.06200 22.02900
C  -0.12300 32.02100 22.59600
N  -3.06900 32.71100 27.02500
C  -3.75200 31.99400 26.05300
C  -4.63300 31.03300 26.66700
C  -4.39400 31.18900 28.02000
C  -3.45000 32.20500 28.23900
C  -5.55700 30.00500 26.13900
C  -4.78000 30.68200 29.38800
O  -5.59000 29.82500 29.70900
C  -4.04600 31.51700 30.46000
C  -5.09800 32.08500 31.33000
O  -5.68000 33.12000 31.10700
O  -5.36100 31.25800 32.43800
C  -6.48600 31.72700 33.28200
H  0.24800 36.89900 29.80000
H  -0.46600 36.66700 23.25800
H  -4.02700 31.38800 24.10400
H  -3.02700 34.27300 31.86500
H  -0.08200 35.12100 31.55200
H  -2.04300 37.18200 31.19600
H  -0.64100 37.17600 32.32200
H  -2.19500 36.45600 32.71600
H  -0.51100 33.21300 32.78500
H  -1.31300 32.02400 31.64700
H  -2.58700 31.50100 33.44100
H  -3.11600 33.11800 33.81700
H  0.79100 38.72500 28.89500
H  1.74800 39.66800 27.65100
H  2.39100 38.13800 28.29800
H  1.89200 40.21800 25.78800
H  2.48200 40.19500 24.17000
H  3.06000 39.01800 25.50000
H  -0.99400 34.62200 21.81600
H  -3.48400 32.98700 22.16100
H  -3.28400 36.26100 22.49200
H  -3.90500 34.98200 21.35500
H  -2.74800 36.04400 20.80100
H  -1.49500 32.25700 20.96100
H  -2.00900 31.07200 22.21000
H  0.03200 32.70800 23.42900
H  0.66500 32.09200 21.84700
H  0.07400 31.04000 23.02800
H  -5.36400 29.00100 26.51700
H  -5.46700 30.00600 25.05200
H  -6.54500 30.34900 26.44700
H  -3.36800 30.88200 31.03100
H  -7.21800 32.23000 32.65000
H  -6.00400 32.44300 33.94800
H  -6.88000 30.98500 33.97600

