158

Mg 26.08200 -0.75500 29.13800
C  27.81900 -0.92400 32.26500
C  23.17000 -0.56000 30.76900
C  24.56500 -0.68700 26.14000
C  29.12900 -1.57000 27.56200
N  25.57700 -0.78500 31.29600
C  26.45100 -0.61500 32.34400
C  25.69500 -0.25200 33.65900
C  24.20000 -0.22200 33.13900
C  24.28300 -0.51800 31.61200
C  23.27400 -1.23500 33.84200
C  26.29800 1.06600 34.37700
C  27.26200 0.81700 35.56200
H  27.19000 1.74000 36.84400
N  24.14400 -0.67300 28.54800
C  23.06300 -0.58900 29.33900
C  21.81700 -0.59200 28.55800
C  22.24600 -0.63200 27.23600
C  23.71800 -0.61400 27.24600
C  20.41100 -0.54200 29.22900
C  21.32000 -0.47800 26.04200
O  21.62900 -0.42700 24.85400
C  19.85600 -0.43600 26.25100
N  26.75800 -1.08400 27.16600
C  25.90700 -0.91800 26.08900
C  26.69300 -0.90700 24.77500
C  28.15700 -1.01500 25.25700
C  28.02200 -1.26400 26.75600
C  26.22500 -1.95200 23.74800
C  29.10300 0.08900 24.81800
C  28.85700 1.56300 25.08900
N  28.06100 -1.18600 29.73900
C  29.14200 -1.54400 28.97500
C  30.27600 -1.65500 29.79000
C  29.81300 -1.53000 31.07900
C  28.42800 -1.19400 31.04500
C  31.69300 -1.87000 29.23600
C  30.26900 -1.48500 32.40500
O  31.38200 -1.57300 32.91600
C  29.01800 -1.01900 33.29800
C  28.82600 -2.14600 34.28700
O  28.11200 -3.14200 34.11700
O  29.40200 -1.81300 35.50100
C  28.87200 -2.58500 36.58400
H  22.24400 -0.29600 31.28400
H  23.97600 -0.69600 25.22000
H  30.03500 -1.87200 27.03100
H  25.82000 -1.10600 34.32500
H  23.83300 0.80200 33.21100
H  22.39500 -1.38000 33.21400
H  23.00000 -0.77700 34.79200
H  23.82500 -2.17400 33.79500
H  25.61000 1.90000 34.51200
H  26.84400 1.59100 33.59200
H  28.25500 1.17000 35.28100
H  27.20500 -0.22600 35.87200
H  19.76500 0.28300 28.92800
H  20.35300 -0.56300 30.31800
H  19.91400 -1.48900 29.02200
H  19.50800 -1.20300 26.94200
H  19.39100 -0.70200 25.30100
H  19.61700 0.59400 26.51600
H  26.43500 0.11700 24.50300
H  28.64600 -1.85000 24.75500
H  25.51800 -2.68300 24.14000
H  27.08500 -2.50900 23.37500
H  25.77000 -1.41700 22.91400
H  29.17200 -0.02600 23.73600
H  30.03800 -0.22700 25.28200
H  28.14900 1.81600 25.87800
H  28.63100 2.15400 24.20100
H  29.82700 1.94300 25.40700
H  31.55300 -1.49500 28.22300
H  31.82600 -2.94500 29.11200
H  32.43100 -1.35100 29.84700
H  29.15100 -0.01400 33.69900
H  27.84500 -2.92700 36.46000
H  29.07900 -1.99000 37.47400
H  29.50900 -3.46900 36.61000
Mg -9.97300 40.25700 42.59400
C  -9.05000 37.03600 41.71600
C  -7.18200 41.53900 41.14900
C  -11.52700 43.13800 42.31800
C  -13.21400 38.78300 43.31500
N  -8.27800 39.30700 41.61600
C  -8.07600 38.02300 41.33000
C  -6.66400 37.78400 40.70200
C  -6.08700 39.25500 40.69300
C  -7.20000 40.10300 41.20400
C  -4.78600 39.41700 41.42700
C  -6.73100 37.20100 39.18900
C  -5.61800 36.24300 38.74600
H  -4.56100 36.67500 37.67400
N  -9.35600 42.08500 42.05700
C  -8.13200 42.43000 41.57100
C  -8.02900 43.86600 41.48600
C  -9.28400 44.40400 41.69500
C  -10.13100 43.19400 42.05100
C  -6.75700 44.54100 40.96700
C  -9.62100 45.88100 41.64500
O  -8.80500 46.72600 41.29600
C  -10.91700 46.51300 42.03900
N  -12.05000 40.88700 42.96500
C  -12.40800 42.13500 42.63400
C  -13.91800 42.43100 42.70300
C  -14.50900 41.03200 43.21300
C  -13.20000 40.18000 43.13300
C  -14.31600 43.53200 43.72600
C  -15.59600 40.45700 42.33700
C  -16.85000 39.90800 43.06200
N  -10.98600 38.25700 42.68500
C  -12.28200 37.83400 42.90800
C  -12.38200 36.34400 42.92600
C  -11.09800 36.03400 42.49500
C  -10.31000 37.17500 42.30800
C  -13.54100 35.48400 43.27300
C  -10.18400 34.95300 42.17800
O  -10.35900 33.74100 42.25800
C  -8.95500 35.56100 41.58100
C  -7.83300 35.01000 42.29200
O  -7.52800 35.24500 43.44700
O  -7.24500 34.18000 41.39800
C  -6.25500 33.34700 41.99700
H  -6.29400 41.84900 40.59500
H  -12.04700 44.07000 42.08700
H  -14.21200 38.49300 43.65000
H  -5.96500 37.15600 41.25500
H  -5.79800 39.60600 39.70300
H  -4.12300 38.57400 41.23100
H  -4.98100 39.46900 42.49800
H  -4.24800 40.26100 40.99500
H  -6.68300 37.99300 38.44200
H  -7.62200 36.63300 38.92000
H  -6.18000 35.38000 38.39000
H  -5.03800 36.04600 39.64700
H  -6.88200 44.72100 39.90000
H  -5.98000 43.78900 41.10300
H  -6.51300 45.46400 41.49400
H  -11.64500 46.07100 41.35900
H  -10.87900 47.58000 41.82000
H  -11.12700 46.32400 43.09200
H  -14.20900 42.64200 41.67400
H  -14.79500 41.07000 44.26400
H  -14.77900 43.02900 44.57500
H  -15.06700 44.21200 43.32200
H  -13.45600 44.10500 44.07100
H  -15.31000 39.65800 41.65400
H  -15.93500 41.33400 41.78600
H  -16.97100 38.84700 42.84200
H  -17.69000 40.49500 42.69000
H  -16.87700 40.13900 44.12700
H  -14.32200 36.04800 43.78200
H  -13.27600 34.63200 43.89900
H  -14.00600 35.11100 42.36000
H  -8.88900 35.24100 40.54200
H  -6.39800 33.00800 43.02300
H  -5.28000 33.78800 41.79400
H  -6.25200 32.45600 41.36800

