158

Mg 25.30900 1.06900 30.40300
C  27.23500 1.06700 33.25800
C  22.46000 1.49500 32.34000
C  23.36000 1.10600 27.59300
C  28.00200 0.56800 28.47600
N  24.86600 1.27500 32.57200
C  25.88500 1.38800 33.48200
C  25.27600 1.77800 34.90700
C  23.73400 1.78800 34.59800
C  23.65400 1.48200 33.14400
C  22.83200 0.99500 35.62000
C  25.93000 3.08800 35.57600
C  26.56600 2.90000 36.94400
H  26.35900 4.00800 37.98500
N  23.25400 1.18300 30.08700
C  22.27000 1.38300 30.99600
C  21.02000 1.49500 30.32000
C  21.26100 1.47100 28.99000
C  22.68900 1.32100 28.83500
C  19.70800 1.62500 31.07700
C  20.26100 1.50400 27.83800
O  20.52500 1.34200 26.65100
C  18.81800 2.00700 28.12200
N  25.61500 0.90600 28.32600
C  24.71000 0.89800 27.35700
C  25.34200 0.77300 25.95700
C  26.86500 0.84400 26.30000
C  26.85400 0.73600 27.79000
C  24.86900 -0.59800 25.25500
C  27.63700 2.08400 25.72700
C  26.99600 3.40100 26.05300
N  27.26500 0.87300 30.72500
C  28.27600 0.59200 29.85200
C  29.53700 0.47400 30.60800
C  29.13700 0.68000 31.94000
C  27.75500 0.91300 31.96000
C  30.87000 0.19300 30.11200
C  29.68700 0.79500 33.27800
O  30.84300 0.72900 33.70700
C  28.45100 1.03600 34.23400
C  28.42400 -0.10700 35.17200
O  27.91300 -1.19000 34.93100
O  28.95000 0.25900 36.42500
C  28.77400 -0.65700 37.50000
H  21.55100 1.73500 32.89500
H  22.83200 1.22700 26.64500
H  28.87800 0.46000 27.83400
H  25.40400 1.06900 35.72400
H  23.43500 2.83400 34.53300
H  21.82000 1.38800 35.72400
H  23.32600 0.95400 36.59100
H  22.57600 0.00600 35.24000
H  25.10400 3.79700 35.50700
H  26.70200 3.37600 34.86200
H  27.63400 2.97000 36.73900
H  26.34700 1.91300 37.35100
H  19.02600 0.81700 30.81000
H  19.38700 2.64000 30.84500
H  19.82900 1.48800 32.15200
H  18.36400 1.91300 27.13500
H  18.80700 2.99400 28.58300
H  18.22100 1.32000 28.72100
H  25.09300 1.66400 25.38100
H  27.35700 -0.00800 25.83100
H  23.96100 -1.00900 25.69700
H  25.62900 -1.37900 25.28100
H  24.68400 -0.52200 24.18400
H  27.76100 2.02800 24.64500
H  28.58400 2.16500 26.26000
H  26.79500 3.91500 25.11300
H  27.63500 4.09700 26.59600
H  26.05600 3.42300 26.60600
H  30.86200 -0.88200 29.93200
H  31.55700 0.66800 30.81300
H  31.04300 0.70600 29.16700
H  28.61300 1.96200 34.78700
H  27.95700 -0.38000 38.16500
H  29.66200 -0.67600 38.13200
H  28.61400 -1.67600 37.14600
Mg -5.58600 24.96800 25.38000
C  -3.84800 26.37700 28.24500
C  -7.32500 22.98300 27.65900
C  -6.99400 23.47300 22.80400
C  -3.52200 26.81600 23.26800
N  -5.50600 24.73300 27.66900
C  -4.91400 25.52000 28.63500
C  -5.33800 25.11000 30.08600
C  -6.17400 23.81000 29.81200
C  -6.32700 23.80600 28.27200
C  -5.68900 22.45000 30.44900
C  -6.07400 26.34500 30.70800
C  -5.80500 26.51000 32.24200
H  -5.56200 25.33100 33.22900
N  -7.02800 23.50800 25.28000
C  -7.66600 22.93300 26.34300
C  -8.80900 22.18200 25.81500
C  -8.68900 22.23500 24.42000
C  -7.57600 23.13700 24.08700
C  -9.72600 21.21100 26.77100
C  -9.49800 21.43400 23.41200
O  -9.17800 21.35100 22.21700
C  -10.61900 20.57600 23.95200
N  -5.18100 24.95800 23.27400
C  -5.99400 24.32900 22.40200
C  -5.63600 24.64800 21.00000
C  -4.69500 25.94200 21.15800
C  -4.38400 25.90200 22.64000
C  -5.06100 23.33200 20.38600
C  -5.38100 27.26200 20.59900
C  -4.50100 28.02200 19.64500
N  -3.91600 26.28800 25.61600
C  -3.25300 26.99800 24.68100
C  -2.28300 27.81600 25.34200
C  -2.50300 27.60400 26.77300
C  -3.49000 26.63000 26.86400
C  -1.35000 28.79000 24.68200
C  -2.14100 28.04100 28.08100
O  -1.46100 28.96900 28.45400
C  -2.89700 27.18700 29.07200
C  -2.05000 26.34400 29.92300
O  -1.29900 25.47100 29.45100
O  -2.13500 26.72700 31.26800
C  -1.54700 25.73800 32.10700
H  -7.68400 22.28100 28.41400
H  -7.43200 23.04500 21.89900
H  -3.05000 27.56300 22.62600
H  -4.43500 24.91000 30.66300
H  -7.17000 23.95900 30.22700
H  -4.95000 22.66600 31.22100
H  -5.25800 21.79000 29.69800
H  -6.53300 21.90800 30.87500
H  -7.11900 26.18900 30.44100
H  -5.64800 27.23100 30.23700
H  -6.73400 26.99500 32.54000
H  -5.01800 27.25700 32.35500
H  -9.83800 20.20700 26.36300
H  -10.68200 21.73500 26.77300
H  -9.25700 21.19400 27.75500
H  -11.12900 20.28500 23.03400
H  -11.16800 21.26400 24.59500
H  -10.25900 19.70300 24.49700
H  -6.53900 24.87700 20.43400
H  -3.79400 25.76500 20.57000
H  -3.97300 23.28000 20.40700
H  -5.46300 23.19400 19.38300
H  -5.40300 22.45800 20.94000
H  -5.72500 27.93700 21.38300
H  -6.21500 26.89900 19.99900
H  -4.59200 29.10100 19.76700
H  -4.96600 27.78000 18.68900
H  -3.44900 27.73600 19.64100
H  -2.00200 29.54700 24.24500
H  -0.75000 28.17500 24.01100
H  -0.82800 29.27000 25.51000
H  -3.48000 27.90200 29.65300
H  -1.70400 24.74100 31.69400
H  -2.09800 25.76100 33.04700
H  -0.47500 25.86400 32.25900

