158

Mg -2.54000 17.50600 27.27500
C  -2.87600 15.04300 29.84200
C  -3.42800 19.88900 29.48600
C  -2.38000 19.73300 24.76800
C  -2.36600 14.92500 24.96700
N  -2.93800 17.48100 29.40200
C  -2.91800 16.40900 30.27500
C  -3.05800 16.83200 31.78300
C  -3.48100 18.35700 31.53400
C  -3.33700 18.58500 30.01800
C  -4.96400 18.85200 32.00500
C  -1.84200 16.49700 32.70500
C  -1.37700 17.48600 33.79100
H  -1.11200 16.81500 35.15200
N  -2.79200 19.59100 27.18500
C  -3.15100 20.36100 28.18800
C  -3.01600 21.74500 27.71300
C  -2.47900 21.69500 26.43800
C  -2.56400 20.30400 26.07200
C  -3.32900 22.95500 28.71500
C  -2.03400 22.81000 25.41400
O  -1.63300 22.58000 24.30100
C  -1.97200 24.19100 25.96200
N  -2.54600 17.30800 25.19200
C  -2.45700 18.40100 24.39900
C  -2.26100 18.00300 22.88800
C  -1.95100 16.48700 22.97200
C  -2.26100 16.21500 24.44600
C  -3.53200 18.42300 22.06800
C  -0.49400 16.12000 22.65600
C  0.65300 16.70200 23.45300
N  -2.63200 15.44900 27.26300
C  -2.62000 14.52400 26.23600
C  -2.78100 13.18000 26.78100
C  -2.85300 13.34600 28.16200
C  -2.79400 14.75800 28.41100
C  -2.71400 11.85000 26.10800
C  -2.91500 12.59300 29.40400
O  -2.87400 11.40400 29.69500
C  -3.01100 13.72000 30.53400
C  -2.05600 13.46900 31.55300
O  -0.86100 13.85300 31.52100
O  -2.61700 12.70600 32.49500
C  -1.70200 12.21100 33.54800
H  -3.73700 20.62400 30.23300
H  -2.25900 20.39200 23.90500
H  -2.19900 14.13700 24.23000
H  -3.99400 16.52500 32.24800
H  -2.69700 19.00500 31.92500
H  -4.61100 19.60400 32.71200
H  -5.52700 18.15800 32.63000
H  -5.56800 19.24900 31.18900
H  -0.93900 16.31200 32.12400
H  -2.03100 15.59500 33.28800
H  -2.17000 18.23000 33.85600
H  -0.43400 17.94800 33.49700
H  -3.96000 22.59000 29.52500
H  -3.88300 23.72300 28.17500
H  -2.46700 23.43300 29.18000
H  -1.01200 24.35500 26.45100
H  -2.80500 24.46200 26.61200
H  -1.91100 24.90800 25.14400
H  -1.37800 18.52500 22.51900
H  -2.64800 16.01400 22.28000
H  -3.48800 19.45100 21.70600
H  -4.42100 18.45400 22.69700
H  -3.74800 17.75200 21.23700
H  -0.39700 16.07100 21.57100
H  -0.46600 15.07600 22.96700
H  1.19400 15.87500 23.91200
H  0.24400 17.40900 24.17400
H  1.31400 17.23600 22.77000
H  -2.31800 11.83700 25.09200
H  -3.67800 11.34100 26.08100
H  -1.95500 11.27600 26.64000
H  -4.03200 13.59000 30.89400
H  -0.85700 11.62700 33.18200
H  -2.24300 11.60100 34.27100
H  -1.20800 12.97400 34.15100
Mg 5.87100 54.07000 42.04300
C  4.87700 50.63100 41.85600
C  8.87500 53.12200 40.76700
C  6.41900 57.22200 41.31600
C  2.43600 54.73900 42.92200
N  6.69100 52.11900 41.35000
C  6.15200 50.85200 41.34400
C  7.14800 49.77800 40.83400
C  8.51700 50.49300 41.10100
C  8.03700 52.00800 41.07700
C  9.30000 50.18500 42.37700
C  7.02500 49.40500 39.32600
C  6.11300 50.25200 38.32500
H  6.80400 51.04600 37.27300
N  7.50700 55.06100 41.15600
C  8.68600 54.52000 40.82300
C  9.62900 55.60000 40.49500
C  8.93600 56.80100 40.76800
C  7.56000 56.42400 41.09900
C  11.07500 55.47000 39.87100
C  9.52000 58.22800 40.74100
O  10.75100 58.40800 40.51800
C  8.71500 59.45300 41.04500
N  4.58700 55.70100 41.90300
C  5.13400 56.95800 41.79700
C  4.12200 58.05400 42.16600
C  2.86900 57.18800 42.54400
C  3.38500 55.74400 42.60900
C  4.59000 59.03900 43.33200
C  1.62400 57.34200 41.54800
C  0.20800 57.55100 42.14900
N  3.96500 52.92600 42.38200
C  2.71200 53.36700 42.69100
C  1.91100 52.21500 43.05600
C  2.67600 51.10300 42.62300
C  3.93900 51.63000 42.23200
C  0.57100 52.03800 43.69800
C  2.65200 49.67800 42.49800
O  1.74200 48.88800 42.58200
C  4.10500 49.29800 42.03200
C  4.13500 48.38000 40.89200
O  3.70800 48.56000 39.78800
O  4.74000 47.21000 41.24600
C  4.58000 46.08800 40.27800
H  9.93700 52.87100 40.78700
H  6.57500 58.25400 40.99400
H  1.43600 54.92000 43.32200
H  7.04700 48.85200 41.40000
H  9.21500 50.27200 40.29300
H  9.03100 49.29900 42.95100
H  9.19400 51.04100 43.04400
H  10.35600 50.34000 42.15400
H  6.60100 48.40100 39.30100
H  8.01900 49.30500 38.89100
H  5.53500 50.98700 38.88500
H  5.37600 49.52000 37.99400
H  11.13000 54.69500 39.10700
H  11.66000 55.07200 40.70000
H  11.50900 56.41800 39.55300
H  9.43300 60.26900 41.11300
H  8.22800 59.31200 42.01000
H  7.92500 59.57900 40.30400
H  3.90300 58.75100 41.35700
H  2.47900 57.54000 43.49900
H  4.14200 60.02400 43.20300
H  5.65400 59.24900 43.22500
H  4.20400 58.62300 44.26300
H  1.51700 56.39500 41.01800
H  1.71300 58.08900 40.75900
H  -0.16200 58.52900 41.84400
H  0.03900 57.58600 43.22500
H  -0.48700 56.82600 41.72600
H  0.01200 52.97000 43.77900
H  0.66800 51.52600 44.65500
H  -0.06600 51.31600 43.18600
H  4.55700 48.77100 42.87200
H  5.16300 46.25700 39.37200
H  3.58500 45.98000 39.84600
H  4.89500 45.11600 40.65700

