158

Mg 44.82100 3.63700 47.20600
C  42.64500 6.34100 46.79400
C  42.03400 1.49400 47.31900
C  46.90500 1.00300 46.81300
C  47.49300 5.99200 46.68500
N  42.55000 3.94900 47.10600
C  41.93000 5.09200 46.83200
C  40.36900 4.87800 46.65100
C  40.20600 3.34000 46.99200
C  41.69500 2.92400 47.28200
C  39.15500 3.15700 48.15500
C  40.03000 5.16300 45.09800
C  38.83600 5.97500 44.76400
H  39.03700 7.03300 43.74500
N  44.53900 1.52500 47.17300
C  43.27300 0.88700 47.22900
C  43.57900 -0.58400 47.31700
C  44.95000 -0.72300 47.09700
C  45.54900 0.60900 46.94500
C  42.47400 -1.67300 47.44700
C  45.73700 -2.06300 47.11100
O  45.16200 -3.13700 47.31500
C  47.25300 -2.16700 46.94100
N  46.83900 3.56000 46.56800
C  47.45600 2.30500 46.67500
C  48.98200 2.53300 46.71400
C  49.13500 4.08900 46.94200
C  47.72600 4.63400 46.76900
C  49.76000 1.82500 47.81900
C  50.11200 4.80700 45.83700
C  51.13800 5.78400 46.49400
N  45.09300 5.78800 46.85000
C  46.21300 6.58300 46.72800
C  45.76200 7.90800 46.61600
C  44.37600 7.96600 46.57200
C  44.00100 6.56200 46.74200
C  46.72800 9.18400 46.34800
C  43.15900 8.77400 46.55800
O  42.92300 9.97900 46.58200
C  42.03500 7.73300 46.61600
C  41.20300 8.11200 47.76900
O  41.32300 7.68400 48.91500
O  40.22500 9.02900 47.36100
C  39.29200 9.50100 48.43700
H  41.19400 0.82000 47.14200
H  47.63300 0.18900 46.81400
H  48.40900 6.58400 46.64000
H  39.72700 5.52600 47.24900
H  39.88000 2.74600 46.13800
H  38.55700 4.06100 48.27600
H  39.55500 2.94800 49.14700
H  38.55500 2.27700 47.92600
H  39.78100 4.21900 44.61200
H  40.84500 5.65000 44.56300
H  38.53900 6.51900 45.66100
H  38.08300 5.26300 44.42600
H  42.37000 -2.38400 46.62700
H  41.56500 -1.17100 47.77800
H  42.73500 -2.38800 48.22700
H  47.83400 -1.63000 47.69000
H  47.38700 -1.89300 45.89400
H  47.57300 -3.20500 47.03400
H  49.42300 2.18400 45.78000
H  49.38400 4.32600 47.97700
H  49.28600 1.98400 48.78700
H  50.82000 2.07700 47.84200
H  49.66200 0.76100 47.60000
H  49.61500 5.18200 44.94200
H  50.78100 4.01300 45.50700
H  52.10000 5.28200 46.39500
H  50.88200 5.98700 47.53400
H  51.15600 6.68700 45.88400
H  46.51800 9.63000 45.37600
H  47.78600 8.94800 46.46300
H  46.51900 9.89000 47.15100
H  41.39300 7.84300 45.74200
H  39.61000 10.53400 48.57800
H  39.44700 9.04800 49.41700
H  38.28500 9.48200 48.02100
Mg 9.25000 48.08700 24.69800
C  7.00900 48.88600 27.43600
C  11.79800 49.28900 26.78200
C  11.46700 47.48800 22.24900
C  6.52700 47.57500 22.67800
N  9.35000 48.79900 26.86400
C  8.33900 48.99900 27.77400
C  8.80100 49.54000 29.11700
C  10.13500 50.16600 28.58600
C  10.48700 49.31300 27.36300
C  10.05700 51.65100 28.23800
C  8.98000 48.42900 30.20200
C  8.84300 48.84300 31.65900
H  8.14400 47.86000 32.62500
N  11.33100 48.28100 24.57200
C  12.20800 48.78400 25.54000
C  13.60600 48.61100 25.11700
C  13.46000 48.04400 23.78200
C  12.06600 47.92000 23.47800
C  14.75600 48.93600 25.94800
C  14.57800 47.68900 22.83900
O  14.38600 47.22300 21.74100
C  15.92800 47.95700 23.31800
N  9.02600 47.71600 22.74500
C  10.12700 47.52400 21.90000
C  9.69300 47.00500 20.58200
C  8.10400 46.99200 20.57600
C  7.83600 47.46300 22.09100
C  10.14600 47.87800 19.38000
C  7.47100 45.64200 20.14800
C  7.32400 45.55400 18.57900
N  7.23200 48.17200 24.91900
C  6.23900 48.06700 23.99900
C  4.96800 48.38600 24.48700
C  5.16800 48.59200 25.84900
C  6.54700 48.51100 26.13900
C  3.69900 48.19800 23.74900
C  4.50900 48.85000 27.16300
O  3.29700 48.83200 27.45500
C  5.73300 49.18900 28.15400
C  5.50100 48.46900 29.38500
O  5.74900 47.32400 29.63900
O  4.84300 49.35500 30.23900
C  4.58100 48.84100 31.58800
H  12.59400 49.80300 27.32500
H  12.10100 47.24900 21.39200
H  5.64700 47.32800 22.08000
H  8.10900 50.29100 29.49900
H  10.89000 49.95900 29.34400
H  9.18400 52.19400 28.60100
H  9.87300 51.77900 27.17100
H  10.87400 52.24700 28.64400
H  10.00300 48.08900 30.04700
H  8.38400 47.52000 30.12000
H  8.56000 49.86200 31.92300
H  9.86300 48.85200 32.04300
H  14.44400 48.89500 26.99200
H  15.15800 49.89300 25.61700
H  15.45700 48.10700 25.84600
H  16.04800 48.91900 23.81600
H  16.74300 47.97600 22.59400
H  16.06900 47.17200 24.06100
H  10.19400 46.05400 20.40500
H  7.71800 47.80800 19.96500
H  9.35800 48.37300 18.81300
H  10.79800 47.38400 18.65900
H  10.72900 48.73200 19.72500
H  6.49900 45.51400 20.62600
H  8.17000 44.93100 20.58800
H  7.78500 46.42700 18.11800
H  6.27000 45.40000 18.34700
H  7.83900 44.66100 18.22600
H  3.52800 47.14400 23.52900
H  3.73200 48.79800 22.83900
H  2.95000 48.68000 24.37800
H  5.56600 50.24900 28.34600
H  3.50400 48.93100 31.72900
H  4.87900 49.61800 32.29200
H  4.94300 47.89600 31.99300

