158

Mg 17.14500 50.90700 26.88300
C  19.18100 49.92100 29.57200
C  14.84500 52.14500 28.98700
C  15.38200 51.86200 24.27200
C  19.61300 49.52700 24.66600
N  17.03000 51.01300 28.94100
C  17.96600 50.56100 29.90800
C  17.43500 50.83700 31.34100
C  15.88900 51.14300 31.07900
C  15.92400 51.51300 29.55100
C  14.96500 49.99600 31.38200
C  18.23700 52.05400 31.91500
C  18.16900 52.41700 33.45100
H  17.07400 51.92500 34.37200
N  15.47700 52.03800 26.68500
C  14.57800 52.46800 27.63800
C  13.48500 53.22600 27.07400
C  13.64400 53.15100 25.68100
C  14.90000 52.35900 25.48900
C  12.31500 53.71100 27.89400
C  12.74000 53.66400 24.59300
O  12.87900 53.50300 23.39700
C  11.51600 54.41000 25.00200
N  17.43600 50.72700 24.76600
C  16.48200 51.18700 23.87400
C  16.78800 50.81800 22.43600
C  18.27400 50.16400 22.52800
C  18.51500 50.13600 24.04600
C  15.69800 49.98900 21.70000
C  19.33700 50.78200 21.56500
C  20.10400 51.97800 22.18000
N  18.95700 49.88900 26.97000
C  19.87600 49.46600 26.04000
C  20.97500 48.83300 26.67600
C  20.73500 48.96500 28.08400
C  19.54000 49.65800 28.21400
C  22.13900 48.08100 25.99100
C  21.27700 48.64900 29.36700
O  22.20500 47.99100 29.69600
C  20.25100 49.31600 30.42000
C  19.69400 48.31400 31.31300
O  19.22900 47.25600 30.96500
O  19.98000 48.68000 32.64100
C  19.53700 47.78400 33.71100
H  14.02900 52.49000 29.62500
H  14.79700 52.38300 23.51100
H  20.30500 49.04800 23.97000
H  17.52200 49.90900 31.90700
H  15.58000 51.99200 31.68900
H  14.13200 50.38800 31.96600
H  15.57700 49.21800 31.83900
H  14.55600 49.54900 30.47500
H  17.85200 52.99200 31.51500
H  19.26300 52.00400 31.55000
H  18.06700 53.50100 33.48900
H  19.11600 52.14600 33.91800
H  12.46300 53.69400 28.97300
H  11.35400 53.30700 27.57500
H  12.17900 54.78700 27.78100
H  11.71500 55.36000 25.49800
H  10.82800 53.69700 25.45400
H  10.94000 54.72400 24.13100
H  16.94100 51.87400 22.21200
H  18.13900 49.10700 22.30000
H  14.88400 49.76100 22.38900
H  16.21200 49.09800 21.34000
H  15.25200 50.56700 20.89000
H  18.91000 50.92700 20.57200
H  20.04500 49.97100 21.39900
H  19.73300 52.19900 23.18100
H  19.87800 52.89300 21.63300
H  21.19300 51.92200 22.20000
H  21.97500 47.01800 26.17100
H  23.14800 48.34200 26.31200
H  22.04400 48.18900 24.91000
H  20.78200 50.09200 30.97200
H  20.27100 46.97800 33.70600
H  18.53500 47.36700 33.61000
H  19.58900 48.43300 34.58500
Mg 1.04400 42.17700 25.44000
C  3.06800 42.16500 28.34200
C  -1.59800 41.21100 27.39000
C  -0.70200 41.53100 22.54500
C  3.84600 42.95300 23.63800
N  0.80000 41.60400 27.64700
C  1.66900 41.97600 28.63100
C  1.06000 42.00200 30.05600
C  -0.35800 41.45500 29.67200
C  -0.42600 41.43200 28.17400
C  -0.66500 40.01100 30.21100
C  0.91800 43.38900 30.74000
C  1.29700 43.44000 32.27400
H  0.72600 42.24100 33.04200
N  -0.87500 41.53300 25.01600
C  -1.81400 41.24300 25.95900
C  -3.03800 40.96100 25.31500
C  -2.82300 40.99800 23.86800
C  -1.39800 41.37300 23.74200
C  -4.34600 40.60600 26.03900
C  -3.67600 40.62600 22.70300
O  -3.37900 40.69700 21.54400
C  -5.08700 40.31300 22.92700
N  1.49000 42.21900 23.37300
C  0.63300 41.88700 22.35600
C  1.33200 41.99100 21.00600
C  2.74300 42.69200 21.43400
C  2.71900 42.64600 22.92000
C  1.50700 40.65500 20.21600
C  2.91100 44.16500 20.98700
C  4.07000 44.55200 20.11200
N  3.07700 42.49800 25.83400
C  4.10200 42.86700 24.98000
C  5.31900 42.96400 25.68600
C  5.04900 42.61600 27.08000
C  3.65500 42.35000 27.09100
C  6.71500 43.20600 25.11600
C  5.52000 42.41700 28.42500
O  6.64400 42.49800 28.89600
C  4.23500 42.29800 29.34400
C  4.37700 41.19500 30.30000
O  4.03200 40.05900 30.01700
O  4.67000 41.64600 31.53000
C  4.50800 40.68200 32.63400
H  -2.44800 41.25000 28.07400
H  -1.15400 41.23900 21.59500
H  4.64300 43.30700 22.98100
H  1.43300 41.25800 30.76100
H  -1.15500 42.11400 30.01700
H  -1.64500 39.96000 30.68600
H  0.07500 39.70300 30.95100
H  -0.74400 39.37300 29.33200
H  -0.09800 43.78400 30.75100
H  1.62500 44.13900 30.38500
H  0.83200 44.32700 32.70400
H  2.38000 43.56500 32.29900
H  -5.07500 41.41100 25.94600
H  -4.29000 40.53600 27.12600
H  -4.77000 39.67800 25.65600
H  -5.31400 39.38600 23.45300
H  -5.64900 40.38000 21.99600
H  -5.56600 41.14700 23.44000
H  0.66600 42.61400 20.40900
H  3.59000 42.03900 21.22200
H  0.81700 39.95900 20.69200
H  2.45900 40.12400 20.21300
H  1.25900 40.81600 19.16700
H  2.99700 44.85800 21.82300
H  2.04500 44.47600 20.40200
H  4.47400 45.45800 20.56300
H  3.84700 44.70800 19.05600
H  4.81600 43.75900 20.15300
H  6.62500 43.94300 24.31900
H  7.19800 42.31900 24.70400
H  7.40800 43.40300 25.93500
H  4.21700 43.28500 29.80500
H  5.49600 40.31800 32.91400
H  3.79700 39.86900 32.48500
H  4.14200 41.12900 33.55800

