158

Mg -12.21200 37.45100 42.89000
C  -9.58100 35.19800 42.65600
C  -10.01700 39.88600 41.87800
C  -14.80100 39.52600 42.62800
C  -14.33600 34.75800 43.66500
N  -9.98100 37.57100 42.46300
C  -9.14200 36.51400 42.40100
C  -7.77200 36.89700 41.82500
C  -7.88800 38.49200 41.91400
C  -9.37200 38.67900 42.10900
C  -6.92200 39.14100 42.93500
C  -7.57900 36.40400 40.34200
C  -6.48600 35.35000 40.13600
H  -6.87000 34.42100 38.97400
N  -12.43700 39.40800 42.26700
C  -11.35400 40.27000 41.96900
C  -11.88600 41.55200 41.68500
C  -13.25000 41.50900 41.86100
C  -13.56900 40.13700 42.31700
C  -10.99300 42.72600 41.22400
C  -14.21100 42.70000 41.67500
O  -13.70200 43.80200 41.40900
C  -15.77500 42.58700 41.70600
N  -14.31100 37.13100 43.07100
C  -15.22800 38.19200 42.96800
C  -16.60800 37.74700 43.45700
C  -16.42200 36.27600 43.83000
C  -14.92800 36.03900 43.52900
C  -17.25700 38.58100 44.54500
C  -17.27700 35.33000 42.88800
C  -16.80600 34.86600 41.45700
N  -12.08400 35.39800 43.02300
C  -13.02100 34.41800 43.29500
C  -12.44200 33.13100 43.29100
C  -11.13500 33.35800 42.95700
C  -10.93300 34.76600 42.85900
C  -13.17000 31.87100 43.56800
C  -9.88300 32.73700 42.84100
O  -9.55600 31.55400 43.01700
C  -8.81100 33.85600 42.60700
C  -7.91300 33.83200 43.89700
O  -7.90900 34.61400 44.77800
O  -6.95300 32.88100 43.78900
C  -5.98900 32.74800 44.90400
H  -9.30200 40.68400 41.66600
H  -15.68100 40.14400 42.82000
H  -15.01000 33.98100 44.03000
H  -6.99200 36.50600 42.47800
H  -7.71800 38.92500 40.92800
H  -6.19300 38.44200 43.34600
H  -7.36400 39.57100 43.83400
H  -6.34600 39.92700 42.44800
H  -7.48300 37.22500 39.63100
H  -8.42800 35.76800 40.09300
H  -6.30000 34.72700 41.01100
H  -5.57200 35.91800 39.96300
H  -11.53800 43.28300 40.46200
H  -10.11700 42.36100 40.69000
H  -10.65100 43.37100 42.03400
H  -15.99700 41.72400 41.07800
H  -16.23100 43.48000 41.27700
H  -16.08300 42.44100 42.74100
H  -17.26600 37.80300 42.58900
H  -16.64600 36.13200 44.88700
H  -17.78900 38.03600 45.32400
H  -17.96900 39.19600 43.99300
H  -16.48800 39.25700 44.91800
H  -18.29500 35.69900 42.76300
H  -17.26300 34.45900 43.54400
H  -16.84000 33.77700 41.47600
H  -15.77800 35.09500 41.17400
H  -17.43200 35.27700 40.66500
H  -13.05600 31.76300 44.64600
H  -12.80000 31.00100 43.02600
H  -14.23200 31.98900 43.35400
H  -8.23900 33.58200 41.72100
H  -5.76900 31.68200 44.95300
H  -6.36400 33.18800 45.82800
H  -5.11200 33.25900 44.50700
Mg -12.30100 16.79800 41.45100
C  -9.37300 14.95200 41.15300
C  -10.63200 19.54900 40.02500
C  -15.27600 18.16800 40.89100
C  -13.96100 13.77700 42.32200
N  -10.17400 17.14000 40.57600
C  -9.15600 16.25900 40.64200
C  -7.84200 16.83500 40.05400
C  -8.24700 18.36400 39.81100
C  -9.76600 18.37600 40.19000
C  -7.41400 19.37800 40.55200
C  -7.23900 16.08600 38.76200
C  -5.74600 16.28500 38.45400
H  -5.35500 16.95600 37.15900
N  -12.91700 18.63400 40.66600
C  -12.05600 19.62400 40.09800
C  -12.89800 20.70500 39.65200
C  -14.22900 20.43400 40.01100
C  -14.18400 19.02300 40.51800
C  -12.30200 21.92700 38.90400
C  -15.47100 21.37500 39.78800
O  -15.29200 22.44200 39.14400
C  -16.84400 21.12000 40.48900
N  -14.30900 16.10900 41.67800
C  -15.37300 16.90900 41.49500
C  -16.73200 16.16300 41.65900
C  -16.21700 14.83000 42.18800
C  -14.71000 14.88700 42.04800
C  -17.85400 16.83200 42.42600
C  -16.77600 13.53000 41.56000
C  -17.17100 12.35900 42.48200
N  -11.79100 14.74500 41.78200
C  -12.61700 13.64800 42.03200
C  -11.77200 12.49900 42.09200
C  -10.52300 12.94100 41.71500
C  -10.60800 14.30700 41.46400
C  -12.13800 11.15000 42.68000
C  -9.09600 12.53400 41.66200
O  -8.58400 11.46100 41.71200
C  -8.30100 13.83300 41.23400
C  -7.09400 14.13900 42.18500
O  -7.20900 14.17200 43.42800
O  -5.94000 14.37200 41.49600
C  -4.75900 14.80000 42.26100
H  -10.19100 20.48700 39.68400
H  -16.21500 18.66700 40.64300
H  -14.38400 12.84200 42.69500
H  -7.10300 16.81500 40.85500
H  -8.02200 18.65400 38.78500
H  -6.96500 18.88300 41.41300
H  -7.94400 20.28400 40.84400
H  -6.63200 19.78500 39.91100
H  -7.85000 16.43000 37.92800
H  -7.48200 15.06000 39.04100
H  -5.20700 15.35100 38.61100
H  -5.29600 16.88900 39.24200
H  -12.71800 21.89200 37.89700
H  -11.23200 22.13100 38.86500
H  -12.72000 22.82600 39.35700
H  -17.39200 22.06200 40.52000
H  -16.55000 20.85200 41.50400
H  -17.52700 20.42500 40.00100
H  -17.07500 16.01900 40.63500
H  -16.40100 14.81800 43.26200
H  -18.68800 17.13200 41.79100
H  -17.52100 17.75100 42.90800
H  -18.18300 16.19000 43.24400
H  -16.20800 13.27400 40.66600
H  -17.70600 13.98900 41.22300
H  -16.53200 11.51100 42.23400
H  -18.21400 12.15400 42.24200
H  -17.11000 12.60200 43.54300
H  -12.89100 11.19700 43.46700
H  -11.15300 10.80400 42.99300
H  -12.51000 10.38400 42.00000
H  -7.91700 13.52000 40.26300
H  -4.19200 14.02500 42.77700
H  -4.99500 15.44900 43.10500
H  -4.16600 15.40200 41.57300

