158

Mg 16.20600 -2.18200 27.57600
C  14.79600 -0.59200 30.37500
C  18.11400 -4.02100 29.75800
C  17.60900 -3.77600 24.90400
C  14.32900 -0.21200 25.49600
N  16.50500 -2.22700 29.80100
C  15.79700 -1.53800 30.79200
C  16.38300 -1.71200 32.20700
C  17.51500 -2.69500 31.83200
C  17.42000 -2.97100 30.36100
C  18.95100 -2.28600 32.34300
C  15.33300 -2.16300 33.16400
C  15.19700 -1.41800 34.50800
H  16.51100 -0.81800 35.02600
N  17.66500 -3.65500 27.38000
C  18.30000 -4.34400 28.43400
C  19.20300 -5.29800 27.95900
C  18.97700 -5.37400 26.51600
C  18.01400 -4.24300 26.19800
C  20.12700 -6.04900 28.79500
C  19.51000 -6.30900 25.46200
O  19.10300 -6.19800 24.26500
C  20.40600 -7.44200 25.89200
N  16.01300 -2.06800 25.44000
C  16.69900 -2.79000 24.51000
C  16.35800 -2.17400 23.09000
C  15.07900 -1.31400 23.35700
C  15.10300 -1.19100 24.87400
C  17.61400 -1.44600 22.56800
C  13.66800 -1.79500 22.69700
C  13.23100 -1.26800 21.27900
N  14.84700 -0.74100 27.79200
C  14.12200 -0.01000 26.88400
C  13.16200 0.87400 27.54600
C  13.48100 0.67800 28.91700
C  14.49000 -0.29100 29.01000
C  12.17400 1.70700 26.90300
C  13.02400 1.12200 30.21500
O  12.25200 2.00700 30.52400
C  13.87600 0.35200 31.15100
C  14.65500 1.26400 31.93900
O  15.69700 1.78700 31.65700
O  13.98000 1.54500 33.06800
C  14.63600 2.48600 34.03100
H  18.60200 -4.66500 30.49200
H  18.13500 -4.17800 24.03500
H  13.76100 0.50000 24.89300
H  16.90100 -0.80300 32.51300
H  17.33500 -3.64800 32.33000
H  19.04300 -1.25400 32.68100
H  19.70400 -2.49600 31.58300
H  19.28000 -2.84200 33.22200
H  15.53400 -3.22500 33.30900
H  14.34400 -2.11800 32.70800
H  14.78900 -2.00500 35.33100
H  14.40300 -0.69500 34.31900
H  19.50300 -6.38900 29.62100
H  20.83500 -5.28400 29.11200
H  20.60400 -6.91000 28.32600
H  19.97800 -7.98500 26.73400
H  21.43000 -7.10700 26.06100
H  20.27300 -8.18200 25.10300
H  16.16900 -2.97800 22.37800
H  15.33900 -0.35000 22.92100
H  18.17500 -2.02900 21.83900
H  18.29100 -1.29700 23.40900
H  17.36600 -0.50000 22.08700
H  12.81700 -1.74900 23.37700
H  13.77800 -2.86100 22.49900
H  12.26900 -0.84200 21.56500
H  13.22400 -2.04300 20.51400
H  13.94600 -0.56100 20.85900
H  12.27600 1.71300 25.81800
H  12.23600 2.67900 27.39200
H  11.16300 1.35300 27.10700
H  13.27100 -0.27700 31.80500
H  14.49400 3.49600 33.64700
H  15.69600 2.25500 34.13400
H  14.05100 2.42800 34.94800
Mg 47.04000 17.20300 29.42300
C  45.11600 16.46700 32.21400
C  49.11700 19.00300 31.45400
C  48.68800 18.00900 26.78800
C  44.62000 15.55900 27.41700
N  47.13000 17.60100 31.68100
C  46.25600 17.17600 32.61000
C  46.64800 17.82000 33.94600
C  47.72600 18.90400 33.53800
C  48.07200 18.46000 32.17600
C  47.26500 20.38500 33.67300
C  47.13300 16.70100 34.95100
C  46.38400 16.62500 36.28600
H  46.09900 17.98900 36.92400
N  48.79400 18.26700 29.17300
C  49.52700 18.89600 30.13600
C  50.73900 19.40400 29.55800
C  50.69400 19.09400 28.15300
C  49.33000 18.43900 27.95700
C  51.87000 19.94300 30.31600
C  51.67400 19.39800 27.04600
O  51.47800 18.94800 25.89200
C  52.92000 20.18600 27.32500
N  46.54200 16.99100 27.34300
C  47.51300 17.38800 26.47700
C  47.16000 16.89200 25.07400
C  46.02500 15.80600 25.35700
C  45.76800 16.06900 26.80000
C  46.94200 18.04800 24.01900
C  46.41300 14.27100 25.11400
C  45.31100 13.42200 24.39900
N  45.17400 16.34600 29.66100
C  44.29500 15.70200 28.77400
C  43.21200 15.19300 29.51900
C  43.44700 15.46500 30.80400
C  44.71700 16.06100 30.87800
C  42.08000 14.32900 29.05000
C  42.91600 15.30000 32.15000
O  41.80600 14.89700 32.55800
C  43.98500 15.97400 33.10200
C  43.30600 17.15900 33.71400
O  42.90400 18.18500 33.10100
O  43.07400 16.89800 35.01200
C  42.47400 17.99100 35.70900
H  49.66100 19.67400 32.12200
H  49.18600 18.22900 25.84100
H  43.87800 15.00100 26.84200
H  45.73800 18.24100 34.37400
H  48.57600 18.73600 34.19800
H  46.83000 20.69200 32.72200
H  48.17600 20.95800 33.84200
H  46.56500 20.53000 34.49600
H  48.16900 16.95100 35.17900
H  47.18400 15.82200 34.30900
H  47.01400 16.14200 37.03300
H  45.58100 15.88900 36.23500
H  51.55100 20.36200 31.27000
H  52.43200 20.73600 29.82500
H  52.50900 19.06900 30.44600
H  53.40200 19.70400 28.17600
H  52.65900 21.22400 27.52900
H  53.50500 20.18000 26.40500
H  48.05600 16.33400 24.80200
H  45.12800 16.06600 24.79400
H  45.92000 18.18200 23.66400
H  47.58500 17.76700 23.18500
H  47.14400 19.00800 24.49500
H  46.68700 13.85400 26.08300
H  47.35800 14.27000 24.57000
H  45.71100 13.17100 23.41600
H  44.35000 13.92900 24.30600
H  45.06600 12.50600 24.93700
H  41.33300 15.01900 28.65800
H  41.66000 13.78300 29.89500
H  42.47900 13.70200 28.25200
H  44.21100 15.27300 33.90500
H  41.45700 18.09600 35.33300
H  43.17200 18.82200 35.61000
H  42.56700 17.85200 36.78700

