158

Mg 1.65600 -2.58100 44.28600
C  5.15500 -1.72200 43.76600
C  1.05800 0.43200 42.58000
C  -1.40400 -3.70100 43.75900
C  2.76000 -5.72800 45.38600
N  2.97900 -0.89200 43.16300
C  4.34000 -0.72700 43.23300
C  4.75900 0.57300 42.67500
C  3.42800 1.36000 42.52800
C  2.40100 0.28700 42.85700
C  3.42300 2.52800 43.54600
C  5.57000 0.28400 41.28300
C  6.95600 0.95500 41.22100
H  7.21000 2.01000 40.10800
N  0.04200 -1.69500 43.48600
C  -0.02800 -0.47900 42.86500
C  -1.39300 -0.21300 42.45300
C  -2.16900 -1.36500 42.89500
C  -1.14200 -2.34800 43.46100
C  -1.93100 1.03100 41.79700
C  -3.68200 -1.51600 42.84900
O  -4.41500 -0.66400 42.41600
C  -4.34800 -2.68900 43.55700
N  0.77600 -4.48500 44.47400
C  -0.52000 -4.73300 44.21400
C  -0.91700 -6.23300 44.46800
C  0.34200 -6.70000 45.25500
C  1.40300 -5.60300 45.02500
C  -2.28300 -6.55600 45.22900
C  0.81000 -8.11000 44.92500
C  1.21800 -8.25900 43.46000
N  3.52800 -3.57700 44.49200
C  3.75300 -4.80200 45.07800
C  5.20300 -4.89200 45.38700
C  5.72900 -3.68600 44.88700
C  4.74700 -2.95000 44.23900
C  5.98600 -6.02500 45.98900
C  7.00200 -2.92700 44.86500
O  8.10000 -3.14800 45.34500
C  6.70100 -1.58800 44.10700
C  6.99000 -0.46100 45.04600
O  6.46000 -0.27700 46.16100
O  7.79200 0.37300 44.35100
C  8.13000 1.62500 45.04100
H  0.77400 1.41700 42.20400
H  -2.37500 -4.19800 43.72100
H  3.09700 -6.62600 45.90800
H  5.40300 1.11600 43.36800
H  3.27800 1.82000 41.55100
H  3.39400 2.04500 44.52300
H  2.69000 3.32800 43.44300
H  4.40800 2.99600 43.54900
H  4.96800 0.62900 40.44300
H  5.67900 -0.78700 41.10900
H  7.60000 0.07900 41.30400
H  7.17800 1.54100 42.11300
H  -1.40100 1.22000 40.86400
H  -1.75400 1.95500 42.34700
H  -2.95900 1.02500 41.43600
H  -5.37700 -2.38700 43.75300
H  -3.87200 -2.87400 44.52000
H  -4.40000 -3.64500 43.03600
H  -0.94200 -6.61500 43.44800
H  0.24900 -6.73700 46.34100
H  -3.13700 -6.66600 44.56100
H  -2.58900 -5.71600 45.85300
H  -2.24900 -7.53700 45.70200
H  -0.07400 -8.72300 45.10100
H  1.55800 -8.49400 45.61800
H  1.34100 -7.31200 42.93300
H  0.49800 -8.86000 42.90600
H  2.15000 -8.82400 43.47200
H  6.76200 -5.66300 46.66400
H  6.47800 -6.54400 45.16700
H  5.46300 -6.70800 46.65800
H  7.43100 -1.54700 43.29800
H  9.19800 1.63500 45.26200
H  7.60000 1.77800 45.98100
H  7.81900 2.43300 44.38000
Mg 47.07800 25.67000 28.75400
C  48.11700 27.79700 31.30200
C  45.99700 23.41400 31.02300
C  46.64100 23.36800 26.21000
C  48.52300 27.80700 26.33000
N  47.16300 25.65300 30.87700
C  47.59400 26.59500 31.78600
C  47.26200 26.24500 33.23900
C  46.77900 24.76000 33.04800
C  46.55400 24.60100 31.52500
C  47.70200 23.68300 33.67400
C  46.10900 27.21200 33.87200
C  46.47800 27.48600 35.29100
H  45.33800 27.09000 36.24200
N  46.40900 23.64600 28.58100
C  45.92100 22.94200 29.65800
C  45.55700 21.64900 29.29900
C  45.70600 21.60100 27.89400
C  46.30400 22.86800 27.47200
C  45.03000 20.58400 30.27900
C  45.44400 20.42300 26.94600
O  45.76700 20.47600 25.78700
C  44.84800 19.15500 27.50300
N  47.52100 25.61500 26.57500
C  47.12300 24.53100 25.79600
C  47.54000 24.80600 24.41300
C  47.84100 26.29600 24.37600
C  48.01000 26.58800 25.84000
C  48.63800 23.87900 23.79500
C  46.80500 27.22000 23.64700
C  47.47300 28.00400 22.46700
N  48.02400 27.48000 28.77600
C  48.50700 28.24200 27.73600
C  49.18100 29.36700 28.29700
C  48.94800 29.25100 29.67900
C  48.29500 28.08700 29.93000
C  49.94100 30.43800 27.57200
C  49.20900 29.90700 30.95800
O  49.74900 30.92700 31.29400
C  48.55400 29.01600 32.02700
C  49.58000 28.65800 33.07900
O  50.71100 28.29900 32.85200
O  49.01900 28.80100 34.33300
C  49.96800 28.77700 35.44800
H  45.69300 22.74300 31.83000
H  46.50400 22.66500 25.38600
H  48.85400 28.46700 25.52500
H  48.16700 26.24300 33.84500
H  45.86300 24.55800 33.60400
H  48.59100 24.13000 34.11900
H  47.82200 22.98200 32.84800
H  47.22900 23.11000 34.47200
H  45.07200 26.97500 33.63500
H  46.24400 28.13800 33.31300
H  46.54300 28.56400 35.44100
H  47.41000 27.02000 35.61000
H  45.60400 19.66400 30.39500
H  44.08300 20.27600 29.83600
H  44.85900 20.91000 31.30500
H  44.68600 18.47900 26.66400
H  43.90800 19.45500 27.96600
H  45.51200 18.65100 28.20500
H  46.70000 24.75100 23.72200
H  48.84500 26.43200 23.97400
H  48.77100 22.99800 24.42300
H  49.52600 24.50100 23.67900
H  48.30700 23.53500 22.81500
H  46.36000 27.82100 24.43900
H  46.00200 26.63100 23.20300
H  46.88000 27.94900 21.55400
H  48.50400 27.69400 22.29800
H  47.38700 29.08200 22.60700
H  49.96200 30.31200 26.48900
H  50.94400 30.24800 27.95300
H  49.57100 31.43500 27.81400
H  47.73300 29.53800 32.51900
H  49.81800 27.84100 35.98600
H  49.80200 29.62600 36.11200
H  51.00800 29.00400 35.21600

