158

Mg 1.48900 8.29300 25.70600
C  1.98100 9.63300 28.88200
C  1.90400 5.20800 27.15600
C  1.33100 6.90200 22.62900
C  2.28200 11.43400 24.19700
N  1.78500 7.47600 27.85000
C  1.84800 8.19200 28.99700
C  1.74700 7.31900 30.20500
C  1.90800 5.83800 29.60700
C  1.84400 6.18600 28.16300
C  3.21300 5.16900 30.10300
C  0.43100 7.54600 31.00400
C  0.46000 7.64900 32.52900
H  1.68500 7.10700 33.23500
N  1.45300 6.35100 25.03100
C  1.59000 5.23200 25.78300
C  1.40400 4.08100 24.93100
C  1.05400 4.52200 23.67900
C  1.32500 6.01300 23.68900
C  1.35600 2.63100 25.43500
C  0.73900 3.69800 22.44400
O  0.62100 4.20800 21.31400
C  0.45400 2.24300 22.67300
N  1.75100 9.11100 23.76700
C  1.61700 8.28500 22.65900
C  1.76900 9.10600 21.33000
C  1.68100 10.54700 21.88200
C  1.85800 10.36200 23.36500
C  3.02500 8.81100 20.57700
C  0.31800 11.33100 21.59600
C  0.17400 12.13800 20.24600
N  2.07800 10.18700 26.36000
C  2.32800 11.33800 25.65000
C  2.57300 12.39100 26.61700
C  2.48100 11.75200 27.90100
C  2.12000 10.41000 27.63300
C  2.72600 13.92600 26.25800
C  2.48900 12.03600 29.30900
O  2.81000 13.07200 29.86600
C  2.08000 10.71200 29.97200
C  3.11100 10.32600 31.02600
O  4.20300 9.79900 30.83200
O  2.68600 10.95100 32.21300
C  3.72800 11.05900 33.33000
H  2.13300 4.20300 27.51800
H  1.05400 6.46800 21.66600
H  2.41600 12.43100 23.77400
H  2.58100 7.59800 30.84900
H  1.12000 5.16400 29.94200
H  2.93000 4.28400 30.67300
H  3.85200 5.83200 30.68600
H  3.87400 4.87700 29.28600
H  -0.18900 6.69700 30.71700
H  -0.07700 8.42900 30.61500
H  -0.31500 7.12200 33.08500
H  0.39300 8.68400 32.86500
H  1.75200 1.92800 24.70200
H  0.35000 2.29600 25.68700
H  2.08600 2.65000 26.24400
H  1.45600 1.81500 22.69900
H  -0.12400 2.00300 21.78100
H  -0.18800 2.07100 23.53700
H  0.84800 8.98100 20.75900
H  2.49700 11.16100 21.50200
H  3.87700 9.42300 20.87200
H  2.99800 8.79300 19.48700
H  3.34000 7.79000 20.79000
H  0.26200 12.08000 22.38600
H  -0.42800 10.55400 21.76000
H  0.17900 13.20400 20.47400
H  -0.69700 11.72800 19.73500
H  1.02700 11.88200 19.61800
H  1.76100 14.33900 26.55100
H  3.06700 14.19600 25.25900
H  3.42700 14.41800 26.93300
H  1.12800 10.78000 30.49800
H  4.14500 12.05900 33.44700
H  4.67700 10.52400 33.29400
H  3.23000 10.79300 34.26300
Mg -0.26600 43.88600 25.96800
C  2.06400 43.78500 28.80100
C  -2.75500 43.33200 28.21900
C  -2.31200 43.24400 23.36200
C  2.44900 44.23600 23.91000
N  -0.24000 43.36000 28.25800
C  0.76100 43.47400 29.15500
C  0.15100 43.41400 30.59100
C  -1.32000 43.08800 30.34200
C  -1.46900 43.31500 28.88000
C  -1.71800 41.59100 30.74800
C  0.41000 44.74300 31.37000
C  1.03000 44.71500 32.79800
H  0.69900 43.40900 33.61700
N  -2.36300 43.55700 25.84300
C  -3.21100 43.39200 26.90800
C  -4.54100 43.12400 26.34100
C  -4.47400 43.09500 24.90400
C  -3.05900 43.26000 24.66000
C  -5.74800 43.04000 27.26300
C  -5.53900 42.85300 23.85100
O  -5.33300 42.96400 22.64000
C  -6.85500 42.37000 24.36400
N  0.02400 43.64900 23.97300
C  -0.96100 43.30600 23.10400
C  -0.31600 43.14700 21.69800
C  0.98300 43.98600 21.80200
C  1.18800 43.96000 23.29100
C  -0.08800 41.72300 21.13400
C  0.87500 45.35900 21.08500
C  2.21100 46.04400 20.60500
N  1.83400 44.05800 26.17600
C  2.82600 44.35600 25.27600
C  4.08200 44.55000 26.00100
C  3.80900 44.40400 27.29000
C  2.43400 44.07800 27.39300
C  5.41500 44.85800 25.36600
C  4.46300 44.36600 28.63100
O  5.61400 44.44700 28.94500
C  3.28800 44.00300 29.63600
C  3.73100 42.77000 30.26900
O  3.22600 41.64900 30.00700
O  4.70600 42.96500 31.16900
C  5.21700 41.73700 31.82700
H  -3.57900 43.14100 28.90900
H  -2.85800 43.13500 22.42200
H  3.28900 44.55300 23.28900
H  0.75200 42.60700 31.01000
H  -1.93800 43.70500 30.99400
H  -2.44800 41.61100 31.55700
H  -0.91700 40.92800 31.07500
H  -2.19700 41.11600 29.89200
H  -0.55600 45.21500 31.54700
H  1.07600 45.41300 30.82600
H  0.61500 45.59400 33.29100
H  2.10200 44.85200 32.65900
H  -6.25000 42.07300 27.25400
H  -6.39500 43.77800 26.78900
H  -5.62900 43.41100 28.28100
H  -6.66600 41.38900 24.80100
H  -7.45000 42.21800 23.46300
H  -7.35300 43.15900 24.92700
H  -1.08000 43.63000 21.08800
H  1.84600 43.49200 21.35600
H  -0.79900 41.03600 21.59300
H  0.91100 41.36000 21.37800
H  -0.21300 41.82500 20.05600
H  0.34300 45.98500 21.80100
H  0.27300 45.28900 20.17900
H  2.30500 46.93200 21.23100
H  2.13500 46.28700 19.54500
H  3.06400 45.37200 20.69900
H  5.40300 45.78400 24.79000
H  5.71100 44.12100 24.61900
H  6.19800 44.88100 26.12400
H  3.29200 44.79900 30.38000
H  5.15600 40.88800 31.14500
H  4.45000 41.53700 32.57500
H  6.21500 41.83200 32.25500

