158

Mg 48.28900 16.42800 28.28400
C  46.13700 16.22200 31.10200
C  50.46300 18.11800 30.45500
C  50.14900 17.29700 25.69400
C  45.78200 15.11200 26.44900
N  48.28500 17.10900 30.53300
C  47.37400 16.77800 31.46900
C  47.82200 17.12200 32.93900
C  49.14000 17.94000 32.67400
C  49.34400 17.67400 31.13200
C  48.84900 19.44100 33.06100
C  48.03900 15.86500 33.79600
C  47.29100 15.71300 35.07500
H  47.13600 16.98400 35.91400
N  50.06000 17.56400 28.09500
C  50.79100 18.05600 29.13100
C  52.06800 18.66400 28.59500
C  51.99900 18.36600 27.21400
C  50.69400 17.80000 26.93100
C  53.12500 19.24100 29.51400
C  53.07600 18.70000 26.13200
O  52.90100 18.43400 24.96000
C  54.45300 19.16300 26.49500
N  47.91700 16.37100 26.33000
C  48.87100 16.64200 25.45600
C  48.48900 16.16100 24.01900
C  47.06900 15.46500 24.23300
C  46.88300 15.63300 25.76800
C  48.51500 17.34200 22.99500
C  46.95100 13.95700 23.75700
C  45.60300 13.40200 23.23100
N  46.47300 15.55400 28.65300
C  45.50700 15.06900 27.79200
C  44.30200 14.73100 28.45700
C  44.51300 15.26500 29.70300
C  45.86100 15.68800 29.82100
C  43.02000 14.19500 27.77900
C  43.82200 15.46600 30.96500
O  42.64700 15.35400 31.35500
C  44.97400 15.97500 31.96300
C  44.45000 17.06800 32.73400
O  44.09800 18.15800 32.33600
O  44.25400 16.58900 34.01900
C  43.48300 17.42800 34.84300
H  51.14200 18.50100 31.22000
H  50.77900 17.32700 24.80200
H  44.93900 14.81100 25.82400
H  47.04800 17.69900 33.44400
H  49.93700 17.64800 33.35700
H  49.32900 19.74200 33.99200
H  47.77600 19.58500 33.19300
H  49.15500 20.04500 32.20600
H  49.10100 15.66600 33.94200
H  47.61900 15.02800 33.23900
H  47.84300 14.92400 35.58500
H  46.28400 15.30200 35.00800
H  52.83000 19.46100 30.54000
H  53.48500 20.19500 29.12900
H  53.99500 18.58500 29.54500
H  54.88600 18.87500 27.45300
H  54.37200 20.25000 26.48500
H  55.08100 18.83500 25.66700
H  49.22900 15.49800 23.56900
H  46.29100 16.13500 23.86700
H  49.38200 17.27100 22.33800
H  48.83100 18.23200 23.53900
H  47.62900 17.45400 22.37000
H  47.14500 13.29000 24.59700
H  47.77900 13.76000 23.07600
H  44.98600 14.21800 22.85700
H  45.08800 12.89800 24.04800
H  45.63600 12.54800 22.55400
H  42.87800 13.13100 27.96700
H  42.99100 14.36100 26.70200
H  42.17500 14.60600 28.33200
H  45.09500 15.05100 32.52800
H  42.44700 17.24000 34.56000
H  43.63000 18.50700 34.87800
H  43.58200 17.04200 35.85700
Mg 48.58700 34.85900 27.04000
C  46.73600 33.18900 29.41000
C  49.17100 37.37200 29.41700
C  49.90700 36.62000 24.63200
C  47.58600 32.41300 24.68200
N  47.99900 35.25200 29.16400
C  47.36300 34.31100 29.96600
C  47.18600 34.80800 31.37700
C  47.54100 36.31900 31.21200
C  48.38700 36.33200 29.86700
C  46.42200 37.26100 31.05500
C  48.28500 34.00200 32.20300
C  48.23500 34.06700 33.72000
H  47.22900 34.91600 34.46000
N  49.64500 36.64700 27.01200
C  49.72200 37.54600 28.09000
C  50.46100 38.72700 27.62500
C  50.77500 38.48700 26.24000
C  50.08400 37.19400 25.86100
C  50.71400 39.93300 28.41000
C  51.55300 39.45100 25.27000
O  51.80100 39.02200 24.14000
C  52.01000 40.76600 25.48800
N  48.69100 34.56900 24.93200
C  49.36700 35.45400 24.23300
C  49.40400 34.97500 22.65900
C  48.90900 33.49900 22.78900
C  48.43100 33.42300 24.20500
C  48.59700 35.91900 21.64100
C  49.80100 32.36600 22.37200
C  49.61600 31.85700 20.91900
N  47.46500 33.06600 27.02400
C  47.15500 32.20500 25.95400
C  46.34600 31.15500 26.49200
C  46.04200 31.54100 27.86600
C  46.78400 32.70000 28.09700
C  45.90900 29.94600 25.76400
C  45.30300 31.17900 29.03400
O  44.52800 30.26500 29.32300
C  45.64300 32.30400 30.06600
C  46.14900 31.61600 31.24700
O  47.17100 30.97200 31.24400
O  45.27200 31.70100 32.26400
C  45.44200 30.67200 33.32100
H  49.33000 38.22700 30.07900
H  50.24600 37.30100 23.84900
H  47.38600 31.74200 23.84400
H  46.18900 34.69500 31.80300
H  48.19900 36.74500 31.96900
H  46.50200 38.11100 31.73200
H  45.53600 36.64500 31.21000
H  46.37700 37.68400 30.05100
H  49.29000 34.38200 32.01700
H  48.33600 32.95400 31.90600
H  49.24400 34.33200 34.03500
H  48.09000 33.02500 34.00600
H  51.80400 39.95500 28.40300
H  50.40900 39.71600 29.43400
H  50.32100 40.81800 27.90900
H  52.77200 40.75900 26.26700
H  51.19200 41.43900 25.74600
H  52.52500 41.08100 24.58100
H  50.40500 34.92900 22.23000
H  47.96400 33.38200 22.25800
H  47.82700 35.29100 21.19300
H  49.27300 36.26100 20.85800
H  48.06600 36.73900 22.12300
H  49.62600 31.52600 23.04400
H  50.87400 32.47600 22.53000
H  50.45900 32.19000 20.31300
H  48.73400 32.31400 20.47200
H  49.43100 30.78400 20.98000
H  45.10000 30.02200 25.03700
H  45.80300 29.08800 26.42700
H  46.73800 29.75100 25.08300
H  44.76400 32.81800 30.45600
H  44.82300 30.94200 34.17600
H  46.49600 30.72900 33.59400
H  45.14800 29.68500 32.96300

