158

Mg 34.73700 2.65900 29.37500
C  32.72400 3.71600 32.07600
C  37.47200 2.57400 31.48600
C  36.80300 2.46000 26.70700
C  32.11300 3.44400 27.17100
N  34.99900 3.27100 31.56000
C  34.05400 3.53200 32.48400
C  34.64700 3.38300 33.91000
C  36.17500 3.18100 33.68600
C  36.27100 3.03600 32.13000
C  37.06800 4.31800 34.28000
C  33.87100 2.24700 34.73800
C  33.58100 2.35800 36.27200
H  34.20300 3.53000 37.07500
N  36.81100 2.42600 29.11500
C  37.77000 2.37700 30.15100
C  39.08000 2.17000 29.54200
C  38.91700 2.02700 28.13200
C  37.47200 2.22000 27.91200
C  40.35100 2.12700 30.34900
C  39.93200 1.69800 27.06200
O  39.55700 1.60500 25.90300
C  41.38000 1.40500 27.37500
N  34.44800 2.90100 27.23400
C  35.47900 2.76800 26.32400
C  35.05300 3.03800 24.86900
C  33.48900 3.13000 25.08700
C  33.28900 3.11700 26.56500
C  35.70100 4.27500 24.25000
C  32.62200 2.04800 24.41800
C  31.16500 2.35200 24.16100
N  32.75700 3.16900 29.53600
C  31.83500 3.45400 28.54600
C  30.55200 3.91200 29.15100
C  30.92300 3.95700 30.52900
C  32.25600 3.55200 30.76500
C  29.21500 4.21700 28.44800
C  30.32100 4.31400 31.83800
O  29.18800 4.79000 32.13800
C  31.51300 4.13700 32.85400
C  31.69000 5.50000 33.58000
O  32.10200 6.58700 33.16300
O  31.23200 5.31500 34.80800
C  31.00700 6.51200 35.61600
H  38.33300 2.45800 32.14800
H  37.47300 2.47700 25.84400
H  31.27100 3.68600 26.52000
H  34.59700 4.27000 34.54300
H  36.53700 2.21500 34.03700
H  37.83100 3.88800 34.92900
H  36.66100 5.12800 34.88600
H  37.62600 4.78400 33.46800
H  34.48900 1.38200 34.49700
H  32.95300 1.96000 34.22600
H  33.82700 1.39800 36.72500
H  32.51100 2.55800 36.33400
H  40.21400 2.77100 31.21800
H  41.16900 2.56200 29.77600
H  40.58000 1.12000 30.69900
H  41.52200 0.78000 28.25700
H  41.87300 2.32100 27.69900
H  41.82800 0.97500 26.47900
H  35.11200 2.12400 24.27700
H  33.10100 4.07400 24.70400
H  36.49000 4.68000 24.88400
H  34.97900 5.05300 24.00200
H  36.32900 3.94400 23.42300
H  32.81200 1.14500 24.99800
H  32.94700 1.88800 23.39000
H  30.94300 2.12200 23.11900
H  30.82400 3.35100 24.43500
H  30.59600 1.66200 24.78300
H  28.43600 4.57900 29.11900
H  28.87700 3.22600 28.14500
H  29.30100 4.78000 27.51800
H  31.35700 3.30700 33.54300
H  29.97600 6.86300 35.56700
H  31.72200 7.33300 35.56900
H  31.11600 6.08500 36.61300
Mg -11.44800 37.90500 43.00500
C  -9.75200 35.03000 41.77300
C  -9.01600 39.85800 41.36800
C  -13.45300 40.68400 43.28200
C  -13.93800 35.90100 44.24200
N  -9.68800 37.48700 41.72500
C  -9.22300 36.27400 41.33900
C  -7.99900 36.38500 40.44100
C  -7.54200 37.86700 40.67400
C  -8.81000 38.45100 41.39700
C  -6.14500 38.07100 41.49300
C  -8.20700 35.91200 38.92400
C  -7.26300 34.75000 38.43800
H  -6.30200 35.08900 37.29300
N  -11.24400 39.99600 42.44300
C  -10.20000 40.53600 41.72300
C  -10.38300 42.00800 41.75600
C  -11.59600 42.31700 42.44000
C  -12.20800 40.99300 42.71800
C  -9.40400 43.07000 41.11400
C  -12.17400 43.72900 42.69600
O  -11.62100 44.70900 42.29600
C  -13.41400 43.96200 43.57000
N  -13.40400 38.23600 43.56900
C  -14.03700 39.43800 43.57000
C  -15.46600 39.34500 44.12000
C  -15.64900 37.78300 44.43200
C  -14.24200 37.26500 43.99700
C  -15.82900 40.16200 45.39600
C  -16.74900 37.04100 43.45300
C  -17.53800 35.86400 44.04500
N  -11.85100 35.82200 42.97500
C  -12.85200 35.17300 43.55900
C  -12.56900 33.72000 43.63900
C  -11.39300 33.62000 42.89200
C  -11.01000 34.92100 42.50400
C  -13.44700 32.75400 44.28900
C  -10.33200 32.64000 42.43600
O  -10.23800 31.45800 42.60600
C  -9.22300 33.60500 41.63700
C  -7.84500 33.26400 42.26400
O  -7.26800 32.20300 42.18900
O  -7.31300 34.36400 42.89400
C  -5.96300 34.28500 43.50700
H  -8.21200 40.41700 40.88500
H  -14.14200 41.52700 43.20400
H  -14.68800 35.32000 44.78300
H  -7.20300 35.70700 40.75000
H  -7.49400 38.31700 39.68200
H  -5.44000 38.53900 40.80600
H  -5.66500 37.17000 41.87500
H  -6.40600 38.68700 42.35300
H  -7.97200 36.77400 38.30100
H  -9.23100 35.56700 38.77400
H  -7.92200 33.93600 38.13500
H  -6.61100 34.39100 39.23400
H  -9.82700 43.58900 40.25300
H  -8.44200 42.62400 40.86100
H  -9.28800 43.89000 41.82200
H  -14.30400 43.67400 43.01100
H  -13.34200 45.04200 43.70100
H  -13.36000 43.47300 44.54200
H  -16.04300 39.77200 43.30000
H  -15.89400 37.57900 45.47400
H  -16.46500 40.95400 45.00000
H  -14.89300 40.54800 45.79900
H  -16.30900 39.60700 46.20200
H  -16.24300 36.56800 42.61200
H  -17.43900 37.74300 42.98500
H  -17.73200 36.09300 45.09300
H  -16.90800 34.98100 43.93600
H  -18.48600 35.72700 43.52300
H  -13.23500 31.68400 44.28100
H  -14.39100 32.88800 43.76000
H  -13.45600 33.03800 45.34100
H  -9.32600 33.20400 40.62800
H  -5.49700 33.31400 43.34600
H  -6.16200 34.38600 44.57400
H  -5.40600 35.18200 43.23600

