158

Mg 41.71500 41.05000 26.51300
C  40.99500 43.44100 28.98800
C  43.13300 38.96700 28.83300
C  42.56400 39.11300 23.91800
C  41.07400 43.74100 24.09500
N  42.09800 41.24000 28.65200
C  41.56500 42.20100 29.45900
C  41.76500 41.84600 30.97200
C  42.74900 40.62700 30.86500
C  42.66400 40.26200 29.35000
C  44.15400 40.73100 31.46400
C  40.39400 41.63500 31.72600
C  40.17000 42.82400 32.79000
H  39.52700 42.49400 34.19300
N  42.72600 39.28800 26.37300
C  43.21100 38.55000 27.41100
C  43.70000 37.27100 26.86200
C  43.38100 37.24900 25.52100
C  42.89000 38.61700 25.21500
C  44.38900 36.29200 27.74500
C  43.44000 36.04600 24.52600
O  43.19200 36.12300 23.30500
C  43.86600 34.69000 25.04000
N  41.61700 41.34300 24.28000
C  42.00200 40.37200 23.45700
C  41.68900 40.67400 21.99000
C  41.25800 42.22200 22.05400
C  41.23800 42.46600 23.52900
C  42.86200 40.46600 20.99000
C  39.86900 42.68800 21.52800
C  39.84400 43.86900 20.54200
N  41.09300 43.11500 26.50700
C  40.90500 44.03800 25.43800
C  40.47800 45.26600 26.00900
C  40.50900 45.05900 27.37700
C  40.89400 43.71800 27.60700
C  40.27500 46.53600 25.41700
C  40.25000 45.71800 28.57900
O  39.84500 46.85400 28.84100
C  40.38600 44.65500 29.70700
C  41.33200 45.25600 30.68700
O  42.53600 45.24700 30.56700
O  40.74800 45.79200 31.74200
C  41.49900 46.42600 32.81800
H  43.56500 38.23800 29.52100
H  42.77900 38.36600 23.15100
H  41.00000 44.53400 23.34700
H  42.38400 42.66800 31.33100
H  42.38500 39.76500 31.42500
H  44.36500 39.80000 31.99000
H  44.34600 41.61500 32.07100
H  44.86900 40.73600 30.64100
H  40.45200 40.68100 32.25000
H  39.61200 41.75400 30.97600
H  39.56300 43.54700 32.24600
H  41.11200 43.28900 33.08200
H  45.38500 36.03200 27.38900
H  43.79300 35.38100 27.81400
H  44.59100 36.52000 28.79200
H  43.85000 34.00000 24.19700
H  43.22600 34.35400 25.85600
H  44.89900 34.77300 25.38000
H  40.80200 40.11100 21.69800
H  42.14400 42.80800 21.81200
H  42.56200 39.72200 20.25200
H  43.71500 40.06800 21.53900
H  43.26800 41.32000 20.44900
H  39.18000 42.78500 22.36700
H  39.50900 41.86400 20.91200
H  38.84000 43.78600 20.12600
H  40.66300 44.02400 19.84000
H  39.76600 44.76600 21.15600
H  40.83900 46.64900 24.49100
H  40.46900 47.34400 26.12200
H  39.20700 46.59300 25.20900
H  39.39800 44.51400 30.14400
H  42.10000 47.26900 32.47700
H  42.23800 45.79700 33.31500
H  40.74500 46.74000 33.54000
Mg 27.58800 56.39200 40.30500
C  25.41000 53.84900 39.79200
C  30.18900 54.26600 39.56200
C  29.71400 59.09600 40.31400
C  24.94300 58.48700 40.92500
N  27.69400 54.36000 39.57700
C  26.71500 53.44100 39.48000
C  27.15800 52.12400 38.96400
C  28.72500 52.20800 39.16400
C  28.89200 53.72500 39.48100
C  29.16500 51.31000 40.34000
C  26.70300 51.80300 37.46800
C  27.30400 52.60900 36.36100
H  26.40200 53.64100 35.57800
N  29.65700 56.60100 39.84400
C  30.56000 55.61300 39.74300
C  31.88800 56.24300 39.68600
C  31.73300 57.61600 39.83900
C  30.29800 57.85800 40.00900
C  33.14600 55.45200 39.41900
C  32.92200 58.57800 39.78300
O  34.00800 58.24300 39.33500
C  32.66200 59.95400 40.18200
N  27.33200 58.54800 40.35900
C  28.35500 59.46100 40.49400
C  27.73700 60.82300 41.03700
C  26.20800 60.63700 40.87700
C  26.14400 59.11900 40.74500
C  28.19600 61.07400 42.46900
C  25.46300 61.36500 39.77700
C  24.75000 62.60800 40.25000
N  25.58500 56.22400 40.43200
C  24.62900 57.11200 40.79700
C  23.35000 56.47900 40.96400
C  23.56500 55.19100 40.47300
C  24.93400 55.12400 40.13500
C  22.04700 57.03100 41.49100
C  22.94700 53.94100 40.14100
O  21.77900 53.62600 40.19000
C  24.12300 52.99300 39.67400
C  24.14500 51.62900 40.35600
O  23.65400 50.59900 39.88000
O  24.74700 51.69800 41.59400
C  24.70200 50.39500 42.32800
H  30.96500 53.52300 39.36400
H  30.25800 60.03900 40.40300
H  24.11500 59.11100 41.26900
H  26.59600 51.45200 39.61200
H  29.26600 51.88400 38.27500
H  29.48000 50.32500 39.99700
H  28.33000 51.35600 41.04000
H  30.08100 51.73400 40.75200
H  25.61400 51.75600 37.42800
H  26.92100 50.77800 37.17000
H  27.82200 52.05300 35.58100
H  28.14700 53.18200 36.74800
H  33.03900 54.36800 39.46800
H  33.98800 55.54000 40.10500
H  33.58400 55.62000 38.43500
H  32.32700 60.10800 41.20800
H  32.10300 60.33900 39.33000
H  33.56400 60.55100 40.04200
H  28.02400 61.65900 40.39900
H  25.80500 60.72400 41.88600
H  27.59400 61.76000 43.06600
H  29.25200 61.33700 42.40800
H  28.13300 60.09400 42.94200
H  24.80800 60.73300 39.17800
H  26.17600 61.76700 39.05800
H  24.90600 62.80200 41.31100
H  23.68000 62.55800 40.04900
H  25.13100 63.51200 39.77400
H  21.33500 57.27800 40.70400
H  22.18500 57.86000 42.18600
H  21.57200 56.22800 42.05400
H  24.07200 52.64300 38.64300
H  23.77100 50.24800 42.87600
H  25.53800 50.46100 43.02400
H  24.96900 49.56000 41.68100

