158

Mg -2.51400 17.09100 26.11200
C  -2.96500 14.90800 28.84800
C  -2.96500 19.74200 28.05700
C  -2.17400 18.88400 23.26700
C  -2.72200 14.12100 23.91200
N  -3.00500 17.29000 28.27700
C  -3.02500 16.24800 29.18900
C  -3.30400 16.85100 30.60500
C  -3.28100 18.41400 30.32700
C  -3.05600 18.50300 28.77900
C  -4.49600 19.20100 30.78200
C  -2.42300 16.30100 31.77000
C  -2.20600 17.28000 32.94200
H  -2.27000 16.70500 34.36500
N  -2.55800 19.04300 25.78300
C  -2.74300 20.02900 26.69500
C  -2.81400 21.33300 26.10600
C  -2.50300 21.04900 24.67600
C  -2.32900 19.57400 24.52500
C  -3.08800 22.67000 26.73800
C  -2.53000 22.06100 23.49300
O  -2.09400 21.79300 22.39700
C  -2.78500 23.52900 23.73700
N  -2.53800 16.53800 23.80400
C  -2.23600 17.50500 22.94600
C  -2.08700 16.98200 21.56300
C  -2.01400 15.42100 21.76900
C  -2.49200 15.30800 23.28600
C  -3.18700 17.43500 20.55100
C  -0.58300 14.86900 21.33200
C  0.62000 15.25900 22.26100
N  -2.61100 15.00100 26.33000
C  -2.77100 13.98600 25.32800
C  -3.09800 12.68800 26.01500
C  -3.08500 13.08200 27.37000
C  -2.81000 14.43500 27.50400
C  -3.40000 11.34900 25.38200
C  -3.28500 12.56300 28.73700
O  -3.53900 11.37500 29.07100
C  -3.10300 13.70300 29.71300
C  -1.97300 13.39000 30.64000
O  -0.78400 13.50900 30.44800
O  -2.53400 12.82700 31.73300
C  -1.61600 12.43700 32.81500
H  -2.97000 20.58900 28.74500
H  -1.91100 19.47400 22.38700
H  -2.71400 13.24400 23.26100
H  -4.35000 16.57600 30.73800
H  -2.41500 18.95500 30.70800
H  -4.24800 20.18300 31.18400
H  -5.06500 18.54500 31.44000
H  -5.25100 19.22500 29.99600
H  -1.43500 16.16600 31.32800
H  -2.88600 15.35300 32.04600
H  -2.93500 18.09000 32.94600
H  -1.26800 17.82500 32.82900
H  -2.18100 23.18700 27.05000
H  -3.54400 22.59400 27.72500
H  -3.64700 23.31400 26.05900
H  -3.85200 23.46400 23.94800
H  -2.63200 23.93900 22.73800
H  -2.19200 24.00700 24.51700
H  -1.07000 17.26700 21.29100
H  -2.71200 14.78800 21.22000
H  -3.76100 18.24400 21.00400
H  -3.92400 16.66900 20.30800
H  -2.80700 17.81300 19.60200
H  -0.33900 15.39500 20.40900
H  -0.56800 13.77900 21.32000
H  1.06000 14.29500 22.51600
H  0.29600 15.80700 23.14600
H  1.39500 15.69400 21.63000
H  -4.22600 10.86700 25.90600
H  -2.52400 10.72900 25.57300
H  -3.75100 11.40500 24.35200
H  -4.01300 13.78600 30.30700
H  -0.93100 13.24800 33.05900
H  -1.05600 11.56900 32.46700
H  -2.26500 12.09200 33.62000
Mg -2.05000 33.97000 25.57300
C  -3.81800 32.49400 28.29200
C  -0.86200 36.34500 27.93500
C  -1.04700 35.88800 23.08900
C  -3.59700 31.80700 23.43600
N  -2.32800 34.37100 27.75800
C  -3.06900 33.56500 28.67100
C  -2.78900 33.96900 30.09000
C  -2.12700 35.40500 29.91800
C  -1.75600 35.36200 28.45700
C  -2.99900 36.61300 30.32800
C  -1.84800 32.93900 30.89300
C  -2.26800 32.31400 32.19900
H  -1.17700 31.83700 33.12500
N  -1.03800 35.83400 25.50500
C  -0.52500 36.58400 26.59500
C  0.26000 37.65200 26.02800
C  0.14500 37.53800 24.55100
C  -0.72300 36.41200 24.34200
C  1.15600 38.63000 26.84700
C  0.76600 38.43800 23.49600
O  0.52100 38.26800 22.29100
C  1.71800 39.49900 23.86900
N  -2.40900 33.92900 23.54600
C  -1.83300 34.83300 22.66900
C  -1.94700 34.30600 21.23400
C  -2.54800 32.92200 21.43900
C  -2.79300 32.81500 22.91800
C  -2.76600 35.11200 20.31400
C  -1.78000 31.67300 20.93800
C  -0.43700 31.33300 21.54900
N  -3.44400 32.47700 25.76400
C  -3.89800 31.60500 24.83400
C  -4.87400 30.72000 25.41500
C  -4.76900 31.00100 26.78300
C  -3.91800 32.05000 26.94500
C  -5.87500 29.87800 24.72500
C  -5.37000 30.64000 28.01800
O  -6.25700 29.84600 28.33200
C  -4.55200 31.45700 29.13400
C  -5.41300 32.12500 30.18000
O  -6.11200 33.10200 29.99900
O  -5.15300 31.49200 31.35500
C  -5.95600 31.91400 32.46100
H  -0.24100 36.96700 28.58200
H  -0.63700 36.48500 22.27200
H  -3.99500 31.09300 22.71100
H  -3.67100 34.19300 30.68900
H  -1.26600 35.45300 30.58500
H  -2.98600 37.38000 29.55400
H  -2.62000 37.04300 31.25500
H  -4.00000 36.26600 30.58300
H  -0.80300 33.21900 31.02900
H  -1.74200 32.05900 30.26000
H  -2.97500 31.49700 32.05000
H  -2.84800 33.05200 32.75300
H  2.16800 38.82800 26.49600
H  1.19400 38.29900 27.88500
H  0.66500 39.60100 26.92300
H  1.37700 40.34500 24.46400
H  1.98600 39.84400 22.87100
H  2.57200 38.98300 24.31000
H  -0.95300 34.27500 20.78800
H  -3.58200 32.87500 21.10000
H  -3.22000 35.90200 20.91300
H  -3.61900 34.61600 19.85000
H  -2.14300 35.57700 19.55000
H  -1.58700 31.90800 19.89200
H  -2.48400 30.84100 20.97800
H  0.39000 31.57300 20.88100
H  -0.37000 30.27200 21.79000
H  -0.23600 31.84600 22.48900
H  -5.77400 30.00400 23.64700
H  -6.88400 30.09700 25.07300
H  -5.67100 28.83700 24.97800
H  -3.75900 30.95400 29.68700
H  -6.99200 32.14300 32.21100
H  -5.47200 32.81300 32.84100
H  -5.98100 31.15000 33.23800

