158

Mg -1.12000 17.58300 27.26200
C  -1.64000 15.17500 29.74200
C  -1.59000 20.03100 29.48800
C  -0.55900 19.87100 24.71400
C  -0.50900 14.95000 24.90900
N  -1.57900 17.60600 29.35400
C  -1.79200 16.48400 30.23500
C  -2.02100 16.98000 31.71800
C  -2.05700 18.51600 31.49700
C  -1.83700 18.75700 30.00200
C  -3.31400 19.26400 32.18600
C  -0.86700 16.50000 32.65700
C  -0.55400 17.33700 33.92200
H  -0.12600 16.45100 35.12800
N  -1.19400 19.65400 27.07300
C  -1.43200 20.50300 28.13300
C  -1.38800 21.91200 27.67300
C  -0.99500 21.80600 26.27400
C  -0.97100 20.37700 25.94700
C  -1.73700 23.08300 28.53500
C  -0.88600 22.92200 25.25900
O  -0.66900 22.81700 24.03200
C  -1.24600 24.29500 25.85100
N  -0.71700 17.43800 25.12400
C  -0.57600 18.54000 24.26500
C  -0.37400 18.03600 22.82400
C  -0.14000 16.53400 23.01300
C  -0.43100 16.28200 24.46800
C  -1.62800 18.46900 21.89400
C  1.26700 16.04100 22.58100
C  2.46300 16.20700 23.50100
N  -1.17500 15.50900 27.25400
C  -0.83600 14.55400 26.29300
C  -1.11500 13.21400 26.76600
C  -1.37800 13.36600 28.13000
C  -1.38000 14.78700 28.36200
C  -0.96800 11.92000 26.01200
C  -1.65600 12.74600 29.40900
O  -1.69500 11.55900 29.68000
C  -1.88000 13.89100 30.47000
C  -0.94600 13.42400 31.57400
O  0.26600 13.47100 31.51200
O  -1.67000 12.69700 32.50000
C  -0.82000 12.17900 33.56300
H  -1.86500 20.82200 30.18900
H  -0.47200 20.45000 23.79200
H  -0.18400 14.18400 24.20200
H  -2.96500 16.57700 32.08500
H  -1.15200 18.98600 31.88200
H  -2.98300 19.97100 32.94700
H  -3.87800 18.48800 32.70400
H  -3.99100 19.78400 31.50800
H  -0.03100 16.26700 31.99700
H  -1.25300 15.57300 33.08100
H  -1.46100 17.91300 34.10500
H  0.20900 18.08800 33.71700
H  -2.55000 23.60300 28.02900
H  -0.86400 23.71500 28.70000
H  -2.09700 22.83500 29.53300
H  -2.31500 24.34300 26.05400
H  -1.09900 25.05800 25.08600
H  -0.53600 24.45900 26.66200
H  0.50100 18.52800 22.39900
H  -0.92000 15.96000 22.51300
H  -1.81200 19.52500 22.09400
H  -2.45900 17.94800 22.36800
H  -1.50900 18.29100 20.82500
H  1.57600 16.52200 21.65300
H  1.29500 14.96300 22.42600
H  3.38500 16.39500 22.95100
H  2.54900 15.43500 24.26600
H  2.43400 17.15600 24.03700
H  -0.31600 12.11100 25.15900
H  -1.98400 11.68200 25.69800
H  -0.72400 11.06600 26.64400
H  -2.90200 13.90200 30.84900
H  -0.37800 11.21100 33.32300
H  -1.35500 12.14600 34.51200
H  0.01500 12.84600 33.77800
Mg 24.12100 -6.03000 46.08300
C  26.24700 -3.69100 44.39500
C  21.61000 -4.88800 43.96900
C  22.38000 -8.82700 46.74600
C  26.99900 -7.44100 47.54900
N  23.95100 -4.50100 44.53600
C  24.92100 -3.65200 43.96500
C  24.39700 -2.63400 43.00500
C  22.84500 -2.82200 43.10700
C  22.77400 -4.19300 43.91100
C  22.17700 -1.65300 43.79800
C  24.84800 -2.86800 41.55800
C  25.29600 -1.62700 40.79200
H  24.54900 -1.28500 39.44400
N  22.18700 -6.78100 45.44700
C  21.34200 -6.14200 44.60600
C  20.03900 -6.90300 44.59300
C  20.22600 -8.07800 45.43600
C  21.66100 -7.90900 45.96100
C  18.95900 -6.35000 43.82000
C  19.23000 -9.19000 45.79600
O  18.12000 -9.09100 45.31000
C  19.41900 -10.35700 46.66600
N  24.60800 -7.87400 47.04900
C  23.73000 -8.89400 47.21500
C  24.25400 -10.04800 48.12900
C  25.68000 -9.44200 48.47200
C  25.79000 -8.19100 47.61300
C  23.42800 -10.44900 49.41700
C  26.86300 -10.42100 48.37300
C  27.98500 -10.40200 49.45200
N  26.20900 -5.57100 46.19400
C  27.21200 -6.29300 46.75500
C  28.40300 -5.50700 46.63300
C  28.13400 -4.55800 45.64900
C  26.78300 -4.66200 45.36800
C  29.73400 -5.81500 47.20300
C  28.67100 -3.53000 44.79000
O  29.79100 -3.05900 44.63100
C  27.42600 -2.91000 43.97300
C  27.29700 -1.49000 44.31200
O  26.99200 -1.08700 45.42700
O  27.56400 -0.69700 43.18600
C  27.56200 0.76700 43.45600
H  20.85600 -4.43500 43.32200
H  21.70000 -9.67600 46.84200
H  27.84400 -7.75300 48.16600
H  24.64100 -1.63900 43.37900
H  22.44300 -2.99200 42.10800
H  22.25500 -0.78700 43.14100
H  22.45900 -1.47000 44.83500
H  21.09700 -1.79500 43.82200
H  24.19000 -3.54700 41.01600
H  25.82600 -3.32800 41.41700
H  26.37200 -1.52900 40.64700
H  25.20100 -0.76200 41.44800
H  19.41500 -6.21000 42.84000
H  18.60700 -5.38700 44.18800
H  18.12000 -7.01400 43.61100
H  18.46200 -10.87800 46.69600
H  19.52200 -9.97900 47.68300
H  20.18700 -11.00200 46.23800
H  24.47200 -10.90600 47.49300
H  25.59700 -9.07100 49.49300
H  22.43700 -9.99800 49.47300
H  23.92400 -10.50400 50.38600
H  23.19300 -11.48000 49.15300
H  27.30400 -10.22400 47.39600
H  26.35900 -11.38600 48.43600
H  28.89700 -10.28800 48.86600
H  27.97000 -11.39700 49.89500
H  27.79000 -9.67400 50.24000
H  29.84400 -6.90000 47.22500
H  29.65600 -5.38600 48.20100
H  30.44600 -5.19600 46.65600
H  27.57300 -3.08800 42.90800
H  28.28300 1.08200 44.21000
H  26.53300 0.94500 43.76900
H  27.74700 1.23900 42.49200

