158

Mg 26.12300 0.88000 29.26300
C  28.06200 0.00300 32.10700
C  23.36900 1.11400 31.11800
C  24.31500 0.97200 26.30100
C  28.95000 -0.05800 27.31000
N  25.83000 0.64100 31.32400
C  26.76800 0.42900 32.35500
C  26.18600 0.59200 33.73900
C  24.71100 0.82100 33.41700
C  24.60000 0.82500 31.85000
C  23.70200 -0.14400 34.15000
C  26.85400 1.75300 34.57300
C  26.06200 2.25200 35.83700
H  26.91900 2.52000 37.11700
N  24.09000 1.02500 28.76500
C  23.08800 1.14900 29.69700
C  21.83400 1.30600 28.95600
C  22.15100 1.42100 27.55300
C  23.57700 1.10400 27.45900
C  20.50500 1.38000 29.50900
C  21.23800 1.75700 26.43300
O  21.70700 1.86400 25.28100
C  19.89700 2.14800 26.63900
N  26.56000 0.57900 27.17300
C  25.66500 0.81800 26.15900
C  26.26200 0.67900 24.77000
C  27.74400 0.56600 25.08400
C  27.81100 0.39700 26.64500
C  25.76900 -0.54200 24.04300
C  28.48800 1.93900 24.69400
C  27.95500 3.18200 25.48800
N  28.11200 0.19100 29.59400
C  29.15300 -0.12900 28.68300
C  30.33500 -0.54400 29.39200
C  29.93700 -0.54400 30.74200
C  28.61800 -0.10700 30.81800
C  31.60500 -0.91500 28.73500
C  30.37300 -0.78800 32.13100
O  31.43900 -1.13300 32.57200
C  29.16900 -0.30500 33.02000
C  28.93400 -1.46700 33.96600
O  28.46000 -2.61000 33.66600
O  29.25700 -1.08300 35.24000
C  29.20300 -2.15900 36.22800
H  22.49800 1.46800 31.67400
H  23.83700 1.09400 25.32600
H  29.81000 -0.39200 26.72600
H  26.51500 -0.36100 34.15300
H  24.36900 1.83700 33.61700
H  23.09200 -0.76500 33.49400
H  23.07900 0.53800 34.72800
H  24.23600 -0.82800 34.81000
H  26.87100 2.61400 33.90500
H  27.89000 1.50800 34.80800
H  25.18300 1.64600 36.05300
H  25.54100 3.15300 35.51300
H  20.03700 2.36200 29.58600
H  20.58100 1.00600 30.53000
H  19.86600 0.76800 28.87300
H  19.89900 2.85900 27.46500
H  19.39700 1.21800 26.91100
H  19.41400 2.53500 25.74200
H  25.90200 1.54400 24.21200
H  28.18300 -0.33200 24.65000
H  24.71600 -0.31900 23.87200
H  25.80800 -1.51000 24.54100
H  26.22900 -0.58000 23.05500
H  28.60000 2.13100 23.62700
H  29.52100 1.80700 25.01500
H  27.46000 2.87000 26.40700
H  27.24000 3.70400 24.85100
H  28.85500 3.74200 25.73900
H  32.22800 -0.02100 28.74800
H  31.47100 -1.15800 27.68100
H  31.95900 -1.71200 29.38900
H  29.54600 0.41400 33.74700
H  28.23900 -2.13800 36.73600
H  29.88600 -1.79000 36.99400
H  29.36700 -3.17100 35.85900
Mg 0.65500 43.73600 26.02200
C  2.89200 43.25400 28.53200
C  -1.92800 43.41300 28.29400
C  -1.45700 43.66900 23.39400
C  3.36300 43.69400 23.74100
N  0.49500 43.65000 28.19200
C  1.61000 43.48800 28.94900
C  1.16800 43.51900 30.49000
C  -0.40900 43.31800 30.33600
C  -0.66700 43.57700 28.86500
C  -1.12700 41.95800 30.81400
C  1.71900 44.79900 31.32200
C  1.33600 44.90300 32.82100
H  0.95400 43.61500 33.59400
N  -1.47000 43.45700 25.89100
C  -2.37500 43.38700 26.94000
C  -3.69400 43.41700 26.36800
C  -3.55100 43.48800 24.92300
C  -2.10600 43.60400 24.68000
C  -4.95000 43.56700 27.20300
C  -4.55600 43.34700 23.83000
O  -4.29300 43.31000 22.59900
C  -6.00900 43.10500 24.23000
N  0.90000 43.67000 23.89800
C  -0.12600 43.64400 23.05300
C  0.33900 43.68700 21.60100
C  1.87800 43.83500 21.68500
C  2.09700 43.66800 23.17800
C  -0.29400 42.65200 20.64100
C  2.48000 45.11700 21.07700
C  2.04500 45.47400 19.66000
N  2.71200 43.67400 26.06500
C  3.70500 43.59400 25.06800
C  4.92300 43.48700 25.70900
C  4.67200 43.24400 26.99600
C  3.32500 43.39200 27.20400
C  6.24800 43.74900 25.02500
C  5.37100 43.01700 28.25700
O  6.54100 42.99300 28.57900
C  4.20800 43.05700 29.26600
C  4.30600 41.86100 30.13200
O  3.74500 40.80700 29.94300
O  5.00600 42.18500 31.29800
C  5.14800 41.15600 32.40500
H  -2.75200 43.17900 28.97100
H  -2.13200 43.81800 22.54900
H  4.13700 43.66400 22.97200
H  1.51800 42.61100 30.98000
H  -0.92700 44.13300 30.84100
H  -0.36400 41.25500 31.14600
H  -1.69600 41.44400 30.03900
H  -1.88800 42.21200 31.55100
H  1.32400 45.63200 30.74000
H  2.79900 44.93400 31.26900
H  0.53600 45.61600 33.02000
H  2.11000 45.29800 33.47800
H  -5.74900 44.07700 26.66500
H  -4.74200 44.16100 28.09400
H  -5.39000 42.61700 27.50700
H  -6.48200 44.05400 24.48100
H  -5.85700 42.42400 25.06800
H  -6.50200 42.75200 23.32500
H  0.02800 44.68300 21.28500
H  2.28600 43.01700 21.09100
H  -0.81200 41.80000 21.08200
H  0.40600 42.21800 19.92700
H  -1.07100 43.16200 20.07300
H  3.56900 45.10600 21.13300
H  2.20100 45.92900 21.74800
H  1.42600 44.66000 19.28300
H  2.97200 45.44300 19.08800
H  1.56000 46.43500 19.49000
H  6.41500 44.81300 24.85700
H  6.40100 43.16300 24.11900
H  7.01000 43.26100 25.63300
H  4.47000 43.89700 29.91000
H  4.73300 41.60200 33.30800
H  6.19000 40.97800 32.67000
H  4.70200 40.17300 32.25300

