158

Mg 44.55800 5.04900 47.50300
C  42.42800 7.58000 46.58200
C  41.93400 2.75800 46.82800
C  46.80000 2.51300 47.48300
C  47.15600 7.37100 47.71300
N  42.48100 5.18400 46.52000
C  41.81400 6.39100 46.34100
C  40.35600 6.04600 45.88200
C  40.12300 4.55600 46.39700
C  41.58800 4.12200 46.60300
C  39.21600 4.47000 47.71500
C  40.26000 6.26100 44.35600
C  39.13300 7.31100 43.91900
H  39.50100 8.15400 42.73500
N  44.37000 2.95500 47.21300
C  43.23200 2.24000 46.97700
C  43.52000 0.82500 46.99900
C  44.90900 0.70300 47.20800
C  45.44500 2.11400 47.28800
C  42.55000 -0.19500 46.84500
C  45.62000 -0.63100 47.35600
O  45.05900 -1.69000 47.16000
C  47.09900 -0.67300 47.81300
N  46.73500 4.95800 47.24900
C  47.40900 3.79900 47.49800
C  48.86400 3.99800 47.79600
C  48.93800 5.55400 48.04000
C  47.54600 6.00800 47.60400
C  49.54300 3.13300 48.95700
C  50.14500 6.28800 47.49200
C  51.28500 6.47700 48.57300
N  44.79100 7.06300 47.21100
C  45.90500 7.86300 47.42900
C  45.47200 9.27100 47.34500
C  44.12000 9.20900 47.02700
C  43.78500 7.82500 46.90600
C  46.42400 10.43600 47.39000
C  43.00900 9.94700 46.68100
O  42.87200 11.14100 46.42900
C  41.81500 8.97200 46.49900
C  40.86700 9.32200 47.61500
O  40.86700 8.83500 48.74700
O  39.91600 10.22400 47.12100
C  38.70700 10.51000 47.91800
H  41.04300 2.12600 46.81200
H  47.53100 1.70300 47.53600
H  47.93400 8.08100 48.00300
H  39.75200 6.74300 46.46300
H  39.65600 3.86300 45.69800
H  38.67400 5.34600 48.07200
H  39.81500 4.33500 48.61500
H  38.45500 3.70800 47.54500
H  40.05000 5.26500 43.96800
H  41.20200 6.62400 43.94300
H  38.81300 7.84800 44.81200
H  38.32000 6.67000 43.57900
H  41.72400 0.11400 46.20400
H  42.23900 -0.71800 47.75000
H  42.92900 -0.91900 46.12400
H  47.41300 -1.71200 47.71100
H  47.25200 -0.20000 48.78300
H  47.80800 -0.23700 47.10900
H  49.41700 3.66900 46.91700
H  48.84400 5.62000 49.12300
H  50.54300 3.48800 49.20700
H  49.73600 2.09900 48.67100
H  48.99500 3.19000 49.89800
H  49.87000 7.28000 47.13300
H  50.51100 5.73100 46.63000
H  51.10500 5.82700 49.43000
H  51.25100 7.51900 48.89000
H  52.30100 6.36600 48.19500
H  47.25900 10.28700 46.70600
H  46.77000 10.68100 48.39400
H  46.00000 11.36900 47.02000
H  41.28700 9.11500 45.55700
H  37.90200 10.06600 47.33400
H  38.56900 11.58300 48.05800
H  38.64200 10.03000 48.89500
Mg 35.80300 49.35300 24.09900
C  35.93800 47.62000 27.28200
C  34.49500 51.98100 25.71500
C  35.45900 50.63400 21.15200
C  37.01500 46.26200 22.66600
N  35.29700 49.73000 26.26800
C  35.48200 48.98300 27.37800
C  35.14700 49.74200 28.64200
C  34.54700 51.06700 28.09900
C  34.80400 50.94700 26.54100
C  32.97400 51.23600 28.53800
C  36.31100 49.94500 29.68000
C  36.19500 49.13400 31.05600
H  34.75600 49.10400 31.63900
N  35.25400 51.20900 23.52200
C  34.69000 52.15300 24.32600
C  34.45900 53.35400 23.56700
C  34.74500 52.96100 22.23000
C  35.16800 51.53200 22.24800
C  34.10400 54.66200 24.13800
C  34.80300 53.79800 21.01600
O  35.08600 53.37500 19.87200
C  34.59100 55.28600 21.15300
N  36.07300 48.50900 22.25200
C  35.88800 49.29900 21.16400
C  36.28100 48.56100 19.90100
C  37.28100 47.55900 20.53800
C  36.69500 47.34700 21.85300
C  35.08100 48.00600 19.11100
C  38.64200 48.26600 20.84000
C  39.81500 47.38800 20.41100
N  36.32600 47.29800 24.78000
C  36.86000 46.27100 24.04400
C  37.17900 45.23000 24.94900
C  36.84500 45.70500 26.23000
C  36.25200 46.95600 26.05400
C  37.72500 43.86300 24.54800
C  36.95400 45.43900 27.64300
O  37.37700 44.40200 28.12300
C  36.27800 46.64500 28.43500
C  35.12800 46.27200 29.32400
O  33.96300 46.48000 29.08200
O  35.58500 45.66200 30.39100
C  34.60900 44.97900 31.27100
H  34.07400 52.84100 26.24100
H  35.28600 50.97400 20.12900
H  37.44700 45.35300 22.24300
H  34.33700 49.13800 29.05100
H  35.12600 51.92300 28.44300
H  32.85900 52.04300 29.26100
H  32.65400 50.30900 29.01300
H  32.20500 51.52500 27.82100
H  36.44600 50.99100 29.95500
H  37.22000 49.54100 29.23400
H  36.80300 49.72700 31.73900
H  36.70500 48.19300 30.85000
H  34.99700 55.07200 24.61000
H  33.39700 54.48400 24.94900
H  33.60700 55.24900 23.36600
H  34.79900 55.74000 20.18400
H  35.25800 55.68600 21.91700
H  33.54300 55.45800 21.39600
H  36.77800 49.13600 19.12000
H  37.37500 46.59200 20.04400
H  34.10800 48.27300 19.52400
H  35.12400 46.91700 19.11700
H  35.04000 48.30100 18.06300
H  38.89600 48.30000 21.89900
H  38.82600 49.24500 20.39700
H  39.64900 46.78000 19.52100
H  39.96800 46.59800 21.14600
H  40.70700 47.99400 20.25300
H  38.52400 44.06300 23.83300
H  36.92100 43.29500 24.08100
H  38.03800 43.14000 25.30000
H  37.11300 47.05200 29.00600
H  34.23200 45.46800 32.16900
H  34.99100 44.04000 31.67100
H  33.70200 44.71100 30.72900

