158

Mg 1.06800 -1.70700 45.05000
C  4.51900 -0.91300 44.17400
C  0.18400 1.15400 43.35500
C  -2.09200 -2.63000 45.21200
C  2.22500 -4.83200 46.12000
N  2.25100 -0.08100 44.04100
C  3.62700 0.05400 43.85500
C  3.92600 1.29700 43.06200
C  2.48800 2.09600 43.02300
C  1.55400 0.98700 43.57300
C  2.33900 3.41700 43.83100
C  4.51800 1.02300 41.63300
C  5.92700 1.66300 41.35500
H  6.81000 0.92100 40.31000
N  -0.74000 -0.82100 44.49900
C  -0.88600 0.36600 43.79500
C  -2.28800 0.64400 43.56800
C  -2.98900 -0.35500 44.30700
C  -1.94400 -1.35900 44.71300
C  -2.88800 1.81200 42.80200
C  -4.46600 -0.37400 44.75800
O  -5.26200 0.48000 44.29600
C  -5.00200 -1.40200 45.78700
N  0.14100 -3.47000 45.79800
C  -1.17900 -3.62800 45.67700
C  -1.62900 -5.03900 46.01200
C  -0.25100 -5.72100 46.45400
C  0.81100 -4.64400 46.05700
C  -2.86500 -5.06400 47.07800
C  -0.17800 -7.16000 45.73900
C  -0.48200 -8.40000 46.58500
N  2.99500 -2.69000 45.28900
C  3.18700 -3.92200 45.71000
C  4.70600 -4.07300 45.82100
C  5.21300 -2.88100 45.20100
C  4.13300 -2.14200 44.80800
C  5.38400 -5.28700 46.31600
C  6.39400 -2.24300 44.84400
O  7.55300 -2.61700 45.03700
C  6.04300 -1.00800 43.98000
C  6.71100 0.17100 44.69700
O  6.40000 0.52400 45.80700
O  7.80500 0.63200 43.92600
C  8.36100 1.72100 44.70700
H  0.03200 2.10400 42.83800
H  -3.11000 -3.02600 45.19300
H  2.60600 -5.78000 46.50600
H  4.55600 1.96700 43.64700
H  2.28800 2.37200 41.98700
H  1.91900 4.16600 43.16000
H  3.35300 3.65800 44.15000
H  1.72400 3.35200 44.72900
H  3.80700 1.17900 40.82200
H  4.66200 -0.05700 41.60100
H  6.43400 1.84100 42.30400
H  5.59600 2.61500 40.93900
H  -3.93600 1.53500 42.68300
H  -2.22100 2.02500 41.96600
H  -2.71500 2.59400 43.54100
H  -4.19000 -1.73000 46.43600
H  -5.47300 -2.20900 45.22500
H  -5.77500 -0.97900 46.42900
H  -2.09800 -5.46300 45.12400
H  -0.35100 -5.72200 47.53900
H  -2.52400 -5.51100 48.01300
H  -3.63700 -5.73900 46.70900
H  -3.29200 -4.11600 47.40400
H  0.87700 -7.22100 45.47300
H  -0.78000 -7.13900 44.83100
H  0.40500 -8.69800 47.14400
H  -0.88900 -9.22100 45.99500
H  -1.29000 -8.23700 47.29800
H  5.50200 -5.99300 45.49400
H  4.90400 -5.57400 47.25200
H  6.37600 -4.91300 46.56800
H  6.41700 -1.15700 42.96700
H  9.21600 2.11600 44.15800
H  8.87600 1.33300 45.58600
H  7.72800 2.56900 44.96800
Mg 0.56400 7.72000 27.52500
C  1.49000 9.76400 30.07700
C  0.37400 5.03800 29.72300
C  -0.13100 5.59400 24.88500
C  0.97800 10.34900 25.33000
N  1.02100 7.42000 29.59900
C  1.25500 8.45300 30.51200
C  1.10300 7.88600 31.92900
C  1.18900 6.30100 31.66600
C  0.85500 6.22800 30.20800
C  2.48500 5.60900 32.04100
C  -0.25500 8.34300 32.66800
C  -0.35100 8.02000 34.18000
H  1.02300 7.89700 34.90000
N  0.32300 5.53600 27.35200
C  0.15200 4.63100 28.42700
C  -0.34000 3.39200 27.83000
C  -0.38100 3.52500 26.45200
C  -0.09900 4.95600 26.19400
C  -0.61200 2.23700 28.72500
C  -0.76700 2.48900 25.39000
O  -0.78000 2.73000 24.20400
C  -1.13900 1.04600 25.82900
N  0.51200 7.98400 25.36900
C  0.19100 6.97900 24.51300
C  0.24700 7.44300 23.10600
C  0.63400 8.92600 23.20000
C  0.67000 9.17000 24.71700
C  1.37000 6.64100 22.38800
C  -0.16000 9.93400 22.34200
C  -1.40000 10.49200 22.91400
N  1.06700 9.73700 27.60700
C  1.18400 10.71800 26.63500
C  1.54000 11.97600 27.30000
C  1.69100 11.67600 28.66800
C  1.32400 10.29500 28.78300
C  1.91800 13.33300 26.57300
C  2.08100 12.10100 29.99700
O  2.55300 13.13500 30.38700
C  1.89000 10.96100 30.97800
C  3.01600 10.75200 31.95900
O  3.92000 9.95100 32.02800
O  2.68400 11.57800 32.99500
C  3.50800 11.53100 34.24900
H  0.15400 4.27800 30.47600
H  -0.44100 4.99400 24.02700
H  1.08400 11.23200 24.69700
H  1.91700 8.31500 32.51300
H  0.44500 5.73900 32.23100
H  2.93200 5.09200 31.19200
H  2.33600 4.90500 32.86000
H  3.17100 6.41700 32.29500
H  -1.12600 7.94900 32.14400
H  -0.30300 9.43200 32.64300
H  -0.92200 7.09200 34.22600
H  -0.88100 8.75100 34.79000
H  -1.63200 1.98500 28.43500
H  -0.63200 2.52700 29.77600
H  0.10000 1.44400 28.49700
H  -0.42400 0.54900 26.48600
H  -1.30600 0.46300 24.92400
H  -2.16100 0.97300 26.19900
H  -0.71000 7.20900 22.63900
H  1.66000 9.02500 22.84800
H  2.00500 6.10000 23.08900
H  2.00500 7.26200 21.75600
H  0.88300 5.90000 21.75400
H  -0.36500 9.54500 21.34500
H  0.58300 10.73000 22.39200
H  -1.15400 11.45000 23.37200
H  -1.80400 9.74700 23.60000
H  -2.10400 10.64700 22.09600
H  2.54200 13.02600 25.73400
H  2.40000 14.12500 27.14600
H  0.95800 13.74600 26.26100
H  1.05800 11.24100 31.62400
H  2.89200 11.08700 35.03100
H  3.82700 12.50900 34.60800
H  4.43700 10.97400 34.13200

