158

Mg 43.69200 4.38600 46.46600
C  41.96400 7.46000 46.83500
C  40.80900 2.60800 46.34900
C  45.57100 1.70000 45.86600
C  46.65500 6.46400 46.28500
N  41.64300 5.03300 46.56200
C  41.14400 6.27400 46.78100
C  39.61600 6.17800 46.83900
C  39.29200 4.63100 46.86300
C  40.66300 4.01500 46.64600
C  38.60200 4.12300 48.18800
C  38.85300 7.06300 45.78100
C  39.42000 7.40000 44.40600
H  38.76600 6.58000 43.17000
N  43.25700 2.43700 46.14000
C  42.01300 1.87300 46.08400
C  42.05700 0.43200 45.84300
C  43.43800 0.12700 45.81400
C  44.16600 1.44800 45.89200
C  40.79500 -0.35900 45.66300
C  44.03000 -1.31700 45.66200
O  43.22500 -2.27100 45.64300
C  45.46500 -1.52000 45.46300
N  45.81700 4.17600 45.99100
C  46.32000 2.83000 46.00300
C  47.87900 2.83200 46.07300
C  48.17500 4.37700 46.01100
C  46.82100 5.10700 46.11400
C  48.39300 1.91000 47.22900
C  48.88900 4.88000 44.74100
C  50.42000 4.83500 44.95300
N  44.30000 6.53900 46.52300
C  45.46900 7.18400 46.48500
C  45.27200 8.63700 46.67800
C  43.87200 8.68000 46.83100
C  43.33500 7.44400 46.73800
C  46.21800 9.72900 46.75300
C  42.78400 9.58200 47.07700
O  42.82800 10.80500 47.38400
C  41.49100 8.82300 47.06000
C  40.93500 8.93600 48.47600
O  41.24300 8.26800 49.45500
O  40.01700 9.93500 48.38100
C  39.34300 10.37700 49.60900
H  39.78700 2.22200 46.31800
H  46.10800 0.75300 45.77100
H  47.51000 7.13000 46.42100
H  39.40000 6.53300 47.84700
H  38.51800 4.38200 46.13600
H  38.43400 5.00100 48.81100
H  39.30900 3.50800 48.74400
H  37.65800 3.60400 48.02400
H  38.61000 8.04400 46.18900
H  37.89300 6.63800 45.48700
H  40.49700 7.50400 44.27500
H  39.08900 8.41400 44.18300
H  40.56000 -0.66800 46.68100
H  41.05600 -1.17200 44.98500
H  40.00900 0.32300 45.34000
H  45.45200 -2.60500 45.35800
H  46.04100 -1.29900 46.36200
H  45.84200 -1.07400 44.54200
H  48.29100 2.31900 45.20400
H  48.67500 4.73100 46.91300
H  48.96100 1.04400 46.89000
H  47.53200 1.51700 47.77000
H  49.07400 2.45100 47.88700
H  48.50000 5.88300 44.56600
H  48.70600 4.39700 43.78100
H  51.00100 4.60000 44.06000
H  50.61800 4.07000 45.70300
H  50.85900 5.81000 45.16700
H  46.70300 9.78100 47.72800
H  45.57600 10.59100 46.57300
H  46.95000 9.75600 45.94700
H  40.79300 9.25800 46.34400
H  39.73400 10.01500 50.56000
H  38.31100 10.04900 49.48500
H  39.45900 11.45400 49.73200
Mg 16.84900 51.46700 26.01400
C  18.85700 50.14100 28.62600
C  14.82200 52.70400 28.45000
C  15.14200 52.94800 23.49300
C  19.30900 50.27700 23.78600
N  16.74600 51.15700 28.28700
C  17.70900 50.70100 29.14600
C  17.30100 51.03600 30.64200
C  15.80000 51.43900 30.41400
C  15.78600 51.77900 28.98900
C  14.69800 50.53200 30.85900
C  18.34300 51.99100 31.28300
C  18.47000 51.87000 32.84500
H  17.47300 51.13100 33.69500
N  15.14000 52.62900 25.99700
C  14.44000 53.00900 27.12200
C  13.28600 53.75900 26.70300
C  13.33800 53.87200 25.28400
C  14.57000 53.12900 24.83800
C  12.27800 54.30100 27.68300
C  12.44300 54.66500 24.38700
O  12.56500 54.65200 23.16500
C  11.48200 55.58700 24.90100
N  17.10500 51.50700 23.91900
C  16.36300 52.27300 23.10300
C  17.03000 52.25400 21.71800
C  18.18400 51.28700 21.75900
C  18.23600 51.03900 23.24300
C  16.02200 52.10800 20.53800
C  19.41300 51.76100 20.99700
C  20.39400 50.74600 20.28700
N  18.66900 50.37900 26.08700
C  19.53400 49.95000 25.08600
C  20.64500 49.22700 25.67500
C  20.38000 49.33900 27.07900
C  19.20000 49.99200 27.27200
C  21.86000 48.66700 24.94800
C  20.95300 48.91100 28.28200
O  21.90000 48.15800 28.46300
C  20.05300 49.58800 29.37200
C  19.70500 48.63700 30.45600
O  18.90000 47.71600 30.28400
O  20.48000 48.85900 31.50600
C  20.25900 47.93100 32.65500
H  14.27100 53.22200 29.23700
H  14.65900 53.50200 22.68500
H  20.11900 49.98200 23.11600
H  17.41800 50.13400 31.24300
H  15.57300 52.28200 31.06600
H  14.48000 49.76600 30.11500
H  13.74500 50.99800 31.11100
H  14.93700 50.21300 31.87400
H  17.95600 52.96200 30.97100
H  19.36500 51.90800 30.91500
H  18.67200 52.88200 33.19600
H  19.36400 51.27800 33.04400
H  11.23700 54.37100 27.36800
H  12.68600 55.26200 27.99400
H  12.35600 53.82100 28.65800
H  11.91200 56.32100 25.58400
H  10.70300 55.11900 25.50300
H  11.06100 56.22100 24.12200
H  17.47200 53.23700 21.55400
H  17.94000 50.31900 21.32200
H  15.01400 52.00000 20.93800
H  16.14700 51.31600 19.79900
H  16.13900 53.02700 19.96400
H  20.05400 52.30900 21.68800
H  19.07300 52.44800 20.22300
H  20.46400 51.05200 19.24300
H  20.01700 49.72300 20.28700
H  21.37400 50.67100 20.75900
H  21.81400 47.58200 24.84800
H  22.83500 48.82300 25.41000
H  21.78800 49.11400 23.95600
H  20.59400 50.43600 29.79100
H  20.20000 46.91600 32.26000
H  19.45300 48.17500 33.34700
H  21.10600 47.95000 33.34100

