158

Mg 26.61800 49.69400 26.17000
C  24.56200 50.77700 28.83100
C  29.02400 48.78200 28.30400
C  28.42600 48.67500 23.37700
C  24.21200 50.90000 24.04200
N  26.66700 49.71000 28.31300
C  25.78200 50.18400 29.27200
C  26.26400 49.87100 30.66200
C  27.74900 49.29800 30.45700
C  27.86100 49.27600 28.94900
C  28.83300 50.10300 31.22300
C  25.29600 48.75800 31.32700
C  24.80800 49.23900 32.72000
H  25.66000 49.69300 33.89900
N  28.49800 48.86600 25.85200
C  29.30200 48.54900 26.87500
C  30.51700 47.91600 26.34200
C  30.39700 47.90300 24.90100
C  29.05300 48.48100 24.65200
C  31.70700 47.59600 27.26900
C  31.42500 47.46900 23.84000
O  31.26700 47.57100 22.61100
C  32.74300 46.82000 24.38500
N  26.45400 49.84300 23.97700
C  27.22600 49.18000 23.04500
C  26.69500 49.32100 21.66200
C  25.33400 49.99000 21.82800
C  25.32800 50.23800 23.40000
C  27.70500 49.95300 20.66800
C  24.24900 49.16600 21.27400
C  23.12700 49.88700 20.44700
N  24.80400 50.63300 26.38200
C  23.94400 51.12000 25.39100
C  22.86400 51.75600 26.00000
C  22.98000 51.62200 27.37100
C  24.21400 50.97700 27.55000
C  21.78800 52.43100 25.25800
C  22.45600 51.94600 28.62500
O  21.57700 52.69700 28.86600
C  23.39800 51.22000 29.62500
C  23.80700 52.24500 30.58500
O  24.57600 53.19400 30.35200
O  22.98400 52.14700 31.72000
C  23.44300 52.92600 32.92900
H  29.83700 48.57300 29.00300
H  29.05100 48.38200 22.53100
H  23.43500 51.23200 23.34900
H  26.29200 50.82000 31.19600
H  27.85300 48.23700 30.68500
H  28.42300 50.89000 31.85600
H  29.40800 50.77800 30.58900
H  29.40300 49.45000 31.88400
H  25.80100 47.79900 31.44900
H  24.36500 48.61000 30.78000
H  24.19800 48.38400 33.00900
H  24.18900 50.09400 32.44600
H  32.14200 46.66400 26.90900
H  31.43800 47.60400 28.32500
H  32.49700 48.32400 27.08500
H  33.36800 46.37600 23.61000
H  32.46300 46.01200 25.06200
H  33.37000 47.54900 24.89800
H  26.57600 48.33000 21.22300
H  25.40800 50.94200 21.30300
H  28.62600 50.28200 21.15000
H  27.23200 50.78800 20.15200
H  27.96400 49.26900 19.86000
H  23.76500 48.60500 22.07400
H  24.71100 48.44600 20.59800
H  23.18000 50.94600 20.70000
H  22.05700 49.71300 20.56200
H  23.30900 49.77300 19.37800
H  21.34400 51.68200 24.60300
H  22.20200 53.14600 24.54800
H  21.08500 52.90400 25.94500
H  22.80100 50.44400 30.10400
H  24.06400 52.31000 33.57800
H  22.49800 53.14000 33.42900
H  23.87700 53.91400 32.78000
Mg 8.97200 47.53500 26.39200
C  7.19100 47.81100 29.48400
C  11.84700 48.57900 28.18800
C  10.62900 47.56000 23.54300
C  6.09900 46.77400 24.85000
N  9.44800 48.08700 28.57500
C  8.56300 48.03400 29.63200
C  9.26000 48.37600 30.94700
C  10.61000 49.09000 30.44900
C  10.68400 48.55500 28.97300
C  10.65200 50.58000 30.58600
C  9.50500 47.16800 31.88800
C  9.18900 47.39600 33.32700
H  9.17900 46.23300 34.41900
N  10.96200 47.93500 25.96300
C  12.02300 48.31300 26.82400
C  13.24900 48.54000 26.02800
C  12.90000 48.08200 24.68300
C  11.45300 47.93300 24.66900
C  14.57900 48.94200 26.74100
C  13.76600 47.91400 23.49100
O  13.28900 47.57000 22.43800
C  15.29500 48.16600 23.53300
N  8.36400 47.43100 24.48700
C  9.21500 47.41500 23.44900
C  8.50500 47.09800 22.13400
C  7.10700 46.61300 22.56000
C  7.17700 46.98000 24.03700
C  8.60800 48.10900 20.96000
C  6.84900 45.03100 22.41900
C  7.63000 44.06200 23.25500
N  7.05300 47.37000 26.97800
C  5.94300 47.08400 26.21800
C  4.80600 46.98000 27.03200
C  5.18700 47.27900 28.34700
C  6.58000 47.45900 28.25600
C  3.40200 46.61000 26.55000
C  4.80000 47.53000 29.73300
O  3.64500 47.68200 30.22300
C  6.13300 47.72100 30.55200
C  6.30800 46.51900 31.33400
O  6.59100 45.42200 30.81100
O  5.63600 46.61500 32.52400
C  5.52100 45.35800 33.29900
H  12.70300 48.95700 28.75200
H  11.07400 47.34400 22.56900
H  5.31600 46.31800 24.24100
H  8.57000 49.07500 31.42000
H  11.52100 48.74800 30.94000
H  9.80000 50.92700 31.17200
H  10.35900 50.91900 29.59300
H  11.60900 51.02200 30.86000
H  10.58200 47.00100 31.85400
H  9.12200 46.19700 31.57400
H  8.28400 48.00300 33.31600
H  9.94500 48.01300 33.81300
H  14.44400 49.35400 27.74100
H  14.99300 49.80400 26.21800
H  15.37300 48.20900 26.59700
H  15.56600 49.03600 24.13200
H  15.48900 48.39100 22.48500
H  15.68600 47.23700 23.94800
H  8.94600 46.19000 21.72200
H  6.31800 47.23200 22.13200
H  9.06900 49.05000 21.26000
H  7.63600 48.44700 20.60100
H  9.22600 47.65700 20.18300
H  6.95000 44.71200 21.38200
H  5.78500 44.85600 22.58100
H  7.04100 43.53000 24.00300
H  8.41500 44.59400 23.79300
H  8.24100 43.36700 22.67900
H  2.78000 47.50300 26.49400
H  2.92300 45.90700 27.23100
H  3.40400 46.22100 25.53200
H  6.18500 48.58800 31.21000
H  4.51500 44.98800 33.09900
H  5.58100 45.50000 34.37800
H  6.24000 44.59800 32.99100

