158

Mg 24.59800 -5.31600 45.48400
C  26.90600 -3.13200 43.84200
C  22.21700 -4.30900 43.43200
C  22.83900 -7.94100 46.50300
C  27.52300 -6.62200 47.27800
N  24.66000 -3.92400 43.79500
C  25.59000 -3.06300 43.34900
C  25.06300 -2.09600 42.25500
C  23.51200 -2.27000 42.52600
C  23.42300 -3.57800 43.32100
C  22.90400 -1.10000 43.26400
C  25.72600 -2.73000 40.91400
C  26.44200 -1.73000 40.01800
H  26.17000 -1.99400 38.50600
N  22.72900 -6.08200 44.90600
C  21.88200 -5.52200 44.08300
C  20.63000 -6.25300 44.10200
C  20.76700 -7.28600 45.12100
C  22.10200 -7.06700 45.62400
C  19.44900 -5.97400 43.10100
C  19.73700 -8.40300 45.47000
O  18.64400 -8.44300 44.89300
C  19.89200 -9.29400 46.72600
N  25.12200 -7.08500 46.69600
C  24.10400 -7.89800 47.06100
C  24.76200 -9.07300 47.87400
C  26.16300 -8.53700 48.35400
C  26.30400 -7.39500 47.41600
C  23.85800 -9.69200 48.92500
C  27.27300 -9.59500 48.20100
C  28.37600 -9.70000 49.28900
N  26.76100 -4.86100 45.74000
C  27.76900 -5.50400 46.40200
C  29.04700 -4.86100 46.18700
C  28.75500 -3.84000 45.28000
C  27.36300 -3.96900 44.92800
C  30.33800 -5.17100 46.88900
C  29.34200 -2.77600 44.48600
O  30.49700 -2.34400 44.39800
C  28.16500 -2.33000 43.43300
C  27.92900 -0.85800 43.55700
O  27.08400 -0.32500 44.25300
O  28.64000 -0.25600 42.53100
C  28.24800 1.15900 42.34100
H  21.36800 -3.84400 42.92700
H  22.40200 -8.92700 46.67600
H  28.30200 -7.11900 47.86000
H  25.37300 -1.08200 42.51000
H  22.98600 -2.45600 41.59000
H  21.90500 -0.93300 42.86300
H  23.42800 -0.15300 43.13500
H  22.87100 -1.13000 44.35300
H  24.92600 -3.14900 40.30200
H  26.40600 -3.55800 41.11100
H  27.50900 -1.91200 40.14800
H  26.18700 -0.72600 40.35700
H  18.47700 -6.25000 43.51000
H  19.69300 -6.44400 42.14800
H  19.28700 -4.92500 42.85000
H  20.46300 -8.68400 47.42500
H  20.28100 -10.27500 46.45400
H  18.89800 -9.32200 47.17400
H  24.97600 -9.75800 47.05400
H  26.09500 -8.17700 49.38100
H  22.90800 -9.17200 48.80300
H  24.23800 -9.71500 49.94600
H  23.74900 -10.69500 48.51200
H  27.77900 -9.42800 47.25000
H  26.85400 -10.60200 48.19600
H  28.46200 -10.72100 49.66000
H  28.13900 -9.04800 50.13000
H  29.32400 -9.21900 49.04700
H  30.14400 -5.13400 47.96100
H  31.07200 -4.40500 46.64100
H  30.58300 -6.19600 46.60800
H  28.60400 -2.57000 42.46500
H  27.29300 1.45400 42.77500
H  28.09500 1.41600 41.29200
H  28.98800 1.89000 42.66800
Mg 29.52700 57.90800 41.28300
C  26.76500 56.21800 40.01400
C  31.42300 55.37700 39.92800
C  32.14900 59.85800 41.73600
C  27.40600 60.46000 42.37800
N  29.13600 55.96000 40.06500
C  27.96500 55.62500 39.57900
C  28.04600 54.29200 38.83400
C  29.53300 53.81900 39.29000
C  30.07800 55.09400 39.76000
C  29.59100 52.67600 40.42000
C  27.93300 54.41400 37.24400
C  26.56600 53.99200 36.61600
H  26.00700 54.77300 35.40400
N  31.53500 57.61700 41.01400
C  32.10800 56.57800 40.36800
C  33.55100 56.75900 40.26700
C  33.79900 58.04200 40.91900
C  32.47500 58.59500 41.34800
C  34.43600 55.79400 39.65400
C  35.21100 58.67000 40.98900
O  36.19700 58.19200 40.42100
C  35.43400 59.89900 41.79000
N  29.78700 60.06300 41.82700
C  31.02100 60.57100 42.04300
C  30.97400 62.04900 42.59300
C  29.41700 62.14100 42.94100
C  28.78500 60.79800 42.39900
C  31.88600 62.36400 43.78600
C  28.71100 63.46800 42.49700
C  27.92200 64.28500 43.57900
N  27.47800 58.33900 41.27500
C  26.72100 59.36700 41.80600
C  25.33600 59.04500 41.67900
C  25.33400 57.88000 40.98300
C  26.63500 57.43100 40.74300
C  24.14300 59.74400 42.21200
C  24.43100 56.86900 40.38500
O  23.22300 56.80700 40.37200
C  25.27400 55.69000 39.82800
C  24.98500 54.45100 40.60500
O  25.12100 54.28500 41.81400
O  24.70300 53.43200 39.71200
C  24.61300 52.07700 40.23900
H  32.00300 54.57100 39.47400
H  33.09800 60.38400 41.85100
H  26.71500 61.18500 42.81400
H  27.35600 53.56400 39.26100
H  30.16200 53.51500 38.45300
H  29.86600 52.97300 41.43200
H  30.31000 51.95400 40.03400
H  28.60700 52.20900 40.46700
H  28.81400 53.99100 36.76300
H  27.97100 55.48200 37.03000
H  25.77400 53.91400 37.36100
H  26.69600 53.02000 36.14000
H  34.04100 55.18700 38.83900
H  34.79200 55.06800 40.38400
H  35.35400 56.31900 39.38800
H  35.10300 60.79400 41.26300
H  36.49900 60.03400 41.97900
H  34.99600 59.79400 42.78300
H  31.11200 62.73800 41.76100
H  29.34300 62.00800 44.02000
H  31.29400 62.70800 44.63300
H  32.67400 63.08600 43.57300
H  32.44100 61.45500 44.02000
H  27.97600 63.21200 41.73500
H  29.40900 64.16600 42.03600
H  28.04600 63.71400 44.50000
H  26.90500 64.40800 43.20700
H  28.40600 65.25700 43.67200
H  24.03300 60.77800 41.88400
H  24.28300 59.89600 43.28300
H  23.21200 59.22600 41.98200
H  25.05000 55.53100 38.77300
H  24.93700 51.92700 41.26900
H  25.11200 51.50600 39.45600
H  23.59100 51.72200 40.10800

