158

Mg 46.49100 34.85200 27.53700
C  44.65700 33.01300 30.03500
C  46.74700 37.30300 29.91000
C  47.51000 36.69200 25.18000
C  45.46100 32.26300 25.29500
N  45.71400 35.19600 29.67500
C  45.15100 34.23300 30.51300
C  45.25900 34.63600 32.04000
C  45.47300 36.13900 31.84900
C  46.15800 36.21100 30.45000
C  44.20400 37.02700 31.92100
C  46.50000 33.89300 32.64000
C  46.72600 34.02900 34.19300
H  45.79900 34.99700 34.92100
N  47.13400 36.68400 27.57300
C  47.23200 37.56700 28.61200
C  47.70300 38.86600 28.15900
C  48.00400 38.74400 26.75600
C  47.45300 37.37300 26.40900
C  47.98700 40.10200 29.04900
C  48.62600 39.71400 25.80800
O  48.83200 39.41100 24.58900
C  49.00600 41.12500 26.28600
N  46.52900 34.44600 25.54500
C  47.04900 35.44900 24.75300
C  46.97000 35.04800 23.26300
C  46.21100 33.67300 23.24800
C  45.96900 33.45100 24.76000
C  46.30800 36.14800 22.33000
C  46.76300 32.50000 22.41300
C  45.88000 32.11000 21.21000
N  45.42000 32.98500 27.64800
C  45.23900 32.04200 26.66300
C  44.64200 30.93900 27.21900
C  44.39000 31.23100 28.54200
C  44.85000 32.51200 28.70900
C  44.30300 29.67800 26.45200
C  43.80500 30.65500 29.74300
O  43.30400 29.52500 29.93300
C  43.78700 31.83600 30.69300
C  44.00000 31.42000 32.12100
O  45.04600 30.87100 32.45900
O  43.01300 31.86300 32.94000
C  43.24100 31.71200 34.34300
H  46.93200 38.13700 30.59000
H  47.84700 37.23900 24.29700
H  45.25700 31.47000 24.57300
H  44.35200 34.37700 32.58600
H  46.18300 36.40300 32.63300
H  43.31200 36.46800 31.63900
H  44.33000 37.86800 31.23900
H  44.06600 37.60900 32.83200
H  47.42600 34.23700 32.17900
H  46.42400 32.82000 32.46300
H  47.74100 34.34100 34.43800
H  46.70800 33.00800 34.57600
H  47.53800 40.00300 30.03700
H  47.63600 41.03200 28.60200
H  49.01500 40.18600 29.39900
H  49.70800 41.02800 27.11400
H  48.09300 41.61600 26.62300
H  49.45800 41.67700 25.46200
H  47.96300 34.93900 22.82700
H  45.23300 33.86300 22.80600
H  46.08100 36.93600 23.04800
H  45.40000 35.86600 21.79700
H  47.07200 36.54500 21.66200
H  46.94100 31.61900 23.02900
H  47.73100 32.78000 21.99700
H  46.41800 32.61400 20.40800
H  44.85500 32.43100 21.39700
H  45.85800 31.03100 21.05100
H  45.26900 29.17300 26.44100
H  43.90800 29.84900 25.45000
H  43.60000 29.03000 26.97600
H  42.73900 32.10000 30.83300
H  43.97300 30.97400 34.66900
H  42.30300 31.39700 34.80000
H  43.42500 32.69400 34.77900
Mg 29.24800 59.74700 41.48900
C  26.09100 58.80900 40.37800
C  30.44100 56.78900 40.13700
C  32.26900 61.00200 41.68600
C  27.90300 62.79200 42.51600
N  28.43300 58.15400 40.22400
C  27.03000 57.91100 39.95500
C  26.85800 56.53300 39.23900
C  28.16600 55.85600 39.68300
C  29.12900 57.02500 40.01800
C  27.94500 54.86400 40.88700
C  26.53800 56.65400 37.65600
C  25.30200 55.87800 37.13200
H  25.03000 55.82700 35.62000
N  31.12300 58.94600 41.07100
C  31.45200 57.72800 40.48400
C  32.82500 57.60100 40.51000
C  33.40200 58.85400 40.89000
C  32.24900 59.70600 41.17200
C  33.47600 56.31300 40.01200
C  34.90700 59.12900 40.86300
O  35.62500 58.20700 40.64000
C  35.46600 60.56900 41.09500
N  29.95400 61.68200 42.03300
C  31.29800 61.92700 42.02800
C  31.56600 63.39300 42.62800
C  30.12900 63.82100 43.03000
C  29.25800 62.74700 42.43400
C  32.70400 63.54700 43.67500
C  29.81200 65.33800 42.77400
C  29.17200 65.62300 41.39600
N  27.36200 60.64900 41.65800
C  26.97300 61.88000 42.08900
C  25.48300 61.91700 42.05000
C  25.10200 60.76900 41.31700
C  26.29100 60.09500 41.06000
C  24.65300 62.97800 42.43000
C  24.02100 59.97300 40.89800
O  22.81500 60.11700 40.97300
C  24.64800 58.71600 40.18700
C  24.04800 57.48000 40.73000
O  24.36500 56.97200 41.78200
O  23.01100 56.98000 39.95300
C  22.46800 55.71100 40.34000
H  30.77500 55.80800 39.79400
H  33.24500 61.45300 41.87900
H  27.48700 63.75300 42.82800
H  25.94100 56.03200 39.54900
H  28.58200 55.28200 38.85500
H  28.67300 54.06500 40.74700
H  26.93300 54.46000 40.91200
H  28.23000 55.36600 41.81100
H  27.39600 56.34800 37.05700
H  26.49700 57.72100 37.43700
H  24.41800 56.31300 37.59900
H  25.17800 54.86800 37.52300
H  33.91100 56.54700 39.04100
H  32.80200 55.45700 39.99400
H  34.27400 56.06200 40.71100
H  34.83000 61.14300 40.42000
H  36.54200 60.60500 40.92400
H  35.33700 60.73700 42.16400
H  31.83300 63.94500 41.72700
H  30.07500 63.80000 44.11800
H  33.67500 63.40000 43.20200
H  32.67500 62.87500 44.53300
H  32.85600 64.58400 43.97300
H  30.69400 65.95300 42.95600
H  29.11300 65.48900 43.59700
H  28.10600 65.77000 41.57100
H  29.25100 64.83100 40.65200
H  29.52000 66.60700 41.08100
H  23.69100 62.77200 41.96100
H  25.13600 63.88300 42.06100
H  24.37000 63.01900 43.48200
H  24.47400 58.76100 39.11100
H  23.25800 55.04700 39.98900
H  21.63500 55.41700 39.70100
H  22.27800 55.50000 41.39200

