158

Mg 2.13000 -3.43800 45.32700
C  4.72900 -1.61100 44.12800
C  0.06200 -1.70400 43.09100
C  -0.33800 -5.69900 46.00700
C  4.42600 -5.59200 46.92400
N  2.44900 -1.97100 43.57600
C  3.58200 -1.27500 43.42400
C  3.38700 -0.02500 42.46400
C  1.86500 -0.06900 42.19300
C  1.42500 -1.35800 42.95000
C  1.08200 1.21000 42.63800
C  4.28300 -0.14500 41.17500
C  5.49400 0.78200 40.80700
H  5.50400 1.33700 39.37100
N  0.11600 -3.62700 44.77200
C  -0.53800 -2.73700 43.90400
C  -1.94900 -3.04400 43.92700
C  -2.07800 -4.23900 44.73500
C  -0.75500 -4.63800 45.16900
C  -3.01000 -2.27000 43.15600
C  -3.40200 -5.06300 44.95200
O  -4.42700 -4.77100 44.36400
C  -3.42300 -6.28300 45.92300
N  2.08000 -5.45800 46.28000
C  0.94600 -6.09600 46.51000
C  1.18200 -7.49100 47.20500
C  2.65100 -7.41500 47.45000
C  3.06900 -6.10000 46.86700
C  0.39800 -7.86200 48.50400
C  3.56000 -8.61900 47.01700
C  3.62900 -8.96300 45.56100
N  4.18200 -3.60200 45.57100
C  4.95900 -4.50000 46.29900
C  6.22700 -3.95700 46.36600
C  6.26000 -2.85100 45.47300
C  4.93000 -2.69700 45.01200
C  7.53500 -4.51500 46.98600
C  7.12700 -1.86800 44.90700
O  8.28000 -1.62800 44.99600
C  6.11900 -0.93400 44.03700
C  6.10200 0.40700 44.65000
O  5.50400 0.68200 45.65900
O  6.67300 1.37600 43.90600
C  6.43000 2.76500 44.18700
H  -0.62600 -1.07500 42.52100
H  -1.09200 -6.34200 46.46700
H  5.16900 -6.22300 47.41500
H  3.71400 0.88300 42.97000
H  1.62700 -0.20100 41.13700
H  0.72700 1.07200 43.65900
H  0.30300 1.50700 41.93500
H  1.81100 2.02000 42.60800
H  3.57900 -0.05300 40.34800
H  4.64100 -1.17400 41.14600
H  6.39500 0.20100 41.00300
H  5.52600 1.65200 41.46300
H  -2.69500 -1.49000 42.46300
H  -3.66900 -1.85200 43.91700
H  -3.64400 -2.94800 42.58500
H  -2.82200 -7.13000 45.59100
H  -4.44300 -6.64200 46.05800
H  -3.05700 -6.00500 46.91200
H  0.93100 -8.31600 46.53900
H  2.73500 -7.14200 48.50200
H  -0.25800 -7.08000 48.88700
H  1.15600 -8.14900 49.23300
H  -0.38700 -8.61700 48.47000
H  3.14700 -9.58000 47.32300
H  4.61800 -8.50400 47.25200
H  4.70000 -9.03900 45.37400
H  3.06600 -8.23800 44.97400
H  3.11300 -9.85600 45.20900
H  8.09500 -3.72700 47.49100
H  8.02500 -5.13600 46.23600
H  7.26100 -5.25400 47.73900
H  6.46400 -0.86900 43.00500
H  6.96100 3.38500 43.46500
H  6.82400 3.05900 45.16000
H  5.35600 2.90000 44.05700
Mg 54.64200 23.99800 45.57400
C  52.23000 26.40800 44.64400
C  52.34200 21.50000 44.54900
C  57.05900 21.66400 45.67700
C  56.72900 26.47000 46.47400
N  52.60600 23.93300 44.51200
C  51.77700 25.08500 44.37800
C  50.45900 24.62500 43.74500
C  50.42600 23.12900 44.16400
C  51.87800 22.77900 44.42400
C  49.52800 22.75400 45.39600
C  50.47100 24.93100 42.22000
C  50.63800 23.76900 41.16300
H  51.85400 22.79900 41.17300
N  54.72100 21.82600 45.16200
C  53.67300 21.07500 44.76000
C  54.14300 19.68400 44.57500
C  55.54800 19.72500 44.87300
C  55.85800 21.08500 45.30400
C  53.25600 18.52400 44.15900
C  56.60400 18.53600 44.72100
O  56.31200 17.39700 44.29000
C  58.06000 18.64900 45.08100
N  56.61000 24.10500 45.77400
C  57.38400 23.02000 45.91300
C  58.87700 23.43400 46.21300
C  58.74400 24.93100 46.66400
C  57.26400 25.21400 46.24800
C  59.59300 22.60100 47.21900
C  59.76200 25.87400 45.88300
C  59.78600 25.99000 44.34000
N  54.48200 26.07600 45.75900
C  55.46900 26.99800 46.12900
C  54.83100 28.28800 46.23400
C  53.59500 28.14500 45.55900
C  53.44000 26.76700 45.32900
C  55.40500 29.54600 46.86800
C  52.37600 28.78300 45.11400
O  52.12200 29.97300 45.12500
C  51.55100 27.75500 44.42800
C  51.45800 28.04300 43.02200
O  52.43200 28.23900 42.27700
O  50.18400 28.08200 42.58800
C  49.95300 28.30100 41.11200
H  51.60200 20.73100 44.31800
H  57.98400 21.11200 45.85700
H  57.38200 27.20700 46.94700
H  49.72100 25.18900 44.31600
H  49.96700 22.35600 43.54700
H  49.07400 23.58900 45.93000
H  50.19700 22.18000 46.03700
H  48.75600 22.05200 45.08000
H  51.36600 25.55300 42.21600
H  49.57900 25.51300 41.99000
H  50.59500 24.26000 40.19100
H  49.73600 23.16400 41.25800
H  52.94100 18.69800 43.13000
H  52.44100 18.30300 44.84700
H  53.87400 17.62900 44.09000
H  58.55900 17.70500 44.86300
H  58.12200 18.89300 46.14100
H  58.52500 19.47800 44.54600
H  59.31100 23.45500 45.21300
H  58.77400 25.06900 47.74500
H  60.05600 21.74900 46.72100
H  59.07700 22.50000 48.17400
H  60.49300 23.11600 47.55400
H  60.73800 25.50700 46.19800
H  59.68800 26.87700 46.30300
H  60.74800 25.74700 43.88800
H  59.50200 27.02700 44.16100
H  59.12100 25.22900 43.93300
H  54.99300 29.69000 47.86700
H  55.15200 30.36300 46.19200
H  56.48800 29.48000 46.97400
H  50.58400 27.66000 44.92100
H  50.37700 29.28900 40.93300
H  48.89200 28.26600 40.86600
H  50.47200 27.54200 40.52700

