158

Mg 47.27300 24.60400 28.66100
C  47.81400 26.93400 31.31200
C  46.36900 22.35900 31.20400
C  47.06500 22.30600 26.42600
C  48.61800 26.94900 26.47600
N  47.15500 24.62100 31.03500
C  47.37700 25.70600 31.85400
C  47.04400 25.37600 33.31300
C  46.77000 23.85700 33.33000
C  46.76500 23.54200 31.80100
C  47.76400 22.96600 34.14600
C  45.83300 26.26700 33.80600
C  46.21600 27.06400 35.04000
H  46.35600 26.24700 36.31200
N  46.64700 22.65200 28.74400
C  46.28000 21.93000 29.85500
C  45.88500 20.59300 29.33900
C  46.09100 20.46300 27.95400
C  46.72900 21.78700 27.66500
C  45.11800 19.59800 30.30900
C  45.61500 19.38900 27.04100
O  45.84500 19.28500 25.80600
C  44.66900 18.41600 27.49300
N  47.75200 24.70800 26.73800
C  47.48100 23.59600 26.00100
C  47.78900 23.85300 24.51500
C  48.17800 25.37600 24.56500
C  48.32300 25.70200 26.00800
C  48.93800 22.93200 24.02300
C  47.13800 26.39200 23.98500
C  45.80900 26.60600 24.86300
N  48.03100 26.58600 28.78800
C  48.54600 27.38700 27.80000
C  48.85000 28.65500 28.32000
C  48.50400 28.56800 29.68600
C  48.12200 27.22800 29.92500
C  49.39900 29.86800 27.52800
C  48.41900 29.34200 30.98600
O  48.73800 30.48900 31.27800
C  47.98800 28.21000 32.06400
C  49.12400 28.20600 33.10500
O  49.93600 27.38700 33.18800
O  48.94400 29.22600 34.02200
C  49.90000 29.34300 35.12100
H  45.98900 21.65600 31.94800
H  46.89400 21.47700 25.73600
H  48.88700 27.66000 25.69200
H  47.98100 25.57400 33.83300
H  45.74700 23.70600 33.67700
H  47.39600 22.58500 35.09800
H  48.58800 23.60800 34.45600
H  48.15000 22.14900 33.53600
H  45.03200 25.61900 34.16100
H  45.39500 26.89400 33.03000
H  45.42900 27.80200 35.19300
H  47.03800 27.76500 34.89700
H  44.07300 19.65400 30.00300
H  45.14300 19.87200 31.36400
H  45.31400 18.52600 30.28700
H  43.80200 18.99100 27.81800
H  44.98300 17.77400 28.31600
H  44.45200 17.68200 26.71600
H  46.88900 23.58300 23.96200
H  49.11100 25.62100 24.05800
H  49.01600 22.09500 24.71700
H  49.76800 23.60900 23.81600
H  48.68800 22.50400 23.05200
H  46.96000 25.96600 22.99700
H  47.58700 27.37800 23.87300
H  45.81400 26.51200 25.94900
H  45.06400 25.86500 24.57200
H  45.35300 27.58300 24.70200
H  48.88100 30.78500 27.80900
H  49.18000 29.86100 26.46100
H  50.48600 29.91000 27.59800
H  47.13300 28.57400 32.63300
H  50.90000 29.06600 34.78700
H  49.63400 28.66400 35.93100
H  49.93900 30.32800 35.58600
Mg -11.42800 38.76700 42.30500
C  -9.70600 35.99600 41.21000
C  -8.85000 40.78600 40.95800
C  -13.33800 41.42400 42.72200
C  -14.17400 36.68800 42.94300
N  -9.52200 38.38500 41.01600
C  -8.96200 37.17100 40.81900
C  -7.48600 37.26000 40.39100
C  -7.29400 38.83700 40.40300
C  -8.65700 39.36700 40.84700
C  -6.15500 39.43300 41.27400
C  -7.18500 36.67400 38.99600
C  -6.16500 35.50800 39.02000
H  -5.05700 35.69300 38.00100
N  -11.03100 40.84500 42.10800
C  -9.95300 41.46400 41.52600
C  -10.16400 42.87500 41.37600
C  -11.47100 43.13700 41.91100
C  -12.03500 41.77900 42.29700
C  -9.20500 43.83200 40.72700
C  -12.22500 44.49300 42.01400
O  -11.74200 45.51600 41.57400
C  -13.58200 44.59800 42.61100
N  -13.46900 39.01800 42.69500
C  -14.00700 40.23400 42.91100
C  -15.44500 40.20300 43.47800
C  -15.58700 38.67100 43.67500
C  -14.32100 38.05200 43.04600
C  -15.52100 41.04700 44.82800
C  -16.94500 38.10900 43.17600
C  -17.66000 37.15400 44.11800
N  -11.87600 36.78000 42.13900
C  -12.99500 36.01300 42.54500
C  -12.69700 34.58200 42.44100
C  -11.47600 34.54200 41.85400
C  -10.93500 35.86900 41.83100
C  -13.71700 33.44300 42.81600
C  -10.44900 33.64400 41.39200
O  -10.51400 32.41200 41.28400
C  -9.23500 34.53500 41.11200
C  -8.19400 34.29000 42.14000
O  -7.79000 35.10500 42.93900
O  -7.44000 33.15400 41.84800
C  -6.10100 33.03800 42.36000
H  -8.00500 41.44700 40.75600
H  -14.09100 42.19400 42.90200
H  -14.97000 36.10000 43.40300
H  -6.82100 36.93300 41.19000
H  -7.05500 39.23900 39.41900
H  -5.40900 39.98600 40.70300
H  -5.64000 38.58300 41.72200
H  -6.55500 40.05500 42.07500
H  -6.73100 37.46600 38.39900
H  -8.12300 36.33100 38.55900
H  -6.63200 34.53000 38.90500
H  -5.70100 35.44400 40.00400
H  -9.62500 44.08500 39.75400
H  -8.24200 43.45300 40.38400
H  -9.17500 44.74700 41.31900
H  -14.28000 44.17700 41.88800
H  -13.82600 45.65800 42.67200
H  -13.59000 44.13100 43.59600
H  -16.19700 40.60300 42.79800
H  -15.33300 38.56600 44.73000
H  -15.96400 42.02900 44.65900
H  -14.51400 41.22400 45.20700
H  -16.13000 40.61700 45.62300
H  -16.83900 37.63300 42.20100
H  -17.58200 38.93800 42.86900
H  -18.54400 37.72600 44.39800
H  -17.07100 36.86900 44.99000
H  -17.87600 36.26400 43.52600
H  -14.07400 33.73800 43.80200
H  -13.06200 32.57600 42.90500
H  -14.53100 33.26200 42.11300
H  -8.83100 34.21200 40.15300
H  -5.59900 34.00300 42.29800
H  -5.62200 32.36900 41.64500
H  -6.13300 32.59500 43.35500

