158

Mg 24.56000 -4.64900 45.73800
C  26.81900 -2.56600 44.32200
C  22.10100 -3.66900 43.62700
C  22.74800 -7.45700 46.55300
C  27.24900 -6.08900 47.74700
N  24.56600 -3.44000 43.96800
C  25.55000 -2.54300 43.70100
C  25.08600 -1.57500 42.61400
C  23.51800 -1.79300 42.52200
C  23.37900 -3.05900 43.43300
C  22.59900 -0.57400 42.81600
C  25.77300 -1.73400 41.18900
C  25.67600 -0.43700 40.33700
H  25.08700 -0.55300 38.89100
N  22.64000 -5.40300 45.24200
C  21.76200 -4.83800 44.39400
C  20.55700 -5.65000 44.29200
C  20.74300 -6.71100 45.20400
C  22.06000 -6.56300 45.70100
C  19.32100 -5.28300 43.41300
C  19.75200 -7.83500 45.55900
O  18.64900 -7.74200 45.01400
C  19.92500 -9.03900 46.44100
N  24.95700 -6.51600 46.89400
C  24.05500 -7.50700 46.99300
C  24.71800 -8.79300 47.41100
C  26.04700 -8.28900 48.11200
C  26.08800 -6.87600 47.58600
C  23.86000 -9.64900 48.34400
C  27.29200 -9.20100 47.96200
C  28.18600 -9.41100 49.19400
N  26.63700 -4.31000 46.15500
C  27.56300 -4.93800 46.96800
C  28.88100 -4.15100 46.90500
C  28.59700 -3.15800 45.85300
C  27.25000 -3.39800 45.36000
C  30.08100 -4.44600 47.80700
C  29.04100 -1.99800 45.08900
O  30.03600 -1.34000 45.18700
C  27.98900 -1.63900 44.06000
C  27.62500 -0.18800 44.25900
O  27.28000 0.26100 45.31700
O  27.64400 0.44200 43.08000
C  27.45500 1.88600 43.16500
H  21.27700 -3.09100 43.20400
H  22.27800 -8.43500 46.67200
H  28.04300 -6.50800 48.36800
H  25.16700 -0.59400 43.08100
H  23.16500 -2.00500 41.51300
H  21.74700 -0.73900 42.15700
H  23.13000 0.26400 42.36200
H  22.39800 -0.46100 43.88100
H  25.17100 -2.51500 40.72400
H  26.79300 -2.12000 41.21200
H  26.69000 -0.11800 40.09800
H  25.26300 0.38500 40.92300
H  18.34200 -5.31000 43.89300
H  19.15800 -5.92400 42.54600
H  19.30400 -4.24200 43.09200
H  19.96900 -8.76900 47.49600
H  20.73200 -9.66800 46.06300
H  19.01100 -9.63000 46.49900
H  24.94500 -9.47600 46.59200
H  25.81700 -8.16400 49.17000
H  24.35200 -9.86600 49.29300
H  23.58400 -10.55300 47.80200
H  22.99900 -9.04400 48.63000
H  27.84300 -8.81600 47.10400
H  26.96100 -10.19700 47.66600
H  29.17400 -9.35400 48.73700
H  27.98200 -10.37500 49.65900
H  28.12600 -8.65200 49.97500
H  30.74100 -5.06700 47.20100
H  29.90400 -4.94400 48.76000
H  30.65600 -3.52400 47.89700
H  28.41200 -1.73300 43.06000
H  27.87900 2.21900 44.11200
H  26.37700 1.99600 43.04700
H  27.80900 2.42400 42.28600
Mg 50.19700 45.63700 42.24500
C  47.17900 46.44400 40.65800
C  49.92800 42.43700 40.75100
C  53.24700 45.15200 43.24800
C  50.48700 49.17300 43.18200
N  48.70800 44.58600 40.76000
C  47.50000 45.07600 40.41100
C  46.75900 44.02800 39.62600
C  47.67700 42.77200 39.62800
C  48.87600 43.30700 40.38000
C  46.95500 41.54200 40.29600
C  46.44500 44.58900 38.27600
C  45.10900 44.22500 37.73800
H  44.86900 43.21600 36.57600
N  51.40700 43.99600 42.11100
C  51.22300 42.78100 41.49000
C  52.45400 41.92900 41.65600
C  53.32500 42.63700 42.47300
C  52.66600 43.99700 42.63700
C  52.58700 40.52800 41.01300
C  54.59200 42.14200 43.06600
O  55.00000 41.04600 42.84400
C  55.37800 42.90100 44.10100
N  51.68800 46.98700 43.05600
C  52.85000 46.48500 43.38300
C  53.75200 47.58000 43.89400
C  52.88400 48.85000 43.90000
C  51.58000 48.31800 43.28500
C  54.39600 47.30100 45.22300
C  53.46700 50.14400 43.07900
C  52.87600 50.40900 41.64800
N  48.98300 47.37700 42.17000
C  49.24800 48.77700 42.52000
C  48.05700 49.59500 42.21400
C  47.22400 48.64600 41.58100
C  47.86800 47.35700 41.43400
C  47.67800 51.01600 42.54500
C  45.95400 48.61000 40.87700
O  45.12800 49.49800 40.54600
C  45.90200 47.19600 40.34400
C  44.74100 46.51900 41.06700
O  44.79700 45.77400 42.00400
O  43.66800 46.92900 40.38400
C  42.35700 46.47200 40.88200
H  49.93200 41.40000 40.41200
H  54.28100 44.95900 43.54000
H  50.56900 50.17100 43.61900
H  45.84100 43.85000 40.18700
H  47.92700 42.51700 38.59800
H  47.33600 40.63700 39.82300
H  45.87100 41.59200 40.19300
H  47.06500 41.64700 41.37600
H  47.23900 44.37100 37.56200
H  46.35900 45.67600 38.27300
H  44.50800 45.10700 37.51800
H  44.50600 43.76500 38.52100
H  51.87900 39.82300 41.45000
H  53.59900 40.16300 41.18600
H  52.34900 40.59000 39.95100
H  54.70100 43.20900 44.89700
H  56.07800 43.63900 43.70900
H  56.08600 42.22500 44.58100
H  54.64000 47.79300 43.29800
H  52.70400 49.24100 44.90100
H  55.41700 47.68200 45.22600
H  54.43500 46.27400 45.58700
H  53.87000 47.74600 46.06700
H  54.50900 49.88900 42.88100
H  53.55300 51.08000 43.63000
H  52.43500 51.39400 41.80700
H  52.13000 49.71200 41.26600
H  53.63700 50.53200 40.87800
H  46.63500 50.97300 42.86000
H  47.84700 51.57900 41.62800
H  48.24700 51.36100 43.40800
H  45.60700 47.32400 39.30200
H  41.86800 47.12400 41.60600
H  42.40400 45.47800 41.32700
H  41.77900 46.49000 39.95700

