158

Mg 0.66700 8.03500 24.85800
C  1.59900 9.70600 27.92600
C  0.91700 5.11800 26.59300
C  0.21200 6.50800 21.93900
C  1.07700 11.02200 23.23100
N  1.23400 7.53600 27.05500
C  1.30600 8.33600 28.13100
C  1.28600 7.58000 29.44800
C  1.35600 6.08500 28.97900
C  1.21400 6.20400 27.43600
C  2.73700 5.33800 29.37100
C  -0.02800 7.92700 30.29000
C  -0.02600 7.83800 31.78800
H  1.18600 7.07400 32.46400
N  0.53700 6.10200 24.27100
C  0.76200 4.99500 25.12900
C  0.55500 3.79300 24.41500
C  0.10400 4.16000 23.10000
C  0.22700 5.64000 23.07700
C  0.79500 2.41300 25.08000
C  -0.22900 3.27000 21.88800
O  -0.58800 3.79500 20.83100
C  -0.03200 1.86200 21.92200
N  0.67400 8.69400 22.90000
C  0.36700 7.87000 21.85300
C  0.21500 8.57200 20.45400
C  0.32000 10.08700 20.93700
C  0.79000 9.93500 22.44100
C  1.12900 8.13600 19.26800
C  -1.03800 10.89400 20.80400
C  -2.44600 10.37200 21.12000
N  1.19400 9.99800 25.40000
C  1.33600 11.10000 24.57900
C  1.65200 12.29600 25.41400
C  1.80700 11.79300 26.69500
C  1.48400 10.37700 26.68600
C  1.69500 13.71500 24.84300
C  2.11300 12.16700 28.08300
O  2.41000 13.22100 28.65900
C  1.85700 10.87500 28.90400
C  2.92600 10.71500 29.84500
O  4.01200 10.14400 29.65100
O  2.64900 11.30500 31.04600
C  3.68500 11.47600 32.07300
H  0.79200 4.17700 27.13300
H  0.14900 5.99100 20.97900
H  0.98000 11.94700 22.65900
H  2.04200 8.04200 30.08300
H  0.55400 5.55300 29.49100
H  3.18800 5.04900 28.42200
H  2.66900 4.43000 29.97100
H  3.47000 5.99700 29.83700
H  -0.83000 7.21600 30.09500
H  -0.38000 8.87300 29.87900
H  -0.95700 7.33400 32.04700
H  0.03000 8.89200 32.05900
H  0.69000 1.63000 24.33000
H  0.04900 2.31700 25.87000
H  1.81100 2.41600 25.47500
H  -0.69700 1.34600 22.61600
H  1.02200 1.59500 22.00100
H  -0.25200 1.37000 20.97500
H  -0.75700 8.34400 20.01700
H  1.06600 10.62000 20.34800
H  1.20300 8.96700 18.56700
H  0.75400 7.18300 18.89600
H  2.13700 7.91900 19.62100
H  -1.09200 11.22000 19.76600
H  -0.95100 11.77400 21.44100
H  -2.91900 9.68900 20.41500
H  -3.09900 11.20700 21.37700
H  -2.33400 9.58700 21.86800
H  1.04800 13.79800 23.97000
H  2.66500 13.94600 24.40300
H  1.48900 14.45400 25.61700
H  0.98300 11.11100 29.50900
H  3.47500 10.66000 32.76400
H  3.60700 12.40400 32.63800
H  4.72700 11.38300 31.76800
Mg 48.21100 45.53700 43.17100
C  44.78200 45.35800 41.94900
C  48.23900 42.11500 42.67900
C  51.44000 45.80800 43.52600
C  47.85100 49.02500 42.96000
N  46.67600 43.88800 42.22700
C  45.31700 44.07300 42.04500
C  44.53500 42.70800 41.79500
C  45.66000 41.74100 42.28400
C  46.92100 42.62200 42.44200
C  45.19000 41.07400 43.58700
C  44.11900 42.58400 40.29600
C  45.21200 42.64400 39.15900
H  45.01100 43.64900 38.03200
N  49.68900 44.13000 43.04600
C  49.48300 42.80400 42.93200
C  50.78900 42.19400 43.12600
C  51.73300 43.16800 43.41400
C  51.01000 44.43400 43.41700
C  51.04100 40.65200 43.01200
C  53.19900 42.94100 43.52800
O  53.65000 41.84400 43.32900
C  54.08500 44.03400 43.91800
N  49.46100 47.14900 43.23700
C  50.79900 47.01800 43.48600
C  51.48200 48.35700 43.27500
C  50.32200 49.38300 43.24200
C  49.12600 48.45400 43.11400
C  52.69500 48.73000 44.18200
C  50.41700 50.48400 42.11000
C  50.25200 51.92900 42.52400
N  46.60700 46.95800 42.78800
C  46.60400 48.36000 42.81700
C  45.25400 48.87800 42.47100
C  44.54600 47.69300 42.09500
C  45.44600 46.56000 42.24000
C  44.81300 50.28700 42.26600
C  43.27800 47.29900 41.54700
O  42.25700 47.86800 41.18400
C  43.36900 45.74600 41.39900
C  42.22700 45.11500 42.16600
O  41.35000 44.43300 41.66900
O  42.55200 45.15600 43.52500
C  41.56700 44.36200 44.35000
H  48.30900 41.03200 42.80200
H  52.51700 45.94900 43.41600
H  47.67000 50.09400 43.09600
H  43.63200 42.74200 42.40500
H  45.83900 40.89400 41.62100
H  44.17400 41.37900 43.83800
H  45.86000 41.24100 44.43000
H  45.11000 39.98900 43.51600
H  43.31300 43.28100 40.06700
H  43.67000 41.59500 40.20300
H  45.27600 41.62400 38.78100
H  46.20300 42.69700 39.61000
H  51.41900 40.20600 43.93200
H  51.76600 40.45800 42.22200
H  50.09900 40.15900 42.77200
H  55.08000 43.82600 44.31100
H  53.47300 44.52500 44.67500
H  54.19200 44.60700 42.99700
H  51.82200 48.28100 42.24200
H  50.30900 49.96400 44.16400
H  52.57900 49.68400 44.69800
H  53.57100 48.87000 43.54800
H  52.92100 48.01700 44.97500
H  49.62700 50.34200 41.37200
H  51.40600 50.43300 41.65400
H  49.77100 51.91600 43.50300
H  49.59600 52.36800 41.77200
H  51.19000 52.48300 42.55200
H  43.74800 50.32300 42.04000
H  45.51100 50.64900 41.51000
H  44.90700 50.81800 43.21300
H  43.14300 45.60400 40.34200
H  40.51100 44.42500 44.08600
H  41.71500 44.45400 45.42600
H  41.95700 43.35800 44.18800

