158

Mg 40.94700 8.88600 29.54700
C  42.91100 9.89400 32.18100
C  38.54800 7.66700 31.73600
C  39.13800 7.63100 26.92300
C  43.71200 9.36500 27.39400
N  40.87400 8.62500 31.70500
C  41.66600 9.40500 32.58300
C  41.00500 9.48200 34.05400
C  39.76400 8.57400 33.85500
C  39.70600 8.24100 32.32500
C  39.53400 7.43700 34.81000
C  40.72000 10.90200 34.54500
C  41.62500 11.39900 35.66300
H  41.03100 12.23400 36.81300
N  39.04800 7.88200 29.36000
C  38.21500 7.46500 30.38400
C  37.00800 7.00500 29.87100
C  37.16400 6.93400 28.44200
C  38.50000 7.44300 28.16500
C  35.85800 6.51300 30.76400
C  36.15400 6.44900 27.36400
O  36.54700 6.10800 26.23500
C  34.68000 6.24700 27.76100
N  41.33700 8.60000 27.50500
C  40.40100 8.14700 26.60500
C  40.90200 8.33300 25.16900
C  42.40500 8.84300 25.37600
C  42.51700 8.86700 26.88200
C  40.85000 7.04000 24.23000
C  42.58000 10.21000 24.60500
C  41.93400 11.41800 25.37100
N  42.98700 9.47800 29.68300
C  43.99000 9.64200 28.72100
C  45.22400 10.12200 29.37400
C  44.81900 10.33400 30.71600
C  43.46300 9.90300 30.85200
C  46.60200 10.29200 28.78000
C  45.20400 10.90500 31.99800
O  46.24600 11.39500 32.33200
C  44.02400 10.56400 32.99900
C  44.52500 9.61200 34.13100
O  44.50400 8.38600 34.13700
O  45.01500 10.43800 35.18700
C  45.44100 9.94600 36.50500
H  37.79700 7.50900 32.51300
H  38.62400 7.31500 26.01200
H  44.49400 9.57600 26.66300
H  41.67600 8.95900 34.73500
H  38.89300 9.20300 34.04000
H  38.64100 7.59600 35.41600
H  40.31700 7.29400 35.55500
H  39.52400 6.48800 34.27500
H  39.73500 10.92200 35.01100
H  40.80200 11.67800 33.78400
H  42.35300 12.14000 35.33100
H  42.31400 10.66400 36.08000
H  36.16500 6.45900 31.80800
H  35.54200 5.52200 30.43900
H  35.15200 7.34400 30.75200
H  34.21300 5.87100 26.85100
H  34.33700 7.26400 27.95300
H  34.55500 5.57200 28.60800
H  40.33700 9.08300 24.61600
H  43.09800 8.07300 25.03700
H  40.21700 7.22500 23.36200
H  40.37300 6.22900 24.78100
H  41.86000 6.67900 24.03700
H  42.02100 10.04000 23.68500
H  43.64600 10.35300 24.42500
H  42.56600 12.29200 25.21600
H  41.77000 11.29900 26.44200
H  40.99700 11.57500 24.83600
H  46.72500 11.34900 28.54300
H  46.50700 9.72500 27.85500
H  47.41400 9.85900 29.36400
H  43.58900 11.47000 33.42100
H  44.89200 9.01900 36.67200
H  45.05900 10.71500 37.17600
H  46.52300 9.87000 36.61100
Mg 47.62900 24.25300 28.07800
C  48.49500 26.44600 30.63900
C  47.02000 21.80900 30.29300
C  47.12300 22.20600 25.53800
C  48.69400 26.61900 25.70800
N  47.84700 24.14600 30.31700
C  48.07100 25.25900 31.12800
C  47.88400 24.85800 32.62100
C  47.50900 23.29500 32.42100
C  47.53900 22.97500 30.91300
C  48.39400 22.30900 33.22800
C  46.70200 25.71700 33.25500
C  47.01000 26.43700 34.49800
H  46.08500 26.39800 35.75100
N  46.95200 22.29800 27.94300
C  46.81500 21.39300 28.96200
C  46.43700 20.16400 28.46600
C  46.44400 20.28300 27.07500
C  46.90300 21.64000 26.77200
C  46.17900 18.98700 29.39500
C  46.16200 19.26400 25.98500
O  46.10300 19.50300 24.80300
C  45.82600 17.82600 26.36400
N  47.82400 24.40900 25.89900
C  47.48800 23.48600 25.10300
C  47.42800 23.85100 23.62200
C  47.72900 25.40000 23.67500
C  48.11200 25.47200 25.15000
C  48.39400 23.00100 22.71800
C  46.53600 26.26400 23.26600
C  46.88300 27.16000 22.11500
N  48.60200 26.10800 28.10900
C  48.90500 26.94700 27.05900
C  49.37400 28.18700 27.60000
C  49.19900 28.02500 29.05300
C  48.71000 26.75900 29.22600
C  50.08400 29.19900 26.73500
C  49.42100 28.64800 30.27000
O  49.95600 29.74900 30.49800
C  48.78200 27.70900 31.36400
C  49.88700 27.55400 32.40600
O  50.94200 26.99300 32.14800
O  49.57700 28.26200 33.53700
C  50.52700 28.15800 34.68100
H  46.72800 21.02900 31.00000
H  46.98400 21.51200 24.70700
H  48.95100 27.26500 24.86600
H  48.79500 25.03900 33.19200
H  46.48400 23.22100 32.78400
H  48.68100 21.51100 32.54300
H  47.78800 21.80000 33.97700
H  49.26900 22.87300 33.54900
H  45.81900 25.08000 33.30600
H  46.59700 26.54400 32.55300
H  47.24900 27.48600 34.32300
H  48.00500 26.09100 34.77800
H  46.49800 18.03400 28.97400
H  45.11100 18.91900 29.60200
H  46.60100 19.12300 30.39100
H  45.58000 17.11100 25.57900
H  44.99400 17.88400 27.06500
H  46.79300 17.52600 26.76800
H  46.42700 23.63000 23.25000
H  48.66500 25.53300 23.13200
H  47.96400 23.13900 21.72600
H  48.52700 22.02200 23.17700
H  49.41600 23.37900 22.70500
H  46.28300 26.85900 24.14400
H  45.68000 25.65200 22.98000
H  46.98900 28.20000 22.42600
H  46.05200 27.04500 21.41900
H  47.79200 26.85700 21.59600
H  49.53000 29.52100 25.85300
H  51.06800 28.77600 26.53400
H  50.24200 30.07300 27.36700
H  47.91000 28.22300 31.77000
H  51.53300 27.78400 34.49500
H  50.12600 27.56600 35.50400
H  50.63300 29.16900 35.07400

