158

Mg 17.53100 -2.33900 27.25200
C  16.46200 -0.27200 29.81500
C  19.45500 -4.04400 29.48000
C  19.06600 -3.80500 24.56000
C  15.83700 -0.19900 24.89000
N  17.81900 -2.24400 29.45000
C  17.22300 -1.42400 30.26100
C  17.68400 -1.70700 31.71100
C  18.85200 -2.69300 31.54700
C  18.66000 -3.03000 30.08600
C  20.23700 -2.15200 31.90600
C  16.47400 -2.16800 32.59000
C  16.25600 -1.43100 33.95900
H  17.41400 -0.78900 34.66700
N  18.93000 -3.82100 27.03300
C  19.57000 -4.45000 28.12400
C  20.38100 -5.51600 27.56100
C  20.29800 -5.44000 26.14200
C  19.39600 -4.37700 25.80900
C  20.93800 -6.55300 28.50300
C  20.99200 -6.31400 25.07200
O  20.64100 -6.19200 23.87600
C  21.98600 -7.29500 25.40800
N  17.52400 -2.00100 25.07900
C  18.22700 -2.77500 24.19400
C  18.07100 -2.26500 22.80800
C  16.90600 -1.20900 22.81500
C  16.69400 -1.11400 24.36500
C  19.45800 -1.84400 22.32300
C  15.66600 -1.62100 21.93700
C  14.78000 -0.41400 21.59800
N  16.35600 -0.60900 27.22000
C  15.67800 0.11700 26.23500
C  14.94600 1.17100 26.83400
C  15.24700 1.08800 28.18800
C  16.06300 -0.03900 28.42500
C  14.06500 2.24400 26.11600
C  14.98700 1.72400 29.59500
O  14.25800 2.67100 29.93900
C  15.76500 0.90800 30.57300
C  16.69300 1.94200 31.21100
O  17.66200 2.43000 30.65200
O  16.27800 2.21100 32.52500
C  17.17000 3.21400 33.11200
H  20.16000 -4.52900 30.15800
H  19.56500 -4.20200 23.67300
H  15.31300 0.47700 24.21000
H  18.10700 -0.79000 32.12000
H  18.70900 -3.53000 32.23100
H  20.95000 -2.18200 31.08100
H  20.67100 -2.86300 32.61000
H  20.06300 -1.23100 32.46200
H  16.47200 -3.25000 32.71700
H  15.56800 -1.90800 32.04200
H  15.85700 -2.13700 34.68800
H  15.48100 -0.66700 33.88600
H  22.02200 -6.46600 28.58600
H  20.67100 -7.48900 28.01200
H  20.54300 -6.55000 29.51800
H  21.60100 -8.20900 25.86000
H  22.73000 -6.83800 26.06000
H  22.42600 -7.73700 24.51500
H  17.80200 -3.09700 22.15700
H  17.28800 -0.24400 22.48400
H  20.23200 -1.83000 23.08900
H  19.46000 -0.85500 21.86400
H  19.91600 -2.51900 21.60000
H  15.02500 -2.34800 22.43600
H  16.05700 -2.08700 21.03200
H  14.88700 -0.16000 20.54300
H  14.96100 0.53100 22.10900
H  13.73000 -0.54000 21.86200
H  14.51600 2.39800 25.13600
H  13.93700 3.19700 26.62900
H  13.07500 1.81400 25.95900
H  15.05200 0.46800 31.27100
H  18.08100 2.68000 33.38400
H  16.61700 3.58900 33.97300
H  17.31100 4.05400 32.43300
Mg 25.92800 0.64200 29.00900
C  27.87700 0.14400 31.96400
C  23.16200 0.87700 30.94200
C  24.17900 0.59400 26.11800
C  28.86300 0.04700 27.19300
N  25.64300 0.51400 31.27400
C  26.55300 0.40900 32.21900
C  25.75200 0.69300 33.52900
C  24.28200 0.89800 33.11500
C  24.35900 0.79000 31.66600
C  23.33800 -0.31600 33.60900
C  26.35800 1.95400 34.29300
C  26.96200 1.75400 35.63900
H  26.34400 2.54600 36.88200
N  23.93600 0.67400 28.58800
C  22.94200 0.87800 29.53900
C  21.62500 0.88800 28.86000
C  21.88400 0.68700 27.42400
C  23.37000 0.57300 27.34600
C  20.35000 1.18300 29.62700
C  20.90900 0.65700 26.27000
O  21.34800 0.66200 25.10500
C  19.43400 0.74700 26.52400
N  26.46900 0.39100 26.87200
C  25.55800 0.56600 25.84800
C  26.18100 0.35800 24.49000
C  27.77800 0.39700 24.86700
C  27.72400 0.21000 26.41800
C  25.76100 -0.91000 23.68500
C  28.47300 1.80000 24.65800
C  28.31400 2.32300 23.21700
N  27.96200 0.27900 29.40800
C  28.98100 0.05100 28.56100
C  30.15000 -0.20600 29.32500
C  29.78000 -0.12600 30.68900
C  28.41300 0.08900 30.64800
C  31.49500 -0.53300 28.77700
C  30.29400 -0.12400 32.06800
O  31.42300 -0.22300 32.45000
C  28.98100 0.02000 33.02800
C  28.80900 -1.16000 33.95300
O  28.25300 -2.20300 33.67900
O  29.33800 -0.92100 35.19600
C  29.38500 -2.06400 36.16600
H  22.20700 0.88000 31.47200
H  23.65000 0.72000 25.17100
H  29.81000 -0.17100 26.69400
H  25.80900 -0.26900 34.03800
H  23.81500 1.80000 33.51000
H  23.65500 -0.80500 34.53000
H  23.30000 -1.11800 32.87300
H  22.36500 0.12700 33.82200
H  25.59300 2.73100 34.31400
H  27.06800 2.46200 33.64100
H  27.91800 2.24900 35.47300
H  27.04800 0.69500 35.88200
H  20.67700 1.78000 30.47800
H  19.92500 0.22900 29.93900
H  19.58200 1.70500 29.05600
H  18.98900 0.63300 25.53500
H  19.25500 1.77100 26.85200
H  18.99000 0.04800 27.23200
H  25.99600 1.17700 23.79500
H  28.30500 -0.50300 24.54900
H  24.97100 -0.63200 22.98700
H  25.26300 -1.65800 24.30100
H  26.52300 -1.36700 23.05400
H  29.51900 1.87300 24.95700
H  28.01200 2.46500 25.38700
H  29.34700 2.40500 22.87700
H  27.87200 3.31800 23.27200
H  27.75900 1.58800 22.63400
H  31.27200 -0.98900 27.81300
H  32.09100 -1.13400 29.46400
H  32.07000 0.37300 28.58300
H  28.95500 0.86000 33.72200
H  30.39100 -2.01500 36.58300
H  29.32000 -3.07000 35.75100
H  28.59700 -1.98600 36.91500

