158

Mg 45.32400 3.78400 47.74800
C  43.36300 6.65400 47.58400
C  42.54500 1.84600 47.49200
C  47.36100 1.18400 46.95300
C  48.15600 5.88400 47.30700
N  43.27400 4.18200 47.30300
C  42.62100 5.45100 47.53600
C  41.07600 5.25900 47.51300
C  40.88200 3.80400 47.52700
C  42.34200 3.21300 47.45500
C  39.89300 3.32100 48.69400
C  40.24000 6.09800 46.48600
C  40.95800 6.44200 45.17700
H  40.24700 5.92300 43.88300
N  45.03700 1.77600 47.42300
C  43.80100 1.14400 47.36800
C  43.95400 -0.28900 47.16000
C  45.32200 -0.55200 47.03800
C  45.99900 0.82100 47.13900
C  42.84000 -1.34200 47.03000
C  45.95500 -1.93700 46.99700
O  45.31000 -2.96100 46.86400
C  47.45900 -1.98900 46.78500
N  47.49400 3.59800 47.38700
C  48.03300 2.40700 47.07700
C  49.53900 2.44200 46.85800
C  49.83800 3.95700 47.11500
C  48.46700 4.49900 47.36400
C  50.39400 1.49600 47.69200
C  50.59000 4.68400 45.90800
C  52.12300 4.43300 45.96600
N  45.73400 5.81600 47.65600
C  46.90300 6.49500 47.37200
C  46.65200 7.94800 47.43300
C  45.24000 8.02700 47.66400
C  44.73800 6.71700 47.64500
C  47.59300 9.13900 47.26900
C  44.11500 8.99500 47.74500
O  44.07400 10.23500 47.65600
C  42.85900 8.06200 47.75400
C  42.02400 8.40500 48.91900
O  42.22700 7.92800 50.03700
O  40.91200 9.13200 48.53700
C  39.79500 9.17900 49.57900
H  41.69100 1.20000 47.70200
H  48.12400 0.43100 46.74300
H  48.93700 6.64500 47.37000
H  40.73600 5.68600 48.45700
H  40.36700 3.46100 46.62900
H  39.26600 2.53200 48.27700
H  39.24100 4.08400 49.11800
H  40.53900 2.91900 49.47400
H  39.89000 7.03200 46.92700
H  39.27700 5.62900 46.28300
H  41.88000 5.87200 45.05900
H  41.03500 7.52700 45.11600
H  43.00100 -2.12100 47.77600
H  43.13600 -1.75700 46.06600
H  41.83800 -0.92400 47.12700
H  47.92600 -1.52600 47.65400
H  47.73000 -1.50100 45.84900
H  47.76600 -3.01100 46.56200
H  49.61900 2.18800 45.80100
H  50.36500 4.07300 48.06200
H  50.82100 0.72900 47.04600
H  49.97200 0.97700 48.55200
H  51.24200 2.08000 48.05000
H  50.35300 5.74700 45.95000
H  50.31900 4.30600 44.92200
H  52.42200 4.01000 45.00700
H  52.47800 3.78300 46.76600
H  52.72300 5.33500 46.09000
H  47.21800 9.81300 46.49900
H  48.57900 8.73400 47.03800
H  47.66600 9.72800 48.18300
H  42.36000 8.40100 46.84600
H  40.02000 9.03500 50.63500
H  39.09400 8.40300 49.27100
H  39.19600 10.08300 49.46500
Mg 35.66200 2.86900 29.30800
C  33.50900 3.81600 31.94000
C  38.37100 3.06400 31.47400
C  37.72300 2.22100 26.64500
C  32.96500 3.42600 26.98900
N  35.91400 3.50000 31.34200
C  34.90100 3.65800 32.29000
C  35.46800 3.71000 33.71000
C  36.98500 3.83600 33.50900
C  37.10300 3.37800 32.06200
C  37.50700 5.30400 33.70100
C  34.90800 2.57100 34.64900
C  34.90200 2.80200 36.20300
H  35.76200 3.96200 36.77400
N  37.70900 2.51700 29.12800
C  38.62700 2.58500 30.15100
C  39.93800 2.16700 29.64100
C  39.80700 1.96200 28.28400
C  38.35700 2.28100 27.92800
C  41.09700 2.02400 30.64000
C  40.95800 1.67300 27.28400
O  40.68900 1.57300 26.06100
C  42.40400 1.42600 27.72700
N  35.38900 2.79500 27.10900
C  36.41600 2.58300 26.24300
C  35.96400 2.71900 24.76500
C  34.44800 3.09300 24.93000
C  34.23900 3.12000 26.41600
C  36.72500 3.71600 23.97500
C  33.44700 2.12300 24.18000
C  32.93600 0.84100 24.85100
N  33.70600 3.50300 29.38000
C  32.70700 3.59400 28.40600
C  31.42500 4.03300 29.04200
C  31.68300 4.03100 30.39100
C  33.07200 3.70900 30.57500
C  30.15100 4.39000 28.27300
C  31.11700 4.27100 31.75200
O  30.01500 4.55700 32.16600
C  32.25200 4.05900 32.71400
C  32.30500 5.26700 33.49000
O  32.54400 6.34600 33.01700
O  32.07200 4.98300 34.82100
C  32.09700 6.21300 35.62600
H  39.12000 3.01300 32.26700
H  38.37200 2.07600 25.77900
H  32.04600 3.60400 26.42700
H  35.05600 4.56500 34.24500
H  37.47800 3.13400 34.18200
H  36.67800 5.96500 33.44700
H  38.39900 5.43600 33.09000
H  37.83100 5.43900 34.73300
H  35.58800 1.72100 34.59900
H  33.89000 2.31100 34.35700
H  35.10000 1.85300 36.70200
H  33.87700 3.08800 36.43800
H  41.77400 1.23000 30.32400
H  40.69400 1.73500 31.61000
H  41.66900 2.93500 30.81500
H  42.66000 2.18900 28.46300
H  43.18200 1.38100 26.96500
H  42.46800 0.45700 28.22200
H  35.97200 1.75900 24.24800
H  34.19000 4.11700 24.66300
H  36.71300 3.31400 22.96200
H  37.74600 3.79800 24.34900
H  36.24700 4.69500 24.00600
H  34.00800 1.73000 23.33200
H  32.57100 2.63100 23.77700
H  33.57400 0.03600 24.48600
H  31.92500 0.53600 24.57700
H  33.13800 0.73800 25.91700
H  29.70700 3.51800 27.79200
H  30.36500 5.09100 27.46600
H  29.46300 4.81800 29.00200
H  32.07600 3.25900 33.43200
H  33.10100 6.62500 35.51800
H  32.00300 6.04000 36.69800
H  31.24600 6.78600 35.25800

