158

Mg 9.22100 3.00200 27.70100
C  10.60600 1.44000 30.44100
C  7.45500 5.02500 29.82200
C  7.69800 4.24200 24.95500
C  10.56300 0.43100 25.68400
N  8.83100 3.07500 29.91900
C  9.75600 2.50100 30.85400
C  9.56600 3.02300 32.29400
C  8.46800 4.10800 32.03900
C  8.16400 4.06100 30.52300
C  7.21900 3.98800 32.94800
C  10.84200 3.69700 32.88200
C  10.73700 4.20100 34.29600
H  11.59600 3.64500 35.40800
N  7.86400 4.45600 27.46900
C  7.27000 5.22100 28.44200
C  6.49000 6.26700 27.82400
C  6.51000 6.02700 26.43000
C  7.37000 4.84200 26.24500
C  5.95500 7.48300 28.52900
C  5.74900 6.74600 25.32400
O  5.81300 6.41800 24.11800
C  4.89600 7.89600 25.63400
N  9.27800 2.52300 25.64200
C  8.56500 3.17700 24.72900
C  8.78500 2.66900 23.32200
C  9.71900 1.49600 23.55600
C  10.00800 1.51200 25.05400
C  7.44400 2.20500 22.60200
C  11.06400 1.58400 22.70200
C  11.04700 1.09000 21.23800
N  10.33900 1.35400 27.98100
C  10.75200 0.36800 27.06600
C  11.46400 -0.71900 27.73700
C  11.44700 -0.27800 29.06600
C  10.72400 0.97600 29.12000
C  11.94400 -2.03200 27.17200
C  11.84300 -0.56500 30.42200
O  12.43000 -1.53500 30.87700
C  11.46700 0.59900 31.29200
C  10.84300 0.03000 32.52100
O  9.81400 -0.62300 32.61900
O  11.58200 0.36600 33.58400
C  11.14600 -0.21200 34.84000
H  7.01700 5.86400 30.36600
H  7.24500 4.70200 24.07500
H  10.92000 -0.46200 25.16700
H  9.23000 2.17700 32.89300
H  9.02500 5.02600 32.23100
H  7.00300 4.89300 33.51500
H  7.43600 3.20100 33.67000
H  6.38400 3.57200 32.38400
H  11.21300 4.45300 32.19000
H  11.61600 2.92900 32.87800
H  9.68100 4.08200 34.54100
H  10.84000 5.28400 34.35400
H  6.22800 8.30800 27.87100
H  6.24200 7.53000 29.57900
H  4.87000 7.38400 28.57400
H  3.99300 7.68500 26.20700
H  4.54300 8.34300 24.70500
H  5.41600 8.75800 26.05200
H  9.22300 3.41900 22.66300
H  9.32900 0.50400 23.32800
H  7.45700 1.11900 22.51200
H  7.46600 2.49300 21.55100
H  6.57200 2.45000 23.20900
H  11.75100 0.92800 23.23700
H  11.52800 2.56900 22.73900
H  10.04800 0.86700 20.86400
H  11.69400 0.21800 21.13800
H  11.41400 1.77600 20.47500
H  12.73300 -2.46400 27.78800
H  12.30000 -2.07100 26.14300
H  11.25300 -2.87500 27.20900
H  12.28000 1.14400 31.77100
H  12.06200 -0.58400 35.29900
H  10.46000 -1.05200 34.73000
H  10.64100 0.54300 35.44300
Mg 44.32000 3.18200 48.20200
C  42.11300 5.79900 47.37600
C  41.58500 1.05000 47.58400
C  46.42200 0.56700 48.14600
C  47.08400 5.44400 47.67700
N  42.06700 3.45800 47.41300
C  41.37700 4.59500 47.37700
C  39.87800 4.29100 46.99700
C  39.72600 2.81900 47.38500
C  41.22900 2.37900 47.41000
C  38.98500 2.55600 48.78000
C  39.61300 4.63800 45.50900
C  38.68600 5.80600 45.20900
H  39.03100 6.79400 44.01600
N  44.03400 1.04700 48.11600
C  42.84800 0.38100 47.88500
C  43.16200 -1.00700 47.88900
C  44.51500 -1.20100 47.97700
C  45.08600 0.15600 48.09600
C  42.10900 -2.02500 47.70500
C  45.34100 -2.49800 47.94100
O  44.80500 -3.60700 47.80600
C  46.81900 -2.55400 48.16100
N  46.39400 3.09900 48.07300
C  47.03800 1.89000 48.11600
C  48.59600 2.01600 47.87700
C  48.82800 3.54400 47.99300
C  47.37100 4.06100 47.89700
C  49.43000 1.27900 48.94300
C  49.86900 4.17400 47.06300
C  51.05100 3.24300 46.53900
N  44.57400 5.23100 47.70200
C  45.76400 6.06300 47.61000
C  45.27700 7.39400 47.38000
C  43.89200 7.31600 47.26500
C  43.54000 5.96200 47.43600
C  46.33400 8.51400 47.08800
C  42.82000 8.17600 47.04400
O  42.76500 9.42900 46.98100
C  41.57400 7.18900 47.07700
C  40.70000 7.74700 48.16000
O  40.70500 7.29000 49.29400
O  39.88400 8.75200 47.64500
C  38.66800 9.01900 48.47200
H  40.72600 0.40200 47.39900
H  47.28200 -0.10500 48.09400
H  47.89600 6.16100 47.53600
H  39.34100 4.98200 47.64600
H  39.24500 2.10800 46.71400
H  38.67900 3.46000 49.30800
H  39.72500 2.04000 49.39200
H  38.22900 1.77300 48.71800
H  39.20700 3.77300 44.98500
H  40.61300 4.69900 45.08100
H  38.55000 6.41400 46.10300
H  37.75100 5.36400 44.86200
H  41.17400 -1.64300 47.29600
H  41.99500 -2.61400 48.61500
H  42.32100 -2.83400 47.00500
H  47.42900 -2.05300 47.41000
H  47.10100 -3.60700 48.17400
H  47.03500 -2.16000 49.15400
H  48.93100 1.81700 46.85900
H  49.16000 3.75700 49.00900
H  48.81800 1.02800 49.80900
H  50.21500 1.91500 49.35200
H  49.93200 0.45800 48.43200
H  50.32200 4.97800 47.64300
H  49.39100 4.68200 46.22600
H  51.33900 2.59500 47.36700
H  51.95900 3.78700 46.27800
H  50.72000 2.75400 45.62300
H  47.22900 8.19500 46.55400
H  46.59200 9.00300 48.02700
H  45.82300 9.26300 46.48300
H  41.10600 7.33100 46.10200
H  38.53100 8.66800 49.49500
H  37.81500 8.54700 47.98600
H  38.36800 10.06600 48.42400

