158

Mg 25.70600 1.22100 29.11500
C  27.69500 0.74900 31.94100
C  22.94000 1.56900 31.31000
C  23.76100 1.40600 26.43300
C  28.57300 0.32000 27.08900
N  25.37200 1.17000 31.30800
C  26.40900 1.13300 32.24400
C  25.93400 1.33500 33.68100
C  24.35300 1.24200 33.49000
C  24.18200 1.39100 31.93400
C  23.73300 -0.08900 34.02900
C  26.50600 2.69600 34.34000
C  27.16100 2.66100 35.69700
H  26.53600 3.53600 36.83500
N  23.59400 1.44200 28.92600
C  22.67000 1.54600 29.92900
C  21.35500 1.70600 29.34000
C  21.62900 1.61900 27.91500
C  23.02500 1.51800 27.69000
C  20.10200 1.86000 30.14400
C  20.67300 1.80800 26.71200
O  21.09000 1.78000 25.59000
C  19.20900 2.12800 26.94800
N  26.05800 0.99100 27.08700
C  25.10600 1.08900 26.15100
C  25.65900 0.73100 24.70200
C  27.14500 0.33300 24.98000
C  27.25800 0.56800 26.46700
C  24.83300 -0.38000 24.03700
C  28.19700 0.98900 23.99700
C  28.63400 0.12100 22.81300
N  27.76600 0.71600 29.36400
C  28.75600 0.38600 28.49600
C  29.97800 0.09800 29.26900
C  29.58400 0.18500 30.57200
C  28.29100 0.59900 30.63000
C  31.40400 -0.05700 28.79500
C  30.10400 0.11900 31.88400
O  31.30500 -0.00200 32.33800
C  28.84600 0.42300 32.87300
C  28.61900 -0.62700 33.85700
O  27.95500 -1.68700 33.66600
O  29.24300 -0.33200 35.06000
C  28.96400 -1.29400 36.10400
H  22.18600 1.67000 32.09300
H  23.32000 1.57200 25.44800
H  29.31500 -0.15000 26.44000
H  26.23500 0.51000 34.32700
H  23.82800 2.04000 34.01400
H  23.32400 -0.09600 35.04000
H  24.51400 -0.84800 33.97100
H  22.98000 -0.52300 33.37200
H  25.77600 3.49200 34.48200
H  27.28100 3.11100 33.69500
H  28.21000 2.95700 35.67200
H  27.17600 1.64300 36.08600
H  19.64700 0.87900 30.00500
H  19.48500 2.62700 29.67600
H  20.27400 2.00400 31.21100
H  18.57400 1.97900 26.07500
H  19.06900 3.18500 27.17400
H  18.69700 1.43800 27.61800
H  25.58200 1.63500 24.09800
H  27.19200 -0.75000 24.86600
H  24.19200 -0.83800 24.79000
H  25.49700 -1.08600 23.53800
H  24.24300 0.04600 23.22600
H  29.02500 1.35700 24.60200
H  27.62700 1.85900 23.67100
H  28.52400 0.50000 21.79800
H  28.02100 -0.77500 22.90800
H  29.66100 -0.20100 22.98700
H  31.56900 0.11100 27.73100
H  31.48000 -1.12900 28.97600
H  32.06800 0.59400 29.36400
H  29.13600 1.32300 33.41500
H  29.27100 -2.28400 35.76800
H  27.91400 -1.33700 36.39400
H  29.47100 -1.06300 37.04100
Mg 41.02600 9.50900 29.33900
C  43.00500 10.72900 32.09900
C  39.07900 7.94700 31.54300
C  39.57100 7.97600 26.80200
C  43.70300 10.45800 27.20300
N  41.11500 9.24400 31.57900
C  41.87700 9.94500 32.50100
C  41.38900 9.63800 33.96000
C  40.29000 8.60700 33.74500
C  40.12100 8.58700 32.18200
C  40.33400 7.26600 34.55300
C  40.89600 10.93600 34.70800
C  40.09100 10.79200 35.99800
H  40.47700 11.69300 37.22700
N  39.33600 8.28600 29.15700
C  38.66600 7.75500 30.22400
C  37.49200 7.04700 29.79600
C  37.53400 7.12500 28.36400
C  38.81200 7.82500 28.01200
C  36.55900 6.17200 30.63000
C  36.49900 6.75800 27.22200
O  36.81700 6.91700 26.04300
C  35.11700 6.29600 27.68500
N  41.59200 9.16700 27.32900
C  40.74600 8.58400 26.41900
C  41.22900 8.64100 24.93200
C  42.54200 9.50300 25.12200
C  42.62900 9.73700 26.67900
C  41.53200 7.20500 24.27900
C  42.49400 10.84300 24.31300
C  43.59700 11.05400 23.23900
N  42.93400 10.52500 29.53000
C  43.88700 10.76200 28.56500
C  44.87900 11.48000 29.18500
C  44.58700 11.54800 30.54500
C  43.44500 10.87300 30.71300
C  46.17400 11.98200 28.52900
C  45.07000 11.99200 31.85500
O  46.04300 12.67600 32.13800
C  44.04200 11.38700 32.96900
C  44.70000 10.32600 33.78700
O  44.92600 9.20600 33.37000
O  44.89700 10.72800 35.10100
C  45.49600 9.75200 35.96000
H  38.38000 7.43700 32.20900
H  39.17700 7.40200 25.96100
H  44.47400 10.76600 26.49500
H  42.19600 9.26500 34.59000
H  39.35500 9.08600 34.03600
H  41.36700 7.04300 34.81800
H  39.92800 6.46800 33.93200
H  39.74100 7.30500 35.46700
H  40.29000 11.39500 33.92700
H  41.75400 11.54400 34.99400
H  40.15600 9.74800 36.30500
H  39.06600 11.08800 35.77800
H  36.81600 6.36400 31.67200
H  36.65400 5.14300 30.28300
H  35.51800 6.46500 30.49500
H  34.62400 7.08600 28.25100
H  35.16600 5.44700 28.36600
H  34.46700 6.03300 26.85000
H  40.48200 9.08400 24.27400
H  43.43400 9.01900 24.72400
H  41.26800 7.37800 23.23600
H  40.96200 6.42900 24.79000
H  42.61400 7.08300 24.33100
H  42.77400 11.61300 25.03100
H  41.59200 11.05200 23.73800
H  44.31300 11.76800 23.64800
H  43.03300 11.44800 22.39300
H  43.99900 10.07700 22.97100
H  46.16200 12.81200 27.82300
H  46.40700 11.05900 27.99700
H  46.90800 12.15200 29.31700
H  43.69900 12.17600 33.63800
H  44.61500 9.37600 36.47900
H  46.20200 10.14500 36.69100
H  46.01500 8.94700 35.43900

