158

Mg 46.14900 25.05200 29.44100
C  46.96700 27.36700 31.94500
C  45.05700 22.87700 31.75000
C  45.77600 22.90000 26.98800
C  47.84400 27.26700 27.18500
N  45.89800 25.17000 31.52200
C  46.34300 26.21600 32.40300
C  46.04900 25.91100 33.86000
C  45.49000 24.44100 33.79300
C  45.44900 24.11100 32.24100
C  46.10500 23.33300 34.72500
C  44.97900 26.94000 34.48100
C  45.26000 27.54200 35.82500
H  45.74100 26.67200 36.99100
N  45.29100 23.19500 29.33500
C  44.89200 22.44000 30.39700
C  44.30500 21.25800 29.88500
C  44.35400 21.22500 28.50000
C  45.16700 22.45700 28.18500
C  43.64400 20.27400 30.83500
C  43.80300 20.16300 27.48100
O  43.98100 20.24500 26.25800
C  42.94200 18.99900 28.01600
N  46.75800 25.13900 27.38800
C  46.44600 24.05600 26.63400
C  46.93700 24.30100 25.18100
C  47.53400 25.70000 25.20500
C  47.37100 26.12600 26.66200
C  47.85800 23.20600 24.51600
C  46.81600 26.68300 24.29100
C  47.04100 26.49300 22.79600
N  47.10300 26.92600 29.44600
C  47.76400 27.63200 28.47800
C  48.32400 28.84500 28.96400
C  48.00500 28.84300 30.34900
C  47.24200 27.63200 30.60000
C  49.00400 29.86600 28.08500
C  48.23600 29.53500 31.59900
O  48.78900 30.62400 31.81600
C  47.54600 28.59100 32.64000
C  48.65100 28.41100 33.61400
O  49.73300 28.00300 33.42100
O  48.27700 28.87400 34.82400
C  49.17000 28.71000 35.97400
H  44.65100 22.23500 32.53500
H  45.61700 22.31000 26.08200
H  48.56900 27.69900 26.49200
H  47.01600 25.88200 34.36300
H  44.42100 24.51100 33.99500
H  45.34400 22.64500 35.09300
H  46.59600 23.90400 35.51400
H  46.97400 23.03300 34.14000
H  44.09000 26.31000 34.46900
H  44.72600 27.69000 33.73100
H  44.28000 27.88100 36.16100
H  45.95800 28.34900 35.60300
H  42.55400 20.29700 30.83400
H  43.97000 20.49100 31.85200
H  43.97500 19.27000 30.57200
H  43.45300 18.40900 28.77700
H  42.64200 18.34900 27.19400
H  42.01900 19.15400 28.57500
H  46.02800 24.35900 24.58200
H  48.55600 25.63700 24.82900
H  48.31300 22.52900 25.23900
H  48.69300 23.62300 23.95300
H  47.21000 22.67200 23.82100
H  47.09700 27.71300 24.50900
H  45.74800 26.52700 24.44300
H  47.77600 25.69700 22.67900
H  47.51600 27.37400 22.36400
H  46.12700 26.15300 22.30900
H  48.25600 30.28600 27.41200
H  49.91900 29.52300 27.60200
H  49.32000 30.71200 28.69500
H  46.67700 29.14300 32.99800
H  49.63600 27.73600 35.82200
H  48.56300 28.58100 36.87100
H  49.99600 29.41500 36.06200
Mg 49.35200 44.90700 42.67600
C  45.91200 45.08200 42.35300
C  49.08600 41.48700 42.17300
C  52.70500 44.72000 42.14000
C  49.43500 48.28500 42.93400
N  47.60000 43.42200 42.06000
C  46.30200 43.77300 42.19500
C  45.47100 42.47000 42.13700
C  46.57300 41.33500 42.42100
C  47.82800 42.10900 42.25300
C  46.41900 40.53900 43.77000
C  44.62700 42.30800 40.78600
C  44.61800 43.32700 39.64800
H  44.65100 42.66900 38.26700
N  50.77200 43.30800 42.28700
C  50.45600 42.04400 42.19400
C  51.68500 41.21200 42.28600
C  52.76700 42.07300 42.25600
C  52.13800 43.41700 42.23900
C  51.80200 39.69100 42.25000
C  54.27800 41.75300 42.14900
O  54.62500 40.59300 42.08500
C  55.37500 42.79300 42.26700
N  50.78300 46.31200 42.33300
C  52.10300 45.99000 42.16200
C  52.88500 47.29100 41.89500
C  51.93400 48.45000 42.33000
C  50.63300 47.64300 42.53800
C  54.23600 47.32700 42.60400
C  51.84000 49.63900 41.34200
C  52.17300 51.12600 41.83100
N  48.01600 46.44600 42.70400
C  48.16800 47.75500 42.90600
C  46.87800 48.39900 42.94500
C  45.97400 47.37500 42.69300
C  46.71100 46.21400 42.56800
C  46.49000 49.85700 43.12300
C  44.55200 47.09800 42.46300
O  43.57900 47.80300 42.38100
C  44.55600 45.65500 42.11800
C  43.43900 44.98600 42.77000
O  42.58700 44.36100 42.15000
O  43.33800 45.30900 44.13900
C  42.07800 45.00200 44.87100
H  49.05800 40.40300 42.29900
H  53.78700 44.66100 42.01200
H  49.47800 49.33900 43.21600
H  44.79800 42.40400 42.99200
H  46.66400 40.60600 41.61500
H  47.32100 40.32200 44.34300
H  45.79400 39.67000 43.56300
H  45.82900 41.09200 44.50100
H  43.60600 42.22800 41.16000
H  44.73200 41.31800 40.34200
H  45.31300 44.16600 39.68700
H  43.61900 43.76200 39.61100
H  52.29100 39.41400 41.31600
H  50.75800 39.39900 42.36500
H  52.45400 39.34700 43.05300
H  56.25100 42.22000 42.57100
H  55.03800 43.50800 43.01700
H  55.56700 43.17400 41.26400
H  53.02800 47.43400 40.82400
H  52.23900 48.89200 43.27800
H  54.15500 46.68500 43.48000
H  54.41600 48.36300 42.89300
H  55.02300 47.05000 41.90200
H  50.86600 49.59400 40.85300
H  52.43900 49.44800 40.45200
H  52.27000 51.21500 42.91300
H  51.24000 51.63200 41.58200
H  53.00100 51.56300 41.27300
H  45.97800 50.05500 42.18200
H  47.30900 50.57300 43.19500
H  45.92100 49.84800 44.05300
H  44.38400 45.59800 41.04300
H  41.30700 44.52700 44.26400
H  41.58200 45.80600 45.41600
H  42.43600 44.29900 45.62300

