158

Mg 1.29900 -1.10600 44.15700
C  4.36600 0.11800 43.20800
C  -0.20300 1.55700 42.64400
C  -1.72400 -2.50900 44.74800
C  2.93200 -4.02400 45.28900
N  2.08600 0.59700 42.90300
C  3.34600 0.95500 42.69400
C  3.49600 2.15000 41.78000
C  2.01700 2.75800 41.86600
C  1.22700 1.53700 42.47300
C  1.87800 3.95600 42.94900
C  4.00000 1.89300 40.26200
C  3.69800 0.48700 39.67700
H  3.38000 0.24300 38.24600
N  -0.74200 -0.54700 43.66400
C  -1.16300 0.60000 43.07400
C  -2.59900 0.63200 43.11000
C  -2.97800 -0.46900 43.90300
C  -1.80500 -1.22700 44.13700
C  -3.35200 1.79000 42.43400
C  -4.41400 -0.75800 44.31100
O  -5.31600 -0.05900 43.83100
C  -4.82400 -1.86500 45.18600
N  0.76600 -3.09900 44.80100
C  -0.55100 -3.33200 45.01600
C  -0.77600 -4.78200 45.69500
C  0.69300 -5.30400 45.61200
C  1.53400 -4.07900 45.14200
C  -1.39400 -4.75900 47.05600
C  0.93300 -6.58800 44.81000
C  0.85700 -7.85500 45.65000
N  3.25700 -1.80500 44.30800
C  3.80900 -2.97200 44.81300
C  5.29200 -2.94700 44.75900
C  5.52900 -1.74200 44.16200
C  4.28000 -1.14400 43.89600
C  6.31100 -3.94600 45.30600
C  6.63800 -0.81800 43.71600
O  7.89300 -0.91600 43.74200
C  5.85900 0.36400 43.03100
C  6.35800 1.64200 43.70500
O  5.91900 2.11400 44.71800
O  7.44300 2.16100 42.93500
C  8.04900 3.46800 43.31500
H  -0.65700 2.38100 42.09000
H  -2.66300 -2.92300 45.12100
H  3.44700 -4.85900 45.76800
H  4.20300 2.91800 42.09500
H  1.50600 3.00500 40.93500
H  1.56900 4.85000 42.40800
H  2.77900 4.12900 43.53800
H  1.24900 3.75400 43.81600
H  5.03200 2.15900 40.03200
H  3.28400 2.45000 39.65800
H  2.89300 0.00500 40.23100
H  4.55800 -0.15900 39.85300
H  -4.30900 2.01800 42.90300
H  -3.44200 1.65400 41.35600
H  -2.71300 2.67300 42.46300
H  -5.89300 -1.75700 45.37200
H  -4.28300 -2.02500 46.11800
H  -4.73300 -2.72600 44.52300
H  -1.35200 -5.35000 44.96400
H  1.12600 -5.37000 46.61100
H  -1.78900 -5.75700 47.24600
H  -2.21500 -4.04400 47.00300
H  -0.70300 -4.37700 47.80700
H  1.86800 -6.54900 44.25100
H  0.09600 -6.58700 44.11300
H  1.05800 -8.67800 44.96500
H  -0.09300 -7.97800 46.17000
H  1.56800 -7.87900 46.47700
H  5.96000 -4.94400 45.04500
H  6.53200 -3.87600 46.37200
H  7.17200 -3.69700 44.68700
H  6.15200 0.42400 41.98300
H  7.91800 3.68400 44.37500
H  7.51900 4.21800 42.72700
H  9.09500 3.60400 43.04200
Mg -5.46200 25.05000 26.59900
C  -4.06600 26.50200 29.47700
C  -7.63400 23.16200 28.53900
C  -6.44600 23.51900 23.88800
C  -3.13000 26.86300 24.74000
N  -5.77200 24.88600 28.75000
C  -5.08400 25.53100 29.74300
C  -5.47800 24.92600 31.04800
C  -6.53100 23.83000 30.77600
C  -6.67100 24.00100 29.25900
C  -6.15400 22.45500 31.34800
C  -5.94900 26.02700 32.03900
C  -5.64800 25.70700 33.50100
H  -5.08000 24.38200 33.88800
N  -6.90100 23.66300 26.30300
C  -7.65000 22.94100 27.20200
C  -8.59000 21.98700 26.51500
C  -8.30300 22.16000 25.15600
C  -7.16400 23.16800 25.06200
C  -9.45900 21.13600 27.24000
C  -9.04700 21.58600 23.98400
O  -8.66500 21.71800 22.82700
C  -10.27300 20.64000 24.20400
N  -4.88100 25.22600 24.63300
C  -5.42100 24.41800 23.68600
C  -4.70400 24.51900 22.31200
C  -3.86600 25.84200 22.58000
C  -3.97900 26.06300 24.06800
C  -3.91100 23.22800 21.77700
C  -4.40500 27.10400 21.84300
C  -3.51500 27.71000 20.78800
N  -3.92500 26.53000 26.96900
C  -3.06900 27.17700 26.13000
C  -2.13900 28.03700 26.82600
C  -2.44100 27.77600 28.17800
C  -3.58100 26.80200 28.17600
C  -1.04900 28.81700 26.16100
C  -2.09000 28.02800 29.57900
O  -1.35300 28.74500 30.20500
C  -3.13200 27.22700 30.40000
C  -2.41200 26.38800 31.33900
O  -2.05500 25.19900 31.09400
O  -1.99700 27.09900 32.47000
C  -1.38800 26.32100 33.50100
H  -8.42900 22.70600 29.13300
H  -6.70400 22.95700 22.98800
H  -2.38500 27.35100 24.10800
H  -4.51300 24.49600 31.31400
H  -7.48300 24.18600 31.17000
H  -6.16800 21.69100 30.57100
H  -6.86800 22.13200 32.10600
H  -5.17400 22.39100 31.82100
H  -7.02300 26.21600 32.06600
H  -5.53600 27.00100 31.77800
H  -6.50700 25.92500 34.13700
H  -4.93400 26.43200 33.89000
H  -9.18600 20.18300 26.78700
H  -10.48300 21.35200 26.93500
H  -9.34800 21.06200 28.32200
H  -10.02000 19.73200 24.75300
H  -10.50700 20.23400 23.22000
H  -11.10600 21.19600 24.63300
H  -5.47500 24.68500 21.56000
H  -2.82100 25.61900 22.36500
H  -2.83700 23.36400 21.65000
H  -4.28000 22.84400 20.82600
H  -3.99900 22.40600 22.48800
H  -4.68800 27.88600 22.54800
H  -5.34500 26.82900 21.36500
H  -4.15300 27.84600 19.91500
H  -2.61500 27.10300 20.68200
H  -3.22300 28.69600 21.14800
H  -0.48600 29.36300 26.91800
H  -1.26100 29.48800 25.32900
H  -0.29100 28.14400 25.76100
H  -3.63900 28.00200 30.97400
H  -2.10200 26.28100 34.32400
H  -0.53900 26.94600 33.77900
H  -1.09100 25.32600 33.16900

