158

Mg 8.90100 3.47400 27.38400
C  10.48700 2.01000 30.29700
C  7.24000 5.48100 29.63500
C  7.00800 4.47100 24.80000
C  10.64500 1.22300 25.49800
N  8.85600 3.64700 29.73200
C  9.59300 3.05500 30.65900
C  9.33500 3.54700 32.07900
C  8.15400 4.49800 31.87600
C  8.04200 4.60600 30.34500
C  6.86500 3.98200 32.55500
C  10.61700 4.25800 32.69100
C  11.20400 3.80800 34.04100
H  10.38400 3.31400 35.24800
N  7.38500 4.86100 27.23900
C  6.90400 5.60600 28.24300
C  6.04100 6.53200 27.64700
C  5.82500 6.22700 26.28700
C  6.73600 5.15600 26.01600
C  5.28500 7.57000 28.44700
C  4.85600 6.84100 25.21000
O  4.83400 6.44600 24.07300
C  3.80800 7.91800 25.56700
N  8.76000 2.84300 25.46900
C  7.96200 3.47300 24.55500
C  8.24100 3.00500 23.16500
C  9.33800 1.90600 23.37200
C  9.66600 2.00800 24.83700
C  7.00200 2.54300 22.30500
C  10.56000 1.95200 22.44200
C  10.58300 0.93100 21.25700
N  10.29900 2.04600 27.78500
C  10.94100 1.24600 26.88000
C  11.86600 0.39200 27.56700
C  11.73900 0.71700 28.88400
C  10.77800 1.67100 28.97300
C  12.74400 -0.63200 26.92400
C  12.17500 0.33600 30.18500
O  13.02800 -0.49800 30.50900
C  11.45100 1.26500 31.10400
C  10.78800 0.45900 32.16400
O  9.67200 -0.04800 32.13300
O  11.48100 0.69200 33.32900
C  10.85800 0.09200 34.51300
H  6.78800 6.19600 30.32500
H  6.46800 4.79100 23.90600
H  11.30700 0.58000 24.91400
H  9.03300 2.70200 32.69800
H  8.30100 5.44700 32.39100
H  6.12700 3.92200 31.75500
H  6.53600 4.79700 33.19900
H  6.92600 3.05600 33.12800
H  10.35000 5.28500 32.94000
H  11.43600 4.25800 31.97200
H  12.00400 4.46600 34.38300
H  11.85100 3.03300 33.63000
H  5.68500 8.52900 28.11800
H  5.40000 7.53300 29.53100
H  4.21700 7.58300 28.22900
H  3.23300 8.24300 24.70000
H  4.24200 8.78700 26.06200
H  3.16500 7.35000 26.23900
H  8.71400 3.83300 22.63800
H  9.00600 0.87100 23.29500
H  7.23500 1.54800 21.92700
H  6.94700 3.25500 21.48200
H  6.06500 2.46000 22.85600
H  11.47500 1.79700 23.01400
H  10.59900 2.90900 21.92200
H  10.98600 1.45300 20.38900
H  9.56700 0.66100 20.96900
H  11.19700 0.04100 21.39700
H  12.11700 -1.25200 26.28200
H  13.17400 -1.39600 27.57200
H  13.49500 -0.02800 26.41500
H  12.26400 1.87500 31.49500
H  10.74800 -0.99200 34.50800
H  9.88600 0.54600 34.70600
H  11.61300 0.45000 35.21300
Mg -0.58000 42.74800 24.81100
C  1.94800 42.16900 27.26500
C  -2.88400 42.19400 27.30000
C  -2.89800 42.75100 22.45800
C  1.95800 42.98500 22.45200
N  -0.48900 42.26900 27.00100
C  0.60400 42.13400 27.80400
C  0.24400 41.99000 29.35400
C  -1.33900 41.62200 29.16600
C  -1.63000 42.03300 27.75000
C  -1.62600 40.06800 29.38200
C  0.66400 43.20800 30.25600
C  0.03200 43.38800 31.68200
H  -0.45400 42.11100 32.38300
N  -2.66900 42.54900 24.83400
C  -3.41700 42.32900 25.95300
C  -4.87700 42.26400 25.60200
C  -4.82900 42.31100 24.22400
C  -3.45100 42.54000 23.79000
C  -6.07100 42.02600 26.57500
C  -5.93200 42.17400 23.12600
O  -5.77000 42.14900 21.93100
C  -7.31400 42.12700 23.61600
N  -0.47000 42.82700 22.69200
C  -1.58300 42.79900 21.87900
C  -1.14000 42.98200 20.38600
C  0.41000 43.29200 20.53300
C  0.68000 43.09900 21.98900
C  -1.57500 41.77700 19.58500
C  0.89700 44.66800 19.91700
C  0.74400 45.94700 20.81200
N  1.54400 42.70000 24.85100
C  2.39000 42.91700 23.82600
C  3.79000 42.72500 24.32200
C  3.61100 42.62300 25.71100
C  2.28200 42.46000 25.93400
C  5.02200 42.83300 23.46900
C  4.31600 42.42800 26.94800
O  5.49300 42.35200 27.15200
C  3.21800 42.32000 28.03500
C  3.50400 41.22400 28.92400
O  3.43500 40.02200 28.70500
O  3.98600 41.75500 30.05600
C  4.31200 40.75100 31.08400
H  -3.64700 42.18500 28.08200
H  -3.61100 42.51300 21.66600
H  2.67200 43.30300 21.68800
H  0.83700 41.20200 29.81800
H  -1.97200 42.25000 29.79300
H  -2.40200 39.91800 30.13300
H  -0.70200 39.59300 29.71000
H  -1.78800 39.60500 28.40900
H  0.69400 44.16900 29.74300
H  1.71800 43.05100 30.48300
H  -0.87500 43.94400 31.44700
H  0.66200 43.94100 32.38000
H  -5.78900 41.90500 27.62100
H  -6.64900 41.12500 26.36800
H  -6.77100 42.85700 26.49000
H  -7.36000 42.96500 24.31000
H  -7.45900 41.20000 24.17100
H  -8.04300 42.23300 22.81200
H  -1.71800 43.86200 20.10400
H  0.95800 42.51900 19.99300
H  -0.68400 41.27400 19.21000
H  -2.43400 41.91100 18.92700
H  -1.92500 41.03000 20.29700
H  0.41800 44.93500 18.97600
H  1.94800 44.63300 19.63000
H  1.74700 46.36200 20.91500
H  0.25700 45.68900 21.75200
H  0.20100 46.79200 20.38800
H  4.88500 42.00600 22.77200
H  5.99400 42.63900 23.92200
H  5.09200 43.82900 23.03200
H  3.26100 43.28400 28.54100
H  3.52200 40.02100 31.26000
H  4.49000 41.26300 32.02900
H  5.28200 40.38900 30.74300

