158

Mg 2.50500 -2.38300 44.33100
C  5.93500 -1.80700 43.60100
C  1.73900 0.19700 42.06200
C  -0.68700 -3.39800 44.25300
C  3.54100 -5.35200 45.78500
N  3.72400 -1.19700 42.79600
C  5.07400 -0.90300 42.95600
C  5.46100 0.33000 42.07800
C  4.09200 0.95100 41.68800
C  3.11400 -0.03800 42.24200
C  3.93300 2.41400 42.13100
C  6.28800 -0.01100 40.82400
C  7.52800 0.85700 40.39900
H  7.55700 1.65400 39.01600
N  0.72300 -1.55600 43.38000
C  0.61400 -0.53100 42.52500
C  -0.78600 -0.30500 42.25500
C  -1.52300 -1.41000 42.82300
C  -0.47300 -2.17400 43.50000
C  -1.21200 0.91700 41.40200
C  -3.03400 -1.61900 42.67800
O  -3.78800 -0.95500 42.01900
C  -3.62200 -2.78200 43.48800
N  1.63300 -4.14600 44.85400
C  0.27900 -4.34900 44.78700
C  -0.21800 -5.55000 45.71800
C  1.17800 -6.30400 45.68900
C  2.20600 -5.20600 45.52600
C  -0.52600 -5.09400 47.17800
C  1.30000 -7.39200 44.65600
C  1.23700 -8.82600 45.27200
N  4.35900 -3.39800 44.77200
C  4.57100 -4.51300 45.51400
C  5.96800 -4.71400 45.71200
C  6.57300 -3.54900 45.09300
C  5.51600 -2.91500 44.42000
C  6.74400 -5.81400 46.43600
C  7.81300 -2.85800 44.80400
O  8.96000 -3.12300 45.08500
C  7.43600 -1.78100 43.76800
C  8.03700 -0.50800 44.20100
O  7.98000 0.01700 45.27900
O  8.93400 -0.07300 43.24300
C  9.61800 1.18000 43.68900
H  1.38700 1.13200 41.62100
H  -1.68700 -3.80600 44.41600
H  3.87100 -6.21700 46.36300
H  6.09400 0.90200 42.75600
H  3.86400 1.01500 40.62400
H  4.66000 2.79100 42.85000
H  3.09300 2.54100 42.81500
H  3.76500 3.06200 41.27100
H  5.73000 0.04700 39.88900
H  6.46000 -1.08300 40.92200
H  8.23000 0.02500 40.34600
H  7.87800 1.45500 41.24000
H  -0.76100 0.68900 40.43600
H  -0.69200 1.79200 41.79400
H  -2.28900 1.08100 41.37600
H  -4.69500 -2.83200 43.30300
H  -3.54100 -2.62000 44.56200
H  -3.06000 -3.65100 43.14400
H  -0.83900 -6.28500 45.20600
H  1.44400 -6.86200 46.58700
H  0.12000 -4.23800 47.37200
H  -0.19000 -5.96000 47.74900
H  -1.58600 -4.85000 47.23400
H  2.16600 -7.16700 44.03300
H  0.49900 -7.29300 43.92300
H  0.36100 -9.34500 44.88400
H  1.07500 -8.81000 46.35000
H  2.04900 -9.48800 44.96900
H  6.09500 -6.46900 47.01800
H  7.47200 -5.40600 47.13700
H  7.34400 -6.38800 45.73000
H  8.02100 -2.06300 42.89200
H  10.20100 1.07600 44.60400
H  8.90600 2.00200 43.75900
H  10.33000 1.32700 42.87800
Mg 41.90000 41.33000 26.56200
C  41.24400 43.63600 28.93000
C  43.25500 39.20400 29.17500
C  43.04800 39.02400 24.28600
C  41.27400 43.56700 24.09800
N  42.27700 41.45500 28.81200
C  41.64000 42.43100 29.54600
C  41.71800 42.09300 31.06000
C  42.54100 40.75200 31.04200
C  42.66500 40.41800 29.56500
C  43.95900 40.80400 31.68300
C  40.40300 42.12100 31.88600
C  40.23100 43.23900 32.91000
H  39.33000 42.97900 34.10200
N  42.94600 39.30800 26.67200
C  43.37700 38.65900 27.85500
C  43.91700 37.35200 27.42800
C  43.72800 37.18800 26.00300
C  43.13700 38.51600 25.58700
C  44.39800 36.32100 28.42400
C  44.11200 35.99400 25.04300
O  43.98000 35.97600 23.83600
C  44.71500 34.82100 25.60800
N  42.01200 41.30000 24.58900
C  42.59100 40.23600 23.82500
C  42.70700 40.69500 22.39300
C  41.76200 41.88700 22.25200
C  41.70800 42.32200 23.70800
C  44.17300 41.11200 22.02300
C  40.37500 41.72500 21.60000
C  39.42300 40.80600 22.41900
N  41.31400 43.32500 26.40700
C  41.14200 44.11600 25.35200
C  40.83200 45.42200 25.80500
C  40.85200 45.32200 27.25600
C  41.16000 44.00400 27.54300
C  40.63900 46.60900 24.95000
C  40.70200 46.04000 28.53600
O  40.43100 47.20600 28.76300
C  40.87200 44.91400 29.70400
C  41.92900 45.40300 30.65700
O  43.14100 45.35500 30.52300
O  41.28600 45.90500 31.75500
C  42.23500 46.32000 32.85400
H  43.44200 38.50500 29.99300
H  43.38800 38.27300 23.57000
H  41.26400 44.31800 23.30500
H  42.50500 42.78400 31.36200
H  42.00000 39.94900 31.54300
H  43.83700 40.08400 32.49300
H  44.24900 41.77100 32.09400
H  44.76600 40.50500 31.01400
H  40.23900 41.23300 32.49600
H  39.55500 42.23500 31.21100
H  39.70800 44.06900 32.43400
H  41.18800 43.67000 33.20500
H  45.36400 35.96100 28.06900
H  43.77400 35.42700 28.39400
H  44.43000 36.79500 29.40500
H  45.65900 35.18700 26.01100
H  44.95200 34.13100 24.79800
H  44.05900 34.28900 26.29700
H  42.31900 39.98100 21.66700
H  42.22400 42.77700 21.82500
H  44.54900 42.00200 22.52700
H  44.03300 41.32600 20.96300
H  44.90900 40.32000 22.15800
H  40.51400 41.33300 20.59200
H  39.97100 42.72400 21.43700
H  38.40700 41.19900 22.38300
H  39.59800 40.79700 23.49500
H  39.32500 39.81200 21.98200
H  39.61000 46.87000 25.19700
H  40.84300 46.52100 23.88200
H  41.21200 47.43600 25.36900
H  39.94100 44.84800 30.26700
H  43.09500 46.90000 32.52000
H  42.48900 45.48200 33.50300
H  41.55800 46.97500 33.40200

