158

Mg 25.36900 50.44800 26.87900
C  23.11100 51.15900 29.58900
C  27.64800 49.35700 29.05700
C  27.57700 50.50400 24.32400
C  23.03200 52.04400 24.73300
N  25.34900 50.35400 29.03900
C  24.38100 50.70000 29.98100
C  24.95100 50.48100 31.39300
C  26.28000 49.77800 31.17000
C  26.50700 49.92100 29.66100
C  27.40900 50.25000 31.98900
C  23.95200 49.69600 32.35900
C  24.43800 49.37700 33.81300
H  24.13000 50.28600 34.99500
N  27.27400 50.00600 26.72200
C  28.11200 49.50000 27.73400
C  29.35900 49.11000 27.19200
C  29.35100 49.56900 25.84300
C  28.00900 50.09900 25.62100
C  30.35100 48.25700 28.00300
C  30.52300 49.53200 24.85900
O  30.49500 49.93200 23.70000
C  31.81900 49.05500 25.40200
N  25.24500 51.01500 24.74800
C  26.34200 50.95900 23.90600
C  26.11100 51.79100 22.59900
C  24.56600 51.93900 22.62400
C  24.21400 51.58600 24.06900
C  26.92600 53.05600 22.41200
C  23.77000 51.08100 21.67100
C  23.43500 49.64600 22.15100
N  23.43100 51.34600 27.06200
C  22.62000 51.89700 26.08200
C  21.32500 52.26400 26.65500
C  21.53300 52.09400 27.98500
C  22.77100 51.46000 28.24800
C  20.20000 52.79900 25.89000
C  20.85300 52.33700 29.23000
O  19.79000 52.88800 29.53600
C  21.86900 51.70100 30.31800
C  22.22300 52.78400 31.23200
O  23.12600 53.58200 31.19600
O  21.30300 52.77200 32.27100
C  21.46600 53.95900 33.12000
H  28.28100 48.90400 29.82300
H  28.40600 50.57500 23.61700
H  22.32100 52.50800 24.04600
H  25.24100 51.44100 31.82100
H  26.19800 48.69700 31.28500
H  28.09000 49.47500 32.34100
H  26.99600 50.86500 32.78900
H  28.01700 50.98600 31.46400
H  23.36200 48.96400 31.80700
H  23.22900 50.46200 32.63900
H  25.47200 49.03600 33.85200
H  23.87300 48.50200 34.13500
H  30.36300 47.22500 27.65300
H  30.12400 48.28100 29.06900
H  31.36600 48.65400 27.98500
H  31.87300 48.04500 25.80800
H  31.95400 49.73500 26.24400
H  32.63400 49.16800 24.68800
H  26.34400 51.10600 21.78300
H  24.11100 52.91400 22.45100
H  27.43900 53.22000 23.35900
H  26.39500 53.96900 22.14400
H  27.69600 53.01400 21.64100
H  24.20300 50.99000 20.67500
H  22.80800 51.59300 21.70200
H  24.00300 49.30700 23.01700
H  23.53400 49.01900 21.26500
H  22.37400 49.56900 22.39100
H  20.22200 52.43500 24.86200
H  20.32800 53.87700 25.98600
H  19.35700 52.55200 26.53500
H  21.43000 50.90500 30.92000
H  22.38100 53.87600 33.70700
H  20.61200 53.98600 33.79600
H  21.40400 54.91700 32.60400
Mg -0.08400 43.27700 25.07300
C  2.34900 42.30000 27.60100
C  -2.51400 42.39300 27.36600
C  -2.26200 43.76700 22.77900
C  2.63500 43.73700 22.87700
N  -0.09600 42.48200 27.29400
C  1.01700 42.23100 28.07500
C  0.60600 41.95700 29.49200
C  -0.96000 41.66000 29.33400
C  -1.23100 42.23200 27.92400
C  -1.31200 40.16900 29.56200
C  1.08700 43.04700 30.56900
C  0.24700 43.34700 31.76900
H  -0.30200 42.18500 32.67900
N  -2.15900 43.18500 25.04600
C  -2.97500 42.75200 26.04700
C  -4.37300 42.97100 25.57300
C  -4.31300 43.39300 24.21500
C  -2.85800 43.44800 23.93000
C  -5.59000 42.67700 26.42700
C  -5.41300 43.76300 23.25000
O  -5.19700 44.15100 22.08600
C  -6.78300 43.74700 23.75500
N  0.21200 43.70200 23.07700
C  -0.90400 43.94700 22.37200
C  -0.51000 44.40300 21.00000
C  1.07300 44.38200 20.99700
C  1.36000 43.90300 22.38400
C  -1.23100 43.64600 19.78400
C  1.73800 45.78200 20.81700
C  1.66400 46.28400 19.37400
N  2.07300 43.03700 25.10200
C  3.00600 43.35700 24.16800
C  4.35900 43.08700 24.65000
C  4.15400 42.70800 26.01600
C  2.75900 42.79700 26.28700
C  5.63100 43.19800 23.90200
C  4.83500 42.33200 27.29400
O  5.99500 42.13300 27.58300
C  3.66700 42.16100 28.34800
C  3.97800 40.90900 29.02900
O  3.71300 39.80700 28.66400
O  4.51400 41.25400 30.20600
C  4.70500 40.10700 31.09800
H  -3.21100 41.94800 28.07800
H  -2.92700 44.16800 22.01100
H  3.53800 43.92700 22.29300
H  1.13300 41.05700 29.80800
H  -1.59900 42.21600 30.02000
H  -1.71600 39.87200 28.59400
H  -2.01600 40.10000 30.39100
H  -0.46500 39.51600 29.77400
H  1.37100 43.93500 30.00500
H  2.09100 42.77600 30.89600
H  -0.53500 44.02800 31.43200
H  0.84000 43.96100 32.44700
H  -6.10300 43.63500 26.50300
H  -5.24900 42.40500 27.42600
H  -6.28500 41.96900 25.97500
H  -7.06600 44.55800 24.42700
H  -7.00400 42.73300 24.08600
H  -7.49500 43.77900 22.93000
H  -0.82300 45.44600 20.94400
H  1.48000 43.67500 20.27400
H  -1.37600 44.28200 18.91000
H  -2.06600 43.11300 20.23800
H  -0.48500 42.87800 19.57600
H  2.77000 45.76900 21.16700
H  1.34000 46.61100 21.40200
H  0.81200 45.83000 18.86800
H  2.62100 46.05000 18.90700
H  1.43300 47.35000 19.37100
H  5.80800 44.22500 23.58200
H  5.41400 42.57400 23.03500
H  6.54300 42.73700 24.28100
H  3.75600 42.98600 29.05400
H  5.04400 39.23200 30.54300
H  3.84400 39.88400 31.72800
H  5.58500 40.17400 31.73700

