158

Mg 47.63300 16.00000 28.80700
C  45.41600 15.69600 31.39900
C  49.75800 17.66900 31.02300
C  49.59700 16.92900 26.23800
C  45.27100 14.65500 26.66100
N  47.53400 16.65200 30.84900
C  46.59700 16.21900 31.82600
C  47.00200 16.66000 33.24300
C  48.22600 17.62900 33.02400
C  48.52100 17.30800 31.54600
C  48.00400 19.11000 33.24700
C  47.29000 15.48100 34.23100
C  46.89200 15.67400 35.65000
H  46.51500 17.11300 36.06500
N  49.48800 17.09900 28.65900
C  50.18100 17.69800 29.65500
C  51.50000 18.09300 29.21400
C  51.50500 17.83300 27.76000
C  50.18800 17.25500 27.45400
C  52.57700 18.77400 30.04900
C  52.58800 18.12500 26.81700
O  52.43900 17.75500 25.69400
C  53.80800 18.86600 27.07200
N  47.43300 15.73700 26.75800
C  48.40200 16.20900 25.87700
C  47.86500 16.14200 24.44900
C  46.64100 15.20000 24.56100
C  46.42300 15.19000 26.06600
C  47.63900 17.55600 23.82400
C  46.83500 13.79600 23.92000
C  45.93300 13.52100 22.71100
N  45.74800 15.35100 28.91100
C  44.90700 14.80000 28.01100
C  43.70900 14.37400 28.64100
C  43.79400 14.75500 29.95400
C  45.05200 15.38600 30.05100
C  42.59900 13.62900 27.94400
C  43.12700 14.70600 31.27500
O  42.13500 14.10700 31.65900
C  44.18400 15.38900 32.21800
C  43.53800 16.56000 32.77000
O  43.27300 17.58600 32.15600
O  43.00100 16.27400 33.96700
C  42.12700 17.28200 34.58400
H  50.39200 18.04900 31.82700
H  50.13300 17.26400 25.34800
H  44.57300 14.27300 25.91300
H  46.16300 17.24800 33.61500
H  49.11800 17.24100 33.51600
H  46.98200 19.26300 33.59300
H  48.04600 19.54700 32.24900
H  48.69300 19.54500 33.97100
H  48.37500 15.41600 34.15100
H  46.90700 14.57800 33.75600
H  47.63400 15.27500 36.34100
H  46.06300 14.98900 35.83000
H  52.22600 18.76100 31.08000
H  52.73400 19.79200 29.69100
H  53.48900 18.18700 29.93700
H  53.70400 19.56500 27.90200
H  54.13500 19.29000 26.12300
H  54.57300 18.11600 27.27400
H  48.69700 15.76700 23.85200
H  45.82300 15.76400 24.11400
H  47.90200 18.28400 24.59100
H  46.59300 17.65900 23.53500
H  48.23200 17.72600 22.92500
H  46.63100 13.09700 24.73100
H  47.88600 13.59000 23.71700
H  46.54000 13.12300 21.89800
H  45.43000 14.42000 22.35600
H  45.09500 12.85000 22.90000
H  42.78500 12.56700 27.78400
H  42.43300 14.19600 27.02800
H  41.64800 13.66500 28.47500
H  44.51900 14.83300 33.09300
H  41.50900 17.91600 33.94800
H  42.71500 17.95600 35.20700
H  41.41100 16.86400 35.29200
Mg -5.81700 25.50600 26.18300
C  -4.10500 26.70300 28.95900
C  -7.15500 22.95100 28.14700
C  -6.96400 23.93200 23.37700
C  -4.00900 27.75900 24.22500
N  -5.47400 24.80600 28.28300
C  -4.93900 25.55900 29.28300
C  -5.42000 25.12000 30.63600
C  -6.21600 23.80300 30.34700
C  -6.31500 23.86900 28.83800
C  -5.57100 22.44600 30.88200
C  -6.26100 26.24400 31.34400
C  -5.88400 26.69400 32.78400
H  -5.55500 25.68100 33.86100
N  -6.93700 23.73100 25.84900
C  -7.40700 22.87500 26.82500
C  -8.31400 21.96800 26.20800
C  -8.11300 22.08100 24.82100
C  -7.33400 23.29800 24.63300
C  -9.26000 21.06400 27.01400
C  -8.74300 21.27900 23.72700
O  -8.58800 21.45800 22.47900
C  -9.50100 19.99200 24.17100
N  -5.49300 25.82000 24.02800
C  -6.11900 25.06000 23.14000
C  -5.94900 25.63300 21.71100
C  -5.14500 26.99100 21.92900
C  -4.94900 26.93900 23.46800
C  -5.26400 24.63700 20.79000
C  -5.88600 28.29200 21.50400
C  -5.40400 29.12400 20.32900
N  -4.30900 26.93700 26.48800
C  -3.68200 27.79700 25.59700
C  -2.76500 28.65700 26.31700
C  -2.90000 28.23400 27.71400
C  -3.87400 27.25700 27.73100
C  -2.01100 29.66500 25.73800
C  -2.56200 28.56700 29.01500
O  -1.87700 29.44200 29.48000
C  -3.34200 27.52800 29.93400
C  -2.26300 26.73300 30.63300
O  -1.33100 26.12300 30.05700
O  -2.45200 26.80900 32.01900
C  -1.38700 26.34700 32.90300
H  -7.66800 22.21000 28.76400
H  -7.52400 23.67100 22.47700
H  -3.47300 28.47400 23.59700
H  -4.51800 24.94700 31.22300
H  -7.26600 23.79800 30.63900
H  -6.22500 22.34600 31.74800
H  -4.54500 22.71200 31.13900
H  -5.59900 21.54500 30.27000
H  -7.32200 25.99600 31.34900
H  -6.15100 27.14400 30.74000
H  -6.82000 27.16500 33.08600
H  -5.12900 27.48000 32.75800
H  -8.83600 20.06100 27.07100
H  -10.29400 21.08200 26.66800
H  -9.33700 21.43400 28.03700
H  -9.74400 19.52400 23.21700
H  -10.41900 20.28500 24.68200
H  -8.92000 19.32300 24.80500
H  -6.91600 25.98900 21.35500
H  -4.20100 27.01800 21.38600
H  -5.91300 23.79400 20.55400
H  -4.35900 24.21400 21.22800
H  -5.03500 25.11500 19.83700
H  -5.80300 29.02600 22.30600
H  -6.96900 28.18800 21.43400
H  -5.09500 30.09300 20.72200
H  -6.25000 29.17700 19.64400
H  -4.51500 28.63500 19.92900
H  -2.38000 30.60500 26.14800
H  -2.03600 29.72900 24.65000
H  -1.06500 29.39100 26.20500
H  -4.03100 28.12100 30.53400
H  -0.73400 25.55200 32.54300
H  -1.96800 26.06700 33.78300
H  -0.90600 27.29700 33.13600

