158

Mg -1.30400 17.76000 26.76600
C  -1.74000 15.43900 29.37400
C  -1.88000 20.26200 29.11300
C  -0.88800 19.90300 24.37300
C  -1.07100 15.05700 24.54800
N  -1.81300 17.80100 28.95400
C  -1.84600 16.75100 29.87900
C  -2.16300 17.26000 31.34600
C  -2.41700 18.77400 31.12400
C  -2.06700 18.95300 29.60500
C  -3.94100 19.07500 31.39500
C  -0.94500 16.96000 32.36100
C  -1.32100 16.14600 33.61700
H  -0.46600 16.34800 34.93700
N  -1.38000 19.77900 26.76400
C  -1.58100 20.67300 27.80700
C  -1.53400 22.05500 27.23600
C  -1.07300 21.94000 25.87600
C  -1.04500 20.44800 25.62500
C  -1.74200 23.22900 28.08500
C  -0.74700 23.08300 24.77000
O  -0.30500 22.87100 23.62600
C  -0.94700 24.50800 25.24000
N  -1.23900 17.52600 24.67000
C  -1.13700 18.60200 23.84400
C  -0.91800 18.25300 22.38700
C  -0.83800 16.67700 22.47100
C  -1.16600 16.35600 23.92100
C  -2.14100 18.78300 21.50000
C  0.48100 16.04800 21.99300
C  1.58000 15.99600 23.04400
N  -1.52100 15.70100 26.84100
C  -1.35900 14.69900 25.88200
C  -1.50000 13.35400 26.43500
C  -1.70900 13.70000 27.79600
C  -1.64800 15.05800 28.00400
C  -1.54600 11.95900 25.77200
C  -2.03700 13.06600 29.07600
O  -2.25400 11.88700 29.40400
C  -1.99100 14.16000 30.19100
C  -0.83300 13.68600 31.04600
O  0.34300 14.04400 31.01100
O  -1.41100 12.83700 32.02500
C  -0.41400 12.33000 33.04600
H  -2.08300 21.05700 29.83400
H  -0.81500 20.63400 23.56500
H  -0.85600 14.26100 23.83300
H  -3.06100 16.72200 31.64900
H  -1.72000 19.33200 31.74800
H  -4.10000 19.59200 32.34100
H  -4.54400 18.18700 31.20900
H  -4.27400 19.67300 30.54700
H  -0.58500 17.90600 32.76600
H  -0.13100 16.61500 31.72400
H  -1.14600 15.10900 33.33200
H  -2.37800 16.29900 33.83300
H  -0.84900 23.81400 28.30300
H  -2.08400 22.98600 29.09100
H  -2.46900 23.89300 27.61700
H  -2.02200 24.57000 25.41100
H  -0.60100 25.16100 24.43800
H  -0.37300 24.64200 26.15700
H  -0.00000 18.79100 22.14700
H  -1.56600 16.21500 21.80400
H  -2.61900 19.46500 22.20300
H  -2.83500 17.97300 21.27300
H  -1.91000 19.23600 20.53600
H  0.88400 16.55300 21.11500
H  0.26600 15.03300 21.65900
H  1.51200 16.71400 23.86100
H  2.53200 16.25200 22.57800
H  1.62900 14.97800 23.43200
H  -2.57300 11.61400 25.65600
H  -1.01700 11.22000 26.37300
H  -1.09800 11.91900 24.77900
H  -2.89100 14.34600 30.77600
H  -0.72000 11.35400 33.42200
H  -0.39200 12.98400 33.91700
H  0.56100 12.15400 32.59200
Mg 24.67000 -6.21100 45.80400
C  27.05500 -3.99200 44.41800
C  22.32800 -5.06500 43.46300
C  22.83100 -8.81800 46.49700
C  27.38500 -7.79800 47.51800
N  24.66400 -4.50900 44.25300
C  25.75100 -3.82100 43.83900
C  25.38500 -2.84300 42.68800
C  23.80700 -3.00800 42.53400
C  23.54800 -4.27600 43.46500
C  23.09000 -1.68000 42.96600
C  26.18500 -2.93200 41.33200
C  26.79000 -1.70700 40.68300
H  26.22500 -1.42800 39.27900
N  22.88600 -6.75300 45.14100
C  22.03600 -6.13600 44.24400
C  20.86000 -6.86900 44.21300
C  20.91200 -7.85000 45.20300
C  22.25100 -7.86100 45.68700
C  19.63200 -6.40300 43.32100
C  19.79000 -8.81400 45.54900
O  18.79500 -8.74800 44.87600
C  19.72500 -9.73900 46.73500
N  25.05800 -8.04000 46.89500
C  24.09900 -8.96600 46.99400
C  24.56200 -10.29100 47.68800
C  26.01000 -9.81700 48.10000
C  26.17600 -8.50000 47.44800
C  23.69200 -10.86300 48.87300
C  27.01000 -10.89500 47.56500
C  27.28100 -12.08400 48.55300
N  26.73800 -5.88300 46.07800
C  27.68800 -6.55700 46.86600
C  29.01500 -5.96400 46.72800
C  28.75900 -4.96400 45.77800
C  27.37400 -4.88700 45.44900
C  30.24300 -6.42300 47.51400
C  29.38800 -3.87100 45.13800
O  30.52000 -3.42200 45.18500
C  28.34100 -3.23200 44.09800
C  28.34700 -1.81100 44.37700
O  28.02700 -1.26900 45.48800
O  28.67700 -1.04800 43.26600
C  28.32600 0.36500 43.42200
H  21.74100 -4.56000 42.69400
H  22.11900 -9.60700 46.74800
H  28.24200 -8.16600 48.08600
H  25.61300 -1.81500 42.96700
H  23.63400 -3.25800 41.48800
H  23.21300 -1.50600 44.03500
H  22.03300 -1.71700 42.70400
H  23.51400 -0.80600 42.47100
H  25.57300 -3.38100 40.54900
H  26.88800 -3.73800 41.54000
H  27.86500 -1.83200 40.55600
H  26.49700 -0.81900 41.24200
H  19.09900 -7.11400 42.69100
H  20.01900 -5.72700 42.55900
H  18.97000 -5.89700 44.02400
H  18.74400 -10.17200 46.92900
H  20.10800 -9.23600 47.62300
H  20.33300 -10.55700 46.34900
H  24.58000 -11.17100 47.04500
H  26.04300 -9.61600 49.17100
H  23.50500 -11.92300 48.70100
H  22.67200 -10.47800 48.87500
H  24.04900 -10.75400 49.89700
H  28.01300 -10.52300 47.35900
H  26.59300 -11.38200 46.68400
H  28.34200 -12.28500 48.70500
H  26.75300 -12.94100 48.13400
H  26.86600 -11.80300 49.52100
H  30.43600 -7.47500 47.30600
H  29.95000 -6.30500 48.55800
H  31.03700 -5.77500 47.14200
H  28.68600 -3.36700 43.07300
H  29.06000 0.76500 44.12100
H  27.27900 0.47000 43.70500
H  28.32500 0.73200 42.39500

