158

Mg 25.68100 51.22500 25.65500
C  23.40000 51.91900 28.02000
C  28.04800 50.64900 28.09700
C  27.97300 50.64400 23.28600
C  23.48400 52.21500 23.09700
N  25.70000 51.20600 27.80400
C  24.57600 51.35600 28.59900
C  24.86000 51.22100 30.07700
C  26.38000 50.86700 29.98300
C  26.75100 50.93300 28.53200
C  27.25700 51.75100 30.84800
C  23.85400 50.18300 30.76900
C  23.39200 50.54500 32.24000
H  23.80000 49.42800 33.34900
N  27.69900 50.74700 25.64900
C  28.55600 50.49800 26.75400
C  29.93300 50.11600 26.33600
C  29.87600 50.11000 24.91600
C  28.43400 50.49800 24.53700
C  31.04500 49.80500 27.33100
C  30.92600 49.72100 23.93300
O  30.85700 49.92200 22.73200
C  32.25500 49.40100 24.37700
N  25.71000 51.38400 23.49000
C  26.74800 51.00700 22.68800
C  26.49100 51.08700 21.19200
C  25.00400 51.53600 21.16800
C  24.66900 51.68800 22.67300
C  27.42300 52.12000 20.43400
C  24.04800 50.49000 20.43700
C  23.36500 50.97700 19.18700
N  23.94600 51.99800 25.54500
C  23.15200 52.39000 24.48700
C  21.90800 52.99900 24.93300
C  21.97400 52.85000 26.35300
C  23.18200 52.19200 26.67100
C  20.83300 53.53100 24.15400
C  21.22500 52.96600 27.57400
O  20.07200 53.41900 27.74500
C  22.08000 52.28700 28.74600
C  22.33400 53.36800 29.67100
O  23.11300 54.25500 29.45900
O  21.49400 53.18700 30.75100
C  21.69600 54.07900 31.91300
H  28.70300 50.24900 28.87300
H  28.57500 50.37600 22.41600
H  22.75500 52.58900 22.37600
H  24.62600 52.18900 30.51900
H  26.64900 49.89600 30.39900
H  26.68600 52.57500 31.27800
H  28.09400 52.12600 30.26000
H  27.61100 51.11600 31.66000
H  24.38200 49.22900 30.75600
H  22.99400 49.95800 30.13800
H  22.30600 50.53100 32.32400
H  23.64700 51.53800 32.61000
H  31.79200 49.09000 26.98600
H  30.66200 49.23700 28.17900
H  31.46700 50.77200 27.60400
H  32.62800 50.02300 25.19000
H  33.03800 49.39500 23.61800
H  32.17500 48.37700 24.74300
H  26.54200 50.03500 20.91300
H  24.99300 52.52000 20.69800
H  27.98300 52.80500 21.07000
H  26.93600 52.72300 19.66900
H  28.16900 51.48000 19.96200
H  23.27300 50.33600 21.18800
H  24.52800 49.52500 20.27500
H  23.11000 50.11600 18.57000
H  23.93700 51.66900 18.56900
H  22.43900 51.39100 19.58600
H  19.99700 53.49600 24.85200
H  20.81300 53.12700 23.14200
H  21.05800 54.58800 24.01300
H  21.46200 51.45400 29.08200
H  22.08700 54.95200 31.39000
H  22.50200 53.74500 32.56500
H  20.77500 54.33300 32.43800
Mg -0.26100 43.86600 26.35600
C  1.71800 42.90600 28.84800
C  -3.03600 42.92700 28.22800
C  -2.29400 44.60500 23.67000
C  2.50900 44.44700 24.22700
N  -0.64800 42.98000 28.32100
C  0.37300 42.79800 29.24400
C  -0.22100 42.47300 30.61800
C  -1.68500 42.16700 30.28800
C  -1.81900 42.82000 28.88200
C  -2.12100 40.69800 30.23900
C  -0.04800 43.75500 31.54800
C  0.05500 43.67000 33.05200
H  -0.07000 42.21600 33.72200
N  -2.36400 43.73100 25.99500
C  -3.32100 43.42700 26.96100
C  -4.63200 43.71600 26.36900
C  -4.41800 44.12500 25.01400
C  -2.99300 44.11500 24.82000
C  -5.89700 43.44800 27.08700
C  -5.50400 44.48300 23.98200
O  -5.25100 44.74600 22.83000
C  -6.98000 44.48800 24.31200
N  0.02000 44.27500 24.20500
C  -0.98300 44.70000 23.37700
C  -0.34400 45.05100 22.01400
C  1.09700 45.45800 22.43400
C  1.20400 44.76400 23.79800
C  -0.42500 43.96600 20.85000
C  1.26900 46.96700 22.45800
C  0.15800 47.80400 23.26900
N  1.70400 43.58800 26.38800
C  2.71400 43.91600 25.50800
C  4.00700 43.65100 26.20600
C  3.64600 43.21800 27.51500
C  2.25900 43.13700 27.54700
C  5.38200 43.89200 25.69100
C  4.22200 42.96700 28.79500
O  5.41500 42.81400 29.05800
C  3.02300 42.95800 29.81600
C  3.20300 41.91000 30.84000
O  2.93300 40.73400 30.66000
O  3.69900 42.35500 32.01300
C  4.01600 41.32200 33.03900
H  -3.92400 42.84500 28.85800
H  -2.89700 44.74700 22.77000
H  3.18900 45.05400 23.62500
H  0.29500 41.62900 31.07600
H  -2.42400 42.71500 30.87200
H  -2.11400 40.42200 29.18400
H  -3.11100 40.60200 30.68600
H  -1.37800 40.09100 30.75600
H  -0.93600 44.31600 31.25700
H  0.80900 44.31600 31.17700
H  -0.61100 44.43700 33.44700
H  1.05100 44.02300 33.32200
H  -6.57600 44.28300 26.91200
H  -5.75600 43.41500 28.16800
H  -6.23800 42.52400 26.61900
H  -7.50300 44.89600 23.44700
H  -7.26100 45.09300 25.17500
H  -7.27100 43.45000 24.47100
H  -0.89300 45.94300 21.71100
H  1.83900 45.14200 21.70200
H  -1.45500 43.84200 20.51400
H  -0.12800 43.00800 21.27600
H  0.13800 44.38800 20.01700
H  1.46300 47.36200 21.46100
H  2.21100 47.12600 22.98200
H  0.05000 48.77700 22.78800
H  0.55800 48.02900 24.25700
H  -0.85700 47.44700 23.44300
H  5.63500 42.93400 25.23700
H  6.15700 44.10500 26.42800
H  5.33000 44.65000 24.91000
H  2.85500 43.94100 30.25600
H  3.05500 40.92100 33.36000
H  4.51300 41.76200 33.90300
H  4.64000 40.50200 32.68200

