158

Mg -1.45000 18.95100 27.52100
C  -2.15500 16.49700 30.12800
C  -2.04700 21.39300 29.72700
C  -1.49000 20.79300 24.94000
C  -1.58600 15.99700 25.28600
N  -1.95100 18.88400 29.69900
C  -2.17700 17.84000 30.57500
C  -2.38700 18.29500 31.98100
C  -2.41000 19.80500 31.75700
C  -2.05900 20.08600 30.27700
C  -3.74100 20.54600 32.04400
C  -1.38500 17.75100 33.03500
C  -0.98400 18.69000 34.23600
H  -0.79200 18.05400 35.57500
N  -1.59500 20.86900 27.42600
C  -1.87000 21.75100 28.41100
C  -1.79500 23.10800 27.82300
C  -1.54900 22.95000 26.37100
C  -1.63400 21.44900 26.18300
C  -1.89400 24.33400 28.66600
C  -1.23600 23.98900 25.33600
O  -1.05200 23.75900 24.14600
C  -1.39700 25.45700 25.69100
N  -1.52200 18.40900 25.43800
C  -1.36200 19.40600 24.52900
C  -1.29900 18.89000 23.08400
C  -1.21300 17.37500 23.33300
C  -1.45800 17.24600 24.78900
C  -2.66500 19.22800 22.33900
C  0.06000 16.77500 22.78700
C  1.31500 17.24800 23.51400
N  -1.77000 16.73700 27.65700
C  -1.81000 15.67400 26.68000
C  -1.99400 14.41300 27.32600
C  -2.06200 14.71100 28.66400
C  -2.00600 16.12000 28.82200
C  -2.08400 13.09100 26.65800
C  -2.28600 14.07400 29.89100
O  -2.50600 12.91400 30.21900
C  -2.23600 15.26400 30.97500
C  -1.18900 14.95200 31.90300
O  -0.02200 15.14900 31.63600
O  -1.66700 14.48000 33.04000
C  -0.74900 14.02300 34.09800
H  -2.42900 22.15100 30.41400
H  -1.45800 21.44600 24.06600
H  -1.49600 15.17000 24.57900
H  -3.40300 17.95900 32.19300
H  -1.61100 20.36800 32.24000
H  -4.17000 20.92500 31.11600
H  -3.53900 21.36800 32.73100
H  -4.41600 19.88700 32.59000
H  -0.47200 17.47000 32.51000
H  -1.79400 16.84100 33.47300
H  -1.71500 19.48300 34.39200
H  -0.03500 19.22200 34.17700
H  -1.00300 24.26800 29.29000
H  -2.82500 24.41900 29.22600
H  -1.72000 25.32800 28.25500
H  -2.35100 25.71600 26.15000
H  -1.31800 25.99300 24.74500
H  -0.54700 25.84200 26.25400
H  -0.36000 19.29100 22.70100
H  -2.02700 16.78100 22.91600
H  -3.19200 19.91200 23.00500
H  -3.28100 18.45000 21.88900
H  -2.35800 19.76500 21.44100
H  0.08300 17.12100 21.75300
H  0.04500 15.68600 22.73100
H  1.08600 17.52300 24.54400
H  1.80600 18.10000 23.04400
H  1.97300 16.38000 23.55500
H  -1.83500 13.12600 25.59700
H  -3.10100 12.71400 26.76400
H  -1.39700 12.38200 27.11900
H  -3.18200 15.27400 31.51600
H  -0.90700 12.94500 34.12500
H  -1.18700 14.41000 35.01800
H  0.30000 14.32200 34.08700
Mg 36.29500 2.61500 30.33000
C  33.86100 3.43000 32.80800
C  38.61600 2.64100 32.71100
C  38.50400 2.17800 27.93400
C  33.72400 2.87100 27.89400
N  36.18700 2.84600 32.48100
C  35.13500 3.23000 33.29600
C  35.58500 3.21200 34.81400
C  37.08100 3.03900 34.72100
C  37.31000 2.78300 33.24300
C  38.02200 4.26400 35.21200
C  34.83000 2.12200 35.71400
C  34.04400 2.73700 36.84800
H  34.54900 3.96300 37.61900
N  38.33200 2.50300 30.29100
C  39.13000 2.49700 31.41000
C  40.46700 2.20700 30.99900
C  40.54400 2.12700 29.61200
C  39.07900 2.28200 29.17300
C  41.58900 1.94200 32.00900
C  41.66400 1.92500 28.68200
O  41.49600 1.75800 27.45600
C  43.03000 2.37200 29.18500
N  36.08700 2.48700 28.20400
C  37.19300 2.22000 27.43800
C  36.87500 2.21200 25.98400
C  35.26200 2.26300 26.05000
C  34.96600 2.49400 27.44900
C  37.42200 3.37400 25.08100
C  34.34800 1.23600 25.39400
C  35.02000 -0.16800 25.13400
N  34.24500 3.03100 30.27100
C  33.36300 3.21600 29.22000
C  32.09200 3.56600 29.73400
C  32.24000 3.73500 31.12100
C  33.54600 3.24600 31.42100
C  30.92500 3.94600 28.87300
C  31.55500 3.99000 32.36900
O  30.43300 4.43900 32.58400
C  32.56400 3.83800 33.57700
C  32.50100 5.16500 34.15300
O  32.98900 6.14200 33.63600
O  31.87600 5.02800 35.35300
C  31.51300 6.29500 36.01600
H  39.37700 2.48200 33.47800
H  39.30700 2.19600 27.19400
H  32.92500 2.79400 27.15400
H  35.33500 4.13800 35.33100
H  37.44200 2.25300 35.38400
H  37.39200 5.03200 35.66100
H  38.63600 4.83400 34.51400
H  38.71500 3.93500 35.98600
H  35.40800 1.24100 35.99300
H  34.08700 1.77100 34.99800
H  34.04000 1.95400 37.60700
H  33.00100 2.83700 36.54600
H  42.10400 2.90000 32.07700
H  42.33300 1.24200 31.63000
H  41.32200 1.53200 32.98300
H  43.61600 2.53000 28.27900
H  43.41900 1.48600 29.68700
H  42.88500 3.16300 29.92100
H  37.16200 1.29800 25.46300
H  35.00000 3.22500 25.60800
H  38.01400 4.01300 25.73600
H  36.57600 3.87200 24.60600
H  38.10900 2.98600 24.32900
H  34.09100 1.61200 24.40400
H  33.38400 1.16700 25.89800
H  34.38300 -0.83100 25.72000
H  36.00500 -0.31400 25.57700
H  35.08700 -0.48600 24.09400
H  30.12800 3.20300 28.84500
H  31.37400 4.09500 27.89100
H  30.53500 4.85700 29.32800
H  32.14500 3.00500 34.14000
H  30.90400 6.92600 35.36800
H  32.36900 6.96400 36.10000
H  31.06400 6.01800 36.97000

