158

Mg -0.21500 7.84700 25.77200
C  0.42400 9.36100 28.76500
C  -0.96300 4.89500 27.25200
C  -0.75000 6.45900 22.71400
C  0.81400 10.86100 24.28100
N  -0.14200 7.22500 27.71000
C  0.01900 8.01000 28.85200
C  -0.37500 7.21700 30.11500
C  -0.46100 5.73400 29.62000
C  -0.51100 5.92200 28.09800
C  0.69400 4.72400 30.02400
C  -1.64500 7.73100 30.92500
C  -1.51100 7.77500 32.48200
H  -0.63400 6.75000 33.17100
N  -0.72400 5.90100 25.10100
C  -1.02600 4.84000 25.87700
C  -1.47000 3.72300 25.04300
C  -1.37300 4.15900 23.69000
C  -0.90000 5.53900 23.79400
C  -1.97800 2.39500 25.58500
C  -1.51300 3.45700 22.36300
O  -1.20500 3.89100 21.24500
C  -2.14400 2.07800 22.40100
N  0.19300 8.54500 23.77800
C  -0.34900 7.81200 22.69200
C  0.07400 8.51000 21.37400
C  0.28300 9.97000 21.89100
C  0.54500 9.76600 23.38400
C  1.35400 7.85900 20.71500
C  -0.87100 11.00900 21.65100
C  -2.36000 10.59200 21.39700
N  0.53800 9.72800 26.32900
C  0.81300 10.88900 25.62900
C  1.00500 12.01400 26.49200
C  0.99900 11.45800 27.77300
C  0.63400 10.06300 27.61100
C  1.28800 13.40100 26.04100
C  1.15800 11.66700 29.19700
O  1.58700 12.69900 29.69600
C  0.55900 10.34200 29.92900
C  1.55800 9.92200 30.95500
O  2.55500 9.23300 30.74100
O  1.17200 10.42500 32.19000
C  2.13300 10.36400 33.32400
H  -1.29500 3.99200 27.76900
H  -1.04200 6.10100 21.72400
H  0.92700 11.78700 23.71300
H  0.50800 7.25300 30.75300
H  -1.36200 5.26700 30.01700
H  1.47300 5.30800 30.51300
H  1.09800 4.37000 29.07600
H  0.34100 3.83900 30.55300
H  -2.52500 7.16100 30.62800
H  -1.93900 8.73100 30.60400
H  -2.53400 7.60600 32.81900
H  -1.09600 8.77000 32.64400
H  -3.00200 2.29600 25.22500
H  -1.94000 2.43600 26.67300
H  -1.40100 1.50500 25.33500
H  -3.13200 2.16700 22.85300
H  -1.52900 1.46500 23.06100
H  -2.11700 1.50700 21.47400
H  -0.81300 8.39500 20.75100
H  1.23900 10.30100 21.48500
H  1.87100 7.29500 21.49100
H  2.00700 8.56300 20.19900
H  1.05900 7.18600 19.91000
H  -0.59300 11.70100 20.85700
H  -1.05100 11.53400 22.58900
H  -2.85100 10.73200 22.36000
H  -2.46300 9.54900 21.09700
H  -2.76100 11.24800 20.62400
H  1.72500 13.78100 26.96400
H  0.38500 13.92900 25.73300
H  2.03900 13.31200 25.25700
H  -0.30000 10.67800 30.51100
H  2.40500 11.38900 33.57400
H  3.05500 9.85600 33.04000
H  1.71600 9.87800 34.20600
Mg 43.13900 41.75700 26.89600
C  42.24900 44.11500 29.35700
C  44.14100 39.60600 29.15200
C  44.19000 39.85300 24.28100
C  42.56000 44.42600 24.48600
N  43.41500 41.94900 29.05200
C  42.74400 42.85600 29.89600
C  42.73800 42.36900 31.35300
C  43.45000 40.95600 31.26300
C  43.66200 40.80900 29.75900
C  44.73100 40.81800 32.00500
C  41.25400 42.39100 31.90000
C  40.95100 43.35800 33.11500
H  40.17500 42.69600 34.28600
N  44.06500 39.99200 26.69900
C  44.35400 39.19700 27.80300
C  44.94800 37.97500 27.27900
C  44.94300 37.98800 25.83300
C  44.44200 39.36100 25.55300
C  45.45600 36.89900 28.11800
C  45.34000 36.90500 24.76400
O  45.48800 37.18500 23.62400
C  45.57400 35.53500 25.25300
N  43.51900 42.22200 24.62400
C  43.73200 41.09200 23.83300
C  43.53800 41.49000 22.38000
C  43.02800 43.02000 22.44700
C  42.99800 43.23100 23.93200
C  44.68800 41.24500 21.44700
C  41.72100 43.36800 21.63700
C  40.38000 42.72100 22.04800
N  42.67800 43.81800 26.93800
C  42.43400 44.69600 25.88100
C  41.92900 45.94600 26.40400
C  41.88100 45.78200 27.77000
C  42.30700 44.51200 28.04300
C  41.58700 47.19800 25.52100
C  41.60200 46.47000 29.02800
O  41.27100 47.62200 29.18900
C  41.77900 45.34300 30.19700
C  42.86600 45.84500 31.09100
O  43.99700 46.09800 30.69800
O  42.41400 46.08600 32.33300
C  43.19500 46.67100 33.37400
H  44.29600 38.78600 29.85600
H  44.37900 39.21500 23.41500
H  42.31300 45.22400 23.78300
H  43.34400 43.03300 31.96900
H  42.80100 40.15100 31.60700
H  45.61000 40.81000 31.36000
H  44.72400 39.87200 32.54700
H  44.95500 41.61800 32.71200
H  41.01600 41.36700 32.18600
H  40.65100 42.67200 31.03600
H  40.26500 44.12600 32.75800
H  41.80200 43.96900 33.41600
H  45.90100 37.36900 28.99500
H  46.31000 36.46600 27.59700
H  44.62000 36.27700 28.43800
H  45.72200 34.87800 24.39600
H  44.75200 35.10500 25.82400
H  46.46700 35.43200 25.87000
H  42.70000 40.84900 22.10600
H  43.76400 43.66800 21.97000
H  45.63500 41.09600 21.96500
H  44.82800 42.10400 20.79100
H  44.42000 40.35100 20.88300
H  41.73600 42.91900 20.64400
H  41.56000 44.42900 21.45200
H  40.24700 41.72700 21.62200
H  39.59100 43.43900 21.82300
H  40.35600 42.53600 23.12200
H  40.63600 46.98000 25.03500
H  42.23100 47.43000 24.67200
H  41.44400 48.06300 26.16800
H  40.83900 45.07400 30.68000
H  43.64400 45.79300 33.83800
H  42.67200 47.14200 34.20600
H  43.88000 47.41200 32.96200

