158

Mg 54.74100 24.17800 45.41100
C  52.14400 26.26500 44.44600
C  53.08700 21.49600 44.16900
C  57.56300 22.33500 45.99400
C  56.47200 27.06100 46.55500
N  53.02200 24.04600 44.08800
C  51.99800 24.95900 43.94800
C  50.78600 24.32100 43.17000
C  51.02500 22.87500 43.65100
C  52.53300 22.79100 43.85200
C  50.23100 22.30000 44.84800
C  50.74100 24.58400 41.63600
C  49.39900 24.44600 41.00600
H  49.37600 23.87300 39.58900
N  55.19300 22.14000 45.18000
C  54.37900 21.20600 44.62300
C  55.03900 19.98000 44.56500
C  56.40700 20.13600 44.94100
C  56.48000 21.57400 45.45700
C  54.39000 18.76100 44.03800
C  57.45400 19.13000 44.88100
O  57.21600 17.98900 44.44300
C  58.89900 19.39700 45.19700
N  56.82300 24.63200 45.95700
C  57.74700 23.70800 46.19500
C  59.04900 24.35200 46.62100
C  58.72000 25.85300 46.72800
C  57.26200 25.87200 46.46600
C  59.64900 23.74600 47.97600
C  59.47200 26.80600 45.76700
C  60.14900 28.07500 46.32400
N  54.41200 26.26700 45.55200
C  55.19000 27.26400 46.11500
C  54.37200 28.47800 46.23000
C  53.20100 28.13800 45.54100
C  53.31600 26.76100 45.16100
C  54.70600 29.69300 46.87600
C  51.95400 28.55300 45.11900
O  51.41600 29.67000 45.19200
C  51.28400 27.49800 44.30400
C  51.07700 28.02000 42.94700
O  51.96800 28.28600 42.12600
O  49.69900 28.16600 42.67700
C  49.40900 28.53800 41.28100
H  52.45900 20.62700 43.96100
H  58.52400 21.89900 46.27500
H  56.92800 27.99300 46.89500
H  49.84500 24.74500 43.52200
H  50.74000 22.18600 42.85600
H  49.42100 22.94900 45.18000
H  50.89500 22.04300 45.67300
H  49.79200 21.39100 44.43500
H  51.30800 23.79100 41.14800
H  51.22600 25.53400 41.41300
H  48.95300 25.43900 40.94500
H  48.70200 23.84500 41.58900
H  54.70000 18.58300 43.00900
H  53.30800 18.82800 43.92600
H  54.64300 17.87400 44.61900
H  59.25100 20.38000 44.88400
H  59.56900 18.63800 44.79200
H  59.02600 19.45100 46.27800
H  59.73700 24.19900 45.78900
H  58.96400 26.20000 47.73200
H  59.15800 22.77800 48.07100
H  59.33400 24.28400 48.87000
H  60.72100 23.56000 47.90400
H  58.72400 27.16000 45.05800
H  60.15300 26.31100 45.07500
H  59.60200 28.94700 45.96500
H  61.18700 27.90400 46.03800
H  60.14400 28.23900 47.40100
H  55.52500 29.64700 47.59300
H  53.82800 30.05600 47.41100
H  54.98700 30.43600 46.12900
H  50.28100 27.46200 44.72900
H  48.84800 29.47300 41.29800
H  48.58000 27.99700 40.82600
H  50.16000 28.46300 40.49500
Mg 49.15100 34.46800 27.09700
C  47.14700 33.44800 29.60900
C  49.99200 37.34200 28.99800
C  51.03000 35.59600 24.50400
C  48.06800 31.87400 25.00100
N  48.64400 35.29400 29.05000
C  47.90300 34.59100 30.01100
C  48.06500 35.22500 31.37200
C  48.51000 36.61600 30.97400
C  49.13700 36.46300 29.59400
C  47.25600 37.66800 30.98400
C  49.06000 34.42100 32.20800
C  48.61500 33.90300 33.57700
H  47.40200 34.65700 34.15700
N  50.44000 36.18200 26.82800
C  50.60900 37.22100 27.70500
C  51.54600 38.18500 27.14400
C  51.80600 37.76100 25.81100
C  51.04600 36.44700 25.65500
C  51.89900 39.46200 27.92900
C  52.63300 38.48700 24.77500
O  52.97500 37.96100 23.71300
C  53.37400 39.84700 25.03200
N  49.39400 33.94200 25.04100
C  50.35000 34.39900 24.29000
C  50.56300 33.70800 22.97700
C  49.83000 32.34600 23.26800
C  49.04200 32.73500 24.46900
C  50.05800 34.44700 21.71100
C  50.67000 31.08000 23.39300
C  50.51500 30.06000 22.26200
N  47.74300 32.96700 27.15000
C  47.50500 31.90100 26.30000
C  46.62400 30.99700 27.00400
C  46.32400 31.63100 28.20000
C  47.08200 32.81600 28.34000
C  46.12500 29.60900 26.55000
C  45.62600 31.53000 29.43700
O  44.93500 30.63100 29.77200
C  46.13600 32.63100 30.41200
C  46.82500 31.79000 31.49400
O  47.95300 31.36100 31.55900
O  45.90300 31.61400 32.49200
C  46.29200 30.84100 33.76500
H  50.20100 38.23400 29.59100
H  51.65900 35.88500 23.65900
H  47.79100 31.02000 24.38000
H  47.04600 35.18900 31.75800
H  49.18000 37.15000 31.64700
H  47.58300 38.57500 31.49100
H  46.45500 37.27700 31.61200
H  46.82300 37.97600 30.03300
H  49.94200 35.04400 32.35300
H  49.29700 33.55500 31.59100
H  49.45600 33.89900 34.27000
H  48.45800 32.82700 33.50000
H  51.47600 39.52300 28.93200
H  51.75700 40.38700 27.36900
H  52.97800 39.39800 28.06200
H  53.98500 40.13900 24.17800
H  53.98600 39.66500 25.91600
H  52.56900 40.53800 25.28100
H  51.64900 33.77000 22.92200
H  49.13300 32.27700 22.43300
H  49.34500 33.91400 21.08200
H  50.87400 34.65800 21.02100
H  49.65800 35.39000 22.08600
H  50.39700 30.61200 24.33900
H  51.73500 31.27400 23.26800
H  49.82200 30.31200 21.45900
H  50.11300 29.14200 22.68900
H  51.46800 29.81600 21.79300
H  46.95000 28.90000 26.49400
H  45.77200 29.80900 25.53900
H  45.36900 29.14100 27.18000
H  45.19000 33.10700 30.66800
H  45.68700 29.93600 33.83700
H  46.09100 31.38000 34.69100
H  47.33300 30.54800 33.89700

