158

Mg 44.63100 3.81600 47.21500
C  42.66700 6.66500 47.05000
C  41.75400 1.91000 46.29600
C  46.61300 1.21000 46.30700
C  47.47800 5.85400 47.22700
N  42.48600 4.28700 46.66800
C  41.91300 5.52300 46.70900
C  40.42800 5.48700 46.38700
C  40.11100 3.92600 46.27700
C  41.51300 3.31900 46.41300
C  39.12600 3.44900 47.33600
C  39.86500 6.35000 45.23200
C  40.64300 6.34500 43.92000
H  40.07300 6.00000 42.58500
N  44.20600 1.82400 46.77700
C  42.96300 1.19200 46.41800
C  43.14400 -0.18400 46.17000
C  44.55300 -0.41000 46.35100
C  45.22200 0.90700 46.45800
C  42.08800 -1.16200 45.63200
C  45.17600 -1.78700 46.30300
O  44.51500 -2.77300 46.00600
C  46.69000 -1.89100 46.54600
N  46.67400 3.60500 46.60800
C  47.29200 2.43300 46.45400
C  48.80500 2.51300 46.38100
C  49.03700 4.04600 46.64200
C  47.63700 4.54400 46.74200
C  49.65500 1.55100 47.27000
C  49.91000 4.81900 45.63000
C  50.84100 4.03000 44.67400
N  45.08800 5.82400 47.26500
C  46.25900 6.52100 47.32500
C  45.97700 7.94600 47.37300
C  44.54400 7.99100 47.29500
C  44.04500 6.72500 47.25000
C  46.96700 9.10600 47.36800
C  43.38400 8.87200 47.33700
O  43.41900 10.13400 47.46500
C  42.11900 8.02500 47.21200
C  41.23700 8.05700 48.42000
O  41.50700 7.46600 49.50700
O  40.08000 8.67900 48.10300
C  38.88500 8.67300 49.02000
H  40.82300 1.39000 46.06000
H  47.26900 0.39900 45.98400
H  48.36800 6.46600 47.39100
H  39.89500 5.86600 47.26000
H  39.72800 3.69200 45.28300
H  38.32700 4.18100 47.45700
H  39.69400 3.40700 48.26500
H  38.60300 2.50600 47.17700
H  39.64400 7.35100 45.60300
H  38.88000 5.97000 44.96300
H  41.58600 5.80200 43.99200
H  40.85200 7.39400 43.71300
H  41.99000 -2.16300 46.05000
H  42.36100 -1.27600 44.58200
H  41.07600 -0.79800 45.80900
H  46.94200 -1.22700 47.37300
H  47.28200 -1.61400 45.67400
H  46.98400 -2.93800 46.62300
H  48.99400 2.34000 45.32200
H  49.60000 4.12200 47.57200
H  49.03000 1.13600 48.06100
H  50.48700 2.08200 47.73300
H  50.05400 0.69500 46.72700
H  50.39700 5.55400 46.26900
H  49.31100 5.37200 44.90600
H  51.70800 4.66000 44.47500
H  50.21900 3.77400 43.81700
H  51.14100 3.06700 45.08600
H  47.90400 8.72800 47.77800
H  46.50300 10.00800 47.76600
H  47.24200 9.41300 46.35900
H  41.53800 8.40700 46.37300
H  39.11100 8.68600 50.08600
H  38.44500 7.68500 48.88900
H  38.17200 9.44000 48.71600
Mg 54.59300 24.96900 45.44400
C  52.03200 26.84600 43.88700
C  53.37800 22.14900 43.91300
C  57.73500 23.53400 45.60900
C  55.99500 28.05600 46.38000
N  53.01900 24.59200 43.95100
C  52.04000 25.49300 43.50800
C  51.02900 24.71900 42.62500
C  51.21500 23.29300 43.09800
C  52.64300 23.33100 43.66400
C  50.13700 22.75000 44.17600
C  51.41700 24.94800 41.12500
C  50.32100 25.07600 40.01500
H  50.79800 25.80700 38.79500
N  55.34400 23.03900 45.15500
C  54.67600 21.99100 44.52800
C  55.38300 20.81500 44.59000
C  56.74600 21.21200 44.91900
C  56.65900 22.62700 45.27400
C  54.90500 19.51100 44.13700
C  57.97900 20.23300 44.68200
O  57.74800 19.03400 44.34000
C  59.43400 20.69800 44.89000
N  56.64100 25.74600 45.68200
C  57.74000 24.93500 45.73300
C  58.99000 25.79300 46.18200
C  58.34600 27.15600 46.69000
C  56.91500 27.03100 46.14300
C  59.89200 25.13400 47.34100
C  59.21800 28.35000 46.23900
C  59.41100 29.46900 47.32800
N  54.11400 27.00700 45.27500
C  54.71300 28.10800 45.86100
C  53.84900 29.24000 45.75000
C  52.73700 28.77500 45.06800
C  53.07900 27.49700 44.67200
C  54.14000 30.60200 46.27200
C  51.40300 29.18100 44.57800
O  50.77000 30.19300 44.79100
C  50.97100 27.92000 43.76300
C  50.57000 28.39200 42.42400
O  51.37500 28.65800 41.57200
O  49.18800 28.29600 42.23600
C  48.74500 28.46400 40.88900
H  52.88000 21.25100 43.54100
H  58.73900 23.10500 45.61800
H  56.37000 28.99000 46.80400
H  49.99900 25.04800 42.77000
H  51.19800 22.54200 42.30800
H  49.46500 22.02100 43.72300
H  49.44300 23.57700 44.32700
H  50.54800 22.36200 45.10800
H  51.93400 24.03800 40.82100
H  52.18100 25.72500 41.14200
H  49.37200 25.53200 40.29900
H  49.96200 24.11600 39.64200
H  55.11100 19.20600 43.11100
H  53.83000 19.34400 44.21400
H  55.41900 18.73500 44.70500
H  59.64100 20.97100 45.92500
H  59.47700 21.63400 44.33400
H  60.13700 20.09200 44.31900
H  59.61400 25.95600 45.30300
H  58.27400 27.18400 47.77700
H  59.16400 24.56500 47.91900
H  60.33800 25.92200 47.94800
H  60.72600 24.57000 46.92300
H  58.66600 28.79300 45.41100
H  60.23500 28.03300 46.00600
H  58.84100 30.39100 47.20700
H  60.44100 29.79300 47.18300
H  59.13800 29.12200 48.32400
H  54.39600 31.23500 45.42200
H  54.96700 30.72100 46.97200
H  53.21700 31.03100 46.66100
H  50.01900 27.67100 44.23300
H  47.76500 27.98900 40.86200
H  49.38200 27.84600 40.25500
H  48.72500 29.50900 40.58100

