158

Mg -0.38900 6.55000 26.14800
C  0.54500 8.85600 28.62600
C  0.21300 3.95800 28.28500
C  -0.79700 4.52900 23.59900
C  0.01900 9.31500 23.92600
N  0.39000 6.33000 28.21800
C  0.42600 7.48800 29.08400
C  0.40600 6.97200 30.58900
C  0.49900 5.39600 30.41600
C  0.30400 5.18000 28.89900
C  1.73700 4.70800 31.05400
C  -0.80000 7.49200 31.40000
C  -0.51400 8.34000 32.60600
H  0.63400 7.86300 33.49600
N  -0.36200 4.53800 25.93400
C  0.00900 3.61200 26.89500
C  -0.14500 2.31600 26.38700
C  -0.56000 2.44700 25.03200
C  -0.63100 3.85500 24.80400
C  0.04500 1.14300 27.23900
C  -0.93300 1.40200 24.04200
O  -1.54000 1.71600 23.02400
C  -0.68600 -0.05300 24.34000
N  -0.48000 6.93700 24.10500
C  -0.67300 5.90600 23.26900
C  -0.43200 6.34000 21.84900
C  -0.51100 7.86200 21.91700
C  -0.31600 8.09900 23.41600
C  0.97600 5.90700 21.33200
C  -1.74200 8.59700 21.28700
C  -2.82200 9.15200 22.25900
N  0.18600 8.68200 26.16100
C  0.25800 9.65700 25.20600
C  0.79600 10.85900 25.75600
C  0.84200 10.65500 27.09400
C  0.48500 9.29200 27.25300
C  1.20000 12.04300 25.03900
C  1.22900 11.26600 28.39700
O  1.63400 12.39500 28.71100
C  0.89900 10.14400 29.40700
C  2.11700 9.99200 30.24100
O  3.03600 9.23200 29.97000
O  1.97100 10.81200 31.36000
C  3.12500 10.98300 32.20600
H  0.30300 3.16400 29.02900
H  -0.90200 3.84600 22.75400
H  0.32800 10.12000 23.25600
H  1.27800 7.31300 31.14700
H  -0.40500 4.97400 30.85500
H  2.08800 5.40700 31.81300
H  2.49000 4.50500 30.29200
H  1.38200 3.73100 31.38100
H  -1.57000 6.77100 31.67300
H  -1.23200 8.17800 30.67200
H  -1.35700 8.36600 33.29600
H  -0.41900 9.39400 32.34500
H  -0.87300 0.81000 27.72300
H  0.64500 1.26300 28.14100
H  0.57700 0.37400 26.68000
H  -1.00800 -0.33200 25.34400
H  0.33200 -0.42400 24.22500
H  -1.26100 -0.68400 23.66300
H  -1.28500 6.09100 21.21800
H  0.38200 8.29100 21.46200
H  1.25400 4.93200 21.73000
H  1.78100 6.63200 21.45300
H  0.95200 5.75800 20.25200
H  -2.28600 7.93600 20.61300
H  -1.28600 9.44300 20.77200
H  -2.81100 10.23800 22.17100
H  -2.64800 9.08800 23.33300
H  -3.73300 8.70800 21.85700
H  0.45300 12.40500 24.33300
H  2.09500 12.01100 24.41700
H  1.13100 12.88000 25.73400
H  0.06700 10.46100 30.03600
H  3.95300 11.22000 31.53700
H  3.38700 10.03800 32.68300
H  2.99000 11.66200 33.04800
Mg 25.29000 1.34100 29.21900
C  27.25400 1.04500 32.19400
C  22.57600 1.43500 31.38200
C  23.46200 1.07200 26.54900
C  28.09800 0.54800 27.41400
N  25.05000 1.26700 31.59400
C  25.95000 1.24600 32.56900
C  25.26800 1.36300 33.92900
C  23.73900 1.22100 33.66000
C  23.79500 1.29300 32.09800
C  23.19200 -0.11100 34.26100
C  25.71400 2.74100 34.66200
C  26.32800 2.58000 36.06500
H  26.16200 3.74400 37.12000
N  23.30600 1.37700 28.98500
C  22.32200 1.44400 29.97200
C  21.08100 1.40500 29.35900
C  21.22700 1.29500 27.90800
C  22.73400 1.20800 27.73800
C  19.76400 1.63900 30.12700
C  20.16700 1.14000 26.76400
O  20.39300 1.26400 25.55800
C  18.68300 1.03600 27.12600
N  25.71700 1.04600 27.21200
C  24.77700 1.02800 26.24600
C  25.35700 0.94600 24.87400
C  26.88100 0.66900 25.14800
C  26.92100 0.80100 26.68200
C  24.73300 -0.06700 23.89900
C  27.83700 1.60900 24.41500
C  29.15700 1.01600 23.86500
N  27.28700 0.84000 29.68800
C  28.30500 0.54700 28.83600
C  29.52000 0.31000 29.58100
C  29.17700 0.51100 30.90300
C  27.79100 0.81100 30.92100
C  30.88800 -0.09500 29.08300
C  29.64900 0.51200 32.26200
O  30.76500 0.32000 32.73800
C  28.46700 1.02100 33.16700
C  28.28900 0.02400 34.29300
O  27.49800 -0.92400 34.31500
O  29.05700 0.41400 35.34500
C  28.99000 -0.53100 36.49800
H  21.75900 1.35700 32.10100
H  22.94600 1.21100 25.59600
H  28.95400 0.29900 26.78300
H  25.60900 0.56400 34.58700
H  23.13800 2.04900 34.03700
H  23.61600 -0.30700 35.24500
H  23.48500 -0.88300 33.54900
H  22.11300 -0.10100 34.41500
H  24.76400 3.21100 34.91600
H  26.30700 3.25500 33.90600
H  27.41100 2.52400 35.95500
H  25.86500 1.68900 36.48800
H  19.34300 0.63700 30.04800
H  19.18400 2.41800 29.63300
H  19.79600 1.94400 31.17300
H  18.29100 1.91100 27.64500
H  18.65400 0.24800 27.87900
H  18.09400 0.75400 26.25400
H  25.20000 1.94600 24.47000
H  27.19800 -0.37200 25.08200
H  25.41400 -0.87900 23.64300
H  24.30700 0.35300 22.98800
H  23.89200 -0.62600 24.30900
H  28.07400 2.44700 25.07000
H  27.35000 2.03000 23.53600
H  28.96000 -0.03700 23.66500
H  29.94400 1.08300 24.61600
H  29.40700 1.55200 22.94900
H  31.35100 0.86500 28.85600
H  30.81600 -0.73900 28.20700
H  31.46300 -0.62700 29.84100
H  28.68700 2.05700 33.42400
H  28.17100 -0.19800 37.13500
H  29.94700 -0.58800 37.01700
H  28.74700 -1.57500 36.30000

