158

Mg 23.90000 -6.34600 46.54100
C  26.02300 -3.99300 45.13700
C  21.41900 -5.37000 44.42500
C  21.87400 -9.21400 47.18500
C  26.58200 -7.76600 48.12700
N  23.76700 -4.88600 44.94200
C  24.75600 -4.00800 44.56100
C  24.22500 -3.07400 43.55700
C  22.68000 -3.22700 43.67400
C  22.61700 -4.59000 44.36200
C  21.87400 -2.09400 44.40600
C  24.87900 -3.33400 42.17100
C  25.48400 -2.16000 41.42400
H  24.51000 -1.64200 40.34300
N  21.88800 -7.15500 45.98500
C  21.08200 -6.53600 45.07100
C  19.89700 -7.27600 44.77400
C  19.94300 -8.41100 45.66500
C  21.24500 -8.30300 46.31100
C  18.81900 -7.02000 43.64200
C  18.84600 -9.41200 45.77200
O  17.88400 -9.50600 45.01100
C  18.86500 -10.38500 46.95700
N  24.12800 -8.13800 47.63000
C  23.20400 -9.20100 47.79000
C  23.80100 -10.39100 48.57200
C  25.33800 -9.98200 48.72000
C  25.35700 -8.54500 48.13700
C  23.02400 -10.70500 49.89600
C  26.33800 -10.88500 48.10200
C  26.17600 -12.42700 48.38800
N  25.97900 -6.01500 46.67400
C  26.88400 -6.64600 47.43300
C  28.12000 -5.85100 47.33500
C  27.82600 -4.80300 46.51000
C  26.49500 -4.95300 46.07500
C  29.44100 -6.28300 48.05300
C  28.33200 -3.56900 45.98600
O  29.38300 -2.94300 46.28900
C  27.14400 -2.96600 45.00700
C  26.76500 -1.62100 45.43900
O  25.90600 -1.26500 46.23000
O  27.46100 -0.68800 44.71600
C  27.25800 0.72600 45.11000
H  20.55800 -4.88700 43.95800
H  21.40200 -10.19400 47.27400
H  27.42000 -8.22000 48.66100
H  24.50900 -2.08000 43.90300
H  22.24200 -3.17000 42.67700
H  22.49400 -1.67100 45.19600
H  20.92100 -2.43700 44.81000
H  21.68500 -1.29400 43.69100
H  24.27900 -3.86600 41.43300
H  25.62400 -4.11100 42.34200
H  26.43100 -2.35100 40.92000
H  25.62600 -1.32900 42.11500
H  19.27200 -6.42400 42.85100
H  18.02700 -6.39500 44.05500
H  18.35800 -7.89800 43.18900
H  17.82700 -10.59100 47.22100
H  19.30800 -9.87800 47.81400
H  19.40500 -11.26500 46.60700
H  23.73900 -11.30100 47.97500
H  25.53000 -9.89300 49.78900
H  21.98900 -10.78800 49.56400
H  23.30600 -9.97500 50.65400
H  23.22200 -11.66300 50.37600
H  27.33400 -10.60900 48.44700
H  26.36800 -10.66600 47.03400
H  26.17700 -13.02200 47.47500
H  25.23900 -12.66400 48.89200
H  26.97800 -12.82500 49.01100
H  29.25400 -6.03100 49.09700
H  30.34900 -5.78100 47.72000
H  29.55800 -7.36500 48.10600
H  27.63600 -2.90800 44.03600
H  27.52600 0.91900 46.14800
H  26.21800 1.04300 45.03300
H  27.78900 1.37500 44.41300
Mg 53.34600 23.68500 44.63600
C  50.67700 25.91700 43.80700
C  51.62000 21.21700 42.99100
C  56.05500 21.89400 44.83300
C  54.90900 26.36100 46.20000
N  51.51500 23.68100 43.44200
C  50.60500 24.66900 43.26300
C  49.63500 24.25900 42.18400
C  49.61100 22.66000 42.41400
C  51.03200 22.47100 42.97000
C  48.56900 22.09700 43.34400
C  50.17000 24.67500 40.73300
C  49.11900 25.30600 39.84900
H  49.54900 26.17300 38.65500
N  53.76500 21.77100 44.00500
C  52.90600 20.85400 43.45700
C  53.51800 19.55800 43.49000
C  54.83300 19.79700 43.94000
C  54.91100 21.18000 44.35000
C  52.72800 18.29600 43.04700
C  55.91700 18.74700 44.10700
O  55.77100 17.56200 43.69100
C  57.23900 19.00100 44.74100
N  55.35600 24.16700 45.20900
C  56.26800 23.21200 45.24900
C  57.55500 23.74200 45.85600
C  57.19800 25.17300 46.26300
C  55.70600 25.30900 45.84700
C  58.03600 22.92200 47.03300
C  58.15900 26.23000 45.55100
C  57.90800 26.59500 44.10100
N  52.97100 25.71700 44.92300
C  53.62600 26.57800 45.76100
C  52.87200 27.73900 46.00000
C  51.70000 27.55700 45.28400
C  51.79600 26.31500 44.59600
C  53.23500 28.99100 46.83500
C  50.57900 28.21600 44.84700
O  50.21300 29.36500 45.13700
C  49.81300 27.21400 43.81400
C  49.50800 27.85200 42.51100
O  50.24300 27.83000 41.52300
O  48.21300 28.38000 42.53300
C  47.63700 29.12400 41.40400
H  50.92600 20.43700 42.67200
H  56.92300 21.24500 44.96900
H  55.29100 27.19900 46.78800
H  48.59200 24.54000 42.33200
H  49.43300 22.13900 41.47300
H  49.03200 22.12800 44.33000
H  48.43800 21.04300 43.09800
H  47.58000 22.55500 43.32000
H  50.41600 23.72000 40.27000
H  51.05800 25.30500 40.78000
H  48.54700 26.02500 40.43400
H  48.33500 24.59400 39.59300
H  52.71300 18.19800 41.96200
H  51.72200 18.40000 43.45500
H  53.32600 17.49300 43.47800
H  57.90900 18.14700 44.64700
H  57.15900 19.34300 45.77300
H  57.83900 19.73200 44.19700
H  58.25700 23.64100 45.02800
H  57.27300 25.28600 47.34500
H  59.09800 22.71100 46.90400
H  57.39300 22.04400 47.08600
H  57.85900 23.42000 47.98600
H  59.18400 25.89500 45.71300
H  58.17900 27.16400 46.11200
H  57.79800 27.67900 44.10000
H  57.03100 26.13300 43.64800
H  58.69700 26.29400 43.41200
H  52.34300 29.39600 47.31200
H  53.55500 29.80000 46.17800
H  53.95900 28.76400 47.61700
H  48.93000 26.97900 44.40900
H  46.57000 29.22300 41.60500
H  47.81600 28.56500 40.48500
H  48.08900 30.11500 41.45000

