158

Mg 35.06500 3.48300 29.30100
C  32.64200 4.37600 31.71700
C  37.27300 2.93500 31.85900
C  37.19500 2.31600 27.07100
C  32.69100 3.96700 26.87500
N  34.94000 3.79200 31.48200
C  33.87800 4.22900 32.29300
C  34.28200 4.24800 33.80300
C  35.84800 4.10100 33.75600
C  36.10600 3.62200 32.25500
C  36.66900 5.36500 33.99700
C  33.62600 3.17700 34.73400
C  33.26900 3.56700 36.23700
H  34.06800 4.83700 36.69500
N  36.99800 2.74800 29.42900
C  37.69400 2.47200 30.58600
C  38.95700 1.84500 30.27600
C  39.01000 1.62900 28.82100
C  37.68900 2.20200 28.37200
C  40.08400 1.61100 31.27200
C  40.09600 1.06000 27.88300
O  39.98900 1.10400 26.64300
C  41.36400 0.49400 28.32700
N  34.93700 3.14000 27.28400
C  36.03400 2.80300 26.55400
C  35.81100 3.06700 25.00900
C  34.25100 3.25800 24.96600
C  33.93200 3.46300 26.45900
C  36.50000 4.32500 24.49900
C  33.46500 2.11800 24.29500
C  32.96000 0.94500 25.03700
N  33.04100 4.09900 29.22600
C  32.23300 4.25500 28.13700
C  30.97000 4.83300 28.58200
C  31.08100 4.77800 30.00500
C  32.38300 4.31600 30.30400
C  29.85900 5.19400 27.66000
C  30.34600 4.93900 31.26800
O  29.16600 5.23300 31.43400
C  31.33800 4.65000 32.40700
C  31.41600 5.90000 33.23100
O  31.88000 6.97800 32.90300
O  30.85800 5.70600 34.52600
C  30.80600 6.88400 35.38900
H  37.81000 2.62100 32.75700
H  37.82400 1.87000 26.29800
H  31.92700 4.07400 26.10100
H  34.03500 5.24900 34.15700
H  36.14000 3.37300 34.51200
H  37.00600 5.72800 33.02600
H  37.55800 5.09100 34.56600
H  36.12500 6.19400 34.45000
H  34.19500 2.25700 34.87000
H  32.77900 2.75300 34.19400
H  33.62100 2.73200 36.84300
H  32.20000 3.64300 36.43300
H  39.59300 1.54100 32.24300
H  40.65200 2.53800 31.35100
H  40.61800 0.67000 31.13800
H  42.04800 1.14700 28.87000
H  41.90600 0.39300 27.38700
H  41.15100 -0.50400 28.71000
H  36.13200 2.13900 24.53600
H  34.06100 4.16800 24.39600
H  35.92800 5.16700 24.10800
H  37.05100 3.78100 23.73200
H  37.19700 4.67100 25.26300
H  34.08500 1.78800 23.46200
H  32.59100 2.62500 23.88800
H  33.38100 0.96900 26.04200
H  33.34000 -0.01000 24.67600
H  31.87300 0.86900 25.08200
H  29.12100 5.76100 28.22800
H  29.36900 4.24300 27.45100
H  30.14900 5.57300 26.68000
H  30.98700 3.88700 33.10100
H  31.76200 7.40600 35.43700
H  30.50800 6.47000 36.35200
H  30.10300 7.63600 35.03100
Mg 49.30900 35.61600 27.13900
C  47.14000 34.01300 29.43300
C  49.46400 38.25000 29.43000
C  50.60700 37.59600 24.69600
C  48.87000 33.01600 24.82000
N  48.56100 35.90000 29.24200
C  47.79200 35.11300 30.01200
C  47.70900 35.59400 31.45000
C  48.17800 37.10700 31.33100
C  48.80100 37.06900 29.92400
C  47.06400 38.20300 31.67200
C  48.64000 34.74100 32.36100
C  48.35700 34.76900 33.90800
H  47.35400 35.68500 34.43800
N  50.01200 37.55400 27.09600
C  49.95300 38.49500 28.11800
C  50.57500 39.81400 27.66300
C  50.93900 39.61200 26.28900
C  50.53100 38.19700 25.98800
C  50.61900 40.99200 28.52800
C  51.62300 40.55800 25.29100
O  52.14500 40.15200 24.22300
C  51.90200 42.04500 25.61300
N  49.67700 35.25000 24.98500
C  50.28900 36.28300 24.26300
C  50.74100 35.67300 22.90100
C  50.35800 34.13300 23.04700
C  49.63800 34.08600 24.33500
C  50.18200 36.51000 21.67700
C  51.62700 33.16000 23.08000
C  51.31900 31.76000 22.59800
N  48.18300 33.91400 27.07500
C  48.09200 32.95200 26.03900
C  47.19800 31.90600 26.55400
C  46.78800 32.27700 27.78900
C  47.45000 33.47500 28.14600
C  46.87500 30.59100 25.88000
C  45.90000 31.89400 28.81200
O  45.17700 30.93900 29.03600
C  46.01900 33.12700 29.89800
C  46.16500 32.60000 31.30700
O  46.92500 31.69800 31.60000
O  45.25800 33.16300 32.16900
C  45.19800 32.58600 33.55600
H  49.28100 39.10200 30.08700
H  51.12600 38.26100 24.00200
H  48.83900 32.12600 24.18800
H  46.67200 35.46000 31.75800
H  49.00100 37.27300 32.02600
H  46.93800 38.89300 30.83800
H  47.45000 38.71500 32.55300
H  46.08100 37.78000 31.87900
H  49.64200 35.14100 32.21000
H  48.67300 33.69500 32.05500
H  49.32400 34.87500 34.39900
H  48.01200 33.75700 34.11700
H  50.16100 40.94100 29.51600
H  50.03500 41.67700 27.91300
H  51.68100 41.23100 28.57200
H  52.40300 42.47900 24.74800
H  52.45300 42.16800 26.54600
H  50.89600 42.46200 25.60000
H  51.82800 35.62600 22.85000
H  49.65700 33.84300 22.26400
H  49.36500 35.88800 21.31200
H  50.96300 36.65800 20.93200
H  49.82400 37.48800 22.00000
H  51.98200 33.02700 24.10200
H  52.52600 33.58400 22.63300
H  52.12700 31.68000 21.87100
H  50.30800 31.75000 22.19000
H  51.57600 30.95100 23.28200
H  46.02600 30.74600 25.21300
H  46.86500 29.78100 26.60900
H  47.63500 30.32000 25.14600
H  45.06300 33.64900 29.85700
H  44.18500 32.91600 33.78400
H  45.94900 33.15100 34.10900
H  45.42700 31.52500 33.45600

