158

Mg 24.16200 -4.72100 45.70400
C  26.29600 -2.50100 44.17900
C  21.54900 -3.49400 43.77800
C  22.39500 -7.63400 46.22700
C  26.95600 -6.11100 47.27700
N  23.98900 -3.27800 44.16900
C  24.97700 -2.43000 43.73300
C  24.50100 -1.48000 42.63600
C  22.97600 -1.56700 42.81700
C  22.81300 -2.88000 43.61900
C  22.35300 -0.37400 43.53000
C  25.12700 -2.02900 41.17200
C  26.09200 -0.96900 40.46500
H  26.09200 -0.84900 38.91300
N  22.21000 -5.38200 45.27100
C  21.26500 -4.66700 44.58400
C  20.07700 -5.48900 44.45500
C  20.26100 -6.69900 45.18100
C  21.64700 -6.59700 45.63000
C  18.87300 -5.03700 43.68600
C  19.25500 -7.86700 45.29900
O  18.13400 -7.80300 44.82800
C  19.48700 -9.01200 46.28900
N  24.50500 -6.49000 46.80300
C  23.66300 -7.56400 46.81300
C  24.20900 -8.73600 47.71500
C  25.70800 -8.24500 47.97300
C  25.76500 -6.91200 47.27300
C  23.40900 -9.07500 49.03000
C  26.76200 -9.24400 47.41000
C  27.81900 -9.85500 48.40500
N  26.26600 -4.36100 45.80500
C  27.26200 -4.97100 46.51800
C  28.52200 -4.30300 46.38200
C  28.20600 -3.29600 45.37100
C  26.80700 -3.42200 45.07900
C  29.77200 -4.75700 47.00000
C  28.73600 -2.29200 44.55100
O  29.85000 -1.86300 44.46500
C  27.53000 -1.63000 43.82900
C  27.39100 -0.15200 44.09500
O  26.85600 0.35100 45.08700
O  27.92700 0.56000 43.09200
C  27.71300 2.04900 43.15000
H  20.75000 -3.15500 43.11600
H  21.91700 -8.60600 46.36300
H  27.71900 -6.53600 47.93200
H  24.91100 -0.52200 42.95700
H  22.47000 -1.67600 41.85700
H  23.13700 0.36100 43.71100
H  21.80800 -0.72800 44.40600
H  21.72000 0.03200 42.74000
H  24.38800 -2.39700 40.46000
H  25.75000 -2.90000 41.37600
H  27.12900 -1.06500 40.78900
H  25.68500 0.01300 40.70700
H  18.01500 -5.13000 44.35200
H  18.79700 -5.62200 42.76900
H  18.91100 -4.00500 43.33500
H  18.58000 -9.56400 46.53400
H  19.96100 -8.69500 47.21800
H  20.14000 -9.68100 45.72900
H  24.18700 -9.62900 47.09100
H  25.85500 -8.11600 49.04500
H  22.96900 -8.14000 49.37500
H  24.19600 -9.45600 49.68100
H  22.65500 -9.83600 48.82800
H  27.38000 -8.78300 46.63900
H  26.38400 -10.16500 46.96700
H  27.50700 -9.66000 49.43100
H  28.69400 -9.21200 48.30500
H  27.96900 -10.91000 48.17500
H  29.66500 -4.50100 48.05400
H  30.65300 -4.22900 46.63500
H  29.98600 -5.81000 46.81700
H  27.62900 -1.58300 42.74400
H  27.25500 2.48200 44.03900
H  27.04300 2.24800 42.31500
H  28.66100 2.47000 42.81300
Mg -12.02800 37.89400 43.10800
C  -10.10600 35.19700 42.21800
C  -10.09100 39.76800 40.97000
C  -14.30300 40.40500 43.13000
C  -14.19400 35.76900 44.63000
N  -10.28900 37.50800 41.68300
C  -9.65100 36.32900 41.60600
C  -8.36400 36.52500 40.82500
C  -8.42200 37.94400 40.25100
C  -9.67700 38.45900 41.00500
C  -7.12600 38.87400 40.41400
C  -8.11700 35.47200 39.67200
C  -6.64100 35.05200 39.49800
H  -5.83500 35.57500 38.27600
N  -12.12100 39.88700 42.28200
C  -11.15700 40.48000 41.51400
C  -11.49400 41.88700 41.30900
C  -12.67200 42.11800 42.00000
C  -13.13100 40.77500 42.49800
C  -10.68300 42.76600 40.41400
C  -13.33000 43.42500 42.11800
O  -12.73200 44.42000 41.73800
C  -14.69000 43.65000 42.67200
N  -13.90200 38.02900 43.71400
C  -14.63700 39.19100 43.74100
C  -16.07600 38.99700 44.27500
C  -16.07500 37.45400 44.56800
C  -14.59100 37.03800 44.35600
C  -16.35300 40.00500 45.42500
C  -17.15300 36.67600 43.71900
C  -17.77500 35.45500 44.39600
N  -12.12400 35.85900 43.48300
C  -13.06700 35.15300 44.17000
C  -12.60100 33.77000 44.30300
C  -11.35900 33.75200 43.58000
C  -11.25300 35.02900 43.00800
C  -13.27900 32.63400 45.05100
C  -10.21900 32.93300 43.20500
O  -9.92300 31.78300 43.44000
C  -9.42400 33.77600 42.28100
C  -8.06500 33.84300 42.85900
O  -7.14200 33.23400 42.43600
O  -7.99600 34.72500 43.88800
C  -6.57000 34.90400 44.41700
H  -9.51100 40.49200 40.39500
H  -14.95800 41.25600 43.32900
H  -14.94400 35.13900 45.11200
H  -7.51000 36.32700 41.47300
H  -8.61500 38.00600 39.18000
H  -7.34600 39.72300 41.06200
H  -6.80700 39.21900 39.43000
H  -6.24800 38.31100 40.73200
H  -8.40000 35.96100 38.74000
H  -8.88500 34.70500 39.77100
H  -6.60000 33.97900 39.30800
H  -6.13300 35.05200 40.46200
H  -11.37500 43.39800 39.85700
H  -9.97000 42.40700 39.67200
H  -10.03700 43.47900 40.92500
H  -15.33900 43.07100 42.01500
H  -14.96800 44.67300 42.42000
H  -14.74500 43.38700 43.72800
H  -16.76100 39.10100 43.43300
H  -16.41000 37.41100 45.60400
H  -15.44200 40.33000 45.92700
H  -16.98300 39.53200 46.17800
H  -16.90200 40.90500 45.14800
H  -16.52300 36.38300 42.87900
H  -17.92300 37.38000 43.40600
H  -18.82100 35.68100 44.60400
H  -17.23700 35.10900 45.27900
H  -17.77300 34.63400 43.67900
H  -14.35100 32.60700 44.85800
H  -13.05100 32.71400 46.11400
H  -12.76600 31.77900 44.61100
H  -9.46200 33.31500 41.29400
H  -6.39300 35.70800 45.13200
H  -5.84400 35.10800 43.63000
H  -6.24300 33.97400 44.88100

