158

Mg 26.95600 50.57500 26.40300
C  24.75400 51.75200 28.80000
C  29.34100 50.24600 28.87800
C  29.20300 50.08500 23.96900
C  24.57700 51.45700 23.94500
N  27.03800 51.03200 28.57300
C  25.96600 51.30700 29.35800
C  26.24900 51.15200 30.91400
C  27.75800 50.75100 30.88400
C  28.10600 50.67400 29.36400
C  28.78600 51.72400 31.61800
C  25.27300 50.11600 31.63300
C  24.73700 50.55500 33.04500
H  24.80600 49.64300 34.28200
N  28.97600 50.20800 26.43300
C  29.78900 50.03500 27.56700
C  31.11700 49.62500 27.20300
C  31.19800 49.60900 25.78500
C  29.70500 49.94400 25.33300
C  32.27800 49.41600 28.23800
C  32.42300 49.42200 24.88200
O  32.19800 49.59200 23.64200
C  33.78400 49.03800 25.46700
N  26.95400 50.72700 24.31100
C  27.97500 50.43700 23.50200
C  27.48400 50.35800 22.04000
C  26.02800 50.64700 22.04000
C  25.81000 50.93600 23.57400
C  28.34500 51.20700 21.04700
C  25.07900 49.59500 21.41800
C  24.07600 50.25400 20.53200
N  25.06900 51.47000 26.33500
C  24.22400 51.72400 25.26600
C  23.01200 52.38200 25.76700
C  23.16000 52.37600 27.17600
C  24.48500 51.84500 27.46500
C  21.93100 52.98300 24.91400
C  22.49500 52.64400 28.43400
O  21.38800 53.08200 28.65000
C  23.47500 52.22800 29.49100
C  23.70200 53.27000 30.51700
O  24.58000 54.08300 30.39200
O  22.81600 53.06500 31.59700
C  22.99200 54.14800 32.58500
H  30.04200 50.09200 29.70200
H  29.80500 49.85300 23.08800
H  23.85600 51.75600 23.18200
H  26.09300 52.14400 31.33700
H  27.81400 49.75000 31.31300
H  29.27200 52.42100 30.93500
H  29.53300 51.20900 32.22100
H  28.19400 52.19300 32.40400
H  25.83100 49.17900 31.63200
H  24.37600 49.99100 31.02800
H  23.67400 50.71800 32.87000
H  25.10600 51.55000 33.29800
H  33.01700 50.17800 27.99100
H  32.74100 48.44000 28.09400
H  31.94100 49.49200 29.27200
H  34.20900 49.81600 26.10300
H  34.50300 48.86500 24.66600
H  33.64200 48.12200 26.03900
H  27.60800 49.31100 21.76300
H  25.88200 51.62700 21.58700
H  29.17700 51.74900 21.49700
H  27.80100 51.93600 20.44600
H  28.74200 50.45000 20.37100
H  24.56800 49.07000 22.22500
H  25.65800 48.93200 20.77500
H  23.23800 50.58700 21.14400
H  23.62300 49.55500 19.82900
H  24.47800 51.09300 19.96400
H  22.39800 53.50900 24.08200
H  21.39900 53.69100 25.55000
H  21.21600 52.31400 24.43500
H  23.03300 51.46000 30.12600
H  23.11300 55.08300 32.03700
H  23.86100 54.03100 33.23300
H  22.11900 54.13700 33.23700
Mg -2.24600 33.84800 25.71100
C  -3.91500 32.55500 28.62800
C  -0.56800 36.03700 27.61800
C  -0.98800 34.98700 22.82800
C  -4.42200 31.67200 23.80700
N  -2.19200 34.18800 27.93700
C  -2.96900 33.54200 28.93500
C  -2.63200 34.16100 30.30500
C  -1.57100 35.30800 29.96300
C  -1.45500 35.19100 28.37600
C  -2.05900 36.72400 30.45000
C  -1.98700 33.08400 31.26600
C  -2.64000 32.65700 32.61000
H  -1.87400 32.76900 33.92900
N  -0.92600 35.19300 25.32900
C  -0.30600 36.00600 26.25700
C  0.63900 36.86500 25.50400
C  0.54900 36.52000 24.13500
C  -0.49400 35.53500 24.03600
C  1.54200 37.90500 26.25600
C  1.40600 37.03500 22.93900
O  1.14100 36.84200 21.74700
C  2.58100 37.99400 23.38800
N  -2.80900 33.50700 23.56500
C  -2.05400 34.04400 22.62400
C  -2.55900 33.57600 21.15700
C  -3.58600 32.35900 21.51500
C  -3.68900 32.57300 23.03100
C  -3.01100 34.71200 20.25200
C  -3.09300 30.93800 21.13900
C  -1.82000 30.49200 21.81800
N  -3.77200 32.38700 26.04400
C  -4.55000 31.55800 25.21500
C  -5.35600 30.62300 25.99500
C  -5.16100 31.03500 27.34900
C  -4.17700 32.09300 27.33100
C  -6.24800 29.61600 25.50400
C  -5.62400 30.86500 28.67400
O  -6.46900 30.06500 29.13800
C  -4.78300 31.75300 29.65100
C  -5.54400 32.55500 30.52900
O  -6.03500 33.60300 30.05700
O  -5.60100 32.10500 31.80900
C  -6.22700 33.07500 32.73400
H  -0.14600 36.74300 28.33600
H  -0.60600 35.29700 21.85300
H  -4.98100 30.96600 23.19000
H  -3.53800 34.54500 30.77400
H  -0.54600 35.14200 30.29500
H  -2.06300 37.49100 29.67600
H  -1.37400 37.04600 31.23500
H  -3.04100 36.79200 30.91800
H  -1.00400 33.52400 31.43000
H  -1.64700 32.22300 30.69000
H  -3.00000 31.63100 32.54600
H  -3.50200 33.30700 32.76500
H  1.39100 38.91200 25.86800
H  2.55800 37.51200 26.21500
H  1.47700 37.81900 27.34100
H  2.16400 38.87400 23.87800
H  3.08100 38.47900 22.55000
H  3.26800 37.34800 23.93500
H  -1.72400 33.07800 20.66500
H  -4.54600 32.56000 21.03900
H  -3.02000 35.64400 20.81600
H  -3.94300 34.40000 19.78000
H  -2.24700 34.87400 19.49100
H  -2.96300 30.84300 20.06100
H  -3.90700 30.22800 21.28600
H  -1.10600 30.29600 21.01800
H  -1.97500 29.58300 22.39800
H  -1.43900 31.28800 22.45800
H  -7.05400 30.06600 24.92400
H  -6.76600 29.06600 26.29000
H  -5.77900 28.96200 24.76800
H  -4.18500 31.05800 30.24000
H  -7.23300 33.42500 32.50100
H  -5.53900 33.91800 32.67100
H  -6.37100 32.77800 33.77300

