158

Mg 24.84700 1.25000 30.33200
C  27.01700 1.24400 33.03000
C  22.22200 0.91700 32.56300
C  22.87100 0.87900 27.78600
C  27.70500 0.92000 28.19500
N  24.70600 1.11500 32.53200
C  25.66700 1.26300 33.47700
C  25.19500 1.37800 34.90000
C  23.66800 0.93300 34.72600
C  23.50600 0.92300 33.20300
C  23.21700 -0.43400 35.40100
C  25.35800 2.78300 35.48300
C  26.32000 2.77800 36.71000
H  26.01500 3.66900 37.88000
N  22.85700 0.93200 30.19400
C  21.93800 0.89800 31.20300
C  20.61500 0.80200 30.59500
C  20.72100 0.73400 29.19100
C  22.22600 0.88800 29.03200
C  19.34300 0.74500 31.44100
C  19.72800 0.64000 28.09100
O  20.00700 0.66700 26.90300
C  18.27000 0.39500 28.44700
N  25.27700 0.85500 28.25800
C  24.25200 0.90100 27.33500
C  24.67500 1.10000 25.88500
C  26.25300 1.07800 26.09500
C  26.45200 0.95300 27.59500
C  24.14900 0.04300 24.84400
C  27.15900 2.13000 25.40700
C  28.40700 1.72700 24.72000
N  27.02700 1.03300 30.50400
C  28.00000 0.90200 29.60400
C  29.29400 0.80500 30.23100
C  28.95000 1.07500 31.57900
C  27.57200 1.13300 31.67300
C  30.62300 0.52600 29.51700
C  29.42000 1.17700 32.96800
O  30.53200 1.10300 33.42400
C  28.19700 1.44000 33.88600
C  28.33400 0.53900 35.04500
O  28.16200 -0.62100 35.02600
O  28.79700 1.25400 36.08500
C  29.20700 0.63100 37.30900
H  21.38000 0.79900 33.24900
H  22.27700 0.63200 26.90400
H  28.62300 0.94600 27.60400
H  25.72400 0.66000 35.52700
H  22.92200 1.62700 35.11100
H  22.32600 -0.27100 36.00700
H  23.92100 -0.85700 36.11700
H  22.98300 -1.20000 34.66100
H  24.42400 3.27500 35.75500
H  25.93900 3.36100 34.76400
H  27.24400 3.21000 36.32400
H  26.53300 1.74800 36.99800
H  19.11300 -0.29600 31.66500
H  18.44100 1.13600 30.96900
H  19.46000 1.31600 32.36200
H  17.64600 0.21600 27.57100
H  17.89300 1.29200 28.93800
H  18.07300 -0.41500 29.14900
H  24.37900 2.12400 25.66000
H  26.63200 0.10900 25.76900
H  23.66800 -0.80200 25.33600
H  24.86300 -0.49700 24.22300
H  23.48300 0.48400 24.10300
H  27.44800 2.86200 26.16000
H  26.47800 2.65000 24.73400
H  28.29600 0.64700 24.62600
H  29.34700 1.83900 25.26000
H  28.47100 2.38000 23.85000
H  30.53600 0.68600 28.44200
H  30.85000 -0.51700 29.73500
H  31.32200 1.30100 29.83100
H  28.27700 2.51700 34.03500
H  28.39300 0.69600 38.03100
H  30.03000 1.23200 37.69600
H  29.59100 -0.37400 37.13200
Mg -1.46200 35.21300 26.80500
C  -3.24500 33.41200 29.25500
C  -0.33300 37.26000 29.46900
C  0.07600 37.11700 24.65600
C  -2.76000 33.19000 24.44900
N  -1.89100 35.43900 29.14600
C  -2.45600 34.45200 29.89200
C  -2.25600 34.71800 31.43200
C  -1.42600 35.98600 31.39000
C  -1.19000 36.28500 29.91800
C  -2.10300 37.08800 32.27300
C  -1.67200 33.59300 32.26600
C  -2.52700 33.03000 33.45900
H  -1.80700 33.01900 34.83600
N  -0.27300 36.94500 27.00200
C  0.11700 37.55900 28.14800
C  0.98600 38.60700 27.84700
C  1.20500 38.53400 26.44100
C  0.32700 37.48100 25.94000
C  1.59000 39.61300 28.84800
C  2.16000 39.33700 25.56900
O  2.23900 39.09000 24.37900
C  3.07700 40.34600 26.18800
N  -1.53400 35.20200 24.75900
C  -0.71800 36.18700 24.10900
C  -0.83200 35.91300 22.62800
C  -1.66200 34.52200 22.51400
C  -2.00300 34.24500 23.96200
C  -1.56800 37.03300 21.86800
C  -0.86500 33.44100 21.76300
C  0.35900 32.83400 22.53800
N  -2.87200 33.72200 26.79300
C  -3.25800 32.99500 25.72100
C  -3.92400 31.83400 26.16100
C  -4.04700 31.95600 27.58400
C  -3.35000 33.14600 27.89500
C  -4.28000 30.69200 25.23400
C  -4.46900 31.31800 28.84200
O  -5.09400 30.28500 29.06800
C  -3.94000 32.26100 29.94500
C  -5.04000 32.81300 30.70500
O  -5.85500 33.66900 30.32000
O  -5.16500 32.24900 31.90600
C  -6.25700 32.58400 32.78300
H  0.11100 37.79800 30.30900
H  0.32000 37.87000 23.90400
H  -2.91100 32.40100 23.70900
H  -3.28700 34.82100 31.77000
H  -0.41100 35.81100 31.74800
H  -1.34900 37.42200 32.98700
H  -2.99900 36.76900 32.80500
H  -2.35400 37.84100 31.52600
H  -0.67900 33.84800 32.63800
H  -1.39200 32.81400 31.55800
H  -2.79700 32.01300 33.17400
H  -3.40000 33.66100 33.62900
H  1.19900 39.42300 29.84800
H  1.44900 40.66900 28.61600
H  2.66400 39.45700 28.94600
H  3.67200 39.85300 26.95600
H  2.45600 41.13300 26.61500
H  3.75100 40.78500 25.45200
H  0.19200 35.78300 22.27900
H  -2.57700 34.61700 21.93000
H  -1.81100 37.93500 22.43000
H  -2.47100 36.67600 21.37200
H  -0.95800 37.34600 21.02000
H  -0.56200 33.77200 20.77000
H  -1.55900 32.60000 21.78900
H  -0.06100 31.83700 22.67000
H  0.41500 33.39800 23.46900
H  1.33800 32.75300 22.06500
H  -4.33300 29.82100 25.88700
H  -3.49400 30.50400 24.50300
H  -5.17500 30.78800 24.61800
H  -3.22900 31.69400 30.54500
H  -6.11400 32.20900 33.79700
H  -7.20900 32.15700 32.46700
H  -6.24800 33.66300 32.93900

