158

Mg 0.29000 7.66900 26.21800
C  0.87100 9.23600 29.16300
C  0.44600 4.70300 27.85600
C  0.01200 6.00500 23.22100
C  0.36400 10.63500 24.40300
N  0.56000 7.07900 28.22000
C  0.68500 7.83700 29.32800
C  0.79300 7.06900 30.70400
C  0.90900 5.63500 30.10200
C  0.57700 5.82000 28.63200
C  2.36200 5.00900 30.37000
C  -0.55200 7.23200 31.53100
C  -0.34400 7.57600 33.01700
H  0.88300 6.92800 33.74000
N  0.31400 5.55900 25.56800
C  0.33100 4.51400 26.43500
C  0.14700 3.35000 25.74200
C  0.06000 3.70200 24.30500
C  0.12700 5.15500 24.31900
C  0.08800 2.00600 26.47200
C  0.03800 2.73500 23.10000
O  0.00200 3.28800 21.98500
C  0.04000 1.22200 23.22600
N  0.39100 8.25200 24.05900
C  0.15700 7.38000 23.05700
C  -0.01000 8.04000 21.61700
C  -0.20400 9.50400 22.12100
C  0.23200 9.47500 23.58000
C  1.14800 7.79500 20.53600
C  -1.64400 10.00500 21.96800
C  -1.98500 10.69200 20.65600
N  0.63200 9.56200 26.66800
C  0.62400 10.67300 25.85000
C  0.96000 11.84500 26.66100
C  1.06200 11.34700 28.01300
C  0.76400 9.97200 27.90500
C  1.10400 13.22300 26.17700
C  1.33900 11.69300 29.38200
O  1.70500 12.69900 29.84700
C  1.11500 10.30500 30.21000
C  2.31600 10.15300 31.05000
O  3.42000 9.86700 30.71900
O  1.87600 10.51700 32.31400
C  2.90100 11.02600 33.20400
H  0.63200 3.78600 28.42000
H  -0.26500 5.50800 22.28800
H  0.41800 11.51200 23.75500
H  1.69400 7.41700 31.20700
H  0.18200 4.92500 30.49500
H  2.23500 3.94900 30.59200
H  2.85000 5.55700 31.17700
H  3.02000 4.99800 29.50100
H  -1.16900 6.33500 31.58300
H  -1.19300 7.97600 31.05800
H  -1.25500 7.20900 33.49000
H  -0.15400 8.63800 33.16900
H  1.13000 1.83600 26.74300
H  -0.20600 1.25400 25.73900
H  -0.62200 2.00600 27.29900
H  0.92000 0.91600 23.79100
H  0.24400 0.80000 22.24200
H  -0.85800 0.80700 23.68400
H  -0.91800 7.70100 21.11800
H  0.55900 10.09200 21.61100
H  1.62500 6.81800 20.61200
H  1.86500 8.60900 20.64200
H  0.68500 7.89700 19.55500
H  -1.92500 10.68900 22.76800
H  -2.22500 9.09900 22.14200
H  -2.84200 10.14000 20.27200
H  -1.18700 10.54700 19.92800
H  -2.31900 11.72400 20.76900
H  0.79900 13.20800 25.13100
H  2.11300 13.59000 26.36500
H  0.38800 13.89700 26.64900
H  0.21400 10.47200 30.80000
H  2.41800 11.83600 33.75100
H  3.78100 11.38600 32.67000
H  3.13700 10.32400 34.00400
Mg 16.23200 52.50200 24.33700
C  18.13700 51.52200 27.19100
C  13.56300 53.20300 26.54900
C  14.25200 52.83600 21.72500
C  18.60500 50.83200 22.35100
N  15.89500 52.45200 26.61300
C  16.81300 52.02400 27.50400
C  16.25400 52.26000 28.93500
C  14.75300 52.69000 28.68800
C  14.72900 52.68600 27.17700
C  13.71100 51.72600 29.31400
C  17.03400 53.22200 29.70800
C  17.40200 52.80400 31.19100
H  16.53900 51.75800 31.93200
N  14.27200 53.20600 24.12300
C  13.39500 53.42700 25.15500
C  12.16900 53.94900 24.55500
C  12.26700 53.73600 23.14900
C  13.64200 53.27400 22.93900
C  10.94600 54.28700 25.37700
C  11.20100 54.05700 22.02500
O  11.41700 53.84700 20.85300
C  9.73300 54.57100 22.45200
N  16.49200 52.01100 22.45300
C  15.54000 52.28300 21.48100
C  15.90200 51.75400 20.14500
C  17.48000 51.46600 20.23900
C  17.49800 51.36000 21.78000
C  15.14100 50.37100 19.77500
C  18.30700 52.64000 19.81900
C  19.60900 52.17900 19.20400
N  18.00400 51.34700 24.68200
C  18.88400 50.76100 23.74800
C  20.00400 50.17300 24.45200
C  19.65500 50.43900 25.82800
C  18.51000 51.16600 25.89200
C  21.24000 49.61300 23.79900
C  20.16700 50.33300 27.15300
O  21.26800 49.86500 27.46900
C  19.11700 50.84600 28.18400
C  18.59300 49.71100 28.91000
O  17.72700 48.90900 28.58300
O  19.05000 49.77000 30.17300
C  18.77600 48.60900 31.01500
H  12.72000 53.50600 27.17300
H  13.64000 52.79800 20.82100
H  19.38800 50.37000 21.74600
H  16.23000 51.29800 29.44700
H  14.44300 53.69500 28.97600
H  14.17800 51.03900 30.01900
H  13.23400 51.17600 28.50300
H  13.10200 52.45900 29.84200
H  16.42600 54.12500 29.65800
H  17.95900 53.42500 29.16800
H  17.41700 53.72900 31.76700
H  18.37400 52.33600 31.34400
H  11.17900 54.76800 26.32800
H  10.45300 53.35500 25.65200
H  10.25500 54.96100 24.87100
H  9.14700 54.32300 21.56700
H  9.72000 55.63000 22.70900
H  9.31900 53.96500 23.25800
H  15.71800 52.48100 19.35400
H  17.82600 50.53400 19.79400
H  14.55500 50.61700 18.89000
H  14.43200 50.22500 20.59100
H  15.72400 49.45800 19.66300
H  18.65000 53.21200 20.68100
H  17.77700 53.28200 19.11500
H  19.68500 51.25000 18.63900
H  20.44500 52.31500 19.89000
H  19.81100 52.83800 18.36000
H  22.04300 50.15600 24.29800
H  21.24900 49.95400 22.76300
H  21.33100 48.54400 23.99000
H  19.56200 51.58100 28.85400
H  19.27500 48.79500 31.96600
H  19.17700 47.73400 30.50400
H  17.73200 48.45800 31.29100

