158

Mg 42.69400 42.02100 26.72200
C  41.59800 44.06600 29.36400
C  43.78200 39.75200 28.89500
C  43.73900 40.22600 24.02300
C  42.08900 44.69900 24.58000
N  42.56200 41.91400 28.84300
C  41.92400 42.76000 29.71100
C  41.92300 42.18500 31.17000
C  42.91100 40.99800 31.01300
C  43.07700 40.81100 29.46700
C  44.23900 41.11500 31.76800
C  40.48700 41.77700 31.67400
C  39.91400 42.65100 32.89500
H  39.49600 41.99900 34.24600
N  43.79000 40.24800 26.54300
C  44.05400 39.42900 27.56800
C  44.78700 38.35700 27.02500
C  44.71200 38.41600 25.64000
C  44.07600 39.72500 25.32200
C  45.55100 37.28900 27.86300
C  45.25200 37.47900 24.59700
O  44.98100 37.57500 23.40500
C  46.11000 36.32300 25.00800
N  42.78400 42.40900 24.48600
C  43.27500 41.49200 23.68200
C  43.28000 42.06700 22.22600
C  42.86400 43.53000 22.38100
C  42.48300 43.56700 23.87700
C  44.54500 41.97800 21.46800
C  41.74600 43.98900 21.39600
C  40.29000 44.03000 21.89600
N  41.89400 43.96800 26.86900
C  41.74000 44.90100 25.89600
C  41.21700 46.18000 26.49000
C  41.13100 45.81000 27.84900
C  41.66600 44.52900 28.02900
C  40.71600 47.46400 25.79600
C  40.79300 46.33700 29.21500
O  40.21400 47.35500 29.62500
C  41.01000 45.18500 30.19500
C  42.00600 45.67300 31.15100
O  43.22900 45.69900 30.87300
O  41.42500 46.12800 32.32800
C  42.23700 46.90600 33.26900
H  44.11700 39.04300 29.65400
H  44.06600 39.58800 23.19900
H  42.05100 45.63700 24.02200
H  42.27400 42.93800 31.87600
H  42.37600 40.14200 31.42300
H  44.50200 42.08200 32.19800
H  45.05600 40.82800 31.10600
H  44.20300 40.27200 32.45800
H  40.36800 40.71700 31.90000
H  39.82700 41.88800 30.81400
H  39.06000 43.20800 32.51100
H  40.66300 43.41700 33.09700
H  45.01600 36.34600 27.75400
H  45.37100 37.56400 28.90200
H  46.59600 37.28400 27.55400
H  46.17700 35.70000 24.11600
H  45.64100 35.72900 25.79300
H  47.09200 36.58500 25.40200
H  42.54500 41.55700 21.60300
H  43.67400 44.24700 22.25100
H  45.27900 42.58400 21.99800
H  44.50500 42.41600 20.47100
H  44.90400 40.95000 21.51000
H  41.86800 43.59200 20.38800
H  41.85200 45.05300 21.18500
H  40.17700 43.26400 22.66200
H  39.68400 43.66200 21.06800
H  40.04900 45.00500 22.32000
H  41.46700 47.37600 25.01100
H  40.91400 48.35800 26.38700
H  39.73500 47.33000 25.33900
H  40.04200 44.98800 30.65500
H  41.53800 47.54800 33.80500
H  42.94100 47.54700 32.73800
H  42.64700 46.15500 33.94400
Mg 10.19600 46.53500 26.33200
C  8.39900 46.97600 29.24000
C  12.73100 48.32900 27.87100
C  12.03400 46.36100 23.49500
C  7.36000 45.77100 24.51600
N  10.52500 47.41200 28.33300
C  9.74700 47.22800 29.43800
C  10.46800 47.50300 30.71300
C  11.73200 48.33100 30.22000
C  11.70100 47.97600 28.72700
C  11.74000 49.87100 30.45200
C  10.78600 46.39100 31.66100
C  10.03400 46.41500 32.98400
H  9.98700 45.20600 33.91300
N  12.20900 47.15500 25.72800
C  13.05300 47.93000 26.50400
C  14.26500 48.23100 25.79200
C  14.09400 47.59600 24.46200
C  12.76100 47.05400 24.51200
C  15.48900 48.82000 26.47600
C  15.05500 47.47800 23.30000
O  14.72000 47.00300 22.24400
C  16.43500 48.25800 23.35100
N  9.78900 46.10200 24.28500
C  10.77100 45.92600 23.31800
C  10.21900 45.29800 22.07200
C  8.76000 44.89600 22.50500
C  8.63400 45.58300 23.86800
C  10.31600 46.06200 20.68600
C  8.60800 43.34200 22.56200
C  8.62000 42.49400 23.82600
N  8.27700 46.45900 26.70600
C  7.20300 46.16400 25.87500
C  5.98100 46.29800 26.74600
C  6.47200 46.47200 28.01300
C  7.82500 46.63400 27.93400
C  4.57700 46.12600 26.21300
C  6.00500 46.57100 29.39300
O  4.91800 46.43600 29.91700
C  7.27000 46.69000 30.21500
C  7.39800 45.38600 30.84300
O  7.95100 44.41800 30.35500
O  6.70100 45.39100 32.00200
C  6.96500 44.28700 32.97700
H  13.45300 49.05300 28.25300
H  12.63600 46.17600 22.60300
H  6.46200 45.45500 23.98100
H  9.78700 48.17900 31.22900
H  12.60000 47.95600 30.76100
H  12.48400 50.00700 31.23700
H  10.80800 50.08900 30.97300
H  11.81700 50.42900 29.51900
H  11.84400 46.36900 31.92100
H  10.52200 45.39100 31.31700
H  9.07000 46.87500 32.76900
H  10.61300 47.20000 33.47000
H  15.67900 49.79100 26.02000
H  16.30700 48.11900 26.30800
H  15.31700 48.79400 27.55200
H  16.97000 47.99300 24.26300
H  16.00900 49.23300 23.11500
H  17.02800 47.92500 22.49900
H  10.81300 44.40900 21.86200
H  7.93700 45.36400 21.96600
H  9.35900 46.04200 20.16500
H  11.02300 45.59700 19.99800
H  10.58000 47.11800 20.74300
H  9.37400 42.83200 21.97800
H  7.72200 43.11400 21.97000
H  9.00900 43.08200 24.65700
H  9.20200 41.58400 23.67800
H  7.58000 42.35100 24.12200
H  4.06400 47.07300 26.37800
H  4.08100 45.29100 26.70800
H  4.76000 45.87000 25.16900
H  7.24900 47.48000 30.96500
H  7.06800 44.84400 33.90900
H  7.70800 43.53700 32.70700
H  6.04000 43.71100 33.02000

