158

Mg 40.15300 8.88200 30.33600
C  42.13800 10.07000 32.88600
C  38.21500 7.29200 32.64600
C  38.42600 7.29500 27.82200
C  42.65200 9.51800 27.95600
N  40.16700 8.80800 32.55300
C  41.05600 9.41400 33.43000
C  40.72700 9.24000 34.91300
C  39.56000 8.20300 34.78000
C  39.22700 8.09400 33.18800
C  39.74800 6.87800 35.57800
C  40.30500 10.56700 35.67600
C  41.20200 11.01800 36.80900
H  40.52900 11.62200 38.07100
N  38.40000 7.75300 30.26700
C  37.79100 7.23700 31.35100
C  36.57000 6.49800 30.90300
C  36.64400 6.44800 29.47700
C  37.85700 7.20300 29.13900
C  35.50000 6.01500 31.87200
C  35.74500 5.79500 28.51400
O  35.78400 5.96800 27.28700
C  34.69800 4.81900 29.11700
N  40.42500 8.53700 28.17600
C  39.60400 7.86600 27.34600
C  39.98700 7.94100 25.88200
C  41.48900 8.46900 26.00600
C  41.53000 8.87800 27.48600
C  39.94800 6.57900 25.02900
C  41.85000 9.56500 25.08100
C  41.31800 10.97300 25.35800
N  41.97700 9.63800 30.38100
C  42.87400 9.95200 29.32300
C  43.98000 10.64500 29.91300
C  43.66300 10.86800 31.29900
C  42.42000 10.19600 31.51600
C  45.27200 11.02200 29.24700
C  44.22900 11.29700 32.52100
O  45.24600 11.81600 32.83900
C  43.16000 10.98400 33.63800
C  43.95400 10.30200 34.65300
O  44.25300 9.10800 34.54800
O  44.33900 11.04400 35.76800
C  45.19600 10.45200 36.86400
H  37.47300 6.92800 33.36000
H  37.95400 6.65300 27.07500
H  43.48500 9.73500 27.28300
H  41.51100 8.75000 35.48900
H  38.59500 8.60600 35.08500
H  40.75300 6.85500 36.00100
H  39.54800 6.01900 34.93700
H  38.95600 6.95500 36.32300
H  39.30400 10.39600 36.07100
H  40.17600 11.31800 34.89700
H  41.93400 11.66100 36.32100
H  41.73400 10.09000 37.02000
H  35.40800 6.66300 32.74300
H  35.64900 5.00500 32.25400
H  34.55300 6.11000 31.34000
H  33.89400 5.42300 29.53700
H  35.14200 4.10700 29.81300
H  34.37500 4.09500 28.36900
H  39.35200 8.66200 25.36700
H  42.26500 7.70800 25.92400
H  39.48600 5.75400 25.57100
H  40.86700 6.25300 24.54200
H  39.32800 6.94500 24.21100
H  41.52400 9.24600 24.09100
H  42.93700 9.54000 25.00300
H  42.18700 11.49900 25.75300
H  40.45600 11.01300 26.02400
H  40.95000 11.45500 24.45200
H  45.29800 12.06300 28.92500
H  45.37900 10.46700 28.31500
H  46.11200 10.91200 29.93300
H  42.84900 11.98200 33.94800
H  45.07800 9.37100 36.79300
H  44.81000 10.77600 37.83100
H  46.27100 10.62900 36.82300
Mg 48.12100 34.93400 27.20900
C  46.24800 33.82100 29.98400
C  48.93800 37.85800 29.18800
C  50.06300 36.00600 24.64700
C  47.00000 32.25500 25.39400
N  47.83200 35.58800 29.35800
C  47.00300 34.93700 30.28600
C  47.13600 35.60700 31.67000
C  47.51400 37.09700 31.19700
C  48.05000 36.91900 29.77800
C  46.44000 38.18700 31.37000
C  48.14400 34.99500 32.65300
C  47.68200 34.74100 34.08500
H  47.76200 35.85600 35.08200
N  49.32100 36.68900 26.91100
C  49.46400 37.69000 27.82400
C  50.35400 38.72100 27.18400
C  50.76200 38.16900 25.93400
C  50.00300 36.90500 25.77700
C  50.73300 40.06800 27.76400
C  51.76300 38.81500 24.83300
O  52.01400 38.16200 23.77500
C  52.36200 40.21400 25.00800
N  48.45900 34.26900 25.28800
C  49.37500 34.80400 24.48700
C  49.75400 33.84800 23.36700
C  48.72300 32.68000 23.54400
C  47.98400 33.08100 24.86600
C  49.78400 34.43800 21.87000
C  49.32400 31.29700 23.55000
C  48.71200 30.35700 22.55900
N  46.82700 33.42600 27.49700
C  46.48200 32.37200 26.66900
C  45.50600 31.41800 27.33100
C  45.43400 31.97800 28.61200
C  46.20300 33.15900 28.66700
C  44.80500 30.15800 26.81000
C  44.85000 31.78700 29.89600
O  44.22200 30.83500 30.32400
C  45.26000 32.98200 30.78500
C  45.74600 32.47900 32.07600
O  46.84200 31.96900 32.38500
O  44.71800 32.46500 32.95000
C  45.12000 32.14000 34.41400
H  49.10000 38.81700 29.68500
H  50.67600 36.28100 23.78600
H  46.71000 31.40300 24.77600
H  46.15000 35.55400 32.13100
H  48.35300 37.57200 31.70500
H  45.51900 37.74600 31.75300
H  46.29300 38.72900 30.43600
H  46.86600 38.80300 32.16200
H  48.86900 35.80300 32.75700
H  48.70500 34.15000 32.25400
H  48.19400 33.89000 34.53500
H  46.63500 34.49000 33.91600
H  51.73000 39.97100 28.19400
H  50.05800 40.22100 28.60700
H  50.65300 40.86900 27.03000
H  51.52100 40.90200 24.93200
H  53.08100 40.45800 24.22500
H  52.81500 40.41700 25.97800
H  50.80300 33.55500 23.39600
H  47.93800 32.75100 22.79100
H  49.59100 35.50100 22.01100
H  48.92600 34.18400 21.24800
H  50.72000 34.30800 21.32800
H  49.19100 30.99900 24.58900
H  50.39800 31.31800 23.36500
H  47.80900 29.81800 22.84300
H  49.36900 29.55100 22.23200
H  48.45200 30.91700 21.66100
H  45.14500 29.34500 27.45100
H  45.06500 29.80100 25.81300
H  43.72800 30.26400 26.93900
H  44.36800 33.56300 31.01900
H  46.11200 32.38400 34.79400
H  45.05200 31.06100 34.55200
H  44.50700 32.62600 35.17400

