158

Mg -1.24300 17.94700 27.35300
C  -2.21800 15.80400 30.08100
C  -1.53800 20.63200 29.31900
C  -0.95500 19.70500 24.56300
C  -1.46400 14.85000 25.34200
N  -1.85400 18.15300 29.41400
C  -2.05800 17.21200 30.40300
C  -2.37800 17.80600 31.76900
C  -2.31800 19.32900 31.39800
C  -1.82500 19.39700 29.99200
C  -3.68300 20.16100 31.74700
C  -1.27600 17.53700 32.87300
C  -1.71800 17.10000 34.20400
H  -0.61400 16.48100 35.14300
N  -1.16200 19.85800 27.01800
C  -1.27100 20.88000 27.96700
C  -1.04000 22.19600 27.31300
C  -0.91600 21.94300 25.93100
C  -0.97500 20.47600 25.76800
C  -1.20500 23.57700 27.98500
C  -0.82200 22.90000 24.68700
O  -0.87900 22.44500 23.52000
C  -0.67900 24.37800 24.89300
N  -1.53700 17.35100 25.23300
C  -1.17500 18.29500 24.33200
C  -0.90300 17.62300 22.91500
C  -0.88400 16.11600 23.27500
C  -1.33200 16.06500 24.74300
C  -1.80500 18.05700 21.75600
C  0.41800 15.34600 23.01100
C  1.68600 15.82900 23.77500
N  -1.79100 15.78200 27.59200
C  -1.68500 14.69800 26.73500
C  -2.00100 13.46000 27.40600
C  -2.26200 13.89100 28.73800
C  -2.15500 15.25300 28.80700
C  -2.07400 11.96800 26.81800
C  -2.70500 13.31600 30.03300
O  -3.00700 12.14900 30.34900
C  -2.67000 14.61600 30.91700
C  -1.66300 14.32700 32.01700
O  -0.46000 14.43700 31.82800
O  -2.22200 13.72000 33.10800
C  -1.27100 13.06000 34.08000
H  -1.71300 21.45100 30.02000
H  -0.82000 20.20700 23.60200
H  -1.63300 13.97400 24.71300
H  -3.33800 17.39100 32.07600
H  -1.64700 19.86400 32.07000
H  -3.90800 20.82000 30.90900
H  -3.44000 20.80500 32.59200
H  -4.48500 19.45100 31.95000
H  -0.78600 18.46200 33.17600
H  -0.42900 16.90900 32.59600
H  -2.40700 16.26800 34.05900
H  -2.29400 17.86100 34.73100
H  -1.86600 23.52400 28.85000
H  -1.72100 24.28200 27.33400
H  -0.25600 24.03100 28.27200
H  0.11800 24.38700 25.63600
H  -1.62200 24.77800 25.26500
H  -0.44300 24.84400 23.93600
H  0.07300 18.01000 22.62200
H  -1.64200 15.52400 22.76100
H  -2.86900 17.86400 21.88900
H  -1.61900 17.39100 20.91300
H  -1.57300 19.07900 21.45700
H  0.59600 15.43100 21.93900
H  0.22900 14.27900 23.12000
H  2.12300 14.84700 23.95800
H  1.44700 16.38900 24.67900
H  2.29800 16.35000 23.03800
H  -1.31200 11.35000 27.29300
H  -1.87500 11.99900 25.74700
H  -3.02600 11.53900 27.13000
H  -3.58300 14.77900 31.48900
H  -1.91300 13.07800 34.96100
H  -0.29200 13.49800 34.27600
H  -1.15100 12.02100 33.77500
Mg 34.81300 3.50600 29.72800
C  32.85900 4.52800 32.36900
C  37.49400 3.22000 31.80800
C  36.82600 3.02100 27.07900
C  32.04500 3.83400 27.53500
N  35.17800 4.08400 31.91800
C  34.14000 4.15800 32.84400
C  34.76100 4.06000 34.23500
C  36.33100 3.84200 34.01000
C  36.36700 3.74600 32.43200
C  37.30900 4.98800 34.45200
C  34.09600 2.80900 34.94200
C  33.60300 3.07600 36.42600
H  34.27300 4.21400 37.15000
N  36.92700 3.08800 29.53000
C  37.82700 2.94200 30.49500
C  39.08800 2.42200 29.89000
C  38.88700 2.38700 28.46400
C  37.52700 2.86200 28.28500
C  40.28300 2.05500 30.70500
C  39.78700 1.90800 27.34200
O  39.49500 2.00200 26.12700
C  41.08000 1.23000 27.76800
N  34.42600 3.19200 27.62100
C  35.44500 3.17800 26.74300
C  34.93200 3.04100 25.32900
C  33.41800 2.98600 25.49800
C  33.25800 3.40400 26.96000
C  35.33100 4.32800 24.48600
C  32.76300 1.58800 25.19800
C  31.96600 1.47000 23.85900
N  32.89300 4.13300 29.88600
C  31.86700 4.24700 28.92100
C  30.64400 4.63800 29.58700
C  31.06400 4.84700 30.95500
C  32.41300 4.58800 31.03200
C  29.30500 4.71500 29.03000
C  30.52100 5.13700 32.26600
O  29.33500 5.32400 32.57700
C  31.66300 4.95300 33.25700
C  31.97800 6.16900 33.96300
O  32.52800 7.18300 33.60400
O  31.28100 6.06900 35.14000
C  31.09400 7.30000 35.90300
H  38.30000 3.02600 32.51900
H  37.34900 2.80900 26.14400
H  31.15000 3.68100 26.92800
H  34.61600 5.01000 34.75000
H  36.76900 2.92800 34.41000
H  38.13600 4.56600 35.02400
H  36.89400 5.81000 35.03400
H  37.78100 5.43100 33.57500
H  34.88100 2.05300 34.93400
H  33.29400 2.40000 34.32800
H  33.64600 2.17700 37.04100
H  32.56800 3.39900 36.31600
H  41.16400 2.47600 30.21900
H  40.44500 0.97800 30.66600
H  40.11900 2.42600 31.71600
H  41.39600 0.66900 26.88800
H  41.09900 0.57600 28.63900
H  41.81600 2.02500 27.88800
H  35.24100 2.17900 24.73800
H  32.95500 3.73200 24.85200
H  36.07400 4.83500 25.10200
H  34.55200 5.05900 24.26900
H  35.67700 4.05400 23.48900
H  32.19000 1.23600 26.05600
H  33.59000 0.88200 25.11900
H  30.96100 1.37700 24.27000
H  32.20900 0.63400 23.20200
H  31.99100 2.31400 23.16900
H  28.83500 5.68100 29.21000
H  28.64800 3.97800 29.49300
H  29.29500 4.64800 27.94200
H  31.61000 4.25600 34.09400
H  30.97300 7.13500 36.97400
H  30.38600 7.90400 35.33700
H  31.99900 7.90700 35.88800

