158

Mg 46.67500 24.81800 28.22600
C  47.23900 27.27800 30.59300
C  45.90400 22.59800 30.87900
C  46.19600 22.58800 25.87400
C  47.49700 27.15700 25.69000
N  46.48400 25.02800 30.56600
C  46.78300 26.10000 31.23000
C  46.64000 25.86600 32.72100
C  46.42600 24.27600 32.86100
C  46.24100 23.91700 31.35700
C  47.55600 23.49100 33.58600
C  45.46700 26.70000 33.34700
C  44.81700 26.27100 34.68800
H  44.83700 27.08200 35.99500
N  46.17600 22.88400 28.29600
C  45.84000 22.15000 29.51700
C  45.54700 20.77900 29.05000
C  45.52400 20.78600 27.62600
C  46.03000 22.10400 27.22400
C  45.27300 19.64400 30.01900
C  45.12400 19.75500 26.67900
O  45.47300 19.75900 25.48600
C  44.45300 18.42000 27.13000
N  46.84600 24.91900 26.08100
C  46.56100 23.78000 25.35700
C  46.67700 24.07500 23.84100
C  46.82200 25.61100 23.79100
C  47.00400 25.94600 25.25000
C  47.85700 23.34800 23.21800
C  45.54200 26.38000 23.24400
C  45.67800 27.07400 21.90500
N  47.24900 26.75600 28.12300
C  47.65800 27.54100 27.01500
C  48.32800 28.77200 27.52700
C  48.05800 28.75700 28.91400
C  47.46900 27.48400 29.21700
C  48.92100 29.89400 26.80700
C  48.26900 29.53000 30.13100
O  48.75700 30.60500 30.42400
C  47.75000 28.54000 31.32500
C  48.91200 28.14400 32.29400
O  50.01900 27.83000 32.00800
O  48.60300 28.56400 33.50500
C  49.59700 28.52600 34.56100
H  45.58800 21.95000 31.69900
H  45.86900 21.96500 25.03800
H  47.64800 27.89700 24.90200
H  47.51600 26.22100 33.26400
H  45.48700 24.03400 33.36100
H  47.79100 22.61100 32.98800
H  47.20000 23.14200 34.55600
H  48.41000 24.15700 33.70100
H  44.60800 26.73900 32.67800
H  45.89200 27.64800 33.67700
H  45.43300 25.40300 34.92200
H  43.81000 25.90700 34.48400
H  44.20000 19.45100 30.02500
H  45.68700 19.95900 30.97700
H  45.82700 18.73200 29.80000
H  44.02700 17.96000 26.23800
H  43.77500 18.51700 27.97800
H  45.31000 17.84800 27.48600
H  45.73000 23.77900 23.39100
H  47.75500 25.91900 23.31900
H  48.03600 22.41600 23.75400
H  48.83100 23.82100 23.33600
H  47.71800 23.13600 22.15800
H  45.31500 27.20500 23.91900
H  44.71400 25.67400 23.30200
H  45.41000 28.12400 22.01700
H  44.97300 26.60600 21.21800
H  46.71400 27.07800 21.56600
H  49.16900 29.61400 25.78300
H  49.86100 30.18900 27.27500
H  48.23600 30.72300 26.98500
H  46.98800 29.12800 31.83600
H  49.19700 28.71700 35.55700
H  50.30200 29.32200 34.31900
H  50.13100 27.57600 34.55000
Mg 0.19500 43.84700 26.93600
C  2.62700 43.83500 29.55900
C  -2.12100 43.11800 29.33800
C  -1.89800 43.25400 24.42200
C  2.88100 44.47200 24.66100
N  0.34800 43.63900 29.24300
C  1.34600 43.63000 30.10300
C  0.79300 43.62600 31.56100
C  -0.63700 43.06600 31.36800
C  -0.83400 43.16600 29.89500
C  -1.00800 41.70300 31.94000
C  0.88600 45.02300 32.27700
C  1.41300 44.99800 33.66400
H  0.93000 43.78700 34.53300
N  -1.79000 43.42200 26.87700
C  -2.54200 43.19800 27.97600
C  -3.93400 43.10500 27.50100
C  -3.89700 42.88400 26.04800
C  -2.49100 43.20700 25.73600
C  -5.12900 42.92600 28.44700
C  -5.03400 42.44000 25.21700
O  -4.85100 42.09200 24.06000
C  -6.47500 42.17800 25.72300
N  0.50100 43.90400 24.89300
C  -0.55300 43.60400 24.03300
C  -0.18100 43.62100 22.58200
C  1.25400 44.38400 22.67400
C  1.62800 44.22500 24.14900
C  -0.29800 42.27000 21.88400
C  1.17600 45.95300 22.27800
C  2.03200 46.34600 21.06000
N  2.29900 44.07000 27.05200
C  3.24300 44.28000 26.03600
C  4.56600 44.31100 26.59700
C  4.30300 44.15700 27.98000
C  2.98900 44.09400 28.17900
C  5.82300 44.44900 25.86500
C  4.99500 44.00600 29.26100
O  6.18100 43.90100 29.49000
C  3.94100 43.94900 30.35100
C  4.16000 42.79500 31.27800
O  4.07900 41.64900 30.86600
O  4.65000 43.09600 32.52600
C  4.95900 41.89400 33.36200
H  -2.91000 42.81500 30.02900
H  -2.55500 42.93600 23.60900
H  3.65900 44.74300 23.94400
H  1.43800 42.91000 32.07100
H  -1.32600 43.80400 31.78000
H  -0.50600 40.93800 31.34800
H  -2.09800 41.70600 31.91500
H  -0.61300 41.70600 32.95600
H  -0.06100 45.56000 32.31200
H  1.46800 45.63900 31.59100
H  1.27500 45.91800 34.23300
H  2.47800 44.78000 33.59100
H  -5.85900 43.73500 28.41700
H  -4.82200 42.65200 29.45700
H  -5.60000 42.02000 28.06600
H  -6.42300 41.24200 26.27900
H  -7.07500 42.14900 24.81400
H  -6.90800 42.99100 26.30600
H  -0.90200 44.25300 22.06400
H  1.94700 43.86900 22.00800
H  -0.63200 42.47800 20.86800
H  -0.91900 41.54100 22.40500
H  0.71300 41.93100 21.65800
H  1.49700 46.54100 23.13800
H  0.14800 46.19100 22.00400
H  1.32500 46.78700 20.35600
H  2.50000 45.46800 20.61600
H  2.76000 47.12100 21.29800
H  5.77100 43.95500 24.89500
H  6.68900 44.22300 26.48800
H  5.79200 45.51000 25.61900
H  4.01400 44.83900 30.97600
H  5.84700 41.32800 33.08000
H  4.08700 41.24100 33.35700
H  5.00200 42.25400 34.39000

