158

Mg 24.12000 -5.71400 45.23500
C  26.46700 -3.63900 43.97100
C  21.83700 -4.35500 43.24400
C  22.26900 -8.57500 45.58700
C  26.67900 -7.35200 47.07200
N  24.14900 -4.12800 43.89400
C  25.17800 -3.34100 43.53800
C  24.78600 -2.30500 42.45300
C  23.21600 -2.27700 42.66200
C  23.00300 -3.67700 43.27000
C  22.64200 -1.16100 43.53300
C  25.29500 -2.79300 41.01500
C  26.13400 -1.87600 40.11400
H  25.77600 -1.93000 38.62800
N  22.26200 -6.39400 44.53000
C  21.39800 -5.62300 43.77200
C  20.22000 -6.35100 43.49000
C  20.34000 -7.59500 44.17300
C  21.64700 -7.61000 44.80600
C  19.04300 -5.76300 42.80400
C  19.31200 -8.70500 44.18000
O  18.29400 -8.58700 43.48400
C  19.47600 -9.94600 44.94600
N  24.52800 -7.80100 46.10900
C  23.50100 -8.65600 46.22500
C  23.85200 -9.77000 47.27900
C  25.22100 -9.29300 47.92300
C  25.48300 -8.02900 47.02700
C  22.69200 -10.01700 48.31000
C  26.33300 -10.31700 47.86100
C  26.99100 -10.62200 49.22800
N  26.18800 -5.60400 45.51200
C  27.13500 -6.29200 46.30100
C  28.47600 -5.78100 46.08300
C  28.27300 -4.76700 45.16200
C  26.89500 -4.65900 44.88200
C  29.70600 -6.20000 46.93100
C  28.87500 -3.66300 44.38800
O  30.08400 -3.30300 44.40300
C  27.76000 -2.95200 43.54000
C  27.91400 -1.49100 43.86000
O  28.54800 -0.66100 43.25000
O  27.22700 -1.24500 45.04900
C  27.39100 0.14700 45.50100
H  21.05100 -3.91300 42.62800
H  21.66200 -9.48200 45.62300
H  27.48400 -7.68400 47.73100
H  25.19200 -1.33500 42.73900
H  22.75000 -2.18500 41.68000
H  23.43100 -0.48000 43.84900
H  22.09200 -1.57300 44.37900
H  21.97800 -0.61800 42.86000
H  24.45300 -3.23700 40.48500
H  25.88700 -3.69700 41.15500
H  27.16700 -2.19200 40.25800
H  25.92300 -0.85600 40.43500
H  18.65200 -6.46700 42.06900
H  19.24400 -4.79200 42.35200
H  18.25900 -5.62900 43.54900
H  20.31900 -10.55600 44.62100
H  18.63000 -10.60800 44.76600
H  19.37600 -9.62000 45.98100
H  24.04400 -10.68700 46.72300
H  25.09000 -8.91600 48.93700
H  22.20400 -10.97400 48.12500
H  21.94700 -9.22300 48.37100
H  23.16400 -10.24500 49.26500
H  27.01600 -9.96800 47.08700
H  25.97400 -11.24000 47.40700
H  26.20800 -10.95000 49.91200
H  27.47300 -9.69900 49.55000
H  27.61400 -11.51500 49.17000
H  30.21500 -7.04800 46.47300
H  29.34600 -6.51300 47.91100
H  30.39200 -5.38300 47.15100
H  27.97100 -3.02000 42.47300
H  26.70300 0.37000 46.31700
H  27.35800 0.97600 44.79400
H  28.38600 0.20500 45.94300
Mg 42.32500 41.02700 26.07500
C  41.43500 43.47700 28.54300
C  43.53900 39.05000 28.54100
C  43.22500 39.05600 23.66900
C  41.44300 43.50200 23.74300
N  42.43600 41.20900 28.25500
C  41.99800 42.29400 29.05600
C  42.09500 41.92000 30.53300
C  42.81900 40.48000 30.55000
C  42.94700 40.21500 29.02200
C  44.17300 40.49200 31.34900
C  40.71200 41.78400 31.27900
C  40.81400 41.69900 32.84400
H  40.19200 42.88700 33.63900
N  43.14800 39.14700 26.11400
C  43.59700 38.47000 27.26700
C  44.10100 37.22100 26.78400
C  43.93100 37.17600 25.33700
C  43.39200 38.45700 24.94300
C  44.80100 36.26700 27.70000
C  44.20800 35.97100 24.36800
O  44.01500 36.07600 23.18600
C  44.69100 34.56500 24.88900
N  42.33600 41.34000 24.03900
C  42.70000 40.25500 23.28700
C  42.35500 40.47300 21.76800
C  41.55400 41.86200 21.85300
C  41.78800 42.28800 23.29000
C  43.61000 40.53400 20.79700
C  40.02900 41.66100 21.49200
C  39.15400 40.99500 22.51200
N  41.65100 43.11500 26.08400
C  41.38100 43.99900 25.03000
C  41.00400 45.28800 25.53000
C  40.94000 45.11300 26.93600
C  41.30700 43.75400 27.19200
C  40.67100 46.47300 24.77200
C  40.61300 45.78400 28.19400
O  40.15500 46.87800 28.41300
C  40.81900 44.70300 29.25100
C  41.69500 45.26900 30.35600
O  42.89600 45.27200 30.29500
O  41.09300 45.78600 31.42000
C  41.84700 46.36200 32.45500
H  43.86100 38.44000 29.38800
H  43.54700 38.43300 22.83200
H  41.25500 44.27900 22.99900
H  42.63500 42.69400 31.07900
H  42.13600 39.77000 31.01700
H  44.38800 39.71900 32.08700
H  44.16600 41.46000 31.85000
H  45.03500 40.43200 30.68500
H  40.22800 40.90900 30.84500
H  40.16300 42.67100 30.96400
H  41.86100 41.59500 33.12700
H  40.33300 40.76500 33.13500
H  44.65600 35.23900 27.36700
H  44.28300 36.36500 28.65400
H  45.84100 36.45900 27.96300
H  44.08500 34.18300 25.71000
H  45.75200 34.70600 25.09800
H  44.69700 33.91800 24.01200
H  41.74600 39.67300 21.34600
H  42.00400 42.55100 21.13700
H  44.46600 40.37700 21.45400
H  43.71600 41.49200 20.28900
H  43.52800 39.70700 20.09200
H  40.01900 41.12300 20.54400
H  39.54800 42.60900 21.25000
H  38.99900 39.97700 22.15600
H  38.18500 41.49200 22.56100
H  39.58300 40.92400 23.51100
H  40.07800 46.38100 23.86200
H  41.62800 46.91000 24.48500
H  40.19400 47.20600 25.42300
H  39.87200 44.41900 29.71000
H  42.72400 46.86000 32.04100
H  42.18400 45.57700 33.13200
H  41.17300 46.98900 33.04000

