158

Mg 25.78600 0.86900 29.07600
C  27.60300 0.30500 32.06900
C  22.86200 1.12100 31.09000
C  24.09100 0.70100 26.37600
C  28.75600 0.02100 27.28000
N  25.29100 0.61600 31.37700
C  26.22900 0.48900 32.35900
C  25.55000 0.63400 33.74300
C  24.02600 0.73900 33.40900
C  24.02700 0.87100 31.90100
C  23.04700 -0.27500 34.03100
C  26.24600 1.69900 34.63300
C  25.39200 2.31800 35.77700
H  26.20600 2.73000 36.99000
N  23.78400 1.00600 28.71100
C  22.76400 1.09400 29.65500
C  21.52800 1.16200 28.88600
C  21.85200 0.99900 27.44500
C  23.30900 0.89000 27.46000
C  20.24200 1.09000 29.65400
C  20.95200 0.99300 26.19700
O  21.30500 0.93800 24.99900
C  19.45100 1.00700 26.39100
N  26.43100 0.53800 27.11500
C  25.44600 0.64800 26.18700
C  25.95600 0.50800 24.77600
C  27.50600 0.38800 25.02000
C  27.57800 0.28200 26.51600
C  25.32000 -0.63200 23.88400
C  28.37600 1.62500 24.54900
C  29.80200 1.27700 24.10900
N  27.82700 0.37600 29.52600
C  28.89400 0.06100 28.69100
C  30.12100 -0.18600 29.47700
C  29.59800 -0.14300 30.81900
C  28.21800 0.16000 30.77100
C  31.49200 -0.36800 28.95800
C  29.98800 -0.23900 32.22100
O  31.09100 -0.55100 32.68200
C  28.73000 0.07200 33.08000
C  28.40800 -0.96500 34.08300
O  27.86100 -2.05900 33.93800
O  28.98900 -0.65000 35.32100
C  28.86800 -1.63200 36.40600
H  21.99800 1.48600 31.64900
H  23.58000 0.63400 25.41300
H  29.62800 -0.06300 26.62900
H  25.75700 -0.29300 34.27700
H  23.75000 1.73300 33.76000
H  22.27100 -0.53900 33.31300
H  22.58000 0.19200 34.89800
H  23.53900 -1.18600 34.37300
H  26.55100 2.49700 33.95500
H  27.12300 1.31500 35.15400
H  24.68200 1.57600 36.14400
H  24.86700 3.16100 35.32700
H  19.62700 1.94300 29.36700
H  20.45100 0.91300 30.70900
H  19.85200 0.15300 29.25600
H  19.27400 0.75500 27.43700
H  19.07100 0.16800 25.80800
H  19.01300 1.98100 26.17500
H  25.75100 1.48500 24.33800
H  27.77200 -0.59600 24.63500
H  24.65100 -1.31700 24.40500
H  25.99600 -1.28200 23.32900
H  24.75600 -0.08400 23.12900
H  28.49600 2.34500 25.35900
H  27.78400 2.23400 23.86700
H  30.60700 1.66300 24.73500
H  29.93300 1.79000 23.15600
H  29.81900 0.19700 23.95900
H  31.61800 0.01000 27.94300
H  31.77800 -1.41800 29.02500
H  32.11500 0.14900 29.68800
H  28.81100 1.09900 33.43600
H  29.43700 -2.55500 36.29600
H  27.85100 -2.01600 36.48000
H  29.14300 -1.20800 37.37200
Mg 44.16000 3.67600 47.18600
C  42.13100 6.54200 46.72200
C  41.33600 1.77400 47.05300
C  46.16200 0.90500 47.27900
C  46.92200 5.73700 46.81600
N  41.93700 4.12500 46.68300
C  41.38900 5.35100 46.77500
C  39.80000 5.24600 46.83900
C  39.61900 3.68700 46.84100
C  41.04300 3.12500 46.86600
C  38.63100 3.17500 47.94200
C  39.18000 6.01900 45.68700
C  39.88900 5.88300 44.32900
H  38.91000 5.46500 43.23500
N  43.76000 1.61400 47.05000
C  42.54100 1.05000 47.12300
C  42.82100 -0.38600 47.29100
C  44.16100 -0.70100 47.10000
C  44.76800 0.63100 47.09100
C  41.66100 -1.34800 47.37800
C  44.81100 -2.04800 47.02200
O  44.15000 -3.11800 47.18800
C  46.34900 -2.22600 46.76100
N  46.23700 3.35200 46.94800
C  46.80500 2.18900 47.29500
C  48.30300 2.29000 47.62700
C  48.57900 3.81400 47.32800
C  47.17900 4.37100 46.97100
C  48.61900 1.82300 49.06200
C  49.58900 4.12100 46.20900
C  51.02300 4.53700 46.79600
N  44.47300 5.67600 46.78500
C  45.65700 6.39300 46.66300
C  45.42400 7.83300 46.58300
C  44.02200 7.93900 46.63200
C  43.50700 6.62500 46.68000
C  46.46800 8.88900 46.39000
C  42.92600 8.87700 46.52200
O  42.99600 10.12600 46.30800
C  41.63000 8.01700 46.69900
C  40.96400 8.43100 47.91700
O  41.34300 8.19100 49.05100
O  39.85100 9.14100 47.60000
C  39.25700 9.89000 48.72100
H  40.40300 1.20700 47.05300
H  46.84600 0.09000 47.52500
H  47.73800 6.46000 46.87100
H  39.66400 5.68400 47.82800
H  39.30900 3.38000 45.84200
H  38.70200 2.11200 48.16900
H  37.62400 3.40200 47.59100
H  38.76300 3.77000 48.84600
H  39.02700 7.04000 46.03800
H  38.18800 5.58200 45.57000
H  40.61300 5.07900 44.19500
H  40.26900 6.87400 44.08300
H  41.59500 -1.73500 48.39500
H  41.70300 -2.15400 46.64500
H  40.76000 -0.78300 47.14200
H  46.77200 -2.16200 47.76400
H  46.65200 -1.34700 46.19100
H  46.55700 -3.15600 46.23200
H  48.85000 1.61900 46.96500
H  48.91000 4.21000 48.28900
H  48.07000 0.88600 49.15800
H  48.16500 2.56900 49.71300
H  49.61400 1.54300 49.40900
H  49.23900 4.84000 45.46800
H  49.84400 3.23300 45.63200
H  51.85600 4.10800 46.23900
H  51.15300 4.20700 47.82700
H  50.97800 5.62500 46.84300
H  45.93700 9.72500 45.93500
H  47.27400 8.60200 45.71600
H  47.01000 9.22800 47.27300
H  40.93100 8.19000 45.88000
H  38.69000 10.78300 48.45700
H  40.01600 10.39500 49.31800
H  38.64000 9.31600 49.41300

