158

Mg -2.25900 17.36900 25.86400
C  -2.80200 15.17900 28.65000
C  -2.61100 20.00800 28.12800
C  -2.04700 19.41900 23.32700
C  -2.81400 14.61100 23.70600
N  -2.83500 17.53600 28.21300
C  -2.83300 16.50800 29.13500
C  -2.94500 17.03900 30.55200
C  -3.08000 18.61400 30.31100
C  -2.80200 18.76500 28.81800
C  -4.47100 19.11200 30.74000
C  -1.72600 16.54800 31.41300
C  -1.02500 17.37500 32.47000
H  -0.64500 16.58100 33.74800
N  -2.23500 19.40700 25.72800
C  -2.34500 20.33200 26.79200
C  -2.22400 21.70200 26.19400
C  -1.98300 21.60800 24.78400
C  -2.09800 20.05600 24.53800
C  -2.30700 22.94800 27.00800
C  -1.80600 22.62800 23.72700
O  -1.90100 22.39700 22.55500
C  -1.77200 24.03600 24.02200
N  -2.40500 17.08700 23.80400
C  -2.17100 18.11000 22.94000
C  -2.11500 17.65000 21.50300
C  -2.58200 16.14500 21.64700
C  -2.54500 15.87200 23.15000
C  -3.04200 18.47100 20.55700
C  -1.75300 15.10700 20.81000
C  -1.40100 15.45600 19.43700
N  -2.51600 15.26800 26.09800
C  -2.77400 14.32200 25.08600
C  -2.91100 12.98200 25.80900
C  -2.90700 13.30900 27.13400
C  -2.76900 14.70300 27.30800
C  -2.95800 11.67300 25.26100
C  -2.96100 12.75500 28.45500
O  -3.11600 11.57500 28.80100
C  -2.83900 13.92900 29.45500
C  -1.54300 13.71500 30.11700
O  -0.48400 14.15900 29.74100
O  -1.63100 12.97200 31.26300
C  -0.56100 12.73800 32.19700
H  -2.71300 20.88500 28.77000
H  -1.78100 20.13700 22.54900
H  -2.97100 13.70700 23.11400
H  -3.84800 16.56400 30.93700
H  -2.43000 19.28600 30.87100
H  -5.03500 18.33200 31.25000
H  -4.94800 19.29000 29.77600
H  -4.45700 20.00500 31.36500
H  -0.92000 16.42300 30.69000
H  -1.99600 15.58600 31.84700
H  -1.60200 18.26100 32.73400
H  -0.05300 17.79600 32.21000
H  -2.65300 22.72000 28.01700
H  -3.05300 23.64400 26.62400
H  -1.27700 23.30400 26.99200
H  -1.74100 24.72200 23.17600
H  -0.84800 24.14100 24.59000
H  -2.61300 24.29300 24.66600
H  -1.10100 17.63100 21.10300
H  -3.63700 15.98200 21.42300
H  -3.49500 19.38000 20.95400
H  -3.75100 17.81700 20.04800
H  -2.37700 18.84200 19.77700
H  -2.34100 14.19900 20.67700
H  -0.81300 14.86800 21.30800
H  -2.24400 15.95500 18.96000
H  -1.05300 14.64200 18.80100
H  -0.68100 16.27400 19.47500
H  -2.17500 11.08100 25.73300
H  -2.54800 11.65000 24.25100
H  -3.90500 11.13400 25.28700
H  -3.55900 13.89700 30.27300
H  -0.76000 13.16600 33.17900
H  0.39500 13.03200 31.76400
H  -0.58700 11.68000 32.45700
Mg 6.68100 53.74700 41.82600
C  6.22600 50.19800 41.58400
C  9.79400 53.13000 40.48800
C  7.21100 57.08200 41.78200
C  3.39600 54.15900 42.50600
N  7.85900 51.81000 41.16400
C  7.49000 50.55800 41.06900
C  8.56800 49.68800 40.47200
C  9.84200 50.60000 40.46700
C  9.09800 51.94100 40.69300
C  10.96200 50.39700 41.52700
C  8.14000 49.03500 39.19100
C  7.52900 49.94700 38.04600
H  6.94700 49.34700 36.75500
N  8.29700 54.94700 41.16800
C  9.44800 54.48400 40.55900
C  10.29700 55.63100 40.17200
C  9.69000 56.79200 40.72300
C  8.34700 56.34800 41.31500
C  11.65000 55.42600 39.36000
C  10.19900 58.17900 40.62400
O  11.28400 58.44400 40.10800
C  9.60400 59.29100 41.33900
N  5.51400 55.37100 42.14400
C  5.93300 56.68400 42.15400
C  4.87100 57.66500 42.65700
C  3.61500 56.70600 42.79800
C  4.20300 55.31700 42.46700
C  5.35700 58.28500 43.98400
C  2.34700 57.20000 41.94700
C  0.92400 56.89300 42.53100
N  5.12200 52.49400 42.27100
C  3.78100 52.75200 42.52300
C  3.09500 51.59300 42.74800
C  4.02600 50.52900 42.52400
C  5.22200 51.11400 42.11400
C  1.68000 51.44200 43.15400
C  4.22700 49.09100 42.48000
O  3.47000 48.23100 42.83700
C  5.57100 48.80300 41.83400
C  5.31200 48.11200 40.50900
O  4.95100 48.68400 39.45100
O  5.48600 46.73000 40.62400
C  5.31800 46.05600 39.37500
H  10.80100 52.96400 40.09700
H  7.46500 58.14400 41.81600
H  2.32600 54.30500 42.66600
H  8.69800 48.93400 41.24800
H  10.19000 50.53600 39.43600
H  10.72700 49.50200 42.10300
H  11.09900 51.23600 42.20800
H  11.94500 50.21400 41.09300
H  7.47100 48.20900 39.43400
H  9.10300 48.62000 38.89300
H  8.37400 50.52500 37.67300
H  6.89200 50.66100 38.56800
H  11.85100 56.28700 38.72200
H  11.66200 54.44800 38.87900
H  12.46800 55.32100 40.07300
H  8.84400 59.48200 40.58000
H  10.30500 60.12400 41.36800
H  9.35500 58.91800 42.33200
H  4.65200 58.48200 41.97000
H  3.39300 56.74600 43.86400
H  4.78100 57.89000 44.82100
H  5.05400 59.33000 44.05900
H  6.38500 58.03900 44.25200
H  2.36800 56.66000 41.00000
H  2.36800 58.26100 41.69500
H  0.42300 57.75900 42.96400
H  1.09000 56.11100 43.27100
H  0.42400 56.41500 41.68900
H  1.36100 52.17400 43.89600
H  1.33400 50.48900 43.55500
H  1.13900 51.74600 42.25800
H  6.24500 48.19800 42.44200
H  6.13900 46.34100 38.71700
H  4.37700 46.12500 38.83000
H  5.39100 44.98900 39.58700

