158

Mg 48.33000 34.74500 27.58400
C  46.42300 33.39000 30.34500
C  49.07200 37.52900 29.77100
C  49.29800 36.52600 24.98100
C  47.22800 32.16100 25.74900
N  47.72000 35.35600 29.78000
C  47.10600 34.55900 30.69600
C  47.24000 35.07500 32.11400
C  47.82700 36.48900 31.85600
C  48.27400 36.48400 30.37400
C  46.88900 37.66100 32.16400
C  48.18800 34.04200 32.84400
C  47.99900 33.91300 34.31600
H  47.60900 35.12300 35.20900
N  49.23600 36.71100 27.49300
C  49.46900 37.68000 28.40200
C  50.23300 38.79300 27.78700
C  50.22800 38.49800 26.41700
C  49.62900 37.23200 26.24200
C  50.77100 39.97700 28.52500
C  50.75800 39.39000 25.24800
O  50.65000 39.04700 24.07400
C  51.45400 40.74700 25.49500
N  48.42400 34.33900 25.61700
C  48.83100 35.21200 24.66100
C  48.56500 34.66000 23.29600
C  48.20200 33.20600 23.61500
C  47.94900 33.20900 25.11700
C  47.57500 35.48300 22.44300
C  49.23300 32.20800 23.07800
C  50.53200 31.99400 23.88300
N  47.14900 33.06500 27.90100
C  46.76600 32.05900 27.08800
C  45.97400 31.05400 27.70000
C  45.73500 31.62100 28.97500
C  46.55300 32.73900 29.07100
C  45.51900 29.81300 27.01900
C  44.93400 31.39200 30.20200
O  44.20200 30.50000 30.53700
C  45.21800 32.65200 31.05300
C  45.59100 32.26000 32.47900
O  46.34400 31.36100 32.88900
O  44.75600 32.95100 33.28000
C  44.51100 32.45100 34.69700
H  49.42300 38.34700 30.40400
H  49.36900 37.08200 24.04400
H  46.92400 31.35800 25.07400
H  46.29900 35.07900 32.66500
H  48.73200 36.63300 32.44700
H  45.94400 37.31800 32.58500
H  46.62800 38.06900 31.18800
H  47.34200 38.47400 32.73100
H  49.21200 34.40500 32.76100
H  48.09600 33.07800 32.34300
H  48.91300 33.49600 34.73900
H  47.25400 33.12200 34.40000
H  51.82700 39.81300 28.74200
H  50.29100 39.93500 29.50200
H  50.58700 41.00300 28.20500
H  50.71200 41.42700 25.91300
H  51.83600 41.15500 24.55900
H  52.29600 40.68800 26.18500
H  49.45600 34.69800 22.66800
H  47.20600 32.99900 23.22400
H  47.01400 36.11700 23.12900
H  46.92700 34.84900 21.83700
H  48.17000 36.07700 21.74800
H  49.52000 32.42800 22.05000
H  48.67400 31.27300 23.04600
H  51.40100 32.06700 23.22900
H  50.49300 31.03200 24.39500
H  50.71700 32.78000 24.61500
H  46.34000 29.44100 26.40700
H  44.63300 30.02600 26.42100
H  45.25100 29.05400 27.75500
H  44.38300 33.34800 30.97100
H  43.43700 32.27000 34.73600
H  44.79100 33.22000 35.41700
H  44.91600 31.46800 34.93700
Mg 1.58900 43.14000 25.54100
C  3.24000 43.12700 28.62300
C  -1.21400 41.94200 27.24700
C  0.29900 42.54900 22.53100
C  4.58000 43.96700 24.01600
N  1.03100 42.77500 27.74800
C  1.83100 42.88500 28.84800
C  1.05600 42.55800 30.10200
C  -0.24800 41.95000 29.54900
C  -0.19100 42.27400 28.09900
C  -0.40900 40.40300 29.83200
C  1.00000 43.80800 30.96800
C  1.54300 43.69100 32.39800
H  0.58100 43.03800 33.42200
N  -0.20600 42.32600 24.93100
C  -1.26100 41.90100 25.80400
C  -2.43700 41.54800 24.93400
C  -2.02800 41.70800 23.54200
C  -0.59100 42.19700 23.61300
C  -3.66700 41.13400 25.60500
C  -2.82600 41.59200 22.20200
O  -2.42200 41.68000 21.05600
C  -4.29700 41.39700 22.28000
N  2.37300 43.17400 23.55300
C  1.60200 43.01700 22.49300
C  2.38100 43.32400 21.14100
C  3.64100 44.06500 21.70400
C  3.51600 43.74000 23.20900
C  2.57200 42.11700 20.15600
C  3.63700 45.62400 21.26400
C  4.67200 45.97900 20.22100
N  3.48300 43.55000 26.10000
C  4.63300 43.78200 25.38600
C  5.77600 43.98000 26.27900
C  5.24700 43.68100 27.52400
C  3.87000 43.43700 27.41300
C  7.23300 44.28300 25.88500
C  5.72300 43.35400 28.83700
O  6.88000 43.21200 29.30400
C  4.35800 43.16400 29.66800
C  4.50300 41.85600 30.46100
O  4.52100 40.70400 30.01700
O  4.69600 42.21500 31.83400
C  4.67300 41.23000 32.88100
H  -2.05300 41.56800 27.83700
H  -0.17200 42.54200 21.54600
H  5.41700 44.32200 23.41200
H  1.75100 41.88900 30.60800
H  -1.04900 42.52800 30.01000
H  0.48900 40.08900 30.36500
H  -0.41700 39.89000 28.87000
H  -1.29500 40.11200 30.39500
H  -0.04500 44.07300 31.13100
H  1.46500 44.66600 30.48300
H  1.78900 44.72700 32.63000
H  2.43900 43.08000 32.29200
H  -3.45700 40.79000 26.61800
H  -4.06200 40.25100 25.10200
H  -4.49100 41.82500 25.78600
H  -4.77700 41.58200 21.31900
H  -4.77500 42.11000 22.95100
H  -4.46600 40.42700 22.74600
H  1.75500 43.99100 20.54800
H  4.63900 43.70600 21.45500
H  3.60900 41.86500 20.37400
H  2.65100 42.48800 19.13400
H  1.86600 41.30300 20.32100
H  3.81400 46.15700 22.19800
H  2.68800 45.95700 20.84500
H  4.11400 46.29100 19.33800
H  5.34900 45.13900 20.06800
H  5.27000 46.82000 20.57100
H  7.44600 45.33600 25.70200
H  7.43900 43.78200 24.93900
H  7.87700 43.97400 26.70900
H  4.16400 44.00200 30.33700
H  5.13400 41.55900 33.81300
H  5.21600 40.36400 32.50300
H  3.67800 40.80900 33.02900

