158

Mg 2.02800 -1.82700 44.50700
C  5.32000 -1.06000 43.75700
C  1.06000 0.83500 42.42700
C  -1.14900 -2.73300 44.96300
C  3.04500 -4.96400 45.72000
N  3.09400 -0.32100 43.17800
C  4.43400 -0.21800 43.04600
C  4.85100 0.86800 42.00600
C  3.47200 1.47900 41.61900
C  2.45500 0.70300 42.49100
C  3.29400 3.03100 41.60900
C  5.67500 0.39700 40.75500
C  6.67400 1.47700 40.28400
H  6.30000 2.17300 39.01800
N  0.19100 -0.92400 43.96200
C  -0.03300 0.11400 43.10700
C  -1.48600 0.40800 43.02900
C  -2.11900 -0.62200 43.80100
C  -0.99300 -1.47900 44.30500
C  -1.91600 1.58400 42.26400
C  -3.64400 -0.78400 43.91600
O  -4.36200 -0.06600 43.29900
C  -4.26800 -1.86900 44.69400
N  1.07200 -3.68100 45.10600
C  -0.23900 -3.71800 45.38800
C  -0.70100 -5.07300 45.96800
C  0.70900 -5.77500 46.16200
C  1.66600 -4.82800 45.52800
C  -1.56200 -5.10700 47.23900
C  0.84100 -7.24100 45.53500
C  1.19000 -8.35500 46.51800
N  3.78500 -2.86300 44.80300
C  4.11100 -4.06500 45.38800
C  5.54500 -4.13400 45.56500
C  6.02900 -2.97000 44.94200
C  4.92700 -2.26800 44.45300
C  6.34300 -5.25100 46.09100
C  7.28800 -2.25700 44.60900
O  8.40100 -2.58100 44.97400
C  6.86900 -0.96500 43.76000
C  7.38700 0.17600 44.46200
O  7.00000 0.59700 45.53600
O  8.36400 0.74900 43.70300
C  9.07800 1.83100 44.38400
H  0.69700 1.62900 41.77100
H  -2.19200 -3.01700 45.11900
H  3.39600 -5.85100 46.25100
H  5.49600 1.54700 42.56400
H  3.27000 1.34200 40.55700
H  2.74300 3.46200 42.44500
H  3.09500 3.37800 40.59500
H  4.29200 3.37900 41.87400
H  5.03500 0.23400 39.88800
H  6.16200 -0.54600 41.00300
H  7.61500 0.94600 40.14000
H  6.73100 2.22600 41.07400
H  -2.06400 1.33600 41.21400
H  -1.23200 2.43100 42.32400
H  -2.88900 1.85000 42.67700
H  -5.35700 -1.84700 44.75100
H  -3.80700 -1.76900 45.67700
H  -3.97700 -2.80400 44.21600
H  -1.33100 -5.48200 45.17800
H  0.92100 -5.82200 47.23000
H  -1.75000 -4.08600 47.57000
H  -1.04700 -5.64700 48.03300
H  -2.58800 -5.35200 46.96200
H  1.63800 -7.17000 44.79500
H  0.01500 -7.44200 44.85200
H  1.44100 -7.98400 47.51200
H  2.13200 -8.76100 46.15000
H  0.40600 -9.11000 46.56700
H  7.40200 -5.04000 46.24200
H  6.23700 -6.09800 45.41300
H  6.04700 -5.36000 47.13400
H  7.40700 -1.10600 42.82300
H  8.39800 2.50600 44.90300
H  9.55200 2.46300 43.63300
H  9.77400 1.44000 45.12700
Mg 47.57400 25.13500 28.14600
C  48.62700 27.38100 30.69200
C  47.12400 22.74900 30.51700
C  46.96800 22.96300 25.63900
C  48.60700 27.49900 25.76300
N  47.92900 25.08500 30.32700
C  48.20800 26.10800 31.14100
C  47.81300 25.79400 32.56600
C  47.42300 24.25800 32.53800
C  47.46700 23.99600 31.03200
C  48.41600 23.23500 33.24200
C  46.84800 26.85700 33.32100
C  46.29300 26.39300 34.64600
H  46.12100 27.34000 35.78700
N  47.04900 23.18400 28.09900
C  46.90300 22.39500 29.19400
C  46.42500 21.15400 28.77600
C  46.37900 21.14100 27.31000
C  46.82300 22.48100 26.94400
C  45.98900 19.98900 29.73600
C  45.89300 20.04800 26.36700
O  45.97100 20.26400 25.14000
C  45.46800 18.70200 26.81400
N  47.76100 25.20200 26.03600
C  47.48700 24.17200 25.23600
C  47.68300 24.48500 23.78300
C  47.92400 25.99400 23.83000
C  48.13400 26.23700 25.32700
C  48.81900 23.71500 23.06300
C  46.69800 26.81900 23.37200
C  46.88600 28.08800 22.44600
N  48.57300 26.97000 28.17100
C  48.89200 27.79600 27.09000
C  49.45200 29.04700 27.60000
C  49.29000 28.92100 29.01900
C  48.78300 27.63700 29.31700
C  50.09500 30.21200 26.89800
C  49.35100 29.63700 30.25900
O  49.72800 30.77400 30.52400
C  48.85800 28.65800 31.40500
C  49.94000 28.74900 32.43900
O  51.17000 28.51800 32.30400
O  49.37100 29.19400 33.57000
C  50.10600 29.19500 34.86600
H  46.86300 22.14300 31.38700
H  47.02900 22.29300 24.77900
H  48.99900 28.05000 24.90600
H  48.77900 25.81100 33.07200
H  46.46500 24.27000 33.05800
H  49.03000 22.65900 32.54900
H  47.69700 22.73800 33.89300
H  49.10100 23.77400 33.89700
H  46.13000 27.20400 32.57800
H  47.45400 27.70900 33.62700
H  47.00100 25.63700 34.98400
H  45.36500 25.83400 34.52100
H  45.13900 19.48700 29.27400
H  45.69200 20.53200 30.63300
H  46.83800 19.32900 29.90800
H  44.55000 18.87700 27.37400
H  46.32500 18.42900 27.43100
H  45.39300 18.09100 25.91500
H  46.80900 24.31200 23.15500
H  48.85000 26.27800 23.32900
H  48.43300 23.53000 22.06100
H  49.12700 22.85000 23.65100
H  49.76800 24.24400 22.97900
H  46.09200 27.14200 24.21800
H  46.05600 26.13900 22.81300
H  46.55600 27.85600 21.43300
H  47.89800 28.48000 22.34800
H  46.33100 28.94100 22.83500
H  50.59300 29.83300 26.00600
H  50.86200 30.64000 27.54300
H  49.38300 30.99300 26.63600
H  47.92300 28.96900 31.87100
H  49.66700 28.45200 35.53300
H  50.00300 30.18100 35.31900
H  51.15400 28.95000 34.69200

