158

Mg 54.25000 24.50900 44.93100
C  51.62300 26.78700 44.23300
C  52.05100 21.93600 44.23800
C  56.93400 22.42800 44.85400
C  56.24300 27.05500 45.88400
N  52.03600 24.40900 44.33600
C  51.22000 25.47000 44.02400
C  49.85900 24.92500 43.52500
C  49.91600 23.42300 43.98300
C  51.39900 23.20000 44.20300
C  48.90600 23.14200 45.13700
C  49.50900 25.17100 42.03900
C  50.70400 25.25800 41.07700
H  51.54500 23.91800 40.95200
N  54.47700 22.43000 44.48400
C  53.41700 21.56100 44.30600
C  53.99100 20.23300 44.12500
C  55.38900 20.35900 44.19100
C  55.71300 21.77700 44.49300
C  53.05200 19.12800 43.79900
C  56.45000 19.18100 44.00400
O  56.07200 18.04200 43.86900
C  58.00500 19.43300 43.93700
N  56.42400 24.85200 45.08400
C  57.21200 23.77500 45.19500
C  58.68000 24.29900 45.55500
C  58.42400 25.79500 45.90000
C  56.92400 25.91700 45.62900
C  59.45800 23.53300 46.66300
C  59.28200 26.81800 45.13700
C  60.17600 27.83500 45.85100
N  54.03800 26.59300 44.92600
C  54.93300 27.46000 45.47700
C  54.25700 28.75200 45.56000
C  52.93200 28.56200 45.11900
C  52.85600 27.18600 44.77300
C  54.81000 30.01400 46.21000
C  51.63800 29.18100 44.79400
O  51.21500 30.34800 45.01200
C  50.78900 28.00600 44.17400
C  50.55800 28.48600 42.79800
O  51.41000 28.87000 42.03400
O  49.25900 28.42300 42.42500
C  48.96000 28.57700 40.98900
H  51.34600 21.10200 44.19300
H  57.74000 21.71600 45.04100
H  56.82100 27.85900 46.34500
H  49.15800 25.59100 44.02900
H  49.44600 22.81200 43.21200
H  48.83400 24.14000 45.56900
H  49.24000 22.40600 45.86800
H  47.96200 22.84800 44.67900
H  48.92700 26.09200 42.06900
H  48.77600 24.44600 41.68400
H  51.25900 26.19000 41.18900
H  50.26800 25.42000 40.09100
H  52.71300 19.41400 42.80300
H  52.15500 19.09000 44.41700
H  53.55800 18.16300 43.75400
H  58.11100 20.18900 43.15800
H  58.49400 18.51700 43.60600
H  58.46000 19.70800 44.88900
H  59.24400 24.26600 44.62200
H  58.54100 25.91900 46.97600
H  60.32000 23.05700 46.19500
H  58.85400 22.71700 47.06000
H  59.72500 24.04800 47.58600
H  58.55100 27.44700 44.62800
H  59.97200 26.46100 44.37300
H  60.21200 28.75200 45.26400
H  61.20700 27.53600 46.04100
H  59.84000 28.05200 46.86500
H  55.85000 29.80200 46.45700
H  54.11500 30.21000 47.02700
H  54.84200 30.88400 45.55500
H  49.84500 27.87000 44.70300
H  48.24000 27.76700 40.87700
H  49.79200 28.53700 40.28500
H  48.42900 29.52900 40.97100
Mg 6.85000 53.01500 40.23500
C  6.00800 49.59600 40.07600
C  10.02800 52.18400 39.57300
C  7.43700 56.25700 39.93200
C  3.39200 53.61700 40.64000
N  7.82400 51.11400 39.78800
C  7.37400 49.81500 39.82200
C  8.49300 48.77800 39.69900
C  9.73700 49.67500 39.79100
C  9.18600 51.06800 39.65300
C  10.65100 49.54100 41.02200
C  8.52200 47.99100 38.33900
C  8.41300 48.90800 37.15400
H  7.49800 48.56100 35.98000
N  8.44500 54.05000 39.74800
C  9.73100 53.55700 39.61600
C  10.64700 54.62300 39.30700
C  9.92600 55.84600 39.28900
C  8.58000 55.44200 39.68300
C  12.12100 54.36000 38.97900
C  10.46700 57.24700 38.88500
O  11.64100 57.43000 38.50100
C  9.53600 58.37200 38.62600
N  5.59600 54.70200 40.17300
C  6.08300 55.97300 40.23500
C  5.08700 57.00300 40.43600
C  3.72900 56.19000 40.43000
C  4.26200 54.72200 40.42500
C  5.35500 57.83100 41.74400
C  2.77000 56.30700 39.17200
C  1.42500 56.81800 39.44500
N  5.07100 51.89600 40.44000
C  3.70600 52.28200 40.62200
C  2.89200 51.18400 40.80400
C  3.74500 50.03300 40.59300
C  5.07300 50.59100 40.37200
C  1.40200 51.16600 41.06500
C  3.74500 48.52900 40.44500
O  2.86200 47.63800 40.49900
C  5.24300 48.23100 40.19800
C  5.24700 47.40400 38.94100
O  4.98900 47.75400 37.80200
O  5.54700 46.14100 39.32900
C  5.71400 45.07800 38.32200
H  11.04400 51.91400 39.27700
H  7.57600 57.33900 39.90200
H  2.34000 53.89200 40.74200
H  8.40700 48.12100 40.56500
H  10.33400 49.52200 38.89200
H  10.48400 50.37500 41.70400
H  11.67800 49.60100 40.66100
H  10.37800 48.60400 41.50800
H  7.69000 47.29100 38.26000
H  9.51200 47.53700 38.31000
H  9.40700 49.00800 36.71900
H  8.10800 49.91900 37.42300
H  12.30600 54.16200 37.92300
H  12.32400 53.44200 39.53100
H  12.81400 55.08600 39.40300
H  10.04700 59.27000 38.27900
H  9.10700 58.59300 39.60300
H  8.71000 58.12700 37.95700
H  5.01500 57.70600 39.60600
H  3.17000 56.41800 41.33700
H  6.15800 57.43400 42.36500
H  4.45000 57.98700 42.33100
H  5.78000 58.75900 41.36300
H  2.61200 55.36600 38.64500
H  3.20200 57.01900 38.46800
H  1.33600 57.40600 40.35900
H  0.67800 56.02700 39.36900
H  1.14700 57.39900 38.56500
H  0.90200 51.64700 40.22400
H  1.17000 51.55600 42.05600
H  1.05300 50.13500 41.11300
H  5.69900 47.66700 41.01100
H  4.73300 44.71700 38.01000
H  6.25100 44.19900 38.67800
H  6.27100 45.41400 37.44700

