158

Mg 47.76000 25.33600 29.55700
C  48.76900 27.40200 31.97500
C  46.41600 23.25500 31.98300
C  46.93600 22.95000 27.19100
C  49.38600 27.21600 27.15600
N  47.56400 25.39800 31.69700
C  47.98600 26.39100 32.48700
C  47.78800 26.11600 33.92700
C  47.06000 24.74200 33.90100
C  46.97900 24.42700 32.43500
C  47.84500 23.61300 34.75400
C  46.93500 27.20500 34.79500
C  47.30700 27.25600 36.33300
H  46.16700 26.97700 37.30300
N  46.56200 23.40400 29.52900
C  46.11500 22.75500 30.64600
C  45.49300 21.48600 30.26600
C  45.60600 21.38700 28.83200
C  46.44100 22.56800 28.44500
C  44.79900 20.60600 31.23200
C  45.06400 20.28100 27.90600
O  45.36700 20.18200 26.74500
C  44.24200 19.18600 28.44000
N  48.20400 25.02100 27.46300
C  47.61600 24.11700 26.71800
C  47.61500 24.49200 25.20100
C  48.36400 25.85800 25.20100
C  48.70400 26.04700 26.69500
C  48.12100 23.51000 24.10100
C  47.50200 27.09800 24.73200
C  48.26100 28.03300 23.65100
N  48.84000 26.91500 29.50300
C  49.51700 27.60900 28.49100
C  50.10100 28.79500 28.99800
C  49.88700 28.72300 30.34200
C  49.15400 27.62200 30.60800
C  50.83700 29.79200 28.12300
C  50.14000 29.38500 31.61700
O  50.62000 30.47200 31.90400
C  49.43300 28.48800 32.75700
C  50.53700 27.97300 33.59000
O  51.61500 27.52100 33.21900
O  50.19700 28.24000 34.87500
C  51.24600 27.84300 35.83200
H  46.10800 22.59100 32.79300
H  46.59300 22.38500 26.32200
H  49.72800 27.88200 26.36100
H  48.74500 25.97800 34.43100
H  46.08100 24.58500 34.35300
H  48.13100 22.73800 34.17000
H  47.13500 23.28800 35.51500
H  48.77700 23.98800 35.17800
H  45.87700 27.16800 34.53400
H  47.23800 28.19600 34.45600
H  47.68900 28.25700 36.53400
H  48.03000 26.45200 36.47500
H  43.76200 20.64600 30.90000
H  44.84000 20.87100 32.28900
H  45.14400 19.59400 31.02000
H  43.74400 18.57900 27.68300
H  43.57700 19.60300 29.19600
H  44.98200 18.59200 28.97600
H  46.55900 24.67000 24.99600
H  49.35800 25.81500 24.75600
H  48.67600 22.67600 24.52900
H  48.68900 24.08200 23.36600
H  47.26600 23.13400 23.53900
H  47.28500 27.69300 25.61900
H  46.62300 26.73800 24.19800
H  49.29100 27.67700 23.63000
H  48.06300 29.03300 24.03600
H  47.95100 27.84500 22.62300
H  50.99900 29.58100 27.06600
H  51.81900 29.94500 28.57100
H  50.26500 30.71300 28.23800
H  48.74500 29.10400 33.33500
H  51.34200 26.76000 35.75600
H  50.76700 27.99500 36.79900
H  52.23600 28.25500 35.63600
Mg 36.43200 49.03900 24.91200
C  36.72400 47.52900 28.01200
C  34.54900 51.62000 26.52600
C  35.64400 50.34000 21.97500
C  37.94200 46.42100 23.38700
N  35.59800 49.47300 26.99300
C  36.04000 48.74200 28.12000
C  35.74200 49.53200 29.38100
C  34.91700 50.80100 28.86600
C  35.01700 50.61600 27.39400
C  33.52200 50.97300 29.49000
C  36.95500 50.02300 30.25400
C  36.89500 49.82500 31.73900
H  35.51400 49.58800 32.39400
N  35.23100 50.72100 24.32500
C  34.65000 51.71900 25.10300
C  34.04100 52.68900 24.26300
C  34.54100 52.35400 22.95700
C  35.16000 51.12400 23.02300
C  33.33300 53.97100 24.78700
C  34.44800 53.14700 21.69600
O  34.85800 52.76200 20.55500
C  33.86700 54.56200 21.68300
N  36.45000 48.27100 22.93900
C  36.18500 49.04900 21.89200
C  36.55200 48.39800 20.58100
C  37.47000 47.23800 21.06200
C  37.31200 47.32900 22.57200
C  35.34700 47.84400 19.74200
C  38.98700 47.46800 20.61300
C  39.33400 46.52900 19.46200
N  37.36600 47.36400 25.54700
C  37.93200 46.34800 24.81500
C  38.58100 45.34900 25.69200
C  38.06800 45.76200 26.99300
C  37.36500 46.97200 26.84800
C  39.32600 44.06700 25.38000
C  37.97800 45.42200 28.38300
O  38.50200 44.46700 29.05500
C  37.09600 46.58200 29.06100
C  35.95600 46.07700 29.84200
O  34.89700 45.79000 29.44500
O  36.44000 45.70800 31.06500
C  35.59500 44.94700 32.01900
H  33.96600 52.42000 26.98700
H  35.60900 50.75400 20.96500
H  38.54600 45.63200 22.93500
H  35.16800 48.78700 29.93400
H  35.49100 51.70900 29.04900
H  33.22300 50.11900 30.09700
H  32.71400 50.99700 28.75900
H  33.35200 51.86000 30.10100
H  37.18100 51.08900 30.22600
H  37.82900 49.45300 29.94100
H  37.35000 50.69400 32.21500
H  37.47500 48.93400 31.97800
H  34.03800 54.80200 24.79200
H  32.89000 53.69600 25.74500
H  32.56100 54.15700 24.04100
H  33.88900 54.91600 20.65200
H  34.25300 55.36200 22.31400
H  32.78500 54.48700 21.79100
H  36.99600 49.17700 19.96100
H  37.03700 46.27200 20.80200
H  34.43800 47.99200 20.32500
H  35.47300 46.79400 19.47600
H  35.31500 48.43100 18.82500
H  39.75200 47.20300 21.34300
H  39.08500 48.53300 20.40500
H  40.20100 45.96700 19.81100
H  39.54100 46.97700 18.49000
H  38.49500 45.84700 19.32600
H  38.78600 43.39700 24.71100
H  39.52900 43.65400 26.36800
H  40.20700 44.37800 24.81900
H  37.80700 47.09500 29.70800
H  36.15800 44.08400 32.37200
H  34.59100 44.65500 31.71000
H  35.52900 45.65200 32.84800

