158

Mg 25.79600 -8.03000 47.56100
C  27.66600 -5.51600 46.41200
C  23.36100 -7.19700 45.18100
C  24.02300 -10.84100 48.40000
C  28.27500 -8.92400 49.94800
N  25.65000 -6.57100 45.86600
C  26.53000 -5.59800 45.67800
C  26.11800 -4.65500 44.50500
C  24.62600 -5.16800 44.11900
C  24.46100 -6.33700 45.17300
C  23.53300 -4.08100 44.19700
C  27.14000 -4.73500 43.37800
C  27.62000 -3.35100 42.81100
H  27.21600 -3.02200 41.38400
N  23.86400 -8.86900 46.93700
C  23.03100 -8.29300 46.01300
C  21.75500 -9.04100 46.05100
C  21.98800 -10.13700 46.96100
C  23.31600 -10.02000 47.50700
C  20.58500 -8.62900 45.11300
C  20.89100 -11.16400 47.18300
O  19.76900 -10.94300 46.80000
C  21.10400 -12.40200 48.03700
N  26.16900 -9.63500 48.87300
C  25.24000 -10.62700 49.09700
C  25.53900 -11.45900 50.29700
C  27.00500 -11.08000 50.63000
C  27.18200 -9.83600 49.74500
C  24.49400 -11.14900 51.47500
C  28.03400 -12.13400 50.15200
C  28.28900 -13.23500 51.17500
N  27.72600 -7.48900 48.05800
C  28.50900 -7.77600 49.13400
C  29.65200 -6.78800 49.11900
C  29.29500 -5.85800 48.08500
C  28.18300 -6.35900 47.47400
C  30.75000 -6.72100 50.11100
C  29.81300 -4.70700 47.42300
O  30.80700 -4.05500 47.57400
C  28.74100 -4.34700 46.35600
C  28.12300 -3.03000 46.64500
O  27.35300 -2.81800 47.59900
O  28.34100 -2.22000 45.58000
C  27.68000 -0.93800 45.72400
H  22.58800 -6.87000 44.48200
H  23.51900 -11.71500 48.81700
H  28.91100 -9.15000 50.80600
H  26.17500 -3.59300 44.74700
H  24.52300 -5.72000 43.18500
H  22.95300 -4.16700 43.27900
H  24.05900 -3.12800 44.13500
H  22.87200 -4.20600 45.05500
H  26.60700 -5.33100 42.63700
H  28.02000 -5.26200 43.74700
H  28.68300 -3.24500 43.03000
H  27.12900 -2.52700 43.32800
H  20.05800 -9.53000 44.80000
H  20.89800 -8.03000 44.25800
H  19.85400 -8.02500 45.65100
H  21.89800 -13.10900 47.79800
H  20.15200 -12.88600 47.81900
H  21.06100 -12.23100 49.11300
H  25.50900 -12.46200 49.87100
H  27.07300 -10.81900 51.68600
H  23.96600 -12.08600 51.65300
H  23.74600 -10.43400 51.13200
H  25.00800 -10.86700 52.39400
H  28.97300 -11.60800 49.98400
H  27.77000 -12.59500 49.19900
H  29.28700 -13.12200 51.59700
H  28.32500 -14.24100 50.75700
H  27.64200 -13.14200 52.04700
H  30.39000 -7.06500 51.08100
H  31.12400 -5.69900 50.04500
H  31.56800 -7.37100 49.80200
H  29.32100 -4.30700 45.43400
H  26.61400 -1.16100 45.67800
H  28.04900 -0.20200 45.01000
H  28.01300 -0.51800 46.67300
Mg 48.10700 34.08800 26.86500
C  46.06600 32.90500 29.41100
C  48.75100 36.89200 28.78000
C  49.59600 35.59600 24.17100
C  47.26100 31.34600 24.87300
N  47.54000 34.75200 28.85300
C  46.75200 34.08600 29.75300
C  47.01400 34.76900 31.19500
C  47.35700 36.20400 30.74400
C  47.96100 35.95300 29.39400
C  46.31400 37.42600 30.84600
C  48.13100 34.06400 32.13000
C  47.99200 33.98800 33.67600
H  47.08700 35.00700 34.48200
N  49.07600 35.95900 26.51800
C  49.23500 36.90700 27.47200
C  50.08000 37.94400 26.93400
C  50.32500 37.62600 25.56400
C  49.67500 36.33900 25.33600
C  50.55700 39.19600 27.71800
C  50.97200 38.56300 24.54500
O  51.02100 38.26100 23.37700
C  51.66300 39.84600 24.90000
N  48.28800 33.59300 24.85800
C  48.92300 34.40500 23.93100
C  48.88100 33.70500 22.57200
C  48.65000 32.16700 22.90600
C  48.07100 32.30600 24.31000
C  47.79700 34.36400 21.61000
C  49.97800 31.32900 22.89300
C  50.91500 31.54800 24.08800
N  46.90900 32.42300 27.02500
C  46.70800 31.38400 26.18700
C  45.85600 30.43100 26.81000
C  45.64700 30.94800 28.12800
C  46.31000 32.17000 28.17700
C  45.40300 29.14900 26.15900
C  44.95400 30.71900 29.42500
O  44.31200 29.75800 29.86600
C  45.13700 32.13100 30.23300
C  45.51200 31.82000 31.58000
O  46.39100 31.03700 31.88200
O  44.68400 32.49500 32.42000
C  44.77800 32.02100 33.81800
H  48.96900 37.81800 29.31600
H  50.12300 36.07900 23.34600
H  47.22800 30.39300 24.34200
H  46.14900 34.76700 31.85800
H  48.19300 36.64100 31.29000
H  46.49600 38.02800 31.73600
H  45.29700 37.03500 30.79600
H  46.44200 37.98900 29.92200
H  49.08400 34.56300 31.95000
H  48.16700 33.06500 31.69700
H  48.97800 33.97800 34.13900
H  47.68200 32.96500 33.89100
H  51.62500 38.98000 27.69700
H  50.24300 39.12800 28.75900
H  50.24600 40.16700 27.33300
H  52.25100 39.66900 25.80000
H  50.87600 40.60000 24.91200
H  52.38200 40.02300 24.10000
H  49.90800 33.89800 22.26400
H  47.95600 31.63600 22.25400
H  47.27200 35.21000 22.05400
H  47.13300 33.60000 21.20600
H  48.30500 34.75400 20.72800
H  50.44700 31.58300 21.94200
H  49.71200 30.27300 22.91100
H  50.61600 31.10000 25.03600
H  51.15000 32.59900 24.25700
H  51.91600 31.16900 23.87900
H  46.02500 28.88600 25.30300
H  44.37200 29.14400 25.80600
H  45.58600 28.35700 26.88600
H  44.10500 32.47600 30.28100
H  45.76200 32.13900 34.27200
H  44.43900 30.99500 33.96200
H  44.15800 32.70000 34.40300

