158

Mg 1.69800 7.46500 26.62900
C  2.27700 9.74700 29.39600
C  1.84900 4.93100 28.95600
C  1.26200 5.30100 24.13000
C  1.98100 10.14200 24.40300
N  2.19800 7.35300 28.96200
C  2.28700 8.42800 29.91400
C  2.05000 7.91500 31.32600
C  2.01100 6.39900 31.12900
C  2.04200 6.18700 29.59100
C  3.12200 5.56900 31.88700
C  0.80600 8.58600 31.95200
C  1.02400 9.07800 33.34700
H  2.00300 8.35600 34.26800
N  1.53600 5.44300 26.52500
C  1.65600 4.56000 27.58900
C  1.33300 3.22900 27.10300
C  1.05600 3.29800 25.71400
C  1.34500 4.73300 25.36700
C  1.33400 2.07200 28.00000
C  0.60100 2.33200 24.69200
O  0.51800 2.54900 23.52700
C  0.40500 0.90600 25.26400
N  1.90700 7.64500 24.52900
C  1.46800 6.62700 23.69900
C  1.41200 7.08400 22.22400
C  1.55400 8.63600 22.37800
C  1.85600 8.85700 23.86900
C  2.55000 6.36200 21.46900
C  0.30300 9.52200 21.97900
C  0.64600 10.80500 21.27300
N  2.07300 9.53600 26.80800
C  2.14100 10.46800 25.85000
C  2.17200 11.84900 26.47100
C  2.29800 11.57400 27.78400
C  2.25200 10.15600 27.98000
C  2.17300 13.14700 25.75200
C  2.49000 12.14000 29.12000
O  2.60600 13.29800 29.45400
C  2.36800 11.00600 30.11300
C  3.52100 11.14200 31.07700
O  4.64800 10.81600 30.77000
O  3.10900 11.72400 32.20900
C  4.20100 12.13600 33.12600
H  1.85700 4.16700 29.73500
H  0.99900 4.75000 23.22500
H  1.91100 10.99700 23.72800
H  2.97600 8.26100 31.78500
H  1.01200 6.01300 31.33000
H  3.79500 5.06800 31.19100
H  2.64400 4.72100 32.37600
H  3.64500 6.17000 32.63100
H  0.05700 7.81100 32.11900
H  0.27500 9.32300 31.35000
H  0.00900 9.11900 33.74400
H  1.39000 10.10400 33.37600
H  0.32800 1.68700 28.16700
H  1.81700 2.19800 28.96900
H  1.98900 1.29100 27.61500
H  1.36800 0.45300 25.49900
H  -0.16100 0.39800 24.48200
H  -0.21800 1.04100 26.14800
H  0.49200 6.67900 21.80000
H  2.37100 8.97500 21.74000
H  2.26700 5.99300 20.48300
H  2.88100 5.47400 22.00800
H  3.33100 7.12200 21.44100
H  -0.24900 9.69300 22.90300
H  -0.43500 8.94700 21.42000
H  0.26200 11.65400 21.83800
H  0.29600 10.85100 20.24100
H  1.72500 10.91700 21.16800
H  2.70400 13.02200 24.80800
H  2.71500 13.95000 26.25000
H  1.12600 13.40800 25.59800
H  1.48600 11.20200 30.72400
H  3.78100 12.56700 34.03500
H  5.00300 12.72400 32.67900
H  4.61800 11.20600 33.51200
Mg 15.61300 51.96100 25.18000
C  17.20000 50.81100 28.16100
C  13.05300 53.02300 27.28700
C  14.11700 53.40900 22.64700
C  18.25300 50.90400 23.34800
N  15.22100 51.96600 27.50900
C  16.07700 51.57000 28.47800
C  15.49800 51.89000 29.92100
C  14.11100 52.40300 29.57400
C  14.15600 52.48600 28.01400
C  12.86300 51.59900 30.19700
C  16.47200 52.91400 30.56200
C  16.44300 52.98000 32.13400
H  15.50300 52.10600 32.97100
N  13.72500 52.85100 24.94300
C  12.84400 53.20600 25.91900
C  11.61800 53.83700 25.30300
C  11.97500 54.10100 23.97200
C  13.27800 53.35800 23.77000
C  10.45600 54.24800 26.11100
C  11.23500 54.95700 22.93600
O  11.59900 55.12200 21.76800
C  10.02800 55.69500 23.27100
N  16.11100 52.24500 23.32100
C  15.39900 52.88200 22.39200
C  16.14800 52.95700 21.00000
C  17.51600 52.31100 21.43600
C  17.29200 51.77500 22.72600
C  15.43700 52.32800 19.80000
C  18.73700 53.26400 21.44500
C  19.71500 53.05800 20.27200
N  17.36900 51.03200 25.61300
C  18.34000 50.61200 24.73300
C  19.30100 49.84500 25.47100
C  18.92800 49.88000 26.81000
C  17.72600 50.55900 26.84500
C  20.54400 49.31900 24.91300
C  19.28000 49.53000 28.13800
O  20.17700 48.82200 28.61900
C  18.23100 50.19000 29.08100
C  17.64200 49.08700 29.98900
O  16.59400 48.54100 29.87100
O  18.46700 49.02800 31.07600
C  18.07700 48.26900 32.24500
H  12.26900 53.30500 27.99300
H  13.71000 54.00700 21.82900
H  19.09900 50.63900 22.71100
H  15.41900 51.04200 30.60100
H  14.06600 53.42300 29.95500
H  13.17800 50.77800 30.84100
H  12.23800 51.17300 29.41300
H  12.29800 52.28800 30.82500
H  16.17000 53.89700 30.19900
H  17.52400 52.81600 30.29400
H  16.17600 54.03300 32.22500
H  17.46700 52.78900 32.45300
H  10.26800 53.47600 26.85700
H  9.53500 54.28300 25.53000
H  10.63100 55.19500 26.62100
H  10.35500 56.10600 24.22600
H  9.26000 54.94100 23.44400
H  9.86000 56.48600 22.54000
H  16.22700 54.02400 20.79000
H  17.76800 51.55800 20.69000
H  15.21500 53.09100 19.05400
H  14.45600 51.90600 20.02000
H  16.02200 51.57700 19.27100
H  19.31100 53.08300 22.35400
H  18.34200 54.27700 21.36500
H  19.40200 52.41900 19.44600
H  20.62400 52.65000 20.71500
H  20.03600 54.00000 19.82800
H  21.33400 50.06800 24.96700
H  20.35400 49.16000 23.85200
H  20.74100 48.31700 25.29400
H  18.74300 50.97300 29.63900
H  17.78700 47.28400 31.87700
H  17.23700 48.64700 32.82700
H  18.90600 48.11200 32.93500

