158

Mg 41.70700 42.12700 26.00000
C  40.98700 44.36100 28.77100
C  42.71700 39.94100 28.38800
C  42.67300 40.22600 23.52300
C  40.90500 44.67400 23.84600
N  41.94300 42.19700 28.42400
C  41.49600 43.13200 29.27500
C  41.71000 42.68300 30.76300
C  42.06200 41.19000 30.57600
C  42.17100 41.06100 29.08100
C  43.25700 40.59500 31.44400
C  40.46900 43.15100 31.63700
C  40.13500 42.41100 32.94900
H  41.16800 42.67400 34.08300
N  42.47600 40.25100 25.94000
C  42.92100 39.58000 27.04800
C  43.52700 38.33300 26.62200
C  43.41100 38.35100 25.18900
C  42.83300 39.58200 24.77500
C  44.17500 37.23800 27.52800
C  43.82300 37.32700 24.12500
O  43.56800 37.52300 22.94300
C  44.51200 36.14300 24.56000
N  41.89100 42.50100 23.98900
C  42.07200 41.44400 23.10100
C  42.04600 41.88200 21.56200
C  41.14900 43.14100 21.81800
C  41.35500 43.48000 23.25900
C  43.38200 42.18400 20.84700
C  39.65300 43.03700 21.30300
C  38.85300 41.76700 21.50800
N  41.14200 44.11600 26.24500
C  40.81200 45.03100 25.22400
C  40.34900 46.30600 25.82400
C  40.42400 46.06400 27.20000
C  40.94400 44.73600 27.39300
C  39.98400 47.56000 25.08700
C  40.12600 46.69600 28.47800
O  39.60200 47.81300 28.70100
C  40.47200 45.56700 29.52400
C  41.35700 46.10600 30.57000
O  42.58600 46.24000 30.41800
O  40.64700 46.47700 31.64600
C  41.39300 46.68900 32.86900
H  42.93300 39.11200 29.06600
H  43.03900 39.68100 22.65000
H  40.58000 45.42600 23.12500
H  42.62400 43.22400 31.00600
H  41.13000 40.66600 30.78900
H  43.92700 40.01000 30.81500
H  42.83900 39.86400 32.13600
H  43.77400 41.43000 31.91700
H  39.56000 43.02500 31.04900
H  40.43900 44.19800 31.94100
H  40.00100 41.33000 32.91900
H  39.18000 42.87000 33.20500
H  45.16100 37.12500 27.07600
H  43.71600 36.26700 27.34100
H  44.10400 37.39000 28.60500
H  44.69000 35.53400 23.67400
H  43.88100 35.64800 25.29800
H  45.45100 36.47200 25.00700
H  41.47100 41.16500 20.97700
H  41.52900 44.06800 21.38800
H  43.73700 43.14300 21.22500
H  43.37700 42.12900 19.75900
H  44.14700 41.44700 21.09200
H  39.81400 43.13100 20.22900
H  39.20400 43.97400 21.63300
H  37.85500 42.10700 21.78500
H  39.37000 41.20500 22.28500
H  38.83700 41.28500 20.53000
H  39.31300 47.19300 24.31000
H  40.93900 47.92700 24.71200
H  39.64700 48.26100 25.85100
H  39.56600 45.29000 30.06400
H  41.14200 45.80800 33.45900
H  40.93000 47.50300 33.42700
H  42.45900 46.87500 32.73800
Mg -9.99100 39.80400 41.43100
C  -8.81300 36.46700 40.74000
C  -7.03700 40.91800 40.17100
C  -11.27100 42.77100 41.71800
C  -13.19000 38.26800 41.96700
N  -8.20800 38.72500 40.36900
C  -7.92800 37.42600 40.28600
C  -6.53600 37.25500 39.60200
C  -5.91900 38.71000 39.40800
C  -7.08400 39.51100 40.14900
C  -4.53300 38.90700 40.12500
C  -6.74200 36.60800 38.18400
C  -5.99300 35.26100 37.89900
H  -5.18500 35.25800 36.59400
N  -9.30700 41.67300 41.04400
C  -8.02900 41.92600 40.54900
C  -7.80900 43.35700 40.42400
C  -8.97600 44.00600 40.91000
C  -9.95700 42.80400 41.27700
C  -6.50500 44.02200 39.86100
C  -9.27000 45.48300 41.11100
O  -8.48000 46.32000 40.75400
C  -10.50500 45.95700 41.69000
N  -11.94400 40.42500 41.65200
C  -12.19000 41.76000 41.88600
C  -13.65000 42.00700 42.24300
C  -14.35900 40.59900 42.26400
C  -13.10200 39.68800 41.90800
C  -13.91500 42.69800 43.55700
C  -15.58800 40.40000 41.38500
C  -16.79300 39.51300 41.89200
N  -10.80000 37.69700 41.62900
C  -12.10900 37.29300 41.85800
C  -12.20200 35.81500 41.88300
C  -10.85200 35.44800 41.49600
C  -10.12100 36.65700 41.27300
C  -13.42700 35.07500 42.24800
C  -9.91900 34.36700 41.24900
O  -10.02800 33.16500 41.52100
C  -8.64600 34.98000 40.65300
C  -7.43700 34.47600 41.42100
O  -7.09100 34.88400 42.55000
O  -6.79200 33.47200 40.71300
C  -5.58400 32.87500 41.41800
H  -6.07000 41.31600 39.85600
H  -11.76600 43.72900 41.89100
H  -14.16500 37.90000 42.29300
H  -5.99700 36.65500 40.33500
H  -5.93800 39.02300 38.36400
H  -4.16000 37.94700 40.48100
H  -4.68400 39.52300 41.01100
H  -3.72700 39.32900 39.52500
H  -6.58300 37.36300 37.41400
H  -7.78300 36.28800 38.14400
H  -6.74200 34.47500 37.79600
H  -5.35900 34.95200 38.72900
H  -6.58400 44.18600 38.78600
H  -5.64000 43.36100 39.90600
H  -6.32700 45.04800 40.18300
H  -11.24200 45.72500 40.92100
H  -10.55700 47.03500 41.84000
H  -10.66800 45.45000 42.64100
H  -14.17700 42.55400 41.46100
H  -14.74800 40.22400 43.21000
H  -13.88700 43.78400 43.46400
H  -13.27900 42.27500 44.33400
H  -14.91900 42.48300 43.92400
H  -15.30000 39.78800 40.53000
H  -16.02400 41.36500 41.12800
H  -17.76900 39.97400 41.73800
H  -16.63700 39.06800 42.87500
H  -16.79300 38.65600 41.21900
H  -14.13700 35.74700 42.73000
H  -13.00200 34.37500 42.96700
H  -13.84100 34.65600 41.33100
H  -8.54200 34.73500 39.59600
H  -4.87500 33.46700 41.99700
H  -4.96700 32.34600 40.69100
H  -6.07100 32.24600 42.16400

