158

Mg 41.44200 8.90300 29.67300
C  43.41600 10.21300 32.39200
C  39.17300 7.71600 31.84700
C  39.78000 7.62000 27.03900
C  44.13200 9.68500 27.50900
N  41.41700 8.95000 31.92400
C  42.19700 9.61800 32.88200
C  41.57400 9.39500 34.32000
C  40.37000 8.48500 34.01800
C  40.30000 8.36800 32.51000
C  40.41400 7.08800 34.62300
C  41.40300 10.82800 35.00700
C  40.38700 10.86600 36.15200
H  40.78100 11.84500 37.28000
N  39.68600 7.82900 29.52300
C  38.88000 7.49100 30.50400
C  37.61000 6.94300 30.05200
C  37.74900 7.06800 28.64900
C  39.08700 7.50000 28.31600
C  36.61300 6.21500 30.97700
C  36.69900 6.84400 27.52300
O  36.97900 6.97700 26.29800
C  35.27800 6.52600 28.02900
N  42.00700 8.30500 27.62900
C  41.08000 7.97700 26.72500
C  41.50700 8.25200 25.30300
C  42.91400 8.91400 25.35600
C  43.07400 8.97200 26.93200
C  41.32800 6.95300 24.49200
C  43.05600 10.29600 24.79000
C  42.18200 11.39000 25.42400
N  43.40400 9.77600 29.85600
C  44.33600 10.02900 28.86900
C  45.38300 10.75100 29.46300
C  45.07800 10.87300 30.84400
C  43.83700 10.23400 31.03100
C  46.45000 11.34200 28.64000
C  45.45700 11.42700 32.20200
O  46.51600 11.92000 32.49000
C  44.39700 10.93000 33.24900
C  45.14500 10.05300 34.29700
O  45.78100 9.04000 33.95100
O  44.88100 10.56300 35.55600
C  45.38000 9.78600 36.73900
H  38.39500 7.48600 32.57800
H  39.17500 7.40700 26.15500
H  44.85400 10.05800 26.78000
H  42.28400 8.80800 34.90200
H  39.47100 8.89400 34.48000
H  39.52800 6.93400 35.23800
H  41.29900 6.82500 35.20400
H  40.33800 6.28900 33.88600
H  41.06100 11.46800 34.19400
H  42.33300 11.22900 35.41100
H  40.25800 9.89000 36.61900
H  39.39400 11.26000 35.93200
H  37.12300 6.10300 31.93400
H  36.25100 5.31800 30.47500
H  35.76400 6.87900 31.14400
H  35.37600 5.64500 28.66400
H  34.52400 6.35700 27.26000
H  34.99800 7.41000 28.60100
H  40.78200 8.96800 24.91400
H  43.79200 8.33200 25.07700
H  42.15200 6.87700 23.78100
H  40.41100 7.07600 23.91500
H  41.22000 6.10200 25.16400
H  43.02900 10.39700 23.70500
H  44.12800 10.48800 24.84100
H  42.84100 12.03500 26.00500
H  41.44200 10.99700 26.12200
H  41.70800 12.09900 24.74500
H  46.83600 12.17800 29.22300
H  46.02000 11.81700 27.75900
H  47.22900 10.60600 28.44200
H  43.94900 11.78000 33.76400
H  45.90500 8.87100 36.46600
H  44.52700 9.51700 37.36100
H  45.98500 10.43900 37.36800
Mg 49.54700 34.74100 26.80900
C  47.44200 33.28200 29.28900
C  49.29500 37.65400 28.52300
C  51.05500 36.10800 24.28700
C  48.97600 31.86200 24.81400
N  48.60300 35.31400 28.86200
C  47.75400 34.55900 29.58800
C  47.25300 35.36300 30.85600
C  47.77400 36.86600 30.48100
C  48.60900 36.59900 29.22500
C  46.67800 37.89000 30.22000
C  47.76900 34.89700 32.24900
C  46.74100 34.98300 33.45300
H  47.26000 35.78500 34.63700
N  50.29700 36.46900 26.55900
C  50.10300 37.60000 27.34400
C  50.82700 38.77600 26.77900
C  51.49300 38.27200 25.59100
C  50.96700 36.89500 25.45900
C  50.91000 40.10900 27.45000
C  52.43900 38.98700 24.65600
O  52.69000 38.41500 23.60100
C  53.24100 40.25600 24.97300
N  49.98000 34.05500 24.86300
C  50.67300 34.80300 24.04000
C  50.98700 34.13500 22.68000
C  50.31100 32.75600 22.81800
C  49.68200 32.89200 24.22900
C  50.44800 35.03000 21.50600
C  51.20000 31.50900 22.50800
C  51.58200 31.27300 21.04500
N  48.57900 32.83000 26.97000
C  48.36800 31.76200 26.05200
C  47.61700 30.70200 26.66900
C  47.22500 31.28200 27.89700
C  47.80100 32.58300 28.04700
C  47.07800 29.31700 26.11600
C  46.32900 31.05200 29.04700
O  45.55600 30.13800 29.32000
C  46.46400 32.35700 29.99000
C  46.93500 31.81300 31.31800
O  48.07700 31.40900 31.53600
O  45.89000 31.74300 32.23100
C  46.22500 31.15700 33.58400
H  49.14000 38.66500 28.90600
H  51.63000 36.53900 23.46600
H  48.75000 30.98300 24.20600
H  46.16400 35.35300 30.81900
H  48.41600 37.30700 31.24300
H  46.87300 38.83800 30.72300
H  45.70000 37.68700 30.65600
H  46.60900 38.05900 29.14600
H  48.45400 35.61600 32.69800
H  48.17200 33.88500 32.21100
H  46.50800 34.03600 33.94000
H  45.80400 35.44500 33.14100
H  51.47300 40.02000 28.37900
H  49.89300 40.48800 27.54500
H  51.46000 40.85300 26.87300
H  52.76100 41.18300 24.65800
H  54.27000 40.22800 24.61600
H  53.36600 40.17100 26.05300
H  52.05900 33.94100 22.71900
H  49.49800 32.74000 22.09200
H  49.79000 34.44100 20.86600
H  51.23100 35.44600 20.87200
H  49.88600 35.80100 22.03300
H  50.66700 30.64900 22.91300
H  52.08800 31.68400 23.11600
H  51.04300 31.94600 20.37800
H  51.46800 30.25100 20.68500
H  52.63800 31.51400 20.92600
H  46.83600 28.63200 26.92900
H  47.97100 28.81600 25.74500
H  46.36400 29.39400 25.29600
H  45.50900 32.85900 30.14500
H  45.45600 31.04400 34.34900
H  46.90200 31.92500 33.95800
H  46.70100 30.19100 33.41900

