158

Mg -1.92500 17.13500 25.59600
C  -2.03900 15.08000 28.45600
C  -2.79200 19.73000 27.53500
C  -1.91700 18.97600 22.81400
C  -1.50500 14.22100 23.65400
N  -2.23200 17.26500 27.75100
C  -2.23700 16.37000 28.73100
C  -2.53300 17.01200 30.19700
C  -2.93300 18.46100 29.74300
C  -2.58700 18.54400 28.23400
C  -4.41700 18.86100 29.97000
C  -1.30400 16.89900 31.12700
C  -1.52000 16.15600 32.45100
H  -2.22500 16.87300 33.58000
N  -2.20400 19.11900 25.26600
C  -2.54600 20.05300 26.23200
C  -2.49000 21.35500 25.55600
C  -2.20800 21.18100 24.17700
C  -1.99700 19.70100 24.06000
C  -2.63800 22.72200 26.32500
C  -1.99600 22.22000 23.06500
O  -2.09200 21.97400 21.87400
C  -1.76200 23.70700 23.45700
N  -1.75700 16.66000 23.54900
C  -1.86000 17.60600 22.55900
C  -1.80700 16.99000 21.12100
C  -1.33900 15.59100 21.41800
C  -1.58800 15.45000 22.94600
C  -3.02300 17.17600 20.25500
C  0.09500 15.39900 20.88900
C  1.16100 16.04400 21.80600
N  -1.78600 15.02000 25.98500
C  -1.62300 13.95100 25.07700
C  -1.53400 12.71300 25.73500
C  -1.76700 13.05300 27.08200
C  -1.86800 14.43300 27.17900
C  -1.38500 11.29800 25.20500
C  -1.92100 12.53700 28.45700
O  -1.94100 11.37000 28.82100
C  -1.97500 13.77600 29.35300
C  -0.65600 13.70700 30.10200
O  0.40800 14.20500 29.72200
O  -0.87600 12.91900 31.22100
C  0.24800 12.65900 32.19100
H  -3.14800 20.55100 28.16100
H  -1.90800 19.50800 21.86100
H  -1.23900 13.37400 23.01700
H  -3.36900 16.54800 30.72100
H  -2.27500 19.19300 30.21100
H  -4.41300 19.87400 30.37400
H  -4.91900 18.23900 30.71100
H  -4.92600 18.87000 29.00600
H  -1.05200 17.89800 31.48300
H  -0.46800 16.43200 30.60700
H  -0.55100 15.80000 32.80100
H  -2.14500 15.28700 32.24500
H  -2.72200 22.53100 27.39500
H  -3.40700 23.37900 25.92000
H  -1.66400 23.18100 26.15700
H  -1.83200 24.23200 22.50400
H  -0.77300 23.91600 23.86600
H  -2.64400 24.09700 23.96400
H  -0.96300 17.53300 20.69500
H  -1.94600 14.80100 20.97700
H  -2.64200 17.56500 19.31000
H  -3.67700 17.90100 20.74000
H  -3.51300 16.21500 20.10000
H  0.29800 15.69300 19.85900
H  0.38900 14.34900 20.86200
H  0.68300 16.85200 22.35900
H  2.04300 16.44700 21.30900
H  1.47800 15.30200 22.53900
H  -0.87500 10.65900 25.92600
H  -0.71000 11.31300 24.34900
H  -2.40300 10.92800 25.08800
H  -2.79100 13.61200 30.05600
H  0.00300 11.71700 32.68100
H  0.22900 13.46800 32.92000
H  1.25500 12.61300 31.77600
Mg 9.03100 2.68800 27.62900
C  9.97800 1.05300 30.61500
C  7.47800 5.02100 29.41200
C  7.70000 3.87500 24.65000
C  10.52000 0.04300 25.72500
N  8.80100 3.05300 29.73300
C  9.26600 2.24900 30.83300
C  8.94500 2.98100 32.18800
C  8.02000 4.22400 31.82200
C  8.08700 4.08700 30.22000
C  6.63900 4.11800 32.48100
C  10.22100 3.35800 32.91800
C  10.07000 4.02000 34.37700
H  11.01700 3.59800 35.49200
N  7.92500 4.33100 27.11200
C  7.30700 5.13400 27.99300
C  6.53400 6.15300 27.28500
C  6.51900 5.78600 25.90300
C  7.43800 4.63200 25.83800
C  5.87400 7.41700 27.95200
C  5.83200 6.50700 24.71700
O  6.04100 6.07400 23.56700
C  4.94400 7.69300 24.98200
N  9.09400 2.01300 25.54200
C  8.45400 2.67500 24.54200
C  8.64200 1.93300 23.16600
C  9.74300 0.85700 23.47900
C  9.78400 0.94200 25.05000
C  7.27000 1.36400 22.45600
C  11.08900 0.92500 22.69600
C  11.17200 0.14000 21.38800
N  9.94200 0.85700 27.99100
C  10.56700 -0.03900 27.15000
C  11.14800 -1.11200 27.93200
C  10.96700 -0.72200 29.29500
C  10.20500 0.47100 29.27000
C  12.00900 -2.27600 27.40100
C  11.25800 -1.07500 30.71400
O  11.91100 -2.03700 31.13800
C  10.68300 0.15600 31.59500
C  9.80500 -0.42600 32.58400
O  8.86900 -1.17400 32.38500
O  10.35900 -0.17700 33.85600
C  9.68300 -0.96300 34.89600
H  6.95600 5.76600 30.01700
H  7.30600 4.17700 23.67800
H  10.95800 -0.77000 25.14200
H  8.40300 2.19000 32.70600
H  8.47400 5.12900 32.22500
H  5.88300 3.90200 31.72500
H  6.40000 5.04000 33.01100
H  6.53600 3.20100 33.06100
H  10.69500 4.18000 32.38100
H  10.90300 2.50800 32.90800
H  9.01700 4.19200 34.60100
H  10.36500 5.06100 34.24500
H  6.08100 7.55300 29.01400
H  4.82000 7.18800 27.79300
H  6.19200 8.31400 27.42100
H  4.05000 7.31300 25.47600
H  4.55100 7.91700 23.99100
H  5.40300 8.58400 25.41000
H  9.01800 2.66300 22.45000
H  9.21300 -0.06900 23.25300
H  7.39400 0.30700 22.22300
H  7.07400 1.98200 21.58000
H  6.50400 1.51700 23.21700
H  11.94200 0.57200 23.27600
H  11.31500 1.97600 22.51500
H  10.89400 0.76100 20.53600
H  10.45500 -0.67600 21.47800
H  12.15400 -0.28000 21.17200
H  12.84600 -1.88200 26.82500
H  11.60900 -3.10300 26.81500
H  12.30300 -2.82000 28.29900
H  11.49300 0.67900 32.10400
H  9.72300 -0.50800 35.88600
H  10.10100 -1.96900 34.93800
H  8.61600 -1.02500 34.68600

