158

Mg 16.62300 -2.73000 27.25800
C  15.92600 -0.61400 30.04600
C  18.14400 -4.88000 29.37900
C  17.41800 -4.54700 24.58900
C  15.38800 -0.23700 25.21900
N  17.18400 -2.56300 29.49600
C  16.61900 -1.72100 30.45700
C  17.00200 -2.17700 31.84900
C  17.91500 -3.46700 31.58700
C  17.79000 -3.67100 30.02800
C  19.40900 -3.34600 31.97500
C  15.79400 -2.45700 32.77500
C  15.83300 -1.80000 34.20500
H  17.21800 -1.68300 34.91300
N  17.59500 -4.55000 27.02500
C  18.21400 -5.24500 28.02500
C  18.57100 -6.55400 27.49200
C  18.27500 -6.46600 26.11700
C  17.66600 -5.18100 25.85300
C  18.98900 -7.65900 28.45200
C  18.36700 -7.51200 24.97000
O  17.93900 -7.40500 23.85300
C  18.95100 -8.85000 25.24400
N  16.78200 -2.25100 25.20200
C  17.08000 -3.19500 24.32700
C  16.95200 -2.69800 22.87100
C  15.91700 -1.50100 23.06200
C  16.05500 -1.25400 24.58600
C  18.36600 -2.20600 22.40000
C  14.49400 -1.87700 22.54700
C  13.53300 -2.23800 23.70100
N  15.70500 -0.81300 27.50200
C  15.17600 0.02000 26.59700
C  14.56300 1.15200 27.16800
C  14.80900 0.89200 28.63100
C  15.53300 -0.27500 28.70900
C  13.92000 2.24300 26.43600
C  14.64300 1.46100 29.93200
O  14.21600 2.50100 30.46500
C  15.32400 0.43500 30.95600
C  16.38600 1.10100 31.77500
O  17.59200 1.21000 31.57300
O  15.75800 1.66800 32.84600
C  16.49500 2.60700 33.79700
H  18.57300 -5.71400 29.93900
H  17.53600 -5.05600 23.63000
H  14.92200 0.46800 24.52700
H  17.56000 -1.38100 32.34200
H  17.51200 -4.35700 32.07100
H  19.62400 -2.56100 32.70000
H  20.01200 -3.35000 31.06800
H  19.76100 -4.23800 32.49500
H  15.80400 -3.53800 32.91400
H  14.87000 -2.31300 32.21500
H  15.11200 -2.37600 34.78500
H  15.42200 -0.79500 34.11700
H  18.24800 -7.79000 29.24100
H  19.93900 -7.42000 28.93000
H  18.97600 -8.58400 27.87500
H  19.85000 -8.68500 25.83700
H  19.21100 -9.45100 24.37300
H  18.28800 -9.40100 25.91100
H  16.54600 -3.42700 22.17000
H  16.26900 -0.63000 22.50800
H  18.46300 -1.13200 22.24300
H  18.59600 -2.70400 21.45800
H  19.02100 -2.53300 23.20800
H  14.51200 -2.57700 21.71100
H  14.01800 -1.02500 22.06300
H  13.09000 -1.28800 24.00200
H  13.98200 -2.70700 24.57600
H  12.73400 -2.88600 23.34200
H  14.63000 2.85600 25.88100
H  13.44600 2.89600 27.17000
H  13.16800 1.71600 25.84900
H  14.62700 -0.00600 31.66900
H  15.67000 3.20400 34.18400
H  17.33100 3.17300 33.38600
H  16.90300 1.97300 34.58400
Mg -0.02900 43.74500 26.19000
C  2.52300 43.20700 28.72900
C  -2.34900 42.52600 28.44300
C  -2.27800 43.75800 23.65300
C  2.52800 44.19500 23.93600
N  0.06400 43.14000 28.39900
C  1.17500 43.19400 29.21100
C  0.70200 43.00000 30.70200
C  -0.78100 42.55500 30.51600
C  -1.07800 42.89900 29.05400
C  -0.96000 41.05300 30.94300
C  1.02100 44.30500 31.54200
C  1.76400 43.98300 32.88700
H  1.41100 42.63600 33.55500
N  -1.99200 43.34200 26.14500
C  -2.78900 42.78700 27.14200
C  -4.10400 42.56000 26.58500
C  -4.11500 42.91000 25.22600
C  -2.74600 43.37200 24.96200
C  -5.21100 41.87800 27.38500
C  -5.24800 42.94500 24.20800
O  -5.22900 43.17900 23.00000
C  -6.64400 42.79900 24.78600
N  0.08000 44.17900 24.09900
C  -0.97800 44.15800 23.28200
C  -0.54000 44.48900 21.79200
C  0.94000 44.68600 21.96100
C  1.27200 44.35400 23.41800
C  -0.88800 43.28400 20.83500
C  1.48600 46.06500 21.64500
C  0.82000 47.21800 22.33000
N  2.06800 43.81000 26.28600
C  2.94800 44.00200 25.26900
C  4.30600 43.83100 25.72100
C  4.16600 43.64100 27.08800
C  2.83100 43.48400 27.35300
C  5.68000 44.09900 25.07300
C  4.90300 43.33800 28.30600
O  6.10300 43.34700 28.50500
C  3.86700 43.17600 29.43800
C  4.17400 41.94800 30.24700
O  3.84500 40.77400 29.91200
O  5.01500 42.19000 31.31800
C  5.25800 41.00300 32.18900
H  -3.10000 42.27900 29.19600
H  -3.01000 43.60300 22.85700
H  3.43500 44.44700 23.38300
H  1.36800 42.27900 31.17700
H  -1.40000 43.17200 31.16800
H  -0.09700 40.59500 31.42600
H  -1.35400 40.34600 30.21200
H  -1.76200 41.04200 31.68000
H  0.06700 44.82600 31.61400
H  1.61800 45.00900 30.96200
H  1.60900 44.81200 33.57800
H  2.78000 43.95600 32.49400
H  -5.91900 42.65700 27.67000
H  -4.78300 41.36200 28.24400
H  -5.62400 41.12100 26.71800
H  -7.44800 43.14000 24.13300
H  -6.56500 43.38300 25.70300
H  -6.88000 41.76000 25.01400
H  -1.10300 45.33700 21.40100
H  1.49700 44.05700 21.26700
H  -1.82200 43.45400 20.29900
H  -0.95100 42.34800 21.38800
H  -0.07300 43.36000 20.11500
H  1.49500 46.11000 20.55600
H  2.48900 46.13800 22.06600
H  1.51000 47.68400 23.03300
H  -0.13500 46.85800 22.71400
H  0.55800 48.03100 21.65300
H  5.85900 43.20400 24.47800
H  6.38400 44.14600 25.90400
H  5.56500 45.08200 24.61700
H  3.90700 44.04000 30.10100
H  6.29700 40.72800 32.00800
H  4.61000 40.13200 32.09900
H  5.18000 41.28400 33.23900

