158

Mg 47.32800 16.02700 28.22300
C  45.03600 15.95700 30.89700
C  49.41500 17.92900 30.49000
C  49.20600 16.83700 25.75000
C  44.81700 14.82000 26.16100
N  47.17600 16.99300 30.44600
C  46.10800 16.70500 31.32400
C  46.51900 17.05500 32.76400
C  47.72000 17.99500 32.56900
C  48.19000 17.55200 31.13200
C  47.57600 19.56800 32.61400
C  46.96800 15.79400 33.54600
C  46.63500 15.94400 35.06200
H  46.38700 17.27800 35.70400
N  49.23900 17.06900 28.13500
C  49.90300 17.75100 29.16600
C  51.19200 18.22400 28.63300
C  51.17000 17.98900 27.21800
C  49.87400 17.27600 26.95500
C  52.32000 18.85100 29.47500
C  52.16400 18.33200 26.12900
O  51.86700 18.37000 24.96500
C  53.51400 18.96800 26.42400
N  47.02900 15.88700 26.28900
C  48.00200 16.20500 25.40600
C  47.57900 15.97100 23.94600
C  46.52600 14.91000 24.19700
C  46.05900 15.21600 25.61700
C  47.17600 17.23300 23.05400
C  47.23900 13.51500 24.19300
C  46.46900 12.41500 23.40800
N  45.32700 15.52700 28.41900
C  44.46800 14.90200 27.50900
C  43.30700 14.41500 28.19300
C  43.53300 14.73300 29.52300
C  44.72000 15.46800 29.62500
C  42.15300 13.56200 27.59300
C  42.94700 14.61300 30.83300
O  41.91600 14.05300 31.23600
C  43.92100 15.38400 31.79900
C  43.10500 16.32800 32.61100
O  42.69000 17.46700 32.23000
O  42.88600 15.84100 33.87100
C  42.03800 16.69100 34.71800
H  50.18800 18.30600 31.16400
H  49.84900 16.94900 24.87500
H  44.12400 14.22100 25.56600
H  45.73800 17.65500 33.23100
H  48.49700 17.73100 33.28700
H  47.58400 19.92600 31.58400
H  48.46000 20.02800 33.05700
H  46.68000 19.92400 33.12200
H  48.03100 15.58000 33.43600
H  46.47500 14.91500 33.13000
H  47.33500 15.33800 35.63700
H  45.72800 15.38200 35.28500
H  53.13800 18.15200 29.65000
H  51.96700 19.20900 30.44200
H  52.68800 19.69500 28.89100
H  53.42800 19.99300 26.78500
H  54.22100 18.94500 25.59500
H  53.89100 18.37400 27.25600
H  48.49100 15.67400 23.42800
H  45.71900 14.82200 23.46900
H  47.58300 18.15600 23.46700
H  46.09600 17.35400 22.97700
H  47.44400 17.04300 22.01500
H  47.28800 13.17600 25.22800
H  48.27800 13.54600 23.86200
H  47.19000 12.02400 22.69000
H  45.54000 12.78500 22.97400
H  46.07700 11.53800 23.92400
H  41.23500 13.97300 28.01200
H  42.24700 12.50500 27.84400
H  42.03500 13.65800 26.51300
H  44.32100 14.61400 32.45800
H  42.52400 16.68200 35.69400
H  41.07300 16.19500 34.82600
H  41.95300 17.73900 34.43100
Mg 9.35600 47.52000 26.02100
C  7.24000 47.82500 28.67600
C  11.95000 48.50800 27.88500
C  11.21300 47.53300 23.14400
C  6.38600 47.26800 23.98000
N  9.59900 48.15400 27.97000
C  8.57200 48.16300 28.90600
C  9.21300 48.47800 30.29900
C  10.56300 49.19500 29.88200
C  10.75100 48.55300 28.51400
C  10.44200 50.73100 29.83900
C  9.50000 47.11600 31.08600
C  10.28000 47.18500 32.42600
H  9.87500 46.08400 33.45500
N  11.30300 48.03400 25.61100
C  12.28400 48.25400 26.53900
C  13.52300 48.42600 25.93400
C  13.34300 48.18000 24.55100
C  11.92400 47.87400 24.32700
C  14.77100 48.82500 26.60600
C  14.35300 47.95700 23.40700
O  14.03100 47.82900 22.21600
C  15.79700 47.92600 23.78900
N  8.83400 47.32000 23.82900
C  9.86600 47.36900 22.84500
C  9.26800 47.15200 21.45800
C  7.69200 46.99000 21.72900
C  7.62700 47.23100 23.28000
C  9.64400 48.12100 20.29600
C  7.02200 45.67500 21.33900
C  6.36800 45.70400 19.91700
N  7.19500 47.46500 26.29100
C  6.16400 47.40700 25.37700
C  4.86700 47.32600 26.05100
C  5.26000 47.50800 27.40500
C  6.67100 47.55300 27.43100
C  3.53300 47.10400 25.43100
C  4.81800 47.71400 28.82700
O  3.67900 47.78400 29.31300
C  6.14400 47.66900 29.67000
C  6.18700 46.31100 30.39400
O  6.25000 45.22900 29.80300
O  6.04200 46.40400 31.71300
C  6.05100 45.18700 32.46900
H  12.79800 49.03600 28.32600
H  11.82300 47.55100 22.23800
H  5.49000 47.32300 23.35800
H  8.51000 49.15700 30.78100
H  11.39300 49.05200 30.57500
H  10.76100 51.12100 28.87200
H  11.09000 51.19300 30.58300
H  9.44700 51.06000 30.13900
H  10.00500 46.46600 30.37200
H  8.48300 46.85500 31.38000
H  10.17700 48.14300 32.93700
H  11.33500 47.10000 32.16800
H  15.41900 47.95400 26.69900
H  14.68600 49.30500 27.58100
H  15.35400 49.56300 26.05500
H  16.37900 47.74300 22.88500
H  16.04200 47.05500 24.39800
H  16.22300 48.83900 24.20400
H  9.60000 46.18400 21.08300
H  7.24100 47.83000 21.20000
H  8.88000 48.85700 20.04700
H  9.78200 47.55300 19.37600
H  10.53500 48.71300 20.50500
H  6.26700 45.23500 21.99100
H  7.79400 44.93100 21.14700
H  6.56200 46.70500 19.53100
H  5.31100 45.47600 20.05300
H  6.83400 44.98900 19.23900
H  3.00300 46.20000 25.73300
H  3.57000 46.94400 24.35400
H  2.90900 47.96800 25.66100
H  6.21500 48.39700 30.47800
H  5.25100 45.17700 33.21000
H  6.98300 45.10000 33.02900
H  6.07900 44.32500 31.80200

