158

Mg 9.03500 2.85300 26.97100
C  10.05700 1.47600 30.02500
C  6.79100 4.70300 28.71700
C  7.97300 4.07200 24.06600
C  10.87000 0.25400 25.31800
N  8.44600 3.00200 29.18500
C  9.08500 2.45400 30.21800
C  8.64300 3.14700 31.51500
C  7.43500 4.03100 30.99800
C  7.54200 3.90100 29.53000
C  5.97600 3.59600 31.55400
C  9.78000 3.92600 32.30500
C  9.55200 4.35600 33.77200
H  10.34700 3.82500 34.99900
N  7.57800 4.28000 26.48000
C  6.73300 4.88900 27.31700
C  5.98700 5.91300 26.61800
C  6.29900 5.71100 25.26400
C  7.33700 4.66900 25.20400
C  5.19100 6.99500 27.27300
C  5.82500 6.50800 24.09600
O  6.20700 6.41200 22.96200
C  4.77000 7.62200 24.34500
N  9.23100 2.10600 24.98400
C  8.77300 2.90800 23.93600
C  9.25400 2.35800 22.62600
C  10.06600 1.11300 22.98400
C  10.09200 1.15300 24.51100
C  8.18700 2.14100 21.50300
C  11.50200 1.19600 22.41900
C  11.76000 0.58900 21.05600
N  10.20800 1.25000 27.50400
C  10.93500 0.33800 26.69800
C  11.68200 -0.59000 27.53400
C  11.36000 -0.16000 28.85600
C  10.38500 0.90500 28.75200
C  12.65800 -1.72000 27.12400
C  11.56900 -0.41600 30.23700
O  12.22600 -1.25700 30.79200
C  10.79400 0.68200 31.05800
C  10.05400 -0.06500 32.11700
O  9.22000 -0.94200 31.83300
O  10.38200 0.33200 33.41300
C  9.81600 -0.27200 34.59600
H  6.14700 5.40200 29.25400
H  7.74100 4.62700 23.15500
H  11.48000 -0.43100 24.72600
H  8.24700 2.38100 32.18200
H  7.69500 5.05900 31.24900
H  6.16100 3.08500 32.49800
H  5.40300 2.92200 30.91700
H  5.28200 4.41800 31.73000
H  10.13400 4.71400 31.64100
H  10.59100 3.19800 32.28800
H  8.49900 4.21200 34.01200
H  9.70900 5.43500 33.79500
H  5.72700 7.92000 27.06300
H  4.92600 6.74600 28.30100
H  4.20100 6.96300 26.81800
H  5.15200 8.55100 24.76800
H  3.88000 7.20700 24.81700
H  4.37400 7.87600 23.36200
H  9.96200 3.07100 22.20200
H  9.50000 0.22800 22.69300
H  8.34000 2.89400 20.73000
H  7.22800 2.24300 22.01100
H  8.34200 1.12800 21.13200
H  12.20100 0.62000 23.02500
H  11.89200 2.21100 22.50200
H  10.84900 0.84800 20.51800
H  11.89600 -0.48300 21.19700
H  12.68100 0.91600 20.57300
H  12.62800 -1.78300 26.03600
H  12.46600 -2.59300 27.74700
H  13.62500 -1.30600 27.40800
H  11.55600 1.29500 31.53900
H  10.58800 -0.92700 35.00000
H  8.99600 -0.96800 34.42000
H  9.55600 0.57800 35.22600
Mg -5.10600 25.52300 25.22000
C  -3.57400 27.15200 27.83900
C  -6.81300 23.50400 27.57300
C  -6.49500 23.74600 22.77100
C  -2.99900 27.28600 23.03000
N  -5.09900 25.32700 27.45400
C  -4.50500 26.23500 28.30200
C  -5.03500 26.05200 29.69800
C  -5.73300 24.62800 29.56700
C  -5.92500 24.42300 28.09400
C  -4.87600 23.46300 30.07200
C  -6.01600 27.24700 30.11700
C  -6.05900 27.72800 31.66500
H  -5.62200 26.74900 32.70600
N  -6.53300 23.83900 25.20300
C  -7.03900 23.25200 26.25100
C  -8.09200 22.28900 25.78900
C  -7.97600 22.29400 24.34200
C  -6.96700 23.33400 24.03900
C  -8.88500 21.44600 26.64300
C  -8.65300 21.41000 23.36000
O  -8.54700 21.53000 22.16600
C  -9.50200 20.24800 23.83500
N  -4.85600 25.62100 23.18000
C  -5.44100 24.68000 22.39000
C  -4.93700 24.86400 20.94700
C  -3.97900 26.12900 21.01100
C  -3.92900 26.35300 22.52700
C  -4.30500 23.64300 20.40300
C  -4.34900 27.35500 20.08900
C  -3.20100 27.89100 19.21100
N  -3.58800 26.94700 25.41100
C  -2.79700 27.58500 24.40900
C  -1.87200 28.52600 25.06400
C  -2.16800 28.44500 26.44100
C  -3.20600 27.50300 26.55500
C  -0.85900 29.42500 24.34600
C  -1.85300 28.90600 27.77700
O  -1.09300 29.79400 28.03600
C  -2.84000 28.08000 28.70900
C  -2.03500 27.43500 29.75300
O  -1.14900 26.59300 29.50100
O  -2.58100 27.66800 30.95300
C  -1.67000 27.35100 32.17000
H  -7.40400 22.84900 28.21600
H  -6.87900 23.20100 21.90700
H  -2.32400 27.72700 22.29400
H  -4.23300 25.95800 30.43000
H  -6.75800 24.58200 29.93500
H  -4.44400 22.83400 29.29300
H  -5.48400 22.89100 30.77300
H  -4.02100 23.83900 30.63300
H  -7.04800 26.94000 29.94400
H  -5.76000 27.98800 29.36000
H  -7.12000 27.90700 31.83600
H  -5.48900 28.65500 31.72800
H  -9.92900 21.73500 26.53000
H  -8.71500 21.49600 27.71900
H  -8.65700 20.40500 26.41300
H  -10.34700 20.64900 24.39400
H  -8.86700 19.57100 24.40600
H  -10.00700 19.65000 23.07700
H  -5.74100 25.16500 20.27600
H  -2.99000 25.86800 20.63400
H  -4.35200 22.84700 21.14700
H  -3.25100 23.83600 20.20600
H  -4.74200 23.27100 19.47600
H  -4.51300 28.22300 20.72900
H  -5.14000 27.08700 19.38800
H  -3.50500 28.00800 18.17000
H  -2.27900 27.31100 19.22800
H  -3.16600 28.95400 19.44900
H  -1.38100 30.17200 23.74800
H  -0.50300 28.83300 23.50200
H  -0.01300 29.75600 24.94900
H  -3.51000 28.84700 29.09800
H  -2.02800 27.70800 33.13600
H  -0.67100 27.75100 31.99700
H  -1.54600 26.26800 32.17600

