158

Mg -2.44800 17.24600 27.43700
C  -2.65700 15.14800 30.14700
C  -3.14000 19.94900 29.47400
C  -2.13000 19.28300 24.80000
C  -2.32800 14.56800 25.25000
N  -2.91200 17.47600 29.54300
C  -2.85200 16.48900 30.47800
C  -3.21900 17.02400 31.87900
C  -3.30300 18.54400 31.62800
C  -3.17700 18.69500 30.11600
C  -4.51200 19.14800 32.33000
C  -2.25200 16.47500 33.03800
C  -2.02600 17.41700 34.18400
H  -1.39300 16.77000 35.41900
N  -2.62300 19.27800 27.12900
C  -2.90200 20.24700 28.07300
C  -2.83300 21.60300 27.47200
C  -2.28800 21.35900 26.20000
C  -2.29400 19.91100 26.01900
C  -2.95000 22.84900 28.23900
C  -1.66000 22.38800 25.25600
O  -1.05000 21.93300 24.33700
C  -1.63600 23.89000 25.64100
N  -2.40700 16.93100 25.33500
C  -2.18300 17.95800 24.45100
C  -2.08500 17.51300 22.99400
C  -1.88000 15.98100 23.16700
C  -2.14300 15.80400 24.68800
C  -3.28200 17.84600 21.96600
C  -0.46300 15.46900 22.59400
C  0.82200 16.12700 23.15000
N  -2.36900 15.28400 27.63200
C  -2.36700 14.31300 26.61200
C  -2.51600 13.08700 27.28000
C  -2.59500 13.32600 28.65300
C  -2.52400 14.67500 28.84400
C  -2.63600 11.81700 26.50500
C  -2.60400 12.56900 29.85700
O  -2.49000 11.32300 30.12700
C  -2.66900 13.79700 30.96200
C  -1.39600 13.71000 31.74900
O  -0.34700 14.32200 31.54800
O  -1.57900 12.97500 32.91600
C  -0.62900 13.12600 33.92800
H  -3.24100 20.83900 30.09800
H  -1.90400 19.76700 23.84800
H  -2.36200 13.60500 24.73500
H  -4.18200 16.62800 32.19900
H  -2.45200 19.02400 32.11100
H  -4.23500 19.97000 32.99000
H  -5.21700 18.50000 32.85000
H  -5.06700 19.54300 31.47900
H  -1.26900 16.40000 32.57200
H  -2.52300 15.55600 33.55700
H  -3.03700 17.74500 34.42800
H  -1.36100 18.20700 33.83700
H  -2.07700 23.47900 28.41200
H  -3.40900 22.60000 29.19600
H  -3.66000 23.40300 27.62500
H  -0.99400 24.07600 26.50200
H  -2.70900 24.03200 25.77500
H  -1.17900 24.39600 24.79100
H  -1.19500 17.94100 22.53400
H  -2.67200 15.36100 22.74700
H  -4.22900 18.20600 22.36900
H  -3.53200 16.88700 21.51000
H  -2.89600 18.55500 21.23400
H  -0.48600 15.82200 21.56300
H  -0.33100 14.39000 22.52100
H  1.53400 15.37300 23.48400
H  0.52600 16.71400 24.01900
H  1.41700 16.74300 22.47600
H  -1.95000 11.71900 25.66300
H  -3.54600 11.70200 25.91800
H  -2.54300 10.95100 27.16000
H  -3.59100 13.65300 31.52500
H  -0.07000 12.19200 33.99000
H  -1.06600 13.42200 34.88100
H  0.07900 13.94600 33.80600
Mg 1.88600 41.97100 25.44300
C  2.85400 42.23300 28.81400
C  -1.21600 40.95600 26.55400
C  1.17400 41.17000 22.32000
C  5.17700 42.86800 24.52700
N  0.97600 41.62400 27.52600
C  1.51800 41.99500 28.69700
C  0.36200 41.95700 29.77000
C  -0.82500 41.32800 29.07200
C  -0.36300 41.30200 27.61200
C  -1.09100 39.89700 29.58500
C  0.01900 43.26500 30.42300
C  -1.09300 43.22800 31.48300
H  -1.10400 42.11600 32.46700
N  0.12900 41.28500 24.55200
C  -0.99700 40.83300 25.18100
C  -1.94100 40.35700 24.19200
C  -1.26900 40.51100 22.89500
C  0.10500 40.98100 23.20700
C  -3.33300 39.77000 24.50900
C  -1.83700 40.18200 21.43100
O  -1.18200 40.32300 20.40200
C  -3.23900 39.72300 21.27900
N  3.07200 41.97300 23.67600
C  2.47400 41.66600 22.49900
C  3.39800 41.99600 21.29700
C  4.60400 42.77700 21.92500
C  4.30200 42.54400 23.46600
C  3.76100 40.72600 20.45900
C  4.60500 44.30000 21.53200
C  5.18200 44.82500 20.27000
N  3.73800 42.43400 26.40700
C  5.00700 42.70700 25.93100
C  5.86000 43.07600 27.08300
C  5.05700 42.87800 28.23500
C  3.78700 42.49900 27.76300
C  7.29600 43.43600 27.03300
C  5.08800 42.84800 29.61600
O  6.02400 43.08400 30.40500
C  3.64900 42.50100 30.12200
C  3.97700 41.25500 30.87900
O  4.20600 40.12100 30.44900
O  3.98300 41.66600 32.18600
C  4.14600 40.60800 33.11200
H  -2.20900 40.65300 26.89400
H  0.77600 41.03600 21.31200
H  6.18300 43.20100 24.26400
H  0.90000 41.34400 30.49400
H  -1.72700 41.94100 29.07200
H  -0.50500 39.78200 30.49700
H  -0.79800 39.18800 28.81000
H  -2.10500 39.73500 29.95100
H  -0.24500 43.99900 29.66100
H  0.95800 43.54100 30.90300
H  -2.05600 43.20700 30.97100
H  -0.95800 44.20000 31.95700
H  -3.55800 38.83800 23.99000
H  -4.21600 40.30900 24.16400
H  -3.39100 39.57200 25.57900
H  -3.43400 38.78100 21.79100
H  -3.57700 39.54200 20.25800
H  -3.76300 40.53600 21.78100
H  2.77600 42.60700 20.64400
H  5.54900 42.27200 21.72500
H  4.03600 39.93400 21.15600
H  4.68600 40.99400 19.94900
H  3.02700 40.41500 19.71700
H  4.88800 44.82200 22.44600
H  3.52700 44.45700 21.56900
H  4.35800 44.93000 19.56400
H  5.93200 44.17000 19.82600
H  5.64700 45.80100 20.41100
H  7.37600 44.52000 26.94700
H  7.85000 42.97500 26.21600
H  7.63300 43.06400 28.00000
H  3.13200 43.25900 30.71000
H  4.50600 41.02600 34.05200
H  4.80200 39.75800 32.92500
H  3.20000 40.12200 33.35000

