158

Mg 1.24500 8.39100 25.66900
C  2.17700 10.33300 28.51400
C  1.46400 5.60200 27.69100
C  0.59700 6.60300 23.00100
C  1.88100 11.14800 23.74300
N  1.73500 7.93600 27.81800
C  1.90600 8.96700 28.75300
C  2.06000 8.39600 30.11800
C  2.16800 6.88500 29.80600
C  1.78500 6.79200 28.39100
C  3.55100 6.25800 30.07200
C  0.90800 8.89100 31.15400
C  1.39400 9.13300 32.61700
H  2.64200 8.32700 33.03400
N  1.09100 6.32200 25.35400
C  1.07200 5.33600 26.35400
C  0.78500 4.09400 25.72900
C  0.48200 4.32800 24.39100
C  0.73200 5.79600 24.16100
C  0.95100 2.72200 26.38700
C  0.18100 3.33100 23.30400
O  0.07800 3.59800 22.13800
C  -0.00200 1.91100 23.62200
N  1.55100 8.78900 23.59400
C  0.94400 7.92100 22.75700
C  0.91200 8.52300 21.38500
C  0.91000 10.01800 21.66500
C  1.47500 9.99500 23.04800
C  2.10800 8.07000 20.41000
C  -0.44900 10.79200 21.63900
C  -0.52900 11.88600 20.53700
N  1.84100 10.34900 26.02300
C  2.04400 11.34400 25.14200
C  2.39800 12.59000 25.81200
C  2.49300 12.18700 27.16500
C  2.16800 10.82800 27.24500
C  2.65200 13.88900 25.15300
C  2.79300 12.65400 28.50300
O  3.17900 13.75400 28.82700
C  2.49600 11.48800 29.46400
C  3.73900 11.29500 30.17200
O  4.84200 10.90700 29.73600
O  3.64500 11.80200 31.44800
C  4.78400 11.39100 32.46100
H  1.33800 4.70900 28.30800
H  0.31500 6.02100 22.12200
H  1.95900 12.05700 23.14300
H  3.03500 8.76000 30.44100
H  1.41000 6.38200 30.40600
H  4.18300 7.03900 30.49500
H  3.88600 5.77700 29.15300
H  3.49100 5.44400 30.79400
H  0.05600 8.22200 31.03500
H  0.50600 9.78000 30.66800
H  0.54900 9.13200 33.30500
H  1.72400 10.17100 32.57800
H  0.03700 2.12800 26.40800
H  1.34300 2.94200 27.38000
H  1.76000 2.22200 25.85400
H  0.97900 1.46000 23.77200
H  -0.44100 1.45300 22.73500
H  -0.81300 1.75900 24.33400
H  -0.07800 8.24300 21.02300
H  1.55700 10.53900 20.95900
H  2.96700 7.74700 20.99800
H  2.49300 8.78200 19.68000
H  1.83800 7.16600 19.86500
H  -0.60700 11.21500 22.63100
H  -1.28200 10.11500 21.44800
H  -1.54400 11.88500 20.13700
H  0.04900 11.64100 19.64600
H  -0.12700 12.74500 21.07200
H  3.49100 13.69400 24.48500
H  3.04500 14.67200 25.80100
H  1.81600 14.15700 24.50800
H  1.71000 11.72300 30.18200
H  5.44900 10.64200 32.03300
H  4.23600 11.00000 33.31900
H  5.42600 12.21100 32.78200
Mg 34.64400 49.36200 25.93900
C  34.44400 47.29500 28.66500
C  33.39600 51.92700 27.61300
C  34.58200 51.06600 23.00900
C  35.67300 46.46500 24.01700
N  33.81500 49.51400 27.86900
C  34.08000 48.63600 28.86500
C  33.87100 49.36900 30.21200
C  33.16200 50.69700 29.81300
C  33.47300 50.73000 28.32200
C  31.69400 50.84000 30.24500
C  35.17000 49.64000 31.08100
C  35.04000 50.26300 32.44700
H  33.61300 50.32100 33.08000
N  34.20400 51.29900 25.42900
C  33.79800 52.21800 26.30600
C  33.74600 53.48700 25.59100
C  34.03000 53.26100 24.24900
C  34.28600 51.82600 24.15000
C  33.21300 54.79300 26.26400
C  34.04600 54.24300 23.04000
O  34.19100 53.87900 21.88300
C  33.94800 55.69700 23.29200
N  34.93000 48.79800 23.77400
C  34.82700 49.74400 22.77500
C  35.23800 49.11500 21.47500
C  35.79900 47.71900 21.87000
C  35.48200 47.63700 23.29500
C  34.03300 49.08900 20.43200
C  37.23700 47.48700 21.41900
C  38.41500 47.78300 22.39200
N  34.92400 47.26900 26.21600
C  35.32900 46.26900 25.36300
C  35.30400 45.00200 26.10500
C  35.09400 45.37900 27.45000
C  34.76200 46.76400 27.42400
C  35.79600 43.76000 25.51400
C  35.06400 44.99800 28.89100
O  35.31400 43.95400 29.38900
C  34.66400 46.25500 29.69200
C  33.43200 45.90800 30.46400
O  32.38400 45.64300 29.90900
O  33.64600 45.87900 31.81900
C  32.63300 45.28600 32.64300
H  33.26500 52.83200 28.20900
H  34.74300 51.69000 22.12800
H  36.16400 45.65700 23.47100
H  33.24000 48.74600 30.84600
H  33.51700 51.53000 30.42000
H  31.40900 50.01900 30.90200
H  31.12400 50.59300 29.34900
H  31.41800 51.64100 30.93100
H  35.78600 50.19900 30.37700
H  35.62200 48.65900 31.22100
H  35.26500 51.31400 32.27200
H  35.72900 49.75200 33.12000
H  33.84700 55.66300 26.09500
H  33.12700 54.57800 27.33000
H  32.22900 55.07900 25.89300
H  33.12600 56.01800 23.93200
H  33.93100 56.12800 22.29100
H  34.86500 56.00900 23.79300
H  36.00600 49.78400 21.08700
H  35.25600 46.91100 21.37900
H  33.95000 49.88300 19.69000
H  33.17200 48.86200 21.06000
H  34.29100 48.20300 19.85100
H  37.39000 48.15600 20.57300
H  37.31800 46.43200 21.15700
H  38.89300 46.85900 22.71800
H  38.16200 48.30900 23.31200
H  39.18500 48.39100 21.91800
H  36.30600 44.08600 24.60800
H  34.89400 43.15100 25.44900
H  36.47000 43.31900 26.24800
H  35.49000 46.55500 30.33700
H  31.71100 45.74700 32.28900
H  32.79400 45.50900 33.69800
H  32.77500 44.20700 32.59900

