158

Mg 25.98000 0.29900 28.98300
C  27.77400 -0.01500 31.91900
C  23.16000 0.75900 31.02600
C  24.04300 0.31600 26.20600
C  28.64500 -0.83200 27.11200
N  25.53500 0.30900 31.31500
C  26.50000 0.37100 32.18600
C  25.92600 0.63700 33.53700
C  24.37000 0.71100 33.36500
C  24.33200 0.54900 31.84800
C  23.49500 -0.30900 34.21500
C  26.62400 1.84200 34.27700
C  25.82800 2.71600 35.17900
H  26.40000 2.93100 36.58500
N  23.98200 0.65100 28.68200
C  22.97400 0.81800 29.60900
C  21.67300 1.20000 28.97700
C  21.97000 1.11700 27.61300
C  23.37900 0.65600 27.45800
C  20.32200 1.45400 29.77100
C  20.96000 1.34300 26.48000
O  21.25300 1.14500 25.33500
C  19.60700 1.85500 26.68400
N  26.33600 -0.08800 26.95500
C  25.37000 -0.06500 26.00400
C  25.93400 -0.28500 24.60700
C  27.40000 -0.66100 24.87500
C  27.53300 -0.44200 26.38500
C  25.30100 -1.39600 23.71300
C  28.55900 0.05700 24.04700
C  28.93100 1.49500 24.43100
N  27.85100 -0.29300 29.35900
C  28.84800 -0.70400 28.52200
C  30.00300 -0.98000 29.30100
C  29.65300 -0.71300 30.64800
C  28.29700 -0.34200 30.66200
C  31.25300 -1.40200 28.60600
C  30.12900 -0.61400 31.96700
O  31.20200 -0.84900 32.42400
C  28.90200 -0.13400 32.88600
C  28.58900 -1.25200 33.81900
O  28.22500 -2.37600 33.54700
O  28.68100 -0.70200 35.14300
C  28.47500 -1.56800 36.32700
H  22.30000 1.08600 31.61500
H  23.37500 0.37800 25.34400
H  29.47000 -1.11200 26.45400
H  26.14700 -0.27300 34.09400
H  24.03600 1.74400 33.46100
H  22.69900 0.23000 34.73000
H  24.09400 -0.81400 34.97200
H  23.04100 -1.02900 33.53400
H  27.03700 2.48700 33.50200
H  27.48800 1.62200 34.90400
H  24.88300 2.24300 35.44800
H  25.55300 3.66600 34.72100
H  19.79300 2.32300 29.38000
H  20.34200 1.55200 30.85600
H  19.79000 0.51500 29.62100
H  19.02700 1.16700 27.29900
H  19.07700 1.91500 25.73300
H  19.72200 2.84900 27.11600
H  25.99500 0.61700 23.99900
H  27.67600 -1.71000 24.77000
H  25.98100 -2.21800 23.48600
H  24.84200 -1.01000 22.80300
H  24.48000 -1.86000 24.25900
H  28.11700 -0.03800 23.05500
H  29.47700 -0.53100 24.03800
H  30.01100 1.57600 24.55200
H  28.44000 1.98600 25.27100
H  28.69700 2.21600 23.64900
H  31.96500 -0.81600 29.18600
H  31.45400 -1.05800 27.59100
H  31.43200 -2.46500 28.44500
H  29.13200 0.78500 33.42400
H  27.70900 -1.18100 37.00000
H  29.41400 -1.58700 36.88000
H  28.28300 -2.60700 36.05700
Mg 35.45900 1.64800 29.53900
C  33.58100 2.96500 32.03400
C  38.26800 1.79000 31.68500
C  37.54900 0.84100 27.00400
C  32.88800 2.20300 27.25000
N  35.86100 2.17500 31.65000
C  34.86900 2.64800 32.43900
C  35.37800 2.57700 33.89000
C  36.90100 2.60700 33.77000
C  37.07700 2.22000 32.29100
C  37.49700 3.92000 34.17300
C  34.77600 1.35200 34.70300
C  34.18100 1.84500 36.05600
H  34.70000 3.06800 36.75300
N  37.58000 1.30500 29.34100
C  38.51600 1.31800 30.38200
C  39.74000 0.75900 29.95500
C  39.58900 0.41300 28.58700
C  38.20800 0.86400 28.22400
C  40.89300 0.58900 30.93300
C  40.62500 -0.07700 27.60600
O  40.34100 -0.25900 26.45900
C  41.98300 -0.27300 28.02800
N  35.33300 1.70600 27.33300
C  36.27200 1.12500 26.58700
C  35.74500 0.96200 25.19200
C  34.18200 1.07800 25.33200
C  34.15100 1.75200 26.70300
C  36.32900 2.00800 24.16500
C  33.36300 -0.24500 25.32200
C  32.36600 -0.34900 24.14500
N  33.57300 2.39700 29.59000
C  32.60000 2.50800 28.59500
C  31.43400 3.02100 29.17800
C  31.76900 3.26600 30.50900
C  33.05700 2.81800 30.71400
C  30.10800 3.26900 28.49600
C  31.24100 3.82100 31.70200
O  30.13900 4.23800 32.07000
C  32.39300 3.53000 32.81300
C  32.59300 4.87600 33.51200
O  33.42200 5.66300 33.19000
O  31.76300 5.02200 34.62200
C  31.86900 6.30700 35.43000
H  39.06000 1.84000 32.43400
H  38.07800 0.43300 26.14100
H  32.06800 2.07500 26.54000
H  35.02600 3.48800 34.37300
H  37.37300 1.81800 34.35500
H  38.48300 3.71000 34.58700
H  36.96200 4.49800 34.92600
H  37.60800 4.58600 33.31700
H  35.58200 0.63100 34.84400
H  34.04800 0.75400 34.15500
H  34.31900 0.99200 36.72000
H  33.10600 1.99300 35.95600
H  40.66900 0.62400 31.99900
H  41.55200 1.44200 30.77200
H  41.40600 -0.37300 30.95100
H  42.56200 -0.70500 27.21300
H  41.92000 -1.03300 28.80700
H  42.41600 0.59000 28.53400
H  35.94300 -0.05300 24.84800
H  33.77400 1.71600 24.54900
H  35.62500 2.78300 23.86100
H  36.74200 1.39300 23.36600
H  37.17300 2.55200 24.58900
H  32.83500 -0.31000 26.27300
H  33.98700 -1.13000 25.19900
H  32.60300 -1.14000 23.43400
H  32.39100 0.55600 23.53700
H  31.39000 -0.50800 24.60200
H  29.81700 4.22200 28.93600
H  29.47500 2.41900 28.75100
H  30.15500 3.45000 27.42200
H  31.99900 2.86300 33.58100
H  30.81100 6.50300 35.60100
H  32.16100 7.19100 34.86200
H  32.38700 6.19300 36.38200

