158

Mg 41.20100 41.06700 26.83100
C  40.52400 43.43200 29.43900
C  41.92300 38.73100 29.15400
C  41.97500 38.96100 24.36100
C  40.51200 43.51700 24.51500
N  41.15500 41.05300 29.05500
C  40.84000 42.13700 29.88500
C  40.88500 41.66400 31.35200
C  41.35300 40.13300 31.24100
C  41.45100 39.94500 29.70100
C  42.71300 39.76800 31.81200
C  39.58500 41.82700 32.15900
C  39.45000 42.97600 33.15900
H  38.98300 42.61800 34.65500
N  41.92200 39.14900 26.75800
C  42.12900 38.36000 27.83900
C  42.60100 37.11300 27.43400
C  42.57300 37.07800 26.00700
C  42.10600 38.43500 25.65500
C  43.05000 35.99700 28.47500
C  42.81100 35.95100 25.03200
O  42.58600 36.05200 23.82100
C  43.34000 34.59200 25.52900
N  41.45300 41.27600 24.74600
C  41.66400 40.23600 23.93800
C  41.40500 40.59400 22.43800
C  40.61500 41.96700 22.56900
C  40.79900 42.23300 24.07900
C  42.66700 40.49500 21.54800
C  39.20200 41.85800 21.95900
C  38.19100 41.41600 22.99900
N  40.68700 43.05900 26.91700
C  40.49300 43.96100 25.85800
C  40.08300 45.29100 26.38200
C  40.14600 45.12400 27.74500
C  40.47000 43.75100 28.02300
C  39.60800 46.55500 25.63300
C  39.87000 45.76600 28.93900
O  39.50700 46.88400 29.14400
C  40.21400 44.74300 30.15000
C  41.41400 45.24900 30.91000
O  42.50300 44.80900 30.78600
O  40.94000 46.05600 31.94100
C  41.89800 46.45300 33.03300
H  42.17900 38.13300 30.03200
H  42.18200 38.29600 23.51900
H  40.17600 44.22200 23.75100
H  41.67400 42.27100 31.79700
H  40.60400 39.39700 31.53300
H  42.82500 40.50300 32.60900
H  43.51600 39.83600 31.07900
H  42.69400 38.76400 32.23700
H  39.40600 40.90600 32.71400
H  38.67900 41.84000 31.55300
H  38.75500 43.65900 32.67200
H  40.44100 43.42900 33.16200
H  42.42500 36.16300 29.35200
H  44.09100 36.05100 28.79200
H  42.86400 34.97500 28.14600
H  42.54900 33.89800 25.81500
H  44.06500 34.67500 26.33900
H  43.94800 34.18700 24.72100
H  40.67900 39.90800 22.00100
H  41.29600 42.65700 22.07100
H  42.66100 39.56800 20.97400
H  43.52100 40.44300 22.22400
H  42.76500 41.36200 20.89500
H  39.18800 41.20600 21.08600
H  38.93900 42.82600 21.53200
H  38.65300 40.83400 23.79700
H  37.31000 40.85300 22.68800
H  37.93800 42.38400 23.43200
H  38.84200 46.16300 24.96400
H  40.40900 46.95800 25.01400
H  39.27500 47.32600 26.32900
H  39.29100 44.78400 30.72700
H  42.75200 46.91000 32.53300
H  42.24500 45.57200 33.57300
H  41.37300 47.12500 33.71100
Mg -4.33500 25.06100 26.03800
C  -2.78800 26.83200 28.65300
C  -5.41600 22.67300 28.28100
C  -5.50100 23.49100 23.50600
C  -2.46800 27.15800 23.73500
N  -4.18100 24.82300 28.27000
C  -3.54300 25.72400 29.06200
C  -3.94600 25.46400 30.52300
C  -4.53700 23.93900 30.37700
C  -4.71800 23.72800 28.89400
C  -3.66200 22.81700 31.00800
C  -5.09400 26.51500 30.94200
C  -5.45900 26.62300 32.40100
H  -5.06300 25.44100 33.33100
N  -5.32900 23.32500 25.90700
C  -5.76600 22.51000 26.93500
C  -6.66800 21.55000 26.36200
C  -6.50700 21.59600 24.93100
C  -5.73700 22.82000 24.70600
C  -7.50300 20.67300 27.19100
C  -7.09400 20.65000 23.82700
O  -6.91900 20.82100 22.65900
C  -7.88600 19.46500 24.16000
N  -3.96700 25.27100 23.86400
C  -4.83800 24.65100 23.11800
C  -4.84500 25.18500 21.54800
C  -3.77500 26.28600 21.66200
C  -3.41700 26.28200 23.15500
C  -4.51500 24.01900 20.63900
C  -4.30900 27.69200 21.15900
C  -4.29400 27.88600 19.67400
N  -2.90400 26.68300 26.12100
C  -2.18800 27.43300 25.09700
C  -1.37400 28.45700 25.70700
C  -1.61000 28.26900 27.10000
C  -2.51000 27.17800 27.28400
C  -0.63500 29.50500 25.09800
C  -1.33900 28.83600 28.38700
O  -0.69800 29.84900 28.74700
C  -2.12700 27.95400 29.36900
C  -1.32100 27.46900 30.56800
O  -0.23700 26.92200 30.52100
O  -1.98700 27.82200 31.72200
C  -1.27000 27.46500 32.90200
H  -5.79700 21.98900 29.04300
H  -5.95100 23.04200 22.61800
H  -1.87700 27.78700 23.06600
H  -3.03700 25.43600 31.12400
H  -5.52100 24.01700 30.83900
H  -2.68400 23.26300 31.19300
H  -3.51700 22.01700 30.28200
H  -4.07000 22.41500 31.93500
H  -5.95000 26.17800 30.35700
H  -4.82200 27.50400 30.57300
H  -6.53500 26.76800 32.50500
H  -5.16500 27.62800 32.70300
H  -7.22600 19.63000 27.03500
H  -8.50000 20.83100 26.77900
H  -7.43500 20.88600 28.25800
H  -8.64100 19.67900 24.91600
H  -7.31500 18.60000 24.50000
H  -8.40900 19.15100 23.25700
H  -5.78400 25.64200 21.23600
H  -2.96400 26.03700 20.97800
H  -4.44800 23.04300 21.12100
H  -3.66100 24.19500 19.98500
H  -5.34200 23.88800 19.94100
H  -3.78000 28.53900 21.59500
H  -5.35400 27.71200 21.46900
H  -3.97200 26.96900 19.18000
H  -3.82400 28.80500 19.32500
H  -5.35700 27.96900 19.44500
H  -0.66800 29.51100 24.00800
H  0.40200 29.41000 25.42100
H  -1.06500 30.45300 25.42200
H  -2.87900 28.60400 29.81600
H  -1.81900 27.87300 33.75100
H  -0.27600 27.90900 32.86500
H  -1.26500 26.37900 32.99600

