158

Mg 49.54600 46.36000 43.08300
C  46.40600 47.02900 41.57500
C  49.49900 43.30200 41.26200
C  52.75700 46.06400 43.70200
C  49.51900 49.70500 44.26600
N  48.18000 45.37000 41.44700
C  46.91200 45.81200 41.07200
C  46.26900 44.86300 40.07400
C  47.14300 43.54300 40.27000
C  48.38500 44.09800 41.06000
C  46.48700 42.40100 40.99000
C  46.36600 45.47700 38.62800
C  45.22100 44.90300 37.70100
H  45.69300 44.34900 36.32400
N  50.99500 44.87300 42.64600
C  50.70600 43.65800 41.97600
C  51.96600 42.91500 41.97100
C  52.96900 43.64500 42.63300
C  52.27700 44.92500 43.01400
C  52.16200 41.62300 41.31500
C  54.48300 43.27300 42.86400
O  54.95800 42.18700 42.55100
C  55.37000 44.21400 43.55200
N  50.94100 47.76700 43.62300
C  52.15600 47.31500 43.92300
C  53.05700 48.50400 44.49300
C  52.02400 49.65000 44.78000
C  50.76100 49.01900 44.22300
C  53.95800 48.14400 45.73000
C  52.40300 51.08800 44.09300
C  52.11900 52.35400 44.99500
N  48.16900 47.97500 43.19400
C  48.31000 49.23300 43.72800
C  46.95600 49.82400 43.66000
C  46.20300 49.01800 42.87700
C  46.96500 47.90400 42.53100
C  46.48700 51.18200 44.08500
C  44.87200 48.92200 42.25600
O  43.91700 49.70300 42.27300
C  44.96000 47.58300 41.32700
C  43.96400 46.72300 41.92600
O  44.17600 45.93200 42.86400
O  42.77700 46.96200 41.38000
C  41.67900 46.04000 41.73200
H  49.57200 42.29600 40.84300
H  53.80500 46.06200 44.01200
H  49.48300 50.64200 44.82600
H  45.24000 44.67500 40.38100
H  47.41500 43.18900 39.27500
H  46.06400 41.60000 40.38400
H  45.79300 42.73100 41.76300
H  47.10800 41.94200 41.76000
H  47.29500 45.32500 38.07800
H  46.19000 46.55300 38.61700
H  44.42600 45.63200 37.54900
H  44.89800 43.93600 38.08700
H  52.71000 40.94400 41.96700
H  52.76900 41.93600 40.46500
H  51.38500 41.07400 40.78300
H  55.02200 44.28800 44.58200
H  55.44100 45.21300 43.12200
H  56.39700 43.85900 43.63800
H  53.69200 49.04200 43.78900
H  51.89900 49.73400 45.85900
H  53.93300 47.08600 45.99200
H  53.67000 48.72500 46.60600
H  54.96900 48.45100 45.46300
H  51.74300 51.24300 43.24000
H  53.41900 51.17900 43.70900
H  53.10400 52.61700 45.38100
H  51.57000 52.01700 45.87500
H  51.58800 53.14500 44.46700
H  45.64200 51.43700 43.44600
H  47.27300 51.93700 44.04600
H  46.05600 51.00500 45.07100
H  44.83900 47.86200 40.28000
H  40.74100 46.36000 41.27900
H  41.45800 46.18700 42.78900
H  41.87000 44.99800 41.47800
Mg -5.44100 24.62800 25.82600
C  -4.02000 26.05900 28.66400
C  -7.18600 22.52500 27.75900
C  -6.04000 22.85800 23.05300
C  -3.23900 26.82400 23.85600
N  -5.44600 24.23400 28.01400
C  -4.93300 25.02100 28.98000
C  -5.51500 24.69500 30.38400
C  -6.43400 23.40800 30.05800
C  -6.35500 23.34500 28.52400
C  -6.00900 22.06000 30.59900
C  -6.29700 25.84900 31.02900
C  -6.00200 26.08300 32.54600
H  -5.17800 25.02300 33.35000
N  -6.72600 23.01500 25.45100
C  -7.42400 22.33500 26.41300
C  -8.23000 21.32900 25.71000
C  -7.86000 21.41800 24.26300
C  -6.77500 22.42400 24.17600
C  -9.19200 20.43200 26.43300
C  -8.33400 20.64300 23.13500
O  -7.86500 20.77400 22.01500
C  -9.35100 19.63700 23.33000
N  -4.82300 24.90200 23.67600
C  -5.15900 23.90100 22.80400
C  -4.42100 24.10500 21.45800
C  -3.49300 25.33700 21.76900
C  -3.88200 25.75400 23.15400
C  -3.47900 22.97700 20.98000
C  -3.56400 26.45500 20.62500
C  -2.20300 27.12500 20.35000
N  -3.98700 26.10900 26.15300
C  -3.33000 26.97800 25.23800
C  -2.68600 28.03800 25.98200
C  -2.93900 27.67500 27.27900
C  -3.67300 26.46400 27.35100
C  -1.87400 29.17500 25.51500
C  -2.59700 28.06800 28.59800
O  -1.88000 28.96400 29.06600
C  -3.36600 27.12100 29.63800
C  -2.29600 26.48800 30.51000
O  -1.59000 25.55400 30.25300
O  -2.20100 27.23900 31.61300
C  -1.00600 26.95200 32.48200
H  -7.87200 22.01400 28.43800
H  -6.14000 22.15800 22.22100
H  -2.64700 27.49800 23.23300
H  -4.69200 24.42500 31.04700
H  -7.41300 23.63300 30.48100
H  -5.51500 21.29200 30.00500
H  -6.95300 21.67600 30.98500
H  -5.41800 22.19500 31.50500
H  -7.37400 25.68300 30.99900
H  -6.12800 26.77300 30.47600
H  -6.89600 26.25700 33.14500
H  -5.59600 27.09000 32.64300
H  -10.13100 20.29300 25.89800
H  -9.43800 20.91400 27.38000
H  -8.73900 19.45800 26.61800
H  -9.31000 19.02000 22.43300
H  -10.29700 20.17700 23.28000
H  -9.27300 19.04300 24.24100
H  -5.18100 24.29900 20.70100
H  -2.42300 25.12700 21.79500
H  -3.44800 22.30600 21.83800
H  -2.44200 23.18700 20.71800
H  -3.83200 22.45900 20.08700
H  -4.18700 27.26200 21.01100
H  -4.12200 26.11200 19.75400
H  -1.94100 27.26600 19.30200
H  -1.29900 26.59200 20.64500
H  -2.05700 28.12500 20.75900
H  -0.85000 28.83200 25.37100
H  -1.88400 29.97300 26.25800
H  -2.29800 29.52100 24.57200
H  -4.01700 27.69800 30.29500
H  -0.12000 26.66800 31.91500
H  -1.19200 26.16700 33.21600
H  -0.68200 27.90500 32.90000

