158

Mg -2.54000 17.46300 27.54200
C  -3.06700 15.22200 30.17600
C  -2.97200 20.10300 29.74500
C  -2.26900 19.43900 25.07200
C  -2.70800 14.73900 25.39700
N  -2.89100 17.62600 29.77900
C  -3.10600 16.58200 30.67100
C  -3.37100 17.14700 32.10500
C  -3.47200 18.70400 31.86500
C  -3.08900 18.83600 30.36100
C  -4.77800 19.40200 32.17400
C  -2.37500 16.55900 33.13500
C  -1.98900 17.42300 34.38900
H  -1.74900 16.68700 35.63900
N  -2.32000 19.47500 27.44400
C  -2.50100 20.42200 28.48100
C  -2.21400 21.70100 27.92600
C  -2.09700 21.59800 26.51700
C  -2.17200 20.17300 26.28400
C  -2.29900 22.88800 28.87700
C  -1.96300 22.71200 25.46700
O  -1.64300 22.44800 24.31700
C  -2.02800 24.18500 25.86000
N  -2.68800 17.14200 25.52700
C  -2.49900 18.09800 24.71100
C  -2.50600 17.62800 23.21000
C  -2.41600 16.06700 23.32600
C  -2.62700 15.98200 24.82900
C  -3.67000 18.13600 22.35100
C  -1.13600 15.29100 22.84800
C  0.17000 15.67100 23.58900
N  -2.92400 15.40700 27.67000
C  -2.94700 14.41200 26.72700
C  -3.03300 13.06500 27.34700
C  -3.07600 13.40000 28.73500
C  -3.01500 14.79500 28.83700
C  -3.02900 11.71900 26.79300
C  -3.29700 12.79600 30.07900
O  -3.55600 11.69800 30.37400
C  -3.24400 14.00200 31.11500
C  -2.02500 13.55200 31.89100
O  -0.88600 13.95600 31.65400
O  -2.36500 12.78900 32.99400
C  -1.22500 12.55800 33.91700
H  -3.12000 20.90700 30.46900
H  -2.08700 20.08200 24.20800
H  -2.58700 13.90900 24.69800
H  -4.29700 16.73900 32.51000
H  -2.65500 19.11600 32.45800
H  -5.03200 20.16700 31.44000
H  -4.70200 19.79100 33.18900
H  -5.63000 18.72300 32.21000
H  -1.45500 16.25100 32.63800
H  -2.85000 15.67300 33.55600
H  -2.91800 17.99000 34.46100
H  -1.06200 17.97300 34.22700
H  -1.65600 23.61200 28.37700
H  -1.79400 22.64100 29.81000
H  -3.25500 23.35000 29.12300
H  -2.26000 24.85400 25.03000
H  -1.08700 24.48700 26.31900
H  -2.73800 24.28200 26.68100
H  -1.54200 17.97700 22.84100
H  -3.27600 15.56200 22.88600
H  -4.16100 18.99400 22.81000
H  -4.40700 17.39900 22.03200
H  -3.20100 18.55600 21.46100
H  -1.03500 15.45800 21.77600
H  -1.29200 14.21400 22.91600
H  0.74800 16.33800 22.95000
H  0.76300 14.78600 23.82400
H  -0.05300 16.20800 24.51100
H  -2.81200 11.08800 27.65500
H  -2.35300 11.55000 25.95500
H  -4.03800 11.49100 26.45000
H  -4.20100 13.82600 31.60700
H  -1.46000 11.68800 34.53000
H  -0.93000 13.36000 34.59400
H  -0.28100 12.14900 33.55700
Mg -5.98900 25.43700 26.55500
C  -4.52000 26.84300 29.48400
C  -7.76400 23.36700 28.68000
C  -7.09100 23.94000 23.85100
C  -3.59100 27.23300 24.73800
N  -6.02000 25.06000 28.83600
C  -5.50700 25.87500 29.81600
C  -5.96900 25.44800 31.16800
C  -6.68700 24.06600 30.93600
C  -6.79400 24.13100 29.43100
C  -5.82800 22.84400 31.22900
C  -6.91800 26.55400 31.83000
C  -7.38600 26.28800 33.25100
H  -6.75800 25.11100 34.10000
N  -7.33700 23.89200 26.25700
C  -7.93700 23.16900 27.26700
C  -8.89300 22.22900 26.63900
C  -8.81800 22.41800 25.19200
C  -7.74200 23.44900 25.02700
C  -9.81200 21.29100 27.48100
C  -9.58800 21.72900 24.04700
O  -9.27000 21.97400 22.90000
C  -10.62400 20.72000 24.40500
N  -5.29900 25.47800 24.61300
C  -5.98000 24.81500 23.66000
C  -5.26300 24.98800 22.29700
C  -4.34600 26.20200 22.53800
C  -4.40900 26.37200 24.04100
C  -4.39100 23.73500 21.75000
C  -4.70900 27.50900 21.84500
C  -3.55500 28.21300 21.02500
N  -4.41800 26.81100 26.95400
C  -3.52700 27.43000 26.11200
C  -2.54800 28.18500 26.85800
C  -2.96500 28.00800 28.20000
C  -4.06300 27.12000 28.18700
C  -1.29000 28.86600 26.22900
C  -2.55700 28.31900 29.56500
O  -1.56900 28.92000 30.00500
C  -3.63100 27.58600 30.52300
C  -2.77100 26.79300 31.38200
O  -2.20500 25.73100 31.06200
O  -2.87000 27.25700 32.68500
C  -2.24900 26.33800 33.71500
H  -8.41300 22.71200 29.26500
H  -7.46000 23.55700 22.89700
H  -2.82800 27.74600 24.14900
H  -5.08000 25.26100 31.77000
H  -7.63300 23.97900 31.46900
H  -5.00900 23.09100 31.90500
H  -5.43400 22.35900 30.33600
H  -6.34100 22.09000 31.82500
H  -7.78400 26.73300 31.19200
H  -6.32000 27.46500 31.80400
H  -8.44800 26.04800 33.20200
H  -7.33000 27.25300 33.75600
H  -10.58300 20.80700 26.88300
H  -10.19700 21.93700 28.27000
H  -9.33100 20.45800 27.99400
H  -10.94300 20.25800 23.47100
H  -11.50100 21.24000 24.79200
H  -10.27300 19.91500 25.05000
H  -5.99800 25.22800 21.52900
H  -3.31700 25.90300 22.33900
H  -4.73600 23.40500 20.76900
H  -4.52500 22.91600 22.45700
H  -3.34100 24.00900 21.65600
H  -4.99800 28.19700 22.64000
H  -5.59300 27.43000 21.21200
H  -2.67600 27.58200 20.88900
H  -3.28300 29.20600 21.38500
H  -3.74800 28.46200 19.98100
H  -1.54600 29.89100 25.96300
H  -0.96300 28.29900 25.35700
H  -0.38300 28.80400 26.83100
H  -4.20900 28.26600 31.15000
H  -2.59600 25.30400 33.73000
H  -2.24000 26.79800 34.70300
H  -1.17600 26.41700 33.53800

