158

Mg -1.13800 17.28100 26.07400
C  -1.58200 15.02900 28.66600
C  -1.88800 19.84200 28.25000
C  -0.86500 19.32500 23.45800
C  -1.15400 14.58300 23.82400
N  -1.52500 17.40100 28.27100
C  -1.50900 16.37900 29.15100
C  -1.74400 16.93800 30.57900
C  -1.99000 18.42800 30.36100
C  -1.78400 18.59000 28.92000
C  -3.23300 19.22800 30.99900
C  -0.70100 16.38800 31.66900
C  -0.36600 17.27500 32.82000
H  -0.43100 16.61700 34.24700
N  -1.31600 19.34300 25.87500
C  -1.69500 20.16700 26.88000
C  -1.82900 21.51700 26.24400
C  -1.41000 21.43400 24.88700
C  -1.18300 19.98100 24.67300
C  -2.25800 22.82300 27.05600
C  -1.38600 22.50700 23.86300
O  -1.28600 22.30800 22.65500
C  -1.53800 23.90100 24.23900
N  -1.03800 16.97100 23.92600
C  -0.80800 18.01600 23.02600
C  -0.52100 17.48400 21.61400
C  -0.54300 15.93400 21.86400
C  -1.03400 15.83200 23.26400
C  -1.57500 17.97900 20.43600
C  0.91200 15.32800 21.62800
C  2.10000 15.69400 22.57700
N  -1.29900 15.19000 26.17000
C  -1.33400 14.24800 25.18800
C  -1.47100 12.94000 25.86000
C  -1.47700 13.19000 27.26800
C  -1.47700 14.61600 27.35800
C  -1.61800 11.65400 25.17900
C  -1.65900 12.51200 28.53200
O  -1.85200 11.38500 28.84500
C  -1.63800 13.70700 29.55200
C  -0.50100 13.49600 30.43300
O  0.64600 13.73000 30.18300
O  -1.02900 12.93400 31.59200
C  0.12000 12.79600 32.60900
H  -2.00700 20.62900 28.99700
H  -0.65400 19.92300 22.56900
H  -1.15200 13.69200 23.19300
H  -2.72000 16.53300 30.84500
H  -1.08200 18.97500 30.61500
H  -3.62900 18.60900 31.80400
H  -4.08200 19.51500 30.37900
H  -2.95300 20.19700 31.41200
H  0.14900 16.14200 31.03300
H  -1.20000 15.50300 32.06300
H  -1.04700 18.12000 32.91600
H  0.65500 17.65400 32.76700
H  -1.33900 23.25400 27.45200
H  -2.79800 22.50000 27.94700
H  -2.83200 23.55600 26.48900
H  -2.59300 24.01300 24.48900
H  -1.33900 24.64700 23.47000
H  -0.91300 24.11200 25.10700
H  0.46500 17.84200 21.31600
H  -1.23400 15.45000 21.17400
H  -2.21000 18.69500 20.95800
H  -2.33700 17.30800 20.03900
H  -1.06600 18.56600 19.67200
H  1.02100 15.48400 20.55500
H  0.73600 14.25200 21.63700
H  2.84000 16.15500 21.92200
H  2.54000 14.77700 22.97100
H  1.78200 16.48000 23.26100
H  -1.39500 11.83300 24.12700
H  -2.65500 11.32000 25.21200
H  -0.99100 10.88000 25.62100
H  -2.52400 13.77200 30.18400
H  0.61300 13.71600 32.92200
H  0.93900 12.11900 32.36400
H  -0.31700 12.30400 33.47800
Mg 31.58600 58.64300 40.81700
C  28.92400 56.82100 39.55800
C  33.72500 56.09800 39.64100
C  34.14300 60.69700 41.18900
C  29.27000 61.48000 40.86000
N  31.33200 56.68200 39.72100
C  30.17700 56.15500 39.30300
C  30.35900 54.89400 38.52300
C  31.84800 54.55200 38.74900
C  32.35900 55.82200 39.42600
C  32.21800 53.21300 39.50300
C  29.93200 54.96600 37.01500
C  28.71700 54.08000 36.56500
H  27.60500 54.79900 35.63600
N  33.68200 58.30800 40.74000
C  34.41800 57.22900 40.21500
C  35.82100 57.44500 40.30200
C  35.98600 58.72700 40.84000
C  34.59400 59.31500 40.98900
C  36.85400 56.44100 39.90800
C  37.31800 59.36200 41.09900
O  38.39900 58.82400 40.85400
C  37.34100 60.67400 41.64700
N  31.66200 60.78100 41.20200
C  32.89600 61.37400 41.31200
C  32.74300 62.91500 41.31800
C  31.20800 63.18300 41.02300
C  30.67800 61.72400 40.99000
C  33.23600 63.73100 42.50500
C  30.90300 64.06300 39.81400
C  29.93000 65.17200 40.08100
N  29.48700 59.10000 40.45800
C  28.68000 60.21500 40.80100
C  27.27500 59.81000 40.65800
C  27.39900 58.47300 40.28800
C  28.70000 58.12100 40.06800
C  26.10700 60.72600 40.74800
C  26.59100 57.32100 39.86100
O  25.39400 57.13000 39.66000
C  27.54300 56.26600 39.46400
C  27.31400 55.06700 40.35500
O  27.61500 55.08800 41.53700
O  26.58200 53.99800 39.78600
C  26.03800 53.09900 40.76500
H  34.37800 55.32000 39.23800
H  34.95400 61.35500 41.50800
H  28.78900 62.44900 40.70900
H  29.82600 54.10000 39.04600
H  32.42300 54.65100 37.82900
H  32.97200 52.80500 38.82900
H  31.43500 52.48400 39.29300
H  32.57900 53.14300 40.53000
H  30.73400 54.75400 36.30700
H  29.52800 55.96000 36.82500
H  28.29700 53.59400 37.44600
H  29.01400 53.21300 35.97400
H  37.52900 56.74200 39.10800
H  36.40300 55.50600 39.57400
H  37.52800 56.28800 40.75100
H  36.81300 60.61400 42.59900
H  36.99700 61.42100 40.93200
H  38.35200 60.80000 42.03400
H  33.24500 63.28600 40.42400
H  30.70200 63.61000 41.88900
H  32.71900 63.38400 43.40000
H  33.00600 64.79500 42.44100
H  34.30300 63.52700 42.59900
H  30.33100 63.60100 39.01000
H  31.74600 64.55800 39.33100
H  30.30600 66.05700 39.56800
H  29.84300 65.23500 41.16600
H  28.99100 64.78200 39.69000
H  26.10100 61.36400 39.86400
H  26.17700 61.47200 41.53900
H  25.16800 60.18600 40.86700
H  27.38400 56.03000 38.41200
H  26.57700 52.18400 41.01100
H  25.20900 52.70400 40.17800
H  25.55700 53.55700 41.63000

