158

Mg 17.81500 -2.34400 28.08600
C  16.61100 -0.10000 30.39900
C  19.80700 -3.67500 30.54600
C  19.08400 -4.32100 25.72600
C  15.96900 -0.53900 25.48800
N  18.03600 -2.03200 30.28200
C  17.48800 -1.06800 31.00800
C  17.80300 -1.15100 32.49900
C  18.90700 -2.23000 32.50100
C  18.95300 -2.74600 31.01200
C  20.31000 -1.72300 32.90100
C  16.57700 -1.53400 33.37600
C  16.47000 -0.91400 34.80700
H  17.64200 -0.11500 35.37600
N  19.22600 -3.88200 28.14600
C  19.92300 -4.28300 29.27700
C  20.72000 -5.38600 28.90100
C  20.50600 -5.60800 27.48500
C  19.54300 -4.64100 27.02300
C  21.61200 -6.06000 29.90600
C  21.23000 -6.74500 26.64200
O  20.83200 -6.99800 25.46500
C  22.20900 -7.59800 27.27700
N  17.56900 -2.37600 26.03200
C  18.22900 -3.36400 25.30300
C  17.95300 -3.21600 23.85500
C  17.05500 -1.99700 23.69800
C  16.82300 -1.61800 25.16100
C  19.23000 -3.06300 23.04500
C  15.79400 -2.23500 22.81600
C  15.25200 -1.05500 22.14400
N  16.51900 -0.69000 27.91200
C  15.78600 -0.07900 26.85200
C  15.00200 1.04800 27.31700
C  15.26400 1.05900 28.71200
C  16.18700 0.00700 29.02900
C  14.04800 1.92700 26.66700
C  14.91600 1.67600 29.95000
O  14.08400 2.55100 30.14300
C  15.81400 0.95200 31.06500
C  16.69700 1.98700 31.73900
O  17.81400 2.29100 31.53400
O  15.94200 2.62900 32.69100
C  16.49700 3.92700 33.22200
H  20.38500 -4.17200 31.32700
H  19.47700 -5.02800 24.99300
H  15.60300 0.08900 24.67300
H  18.17800 -0.19900 32.87500
H  18.74000 -3.04300 33.20700
H  21.15100 -2.16100 32.36300
H  20.59900 -1.93700 33.93000
H  20.39200 -0.65500 32.69700
H  16.74300 -2.61000 33.43900
H  15.68200 -1.27300 32.81200
H  16.27900 -1.78100 35.44000
H  15.63200 -0.21900 34.75100
H  21.82500 -5.49900 30.81600
H  22.57900 -6.17300 29.41500
H  21.17700 -7.01000 30.21700
H  21.93000 -8.09900 28.20400
H  23.10100 -7.02500 27.53000
H  22.44900 -8.34200 26.51800
H  17.37600 -4.12100 23.66500
H  17.61300 -1.18000 23.23900
H  19.92900 -3.89900 23.07500
H  19.85400 -2.21700 23.33600
H  18.89000 -3.09300 22.01000
H  15.05900 -2.75100 23.43400
H  16.05500 -2.93100 22.01900
H  14.17400 -0.90300 22.18500
H  15.49300 -1.17600 21.08800
H  15.70500 -0.11400 22.45500
H  13.30300 1.39800 26.07300
H  14.66600 2.50000 25.97600
H  13.53400 2.60300 27.35100
H  15.04100 0.65600 31.77500
H  17.16300 3.62000 34.02800
H  15.81500 4.70000 33.57600
H  17.11500 4.39400 32.45500
Mg -1.57200 34.56000 25.56300
C  -3.45000 33.10800 28.19300
C  -0.55900 36.83500 27.93500
C  -0.17500 36.26500 23.15100
C  -3.27200 32.41900 23.24000
N  -1.96100 34.89700 27.93800
C  -2.65200 34.10200 28.74300
C  -2.52300 34.61200 30.19400
C  -1.61100 35.88800 30.05000
C  -1.39400 35.96800 28.58100
C  -2.01300 37.16800 30.90500
C  -1.99800 33.54100 31.18900
C  -2.71000 33.47900 32.58300
H  -2.12300 32.60800 33.65500
N  -0.49900 36.28000 25.52400
C  -0.22200 37.10200 26.57700
C  0.58600 38.18600 26.11700
C  0.62800 38.14400 24.74700
C  0.01300 36.88800 24.39700
C  1.02700 39.21000 27.07500
C  1.17300 39.10500 23.73400
O  1.13600 38.88000 22.50600
C  1.60300 40.49700 24.24400
N  -1.84000 34.48500 23.49300
C  -0.97000 35.17800 22.70300
C  -1.15600 34.76200 21.24200
C  -2.06100 33.42400 21.35600
C  -2.40400 33.41300 22.77900
C  -1.72800 35.85900 20.29000
C  -1.32200 32.09100 20.85800
C  -0.03400 31.59300 21.48800
N  -3.03900 33.09400 25.66600
C  -3.64600 32.24800 24.62100
C  -4.39600 31.21900 25.28700
C  -4.48000 31.62200 26.61700
C  -3.60900 32.70900 26.83400
C  -5.11700 30.06800 24.60100
C  -4.96100 31.17800 27.91500
O  -5.75000 30.19200 28.19500
C  -4.45600 32.14900 28.96400
C  -5.53800 32.87800 29.49500
O  -6.13000 33.80200 28.95000
O  -5.77100 32.48700 30.79500
C  -6.88800 33.05400 31.55000
H  -0.13000 37.41800 28.75200
H  0.32700 36.65100 22.26100
H  -3.67500 31.70100 22.52300
H  -3.50700 34.97700 30.48600
H  -0.65500 35.57300 30.46900
H  -2.86400 37.06400 31.57800
H  -2.35500 37.90200 30.17500
H  -1.21000 37.56500 31.52600
H  -0.93600 33.67600 31.39100
H  -2.07800 32.64200 30.57800
H  -3.69000 33.03100 32.42000
H  -2.94400 34.49200 32.90900
H  0.27800 39.99900 27.14200
H  2.03700 39.52700 26.81300
H  1.18900 38.75000 28.05000
H  0.96000 40.86700 25.04200
H  1.67700 41.19800 23.41200
H  2.62800 40.54900 24.61000
H  -0.13000 34.60700 20.90900
H  -2.95300 33.38300 20.73100
H  -1.28900 35.85100 19.29200
H  -1.32000 36.79000 20.68400
H  -2.81700 35.87200 20.32500
H  -1.10500 32.27300 19.80600
H  -2.01000 31.25000 20.94600
H  -0.12600 30.82300 22.25400
H  0.50000 32.42600 21.94600
H  0.62700 31.22800 20.70200
H  -4.44700 29.92900 23.75200
H  -6.07300 30.41600 24.20900
H  -5.15700 29.29300 25.36600
H  -4.02900 31.57800 29.78900
H  -6.46800 33.66000 32.35300
H  -7.47900 32.19400 31.86500
H  -7.45800 33.74300 30.92700

