158

Mg 40.99000 8.47100 30.02200
C  42.89000 9.87200 32.54500
C  38.48600 7.83700 32.22500
C  39.32900 6.98500 27.44200
C  43.63600 9.15300 27.86300
N  40.72100 8.75300 32.10000
C  41.59800 9.41800 32.94900
C  41.01600 9.55800 34.38100
C  39.70700 8.65900 34.29600
C  39.56900 8.43400 32.74800
C  39.69900 7.46200 35.19200
C  40.82100 11.09700 34.82600
C  39.72300 11.28800 35.85700
H  40.19300 12.08600 37.09000
N  39.12900 7.53500 29.86200
C  38.26600 7.35700 30.89400
C  37.16000 6.57100 30.39500
C  37.35900 6.33900 29.02900
C  38.67300 6.96700 28.70900
C  35.97600 6.08800 31.25800
C  36.35900 5.58600 28.06300
O  36.56400 5.42800 26.84700
C  34.91100 5.22200 28.51400
N  41.43000 8.07600 27.96900
C  40.58600 7.56100 27.12500
C  41.07200 7.43700 25.66300
C  42.37600 8.30400 25.75600
C  42.42000 8.68000 27.26300
C  41.18400 5.97500 25.17600
C  42.33400 9.60000 24.91800
C  43.65900 9.94700 24.18400
N  42.95800 9.13600 30.16200
C  43.86000 9.48500 29.18300
C  45.10500 10.08900 29.79700
C  44.67800 10.29300 31.13800
C  43.40500 9.75900 31.27000
C  46.41600 10.45500 29.10500
C  45.06700 10.86300 32.41700
O  46.08200 11.44800 32.73300
C  43.93900 10.63400 33.36900
C  44.36900 9.75700 34.44000
O  44.92700 8.66300 34.23300
O  44.06900 10.18100 35.72300
C  44.40400 9.24700 36.84000
H  37.67000 7.72500 32.94200
H  38.76600 6.43600 26.68400
H  44.46000 9.03200 27.15600
H  41.65200 8.97900 35.05100
H  38.87800 9.33100 34.51900
H  38.94300 7.79000 35.90500
H  40.63100 7.24700 35.71500
H  39.30600 6.60300 34.64800
H  40.75000 11.70400 33.92300
H  41.77300 11.46100 35.21300
H  39.52200 10.25100 36.12700
H  38.82900 11.73000 35.41700
H  35.86500 5.02500 31.04000
H  35.06500 6.58100 30.92000
H  36.15900 6.25000 32.32000
H  34.36400 6.08100 28.90300
H  34.87100 4.36800 29.19100
H  34.30800 5.01900 27.62900
H  40.32400 8.00400 25.10900
H  43.33700 7.81300 25.59700
H  40.50100 5.81100 24.34200
H  40.76100 5.28800 25.90900
H  42.19400 5.67100 24.90200
H  42.09400 10.50700 25.47300
H  41.52400 9.52600 24.19200
H  44.01500 9.00100 23.77500
H  44.38000 10.26400 24.93700
H  43.60000 10.68600 23.38500
H  46.23500 10.97700 28.16500
H  47.07900 9.60800 28.92800
H  46.86400 11.15100 29.81400
H  43.60100 11.59900 33.74400
H  45.29100 9.48700 37.42600
H  44.56400 8.24200 36.45200
H  43.55500 9.25500 37.52300
Mg -1.07100 34.91400 26.99700
C  -2.91000 33.33600 29.59700
C  0.30200 37.03400 29.40700
C  0.55100 36.35800 24.49400
C  -2.69700 32.74600 24.78900
N  -1.28700 35.12500 29.27100
C  -2.00900 34.29400 30.08300
C  -1.71800 34.66600 31.51800
C  -0.88900 36.00000 31.49800
C  -0.60500 36.09100 29.99500
C  -1.57500 37.30900 32.04700
C  -1.11700 33.53000 32.42700
C  -0.92900 33.98000 33.90600
H  -1.49400 33.11500 35.08900
N  0.18000 36.49500 26.93300
C  0.69000 37.19200 28.01500
C  1.64700 38.22400 27.55000
C  1.62300 38.12500 26.17900
C  0.72100 36.95900 25.77100
C  2.35800 39.10900 28.52700
C  2.30100 39.07400 25.16000
O  2.15700 38.98700 23.94800
C  3.16500 40.14700 25.67600
N  -1.27000 34.73500 24.94500
C  -0.30500 35.35500 24.16700
C  -0.41000 34.87700 22.68300
C  -1.52600 33.74800 22.74000
C  -1.87000 33.72500 24.28000
C  -0.62800 35.89000 21.60300
C  -1.05400 32.34900 22.14500
C  -0.56000 31.28800 23.16600
N  -2.53100 33.39000 27.06000
C  -3.02700 32.59200 26.10400
C  -3.96000 31.66900 26.62600
C  -3.91300 31.85100 28.06600
C  -3.06800 32.95900 28.24300
C  -4.71100 30.51500 25.86800
C  -4.47400 31.43200 29.38700
O  -5.22400 30.48000 29.68700
C  -3.81200 32.41100 30.42400
C  -4.92300 33.10700 31.06500
O  -5.45600 34.10900 30.64400
O  -5.26900 32.43700 32.19400
C  -6.31800 33.04900 33.00700
H  0.58000 37.83000 30.10000
H  1.19800 36.57900 23.64200
H  -3.15500 32.01300 24.12200
H  -2.67400 34.74300 32.03500
H  0.04500 35.75500 32.00400
H  -1.85000 37.97100 31.22600
H  -0.76400 37.74100 32.63400
H  -2.51800 37.18800 32.57900
H  -0.11600 33.30700 32.05800
H  -1.77500 32.67000 32.55500
H  -1.26600 35.00900 34.02400
H  0.14300 33.98700 34.09900
H  2.33600 38.67900 29.52800
H  1.91800 40.10200 28.43100
H  3.42000 39.09200 28.28200
H  3.90100 39.55400 26.21900
H  2.69700 40.93200 26.27000
H  3.66100 40.61900 24.82800
H  0.54400 34.37100 22.53400
H  -2.42200 34.07300 22.21200
H  -0.82300 36.84900 22.08300
H  -1.51000 35.74700 20.97800
H  0.31700 35.90800 21.06000
H  -0.27600 32.51400 21.40000
H  -1.95800 32.05400 21.61300
H  -0.11800 31.76400 24.04200
H  0.30600 30.82900 22.69000
H  -1.34700 30.54900 23.31500
H  -4.18300 30.32000 24.93400
H  -5.76000 30.78000 25.73100
H  -4.78000 29.56000 26.38700
H  -3.21200 31.78300 31.08400
H  -6.00500 33.74400 33.78700
H  -6.85300 32.28300 33.56600
H  -7.10200 33.48600 32.38900

