158

Mg 2.56300 -1.16500 43.72500
C  6.00900 -0.39500 43.30300
C  1.85700 1.98200 42.21100
C  -0.44300 -2.20100 43.02500
C  3.49200 -4.40200 44.77600
N  3.77100 0.57500 42.80600
C  5.13700 0.66800 42.80700
C  5.66700 1.91300 42.10700
C  4.36500 2.71000 41.85900
C  3.23800 1.79900 42.38400
C  4.30300 4.11700 42.36700
C  6.47200 1.60300 40.75400
C  7.28100 2.77400 40.16500
H  6.90700 3.23800 38.73000
N  0.87800 -0.17500 43.06200
C  0.78600 1.10700 42.45300
C  -0.51900 1.43100 42.19200
C  -1.27200 0.21000 42.39100
C  -0.30200 -0.80600 42.88500
C  -0.99400 2.73100 41.59600
C  -2.65600 -0.03700 41.96900
O  -3.35600 0.76000 41.37900
C  -3.36500 -1.40700 42.30800
N  1.67000 -3.07000 43.87600
C  0.38600 -3.27800 43.49500
C  0.02400 -4.81700 43.57400
C  1.16200 -5.35500 44.44500
C  2.16100 -4.24500 44.41800
C  -1.41800 -5.18300 43.95900
C  1.71100 -6.79800 44.04400
C  1.75100 -7.85900 45.18800
N  4.32300 -2.18000 44.08600
C  4.57600 -3.44000 44.55600
C  5.96200 -3.67300 44.74100
C  6.55900 -2.52900 44.21300
C  5.58400 -1.58700 43.88700
C  6.58900 -4.92200 45.31900
C  7.85700 -1.86500 43.96500
O  8.98900 -2.20300 44.19600
C  7.52700 -0.53300 43.26100
C  8.48700 0.52100 43.79600
O  9.60300 0.81000 43.30400
O  7.99000 1.09600 44.99500
C  8.93400 1.99000 45.72300
H  1.54900 2.93900 41.78500
H  -1.42200 -2.64000 42.82000
H  3.79600 -5.36200 45.19800
H  6.27300 2.55500 42.74700
H  4.20400 2.86900 40.79200
H  3.26000 4.42800 42.30700
H  4.90200 4.74100 41.70400
H  4.82500 4.09000 43.32400
H  5.70300 1.39200 40.01100
H  7.10700 0.72300 40.85500
H  8.37000 2.73100 40.20100
H  6.98400 3.66100 40.72500
H  -2.02200 3.01800 41.81900
H  -0.58100 2.88500 40.59900
H  -0.42400 3.46400 42.16600
H  -4.42700 -1.17300 42.23700
H  -3.42300 -1.78700 43.32800
H  -3.12000 -2.17800 41.57800
H  0.26100 -5.19100 42.57800
H  0.79700 -5.40000 45.47100
H  -1.41300 -6.03200 44.64300
H  -2.02400 -5.50900 43.11400
H  -1.99800 -4.32700 44.30300
H  2.69600 -6.61000 43.61800
H  1.15000 -7.33400 43.27800
H  2.83000 -7.95900 45.30700
H  1.10500 -8.71100 44.98100
H  1.33400 -7.32800 46.04400
H  6.34300 -5.87500 44.85000
H  6.09200 -4.93000 46.28900
H  7.67300 -4.83600 45.39700
H  7.80200 -0.73100 42.22500
H  8.70800 2.99500 45.36800
H  9.99300 1.73500 45.74500
H  8.61500 1.93600 46.76400
Mg 47.53300 45.32900 43.60800
C  44.43600 45.97500 42.19100
C  47.42400 42.23600 41.91400
C  50.85600 44.91200 44.12300
C  47.94300 48.77000 44.06200
N  46.09300 44.16500 42.22500
C  44.78500 44.64000 41.98000
C  43.99600 43.63800 41.24900
C  44.88900 42.35300 41.17000
C  46.22800 42.92800 41.82000
C  44.32700 41.07600 41.91700
C  43.50000 44.02400 39.81900
C  42.16200 43.58600 39.39500
H  42.07500 42.54700 38.19600
N  48.92800 43.74400 43.24800
C  48.66200 42.53500 42.58300
C  49.70500 41.65500 42.82700
C  50.71400 42.36500 43.58000
C  50.22000 43.78200 43.62100
C  49.72200 40.21200 42.41200
C  51.92300 41.79400 44.18600
O  52.13400 40.58200 44.05600
C  52.92200 42.62200 45.10800
N  49.19100 46.70700 43.79800
C  50.39200 46.21700 44.25700
C  51.36100 47.33200 44.70500
C  50.41000 48.64500 44.68600
C  49.14400 48.03000 44.11300
C  52.13200 47.05800 45.97900
C  51.03900 49.76200 43.81900
C  52.34300 50.39900 44.48800
N  46.38100 46.96200 43.54900
C  46.64800 48.34100 43.76700
C  45.34800 49.06800 43.65200
C  44.52500 48.13700 43.05200
C  45.18300 46.93000 42.89900
C  45.07900 50.54000 43.94100
C  43.21300 47.98600 42.51000
O  42.36400 48.80700 42.44700
C  43.07400 46.61600 41.79000
C  41.90800 45.88200 42.46600
O  41.88200 45.25100 43.53700
O  40.81300 45.95500 41.66200
C  39.59900 45.28300 42.30000
H  47.31700 41.23300 41.49500
H  51.89300 44.74400 44.42100
H  48.03500 49.82500 44.33000
H  43.10900 43.40800 41.83900
H  45.12700 42.16200 40.12400
H  44.77200 40.26800 41.33700
H  43.24900 40.96500 41.80200
H  44.78000 41.03800 42.90800
H  44.20000 43.83800 39.00400
H  43.45700 45.11300 39.81100
H  41.46700 44.40600 39.21400
H  41.78000 43.01000 40.23800
H  50.69700 39.86300 42.07200
H  49.16400 40.11800 41.48000
H  49.28900 39.56300 43.17200
H  52.40100 43.29600 45.78800
H  53.60000 43.16300 44.44900
H  53.47000 41.98900 45.80700
H  52.16400 47.44500 43.97800
H  50.24400 48.86100 45.74200
H  53.17000 46.98100 45.65400
H  51.74300 46.15000 46.44000
H  51.96400 47.88900 46.66400
H  50.33500 50.59000 43.73900
H  51.31800 49.34600 42.85100
H  53.20100 49.92300 44.01400
H  52.43500 50.12600 45.53900
H  52.21600 51.47400 44.35700
H  44.06500 50.90800 43.78600
H  45.64200 50.88400 43.07400
H  45.45700 50.92500 44.88800
H  42.83200 46.75600 40.73600
H  39.83200 44.22100 42.38500
H  38.84100 45.21700 41.52000
H  39.15200 45.71900 43.19400

