158

Mg 25.89700 0.35000 29.73100
C  27.96300 0.22400 32.42100
C  23.18600 0.66500 31.78000
C  23.88100 0.23000 27.00900
C  28.67400 -0.19300 27.63700
N  25.61900 0.29700 31.81200
C  26.59200 0.32400 32.77900
C  26.06800 0.43000 34.28000
C  24.52300 0.39900 33.95200
C  24.43900 0.44300 32.42500
C  23.85700 -0.76100 34.59900
C  26.57600 1.57100 35.10900
C  25.75900 2.21700 36.19900
H  26.69900 2.54900 37.43000
N  23.83900 0.53600 29.42000
C  22.90000 0.69600 30.40500
C  21.61400 0.79300 29.80900
C  21.79200 0.78100 28.44000
C  23.23600 0.51200 28.22400
C  20.29200 0.83000 30.58800
C  20.78100 1.11100 27.29000
O  21.14800 1.10500 26.09200
C  19.31500 1.38300 27.60400
N  26.23500 0.04100 27.73400
C  25.22800 0.00400 26.77600
C  25.72700 -0.20200 25.35900
C  27.23500 -0.35400 25.54400
C  27.46800 -0.05700 27.01400
C  24.99500 -1.42300 24.72600
C  28.07300 0.65900 24.66800
C  28.29200 2.10500 25.21100
N  27.87900 0.15800 29.90700
C  28.91300 -0.13900 29.02600
C  30.21300 -0.26000 29.77200
C  29.91000 -0.10700 31.13200
C  28.48800 0.11700 31.11500
C  31.57600 -0.48500 29.18100
C  30.39600 -0.04800 32.44300
O  31.53600 -0.15400 32.91000
C  29.16800 0.12100 33.29500
C  29.10000 -1.04500 34.22600
O  28.69100 -2.10300 33.92300
O  29.64600 -0.72600 35.39500
C  29.65700 -1.69300 36.46800
H  22.32000 0.83200 32.42400
H  23.29300 0.20000 26.08900
H  29.52700 -0.47700 27.01700
H  26.44900 -0.53800 34.60700
H  23.97700 1.21200 34.43100
H  24.60500 -1.55400 34.59800
H  23.06600 -1.20200 33.99400
H  23.57400 -0.54000 35.62800
H  26.97900 2.36300 34.47800
H  27.35600 1.05400 35.66900
H  24.99600 1.47200 36.42100
H  25.35700 3.15800 35.82300
H  19.66300 -0.00300 30.27200
H  19.79400 1.76700 30.34200
H  20.48900 0.74300 31.65700
H  18.95600 0.53900 28.19300
H  18.74600 1.40500 26.67500
H  19.23400 2.30100 28.18700
H  25.51700 0.68100 24.75500
H  27.57000 -1.36200 25.30200
H  24.34100 -2.02500 25.35500
H  25.57100 -2.18100 24.19600
H  24.35400 -1.04300 23.93000
H  27.50200 0.68500 23.74000
H  29.05100 0.21700 24.47800
H  28.05300 2.39400 26.23400
H  27.65100 2.76800 24.63000
H  29.31700 2.31200 24.90100
H  31.62700 -0.05600 28.18100
H  31.75900 -1.55900 29.16500
H  32.35300 0.02200 29.75500
H  29.30600 1.04600 33.85400
H  28.81000 -1.54300 37.13700
H  30.64100 -1.65800 36.93600
H  29.62000 -2.73500 36.15200
Mg 5.93800 55.14100 40.29800
C  5.58100 51.58400 40.38500
C  9.27700 54.62700 39.55300
C  6.10000 58.23500 39.35300
C  2.43400 55.39700 40.73800
N  7.19800 53.28000 39.99800
C  6.88700 51.97400 40.09000
C  8.04900 51.09900 39.81600
C  9.28100 52.09000 39.94000
C  8.54400 53.47600 39.79000
C  10.06000 52.08100 41.25100
C  7.99700 50.44600 38.40600
C  7.55600 51.36100 37.19300
H  6.26900 51.13700 36.39300
N  7.48700 56.26200 39.72000
C  8.80800 55.93100 39.46000
C  9.66800 57.04900 39.31000
C  8.72500 58.12800 39.15900
C  7.34600 57.61200 39.47400
C  11.20400 57.01800 39.07700
C  9.12200 59.57400 38.82100
O  10.29300 59.82100 38.58500
C  8.17600 60.74300 38.94400
N  4.46000 56.53800 39.87000
C  4.80300 57.82400 39.65300
C  3.58400 58.77600 39.65600
C  2.43900 57.86700 40.21600
C  3.15600 56.49800 40.37500
C  3.71000 60.16200 40.27700
C  1.25400 57.70700 39.28200
C  -0.10000 58.26900 39.78600
N  4.29200 53.82400 40.56600
C  2.95100 54.07800 40.81000
C  2.25900 52.79100 40.97900
C  3.21700 51.76500 40.98800
C  4.42200 52.43200 40.55000
C  0.79900 52.58400 41.09500
C  3.41300 50.33400 41.01900
O  2.61900 49.43500 41.27800
C  4.99400 50.22000 40.72500
C  5.05800 49.31300 39.57400
O  4.78000 49.51000 38.38900
O  5.62300 48.12900 40.06600
C  5.50800 46.93800 39.20100
H  10.35000 54.59300 39.35300
H  6.02500 59.30500 39.15100
H  1.38900 55.59600 40.98600
H  8.16800 50.41000 40.65200
H  10.01400 51.95500 39.14500
H  9.96500 52.99700 41.83300
H  11.09800 51.83600 41.02300
H  9.64500 51.38200 41.97700
H  7.28700 49.62100 38.46200
H  9.00700 50.05800 38.28200
H  8.37300 51.25600 36.47900
H  7.70900 52.43600 37.28800
H  11.28000 56.62800 38.06200
H  11.70000 56.32400 39.75600
H  11.69700 57.98300 39.19000
H  8.86600 61.57900 38.83100
H  7.57800 60.75900 39.85500
H  7.60400 60.67800 38.01800
H  3.41400 58.97900 38.59800
H  2.06800 58.20500 41.18300
H  2.77200 60.35500 40.79800
H  3.79500 60.95200 39.53000
H  4.56100 60.24600 40.95300
H  1.00500 56.69100 38.97700
H  1.38800 58.29400 38.37300
H  -0.16200 58.70700 40.78300
H  -0.82000 57.45200 39.80600
H  -0.47100 59.01400 39.08200
H  0.47400 52.75300 40.06900
H  0.34200 53.34900 41.72300
H  0.42700 51.62200 41.44700
H  5.39600 49.76700 41.63200
H  6.07900 46.08700 39.57000
H  5.83000 47.25300 38.20900
H  4.48200 46.57000 39.19000

