158

Mg 24.81500 -6.98500 47.00100
C  26.42100 -4.09900 45.66800
C  22.19500 -6.40100 44.94000
C  23.70000 -9.92000 47.90400
C  27.85400 -7.34400 48.94800
N  24.42400 -5.37900 45.57700
C  25.14600 -4.29900 45.18500
C  24.42100 -3.49000 44.13700
C  22.91700 -4.04700 44.25300
C  23.18300 -5.40200 44.98000
C  21.89000 -3.08900 44.99300
C  24.91500 -3.64600 42.64600
C  25.47400 -2.34200 42.06600
H  25.20100 -2.09100 40.59800
N  23.12900 -7.98600 46.54400
C  22.14500 -7.57200 45.70200
C  21.10200 -8.63500 45.71700
C  21.59000 -9.76700 46.39800
C  22.87000 -9.24800 46.99500
C  19.74200 -8.43800 44.96300
C  20.93000 -11.09000 46.47600
O  19.79900 -11.32900 46.04000
C  21.50900 -12.18900 47.25900
N  25.83900 -8.54900 48.02200
C  25.00400 -9.52900 48.41700
C  25.76800 -10.43500 49.43200
C  27.02900 -9.59300 49.88000
C  26.92800 -8.44100 48.91100
C  24.94100 -10.75400 50.65400
C  28.41200 -10.34900 49.76900
C  28.96200 -10.86700 51.06700
N  26.72900 -5.88900 47.34000
C  27.81500 -6.20600 48.14300
C  28.81700 -5.19000 48.05000
C  28.29200 -4.37800 47.01700
C  27.04600 -4.84100 46.63700
C  30.16000 -5.12200 48.75700
C  28.57600 -3.19600 46.31000
O  29.50000 -2.37600 46.34600
C  27.49100 -3.05200 45.29700
C  27.13000 -1.69000 45.14900
O  27.31900 -1.04200 44.18100
O  26.50400 -1.26200 46.30700
C  25.90000 0.09600 46.28800
H  21.31800 -6.14300 44.34300
H  23.43700 -10.87000 48.37500
H  28.66700 -7.45200 49.66900
H  24.60800 -2.46900 44.46800
H  22.44700 -4.21300 43.28400
H  22.22600 -2.05200 44.96400
H  21.75200 -3.32700 46.04800
H  20.90100 -3.23800 44.55900
H  24.22300 -4.04800 41.90600
H  25.67700 -4.42000 42.73800
H  26.54600 -2.37100 42.26200
H  25.01000 -1.51300 42.60000
H  19.60000 -9.17900 44.17600
H  19.57900 -7.41900 44.61200
H  18.95300 -8.79800 45.62300
H  22.52700 -12.37700 46.91600
H  20.96500 -13.10200 47.01800
H  21.46300 -12.04400 48.33800
H  26.14800 -11.28400 48.86400
H  26.87600 -9.13900 50.85900
H  24.39000 -11.68500 50.52300
H  24.21400 -9.96200 50.82800
H  25.57800 -10.78000 51.53800
H  29.15700 -9.71900 49.28300
H  28.32300 -11.09800 48.98300
H  28.49200 -10.56300 52.00300
H  30.00600 -10.55800 51.11200
H  29.16400 -11.93700 51.02000
H  30.95200 -5.77700 48.39400
H  29.82100 -5.30700 49.77700
H  30.64700 -4.15300 48.85900
H  27.81200 -3.37600 44.30700
H  25.19900 0.21700 45.46200
H  26.59200 0.88900 46.00400
H  25.35500 0.41200 47.17800
Mg 35.71500 48.97000 25.43000
C  35.90700 46.89200 28.30600
C  34.38000 51.39400 27.30400
C  34.91400 50.55700 22.59200
C  36.91900 46.11000 23.51900
N  35.33200 49.12500 27.58000
C  35.48800 48.22900 28.50400
C  35.15100 48.79000 29.93800
C  34.45900 50.15700 29.57600
C  34.80600 50.27200 28.07600
C  32.98400 50.21900 29.95900
C  36.52600 48.82300 30.62400
C  36.49300 48.33900 32.08300
H  35.14900 48.29000 32.88900
N  34.89100 50.73200 25.04000
C  34.49300 51.66300 25.95200
C  34.14500 52.95300 25.32700
C  34.25300 52.67200 23.96500
C  34.68000 51.24400 23.82600
C  33.98900 54.24400 26.11400
C  34.06400 53.65300 22.74600
O  34.21900 53.34800 21.58400
C  33.75600 55.07700 23.02100
N  35.87200 48.38500 23.35800
C  35.50700 49.25600 22.38400
C  35.84100 48.71300 20.99100
C  36.66600 47.40800 21.26200
C  36.49400 47.33100 22.84300
C  34.52900 48.45700 20.17200
C  38.16400 47.48300 20.76900
C  39.22800 47.87300 21.83100
N  36.26100 46.91800 25.73300
C  36.67600 45.94900 24.90400
C  36.87800 44.70800 25.66700
C  36.65300 45.06400 27.02700
C  36.27300 46.42500 26.98600
C  37.43300 43.41100 25.22200
C  36.63000 44.55600 28.31500
O  36.96400 43.41100 28.75800
C  36.13500 45.69200 29.25900
C  34.84300 45.27600 29.84000
O  33.73400 45.41000 29.32900
O  35.03500 44.67900 31.09300
C  33.82000 44.22900 31.79600
H  33.86200 52.12200 27.93300
H  34.90100 51.08100 21.63400
H  37.18300 45.13600 23.10200
H  34.51200 48.15000 30.54600
H  34.93400 50.96700 30.12900
H  32.41300 50.42300 29.05300
H  32.79600 50.84300 30.83300
H  32.61100 49.23400 30.24000
H  36.71700 49.88100 30.80700
H  37.37500 48.47300 30.03700
H  37.10100 49.04500 32.64800
H  36.87300 47.31800 32.10400
H  33.70600 54.07400 27.15200
H  33.23700 54.89900 25.67400
H  35.01000 54.62100 26.05100
H  32.87200 55.27600 23.62700
H  33.54000 55.55500 22.06500
H  34.59200 55.60100 23.48400
H  36.55800 49.31700 20.43400
H  36.28600 46.48200 20.83100
H  34.28300 49.40900 19.70200
H  33.69200 48.20200 20.82100
H  34.57900 47.64200 19.44900
H  38.32000 48.16400 19.93300
H  38.37400 46.48700 20.37900
H  39.78000 48.61100 21.24900
H  39.81400 46.96200 21.95000
H  39.08100 48.31900 22.81500
H  38.28900 43.57700 24.56800
H  36.55700 43.01400 24.70900
H  37.70600 42.71700 26.01700
H  36.86600 45.85000 30.05200
H  33.47400 43.42000 31.15300
H  33.05200 44.98900 31.93900
H  34.13000 43.80500 32.75100

