158

Mg 17.08800 -1.49300 28.95700
C  15.78500 0.73900 31.46600
C  19.32200 -2.68400 31.33900
C  18.47200 -3.19100 26.58200
C  15.07700 0.34200 26.55400
N  17.55300 -1.02400 31.11100
C  16.81900 -0.22900 31.89800
C  17.22300 -0.40000 33.39300
C  18.66100 -1.06500 33.22300
C  18.55500 -1.66100 31.80200
C  19.85400 -0.17400 33.42100
C  16.24100 -1.38800 34.13000
C  16.23600 -1.26900 35.76100
H  17.54100 -0.79200 36.41300
N  18.61500 -2.86900 28.98000
C  19.39500 -3.23700 30.03400
C  20.32400 -4.26700 29.57600
C  20.06300 -4.43800 28.14500
C  18.98000 -3.51900 27.84600
C  21.30900 -4.96100 30.53200
C  20.61900 -5.41400 27.15300
O  20.29600 -5.45100 25.99300
C  21.59300 -6.54400 27.63100
N  16.90400 -1.43000 26.93100
C  17.58600 -2.23500 26.12700
C  17.16500 -2.22800 24.66200
C  16.09000 -1.11800 24.68700
C  16.00100 -0.67500 26.15900
C  18.34900 -2.01400 23.66100
C  14.65300 -1.48100 24.11900
C  13.93100 -0.40100 23.23500
N  15.74000 0.27600 28.96300
C  15.06900 0.84100 27.92000
C  14.33900 2.02300 28.43700
C  14.42500 1.90000 29.86200
C  15.38100 0.86200 30.07200
C  13.51700 3.00700 27.58800
C  14.08500 2.44100 31.08500
O  13.16400 3.18400 31.36900
C  14.91900 1.76800 32.26300
C  15.65100 2.86800 32.99100
O  16.26600 3.77700 32.49700
O  15.32800 2.65800 34.30700
C  16.10800 3.51000 35.18800
H  19.94700 -3.13600 32.11200
H  18.78100 -3.76700 25.70700
H  14.54000 0.87100 25.76300
H  17.22300 0.58000 33.86900
H  18.84300 -1.93900 33.84800
H  20.60700 -0.18200 32.63200
H  20.28300 -0.58200 34.33700
H  19.48900 0.84800 33.52100
H  16.66100 -2.35500 33.85100
H  15.26900 -1.21000 33.67100
H  16.02600 -2.28800 36.08600
H  15.42700 -0.56400 35.94900
H  22.28000 -4.46600 30.51300
H  21.52900 -5.95100 30.13500
H  20.91900 -5.16500 31.52900
H  22.41500 -6.01600 28.11500
H  21.94200 -7.12000 26.77500
H  21.04200 -7.26700 28.23300
H  16.80600 -3.23800 24.46100
H  16.48800 -0.33200 24.04500
H  18.41800 -2.74400 22.85400
H  19.35600 -2.04900 24.07700
H  18.26700 -1.11500 23.05100
H  14.07200 -1.74500 25.00200
H  14.79600 -2.38100 23.52200
H  13.00900 -0.21800 23.78700
H  13.77000 -0.61800 22.17900
H  14.48800 0.53100 23.14500
H  12.54100 2.54800 27.42400
H  13.94700 3.12600 26.59300
H  13.34900 3.89200 28.20100
H  14.15900 1.31800 32.90200
H  15.55200 4.40800 35.45700
H  17.06500 3.78000 34.74100
H  16.27600 2.96900 36.11900
Mg 17.16900 52.85500 25.75200
C  18.95500 51.37100 28.52600
C  14.72400 53.70100 27.97800
C  15.37900 53.95600 23.17900
C  19.56800 51.51600 23.61000
N  16.85600 52.47500 27.95300
C  17.81400 52.10100 28.89500
C  17.30800 52.41600 30.29900
C  15.84800 52.89300 30.01200
C  15.75100 52.98000 28.54000
C  14.76800 51.94300 30.66600
C  18.19800 53.59500 31.02100
C  18.03600 53.87600 32.55800
H  17.12100 53.09300 33.42400
N  15.31900 53.80600 25.64800
C  14.44000 54.02500 26.67400
C  13.22400 54.66200 26.08200
C  13.39800 54.79100 24.68000
C  14.73800 54.13500 24.45000
C  12.00700 55.01900 26.84700
C  12.48100 55.34000 23.60500
O  12.81500 55.37200 22.41000
C  11.21600 55.92600 23.97200
N  17.37900 52.51000 23.67500
C  16.52000 53.23100 22.86100
C  17.02600 53.06100 21.41200
C  18.43700 52.27400 21.53700
C  18.42700 51.99000 22.98800
C  16.03100 52.30700 20.52000
C  19.63000 52.99300 20.92800
C  20.42700 52.36600 19.78100
N  18.91000 51.63800 25.91100
C  19.82500 51.32100 24.98900
C  20.98100 50.58600 25.59000
C  20.70600 50.64400 27.03300
C  19.40600 51.20600 27.13400
C  22.10200 50.03300 24.79800
C  21.09700 50.28200 28.41100
O  22.12000 49.73500 28.76500
C  20.03500 50.77000 29.35500
C  19.56100 49.51500 30.11700
O  19.25000 48.45200 29.52500
O  19.45300 49.74800 31.45900
C  18.83800 48.58600 32.20700
H  13.98500 54.08300 28.68600
H  14.73000 54.31000 22.37500
H  20.35600 51.22900 22.91000
H  17.42800 51.53400 30.92900
H  15.83100 53.81300 30.59600
H  15.16300 51.04400 31.13800
H  14.04500 51.76700 29.87000
H  14.27500 52.52700 31.44300
H  18.03600 54.53000 30.48300
H  19.25000 53.38400 30.83000
H  17.81700 54.93500 32.69600
H  18.98800 53.70200 33.05900
H  11.67200 56.02900 26.61100
H  12.27200 55.09200 27.90100
H  11.15200 54.34500 26.78300
H  11.42500 56.76700 24.63300
H  10.59500 55.16800 24.45100
H  10.78100 56.24600 23.02500
H  17.26800 54.09000 21.14400
H  18.38400 51.33100 20.99200
H  15.49900 52.92800 19.79900
H  15.27000 51.78200 21.09700
H  16.52000 51.61900 19.83000
H  20.35500 53.16200 21.72400
H  19.44500 54.02700 20.63600
H  20.49300 53.10200 18.97900
H  19.94200 51.45600 19.42900
H  21.42700 52.09900 20.12400
H  21.82200 50.02400 23.74500
H  22.18600 48.98100 25.07100
H  23.06500 50.54400 24.79800
H  20.51500 51.47400 30.03400
H  18.94300 48.88500 33.25000
H  19.34400 47.63800 32.02500
H  17.77100 48.47100 32.01600

