158

Mg -2.41700 16.94300 26.58700
C  -2.82900 14.90000 29.55900
C  -3.54700 19.59200 28.48900
C  -2.51100 18.63400 23.80900
C  -2.34300 13.78700 24.77600
N  -3.23100 17.19200 28.78300
C  -3.19100 16.26400 29.82000
C  -3.74500 16.92200 31.10400
C  -3.96400 18.43700 30.68900
C  -3.52900 18.43400 29.22500
C  -5.43700 18.93400 30.91700
C  -2.94600 16.63200 32.40200
C  -3.01400 17.52800 33.69000
H  -2.65800 16.92300 35.07000
N  -2.88500 18.91300 26.26100
C  -3.21300 19.90100 27.12400
C  -3.24800 21.11900 26.49200
C  -3.03300 20.87400 25.07600
C  -2.75500 19.47200 24.98900
C  -3.42500 22.40300 27.13200
C  -2.94700 21.88700 23.87000
O  -2.63900 21.54900 22.73800
C  -3.19200 23.31200 24.14400
N  -2.39800 16.30500 24.61000
C  -2.26100 17.24800 23.59500
C  -2.23400 16.56300 22.20800
C  -1.90300 15.06400 22.59600
C  -2.28200 15.01700 24.08000
C  -3.70900 16.74500 21.61300
C  -0.39200 14.74100 22.35100
C  0.72600 15.42100 23.16300
N  -2.45300 14.80600 26.99000
C  -2.37800 13.75700 26.15700
C  -2.34600 12.59800 26.98000
C  -2.58700 12.99700 28.26500
C  -2.67400 14.33200 28.26500
C  -2.31800 11.22300 26.52800
C  -2.71000 12.49500 29.58100
O  -2.65300 11.35000 29.94400
C  -2.97600 13.71600 30.52200
C  -1.99000 13.60700 31.59600
O  -0.92900 14.20200 31.56400
O  -2.49000 12.97000 32.72100
C  -1.62700 12.90900 33.91800
H  -3.88000 20.43800 29.09300
H  -2.37100 19.27700 22.93700
H  -2.29200 12.91700 24.11800
H  -4.67800 16.36900 31.21300
H  -3.31200 19.15500 31.18600
H  -5.88800 18.37300 31.73500
H  -6.04200 18.71000 30.03800
H  -5.42100 20.02300 30.95500
H  -1.90800 16.58400 32.07300
H  -3.28400 15.64300 32.71000
H  -4.05800 17.83900 33.74000
H  -2.32200 18.33900 33.46200
H  -3.63700 22.23800 28.18800
H  -4.15900 23.08600 26.70300
H  -2.49100 22.96400 27.08900
H  -3.18600 23.86600 23.20500
H  -2.44600 23.70900 24.83300
H  -4.15700 23.60200 24.55900
H  -1.42000 16.99500 21.62800
H  -2.52700 14.35300 22.05500
H  -3.51500 17.18200 20.63300
H  -4.44900 17.38900 22.08900
H  -4.23200 15.80200 21.45500
H  -0.18200 14.96800 21.30600
H  -0.21100 13.66800 22.41600
H  1.31000 16.11900 22.56400
H  1.43400 14.66800 23.51000
H  0.20500 15.86300 24.01200
H  -1.67600 11.05100 25.66400
H  -3.31300 10.79300 26.41500
H  -1.82500 10.63100 27.30000
H  -3.97100 13.67300 30.96300
H  -0.66800 12.45800 33.66500
H  -2.08900 12.28800 34.68500
H  -1.38800 13.91700 34.25700
Mg -5.92900 25.40600 25.40700
C  -4.65500 26.36900 28.63000
C  -7.95100 23.15800 27.22200
C  -6.98200 24.20000 22.41700
C  -3.57300 27.23200 23.94500
N  -6.27900 24.78800 27.68700
C  -5.76500 25.46800 28.76500
C  -6.39500 25.01500 30.03200
C  -7.12600 23.66800 29.60200
C  -7.18300 23.88400 28.10400
C  -6.40700 22.39400 30.01500
C  -7.34800 26.09500 30.56800
C  -7.31800 26.38400 32.09700
H  -6.68200 25.27700 33.00400
N  -7.27300 23.91300 24.87700
C  -8.03800 23.14600 25.76800
C  -8.94000 22.32100 24.99700
C  -8.71400 22.60600 23.56900
C  -7.57000 23.56900 23.57000
C  -9.93900 21.35000 25.67600
C  -9.40400 21.98900 22.23100
O  -9.06800 22.26300 21.06000
C  -10.65900 21.01000 22.33500
N  -5.45000 25.75500 23.53900
C  -6.00100 25.14400 22.39500
C  -5.32500 25.62300 21.12200
C  -4.48200 26.78700 21.64500
C  -4.49800 26.58600 23.16000
C  -4.53100 24.52400 20.32000
C  -5.05800 28.20100 21.29000
C  -5.07300 28.53500 19.81100
N  -4.49500 26.63000 26.14300
C  -3.54300 27.26100 25.33700
C  -2.62800 28.00500 26.22900
C  -3.02500 27.66400 27.53100
C  -4.15200 26.83200 27.37900
C  -1.49000 28.90400 25.86100
C  -2.73900 27.85800 29.00000
O  -1.85500 28.49000 29.53400
C  -3.85700 27.05600 29.74400
C  -3.15600 26.22200 30.60800
O  -2.67100 25.16200 30.35000
O  -3.11500 26.86900 31.81000
C  -2.39400 26.24400 32.88900
H  -8.44900 22.27300 27.62400
H  -7.37700 23.79400 21.48300
H  -2.93100 28.00200 23.51100
H  -5.57800 24.91400 30.74700
H  -8.13000 23.74700 30.01800
H  -6.30600 21.66400 29.21200
H  -7.02600 21.99900 30.82000
H  -5.39700 22.52200 30.40600
H  -8.35500 25.76300 30.31600
H  -7.33800 27.05100 30.04500
H  -8.31600 26.60900 32.47500
H  -6.72800 27.29000 32.23700
H  -9.44600 20.37800 25.70900
H  -10.87300 21.25200 25.12200
H  -10.24600 21.63400 26.68200
H  -11.17500 20.90200 21.38200
H  -11.41800 21.39500 23.01700
H  -10.39700 19.99800 22.64600
H  -6.12500 25.90700 20.43700
H  -3.43000 26.66000 21.39000
H  -5.12200 24.04700 19.53800
H  -4.03200 23.75100 20.90500
H  -3.86900 25.17000 19.74400
H  -4.40700 28.88800 21.83000
H  -6.05300 28.37500 21.69900
H  -4.53000 29.46600 19.64600
H  -6.11300 28.76100 19.57900
H  -4.66000 27.71400 19.22500
H  -1.82500 29.93400 25.98100
H  -1.21700 28.63900 24.84000
H  -0.62500 28.56700 26.43300
H  -4.44700 27.78700 30.29800
H  -2.95200 26.21500 33.82500
H  -1.48500 26.82700 33.03400
H  -2.15300 25.23200 32.56600

