158

Mg 2.18400 -2.43500 43.94800
C  5.47200 -1.18200 43.24500
C  1.04400 0.08900 41.92400
C  -0.71700 -4.06600 43.97400
C  3.76700 -5.24000 45.38700
N  3.20000 -0.68600 42.59500
C  4.49600 -0.42600 42.55800
C  4.80000 0.70300 41.51800
C  3.32900 1.28800 41.21300
C  2.48300 0.27400 41.98400
C  3.02400 2.81100 41.54700
C  5.45500 0.14700 40.29200
C  6.65300 0.98100 39.69300
H  6.30700 1.77900 38.37100
N  0.33000 -1.97100 43.16100
C  0.11000 -0.89400 42.36100
C  -1.34300 -1.00000 41.98600
C  -1.89800 -2.11200 42.73500
C  -0.75200 -2.76700 43.33100
C  -2.03200 -0.04200 41.02400
C  -3.34700 -2.38000 42.84900
O  -4.18800 -1.62500 42.45200
C  -3.86400 -3.54500 43.56200
N  1.61300 -4.29200 44.61200
C  0.31000 -4.74600 44.54700
C  0.19300 -6.13500 45.03300
C  1.66400 -6.60900 45.31500
C  2.45200 -5.29200 45.08400
C  -0.77500 -6.19900 46.29100
C  2.16500 -7.70700 44.39500
C  2.63400 -8.98600 45.07000
N  4.13800 -3.02800 44.38700
C  4.59200 -4.18200 45.02800
C  6.08900 -4.06000 45.15000
C  6.42900 -2.86200 44.50600
C  5.24000 -2.29400 44.02800
C  7.03000 -5.03100 45.90100
C  7.52600 -2.05800 44.19300
O  8.71900 -2.27600 44.38800
C  6.99300 -0.94300 43.25700
C  7.32000 0.35100 43.97200
O  6.91400 0.61100 45.07500
O  8.08900 1.14200 43.16600
C  8.64400 2.34200 43.78600
H  0.65200 0.88500 41.28700
H  -1.60100 -4.70600 43.94100
H  4.20500 -6.11100 45.87900
H  5.40200 1.44800 42.03800
H  3.04800 1.27700 40.16000
H  2.83900 3.40300 40.65000
H  3.95600 3.20400 41.95200
H  2.13600 2.88400 42.17600
H  4.76000 0.39000 39.48900
H  5.56500 -0.93700 40.25400
H  7.44900 0.28200 39.43400
H  7.11100 1.60300 40.46200
H  -2.14100 0.89100 41.57800
H  -2.96900 -0.48400 40.68600
H  -1.42300 0.05100 40.12500
H  -4.95300 -3.58800 43.54500
H  -3.55000 -3.48000 44.60300
H  -3.48000 -4.48100 43.15500
H  -0.28500 -6.78100 44.29600
H  1.88700 -6.85400 46.35400
H  -1.77000 -6.38300 45.88500
H  -0.81800 -5.21200 46.75200
H  -0.40500 -7.03300 46.88700
H  3.03800 -7.43900 43.80000
H  1.37700 -8.10400 43.75400
H  2.81500 -8.79800 46.12800
H  3.57600 -9.35900 44.66700
H  1.90000 -9.78800 44.98800
H  6.87900 -6.00200 45.42900
H  6.79600 -5.08400 46.96400
H  8.09300 -4.81800 45.78900
H  7.52100 -1.02100 42.30600
H  7.87800 3.11300 43.87400
H  9.48300 2.74300 43.21800
H  8.91600 2.03100 44.79400
Mg 26.66000 50.17200 25.91400
C  24.72000 51.38400 28.63100
C  28.80600 48.62200 28.16500
C  28.15600 48.86400 23.34600
C  24.43500 51.92000 23.79800
N  26.72200 50.07900 28.08500
C  25.79800 50.56600 28.99200
C  26.24600 50.22700 30.41600
C  27.69600 49.59800 30.21700
C  27.80200 49.47300 28.72800
C  28.90000 50.38500 30.85100
C  25.22000 49.31500 31.20700
C  24.66100 49.74900 32.54600
H  24.33800 48.81400 33.74300
N  28.44600 49.06600 25.74200
C  29.11100 48.50200 26.80100
C  30.20800 47.78900 26.27200
C  29.94100 47.62500 24.83700
C  28.78200 48.48800 24.57200
C  31.35600 47.31700 27.08200
C  30.77000 46.98400 23.86500
O  30.55200 47.10500 22.66200
C  31.96600 46.24800 24.25800
N  26.45300 50.48600 23.89000
C  27.04300 49.67900 23.03100
C  26.61900 49.82600 21.55300
C  25.37400 50.76500 21.76100
C  25.44500 51.14500 23.25500
C  27.77300 50.32800 20.66300
C  23.90100 50.09500 21.60300
C  22.95800 50.87600 20.67800
N  25.08800 51.59600 26.09200
C  24.22200 52.09400 25.12600
C  23.11900 52.76700 25.82600
C  23.28200 52.51400 27.16100
C  24.45200 51.73200 27.28600
C  21.85700 53.31100 25.25800
C  22.59000 52.63200 28.44100
O  21.59900 53.24400 28.74300
C  23.58500 51.95600 29.43500
C  24.12300 52.86000 30.56400
O  25.24400 53.37500 30.57400
O  23.26000 52.95400 31.63100
C  23.54600 53.66100 32.87900
H  29.33600 47.95300 28.84700
H  28.57300 48.25700 22.54000
H  23.57100 52.24800 23.21500
H  26.34300 51.10200 31.05800
H  27.81000 48.63900 30.72200
H  29.50000 50.66000 29.98400
H  29.41800 49.79800 31.60900
H  28.53000 51.30400 31.30500
H  25.70000 48.33800 31.27300
H  24.34000 49.26800 30.56500
H  23.65700 50.14300 32.38800
H  25.27900 50.52500 32.99800
H  32.27000 47.68000 26.61200
H  31.30000 46.22900 27.10500
H  31.34200 47.75900 28.07900
H  32.13600 45.81900 25.24600
H  32.74900 46.92900 23.92600
H  32.06400 45.44200 23.53100
H  26.16100 48.94400 21.10700
H  25.59400 51.64000 21.14900
H  28.75400 50.07500 21.06500
H  27.85300 51.40600 20.52100
H  27.69500 50.04200 19.61400
H  23.37300 50.04800 22.55600
H  24.05800 49.07900 21.24200
H  22.81500 50.17700 19.85400
H  23.35900 51.82600 20.32700
H  21.96200 51.11800 21.04700
H  21.55400 52.83400 24.32600
H  21.95400 54.37800 25.05700
H  21.05200 53.05400 25.94600
H  23.03900 51.12600 29.88200
H  23.52200 52.95700 33.71100
H  22.83800 54.48500 32.96500
H  24.53400 54.12000 32.91900

