158

Mg 5.26500 54.96200 41.43200
C  4.92000 51.57000 41.77000
C  8.12600 54.48400 39.54200
C  5.27700 58.16200 40.45000
C  2.01600 55.39300 42.80600
N  6.26700 53.25000 40.59700
C  5.98000 51.96400 40.92700
C  7.09000 51.04100 40.46600
C  8.25500 51.99100 40.02000
C  7.53600 53.32000 40.07400
C  9.55600 52.07400 40.90900
C  6.50800 50.17700 39.23800
C  5.33300 50.72600 38.36300
H  5.44600 51.09600 36.86800
N  6.50800 56.17900 40.14200
C  7.67500 55.80500 39.52300
C  8.34500 56.96800 38.92500
C  7.56300 58.05100 39.40800
C  6.40200 57.51300 40.05200
C  9.66600 56.90800 38.13100
C  8.00900 59.48700 39.24800
O  9.02700 59.77600 38.64600
C  7.33100 60.56100 39.92900
N  3.79500 56.44500 41.40300
C  4.06800 57.75000 41.01300
C  2.98100 58.76800 41.42100
C  1.79000 57.84900 41.90200
C  2.60300 56.50600 42.14300
C  3.29700 59.86400 42.55000
C  0.69200 57.57900 40.82800
C  -0.62600 56.88900 41.30700
N  3.85100 53.78100 42.47100
C  2.60800 54.07200 42.90200
C  1.99100 52.89700 43.41600
C  2.89000 51.82700 43.09900
C  4.02100 52.44000 42.40400
C  0.65000 52.80900 44.03000
C  3.24200 50.38900 43.16800
O  2.72900 49.48300 43.70700
C  4.52400 50.23300 42.33500
C  4.22100 49.18200 41.37400
O  3.35000 49.20400 40.55000
O  4.95100 48.08100 41.64900
C  4.74800 46.87700 40.79700
H  9.08000 54.25400 39.06300
H  5.29700 59.19000 40.08200
H  1.02600 55.60600 43.21400
H  7.49600 50.30000 41.15400
H  8.69700 51.83300 39.03700
H  9.61300 52.88500 41.63500
H  10.46100 52.13400 40.30500
H  9.57200 51.25800 41.63200
H  6.35900 49.15800 39.59500
H  7.27500 50.16900 38.46400
H  5.01700 51.70000 38.73600
H  4.45500 50.09700 38.51200
H  9.38200 57.04400 37.08700
H  10.07700 55.91400 38.30600
H  10.43600 57.53500 38.58200
H  6.40700 60.73500 39.37800
H  7.94900 61.44600 39.77700
H  7.13600 60.27300 40.96300
H  2.76900 59.31700 40.50300
H  1.37400 58.18300 42.85200
H  2.96200 60.84800 42.22100
H  4.34000 59.94000 42.85500
H  2.69900 59.72400 43.45000
H  1.16700 56.83200 40.19200
H  0.48800 58.47800 40.24700
H  -1.37900 57.52600 40.84300
H  -0.73700 56.98900 42.38600
H  -0.76400 55.85700 40.98400
H  0.23000 53.81300 43.97600
H  0.61000 52.46000 45.06200
H  0.00600 52.08700 43.52800
H  5.39500 49.84000 42.85900
H  3.76400 46.47300 41.03200
H  5.58200 46.19000 40.94300
H  4.77000 47.00900 39.71500
Mg -10.57400 38.75900 40.82900
C  -9.55200 35.51700 39.96600
C  -7.66800 39.98400 39.47500
C  -11.90400 41.83900 40.50200
C  -13.66500 37.42100 41.76600
N  -8.77800 37.78100 39.89900
C  -8.55100 36.44100 39.72100
C  -7.16100 36.21600 39.17400
C  -6.55300 37.68400 39.11100
C  -7.67200 38.55800 39.59500
C  -5.30900 37.91300 39.99300
C  -7.17100 35.35200 37.89400
C  -6.75700 36.01100 36.56400
H  -7.90700 36.79100 35.77600
N  -9.80100 40.70600 40.20200
C  -8.57700 40.96700 39.72600
C  -8.36600 42.41000 39.51400
C  -9.58900 42.96700 39.95600
C  -10.59000 41.82800 40.20100
C  -7.12200 42.96300 38.97000
C  -9.83500 44.44700 40.06500
O  -8.93600 45.19100 39.73500
C  -11.12500 45.02800 40.49900
N  -12.52400 39.50300 41.01800
C  -12.86100 40.84800 40.89000
C  -14.39300 41.07000 41.12000
C  -14.84300 39.63900 41.59200
C  -13.59400 38.77600 41.41200
C  -15.04000 42.13100 41.96800
C  -16.12700 39.07700 40.86300
C  -15.84800 38.32400 39.61400
N  -11.39600 36.85800 41.15700
C  -12.64700 36.49800 41.50300
C  -12.69300 35.05900 41.57400
C  -11.53500 34.66400 40.89100
C  -10.81700 35.81700 40.62200
C  -13.86500 34.20200 42.14900
C  -10.76300 33.46100 40.46200
O  -11.00600 32.31200 40.38800
C  -9.49200 34.01500 39.77400
C  -8.28500 33.29800 40.28900
O  -7.93500 33.30600 41.46700
O  -7.61400 32.67000 39.30200
C  -6.53600 31.80300 39.72300
H  -6.63700 40.31000 39.32100
H  -12.39900 42.76300 40.19700
H  -14.61100 37.02200 42.13900
H  -6.68600 35.71400 40.01700
H  -6.42600 38.07400 38.10100
H  -5.55000 38.75100 40.64800
H  -4.40500 38.10700 39.41500
H  -5.28800 37.06900 40.68300
H  -8.10000 34.82800 37.67100
H  -6.41300 34.57700 38.00900
H  -6.45400 35.21800 35.88100
H  -5.85600 36.60400 36.72400
H  -6.64500 42.34100 38.21300
H  -6.43600 43.03600 39.81500
H  -7.32300 43.92500 38.49800
H  -11.41800 44.65800 41.48200
H  -11.85200 44.97700 39.68800
H  -10.89300 46.09200 40.54800
H  -14.76000 41.19900 40.10100
H  -14.97200 39.63200 42.67400
H  -15.92600 41.81100 42.51700
H  -15.39800 42.99900 41.41400
H  -14.25000 42.34700 42.68800
H  -16.64600 39.98300 40.55300
H  -16.79600 38.53600 41.53300
H  -16.42000 38.79700 38.81600
H  -16.03700 37.25900 39.75100
H  -14.86000 38.37500 39.15800
H  -13.60500 33.81600 43.13500
H  -14.09900 33.37600 41.47800
H  -14.77800 34.79200 42.22400
H  -9.68600 33.66400 38.76000
H  -6.16700 31.99500 40.73000
H  -5.76600 32.03800 38.98900
H  -6.78100 30.74300 39.64600

