158

Mg 40.40600 9.34200 29.97800
C  42.11300 10.50600 32.84500
C  37.94300 8.29200 31.90200
C  39.32300 7.53300 27.26300
C  43.29100 10.30400 28.08500
N  40.21900 9.17700 32.18500
C  40.99900 9.80700 33.08400
C  40.32200 9.82700 34.44700
C  39.12900 8.88300 34.24300
C  39.07200 8.79800 32.68400
C  39.29700 7.48800 34.75400
C  39.73800 11.32000 34.72600
C  39.67600 11.65000 36.28500
H  40.78800 12.49300 36.98100
N  38.81000 8.08800 29.63200
C  37.84600 7.91300 30.52800
C  36.78800 7.19500 29.87200
C  37.17300 6.93400 28.52600
C  38.53300 7.48400 28.44500
C  35.50400 6.74700 30.58800
C  36.37300 6.37100 27.32700
O  36.79600 6.34600 26.16700
C  34.96900 5.96600 27.63900
N  41.14200 9.00400 27.93800
C  40.54200 8.20200 27.05500
C  41.21700 8.30600 25.62300
C  42.57700 8.92200 25.94500
C  42.34400 9.51500 27.37500
C  41.35900 6.86900 24.92800
C  43.02200 10.01100 24.87800
C  42.38600 11.44500 25.09500
N  42.30900 10.26200 30.31100
C  43.28600 10.57000 29.42400
C  44.37800 11.25700 30.18200
C  43.89100 11.22000 31.50000
C  42.65900 10.64100 31.53500
C  45.57900 11.94100 29.64300
C  44.17100 11.72700 32.80700
O  45.12700 12.44000 33.19300
C  43.07500 11.27400 33.78400
C  43.77300 10.33600 34.77400
O  44.19200 9.19900 34.43100
O  43.80400 10.87600 36.05300
C  44.50300 9.94500 36.96500
H  37.05700 8.14500 32.52200
H  39.05500 6.99900 26.34900
H  44.11400 10.72000 27.49900
H  41.01500 9.59300 35.25500
H  38.17000 9.26500 34.59400
H  38.91000 6.81400 33.98900
H  38.68000 7.47300 35.65300
H  40.31700 7.17500 34.97500
H  38.84100 11.54600 34.15000
H  40.48500 12.06600 34.45300
H  39.66000 10.76400 36.91900
H  38.79400 12.26900 36.45300
H  35.57900 6.85500 31.67000
H  35.26600 5.69900 30.40700
H  34.59500 7.26500 30.28100
H  35.04900 5.29700 28.49600
H  34.51700 5.43300 26.80300
H  34.55500 6.92800 27.94000
H  40.49000 8.87200 25.04100
H  43.35100 8.15800 26.01900
H  40.42100 6.59600 24.44300
H  41.46100 6.04700 25.63600
H  42.15400 6.81200 24.18500
H  42.88000 9.54700 23.90200
H  44.09000 10.07100 25.08700
H  42.22500 12.09700 24.23700
H  43.03400 11.92000 25.83200
H  41.44600 11.47100 25.64500
H  45.78500 12.77800 30.31000
H  45.36600 12.42000 28.68800
H  46.42700 11.27900 29.46800
H  42.63400 12.08500 34.36500
H  45.02700 10.50500 37.74000
H  45.25900 9.25600 36.58900
H  43.78000 9.50100 37.64900
Mg 6.61500 53.10800 40.88500
C  6.54700 49.59900 40.52100
C  9.89500 53.02300 40.28600
C  6.50700 56.46400 40.71500
C  2.97500 53.00300 41.00000
N  7.99500 51.48000 40.32000
C  7.82700 50.10000 40.27800
C  9.09500 49.36900 39.82900
C  10.19800 50.51000 40.01700
C  9.29700 51.77500 40.25200
C  11.20700 50.27600 41.18400
C  9.21000 48.80900 38.34900
C  8.89100 49.74900 37.19800
H  7.52100 49.52600 36.45300
N  8.13500 54.65700 40.63700
C  9.41100 54.39500 40.34000
C  10.12900 55.55600 40.10100
C  9.08900 56.66500 40.25500
C  7.83600 55.98000 40.59500
C  11.60000 55.56300 39.93000
C  9.35900 58.17400 40.11400
O  10.52600 58.46400 39.91900
C  8.31200 59.16800 40.25100
N  4.95100 54.49800 40.82600
C  5.25400 55.88000 40.82100
C  4.01900 56.67300 41.04800
C  2.94100 55.59900 40.98800
C  3.64700 54.29200 40.92100
C  4.10100 57.47800 42.40500
C  1.94900 55.67400 39.73900
C  1.46800 57.07300 39.28000
N  4.96500 51.63100 40.77400
C  3.60300 51.70800 40.95300
C  3.21000 50.40200 41.10000
C  4.28500 49.56800 40.97500
C  5.35300 50.29600 40.75100
C  1.71000 50.05700 41.45900
C  4.69700 48.20400 41.06800
O  4.05300 47.23500 41.29000
C  6.17500 48.18400 40.66200
C  6.14400 47.36000 39.43400
O  6.10300 47.79600 38.27600
O  6.05300 46.02600 39.80400
C  5.89100 45.14600 38.56900
H  10.98400 52.97500 40.22600
H  6.31000 57.53200 40.60200
H  1.88800 53.00900 41.10100
H  9.16900 48.52600 40.51700
H  10.78900 50.72900 39.12800
H  12.17300 50.38600 40.69200
H  11.07200 49.28900 41.62500
H  11.10100 51.14100 41.83900
H  8.68500 47.85800 38.26100
H  10.28400 48.70000 38.19400
H  9.60900 49.82400 36.38100
H  8.71200 50.78500 37.48800
H  12.08700 56.32500 40.53800
H  11.69700 55.91600 38.90300
H  12.13000 54.61500 39.83800
H  8.78800 60.12900 40.05800
H  7.74500 59.06900 41.17700
H  7.59400 59.12400 39.43200
H  3.82000 57.42500 40.28500
H  2.35900 55.58400 41.91000
H  3.45500 57.02900 43.16000
H  3.79300 58.50600 42.21500
H  5.12900 57.52600 42.76500
H  1.03800 55.09700 39.89800
H  2.60800 55.35100 38.93300
H  1.92400 57.25400 38.30700
H  1.55900 57.98700 39.86800
H  0.38000 57.01100 39.25400
H  1.23400 50.95700 41.84900
H  1.66200 49.21300 42.14700
H  1.21700 49.80400 40.52000
H  6.72800 47.69400 41.46300
H  6.53300 45.47900 37.75400
H  4.83100 45.12700 38.31600
H  6.28000 44.17500 38.87500

