158

Mg 24.98500 -7.95000 47.51900
C  26.81900 -5.46900 46.04000
C  22.31200 -7.26100 45.09500
C  23.29300 -10.78200 48.33600
C  27.89600 -9.27700 48.85900
N  24.66100 -6.64700 45.52200
C  25.53400 -5.53000 45.41400
C  24.93500 -4.52700 44.36900
C  23.43800 -4.99500 44.20600
C  23.44100 -6.39600 45.03100
C  22.43700 -3.96100 44.71400
C  25.67400 -4.41200 43.04700
C  25.58900 -2.97000 42.39300
H  24.98200 -2.87000 41.03500
N  23.08100 -8.82900 46.94300
C  22.20400 -8.45800 45.88500
C  21.05000 -9.34200 45.90800
C  21.24700 -10.29100 46.91300
C  22.60000 -9.98700 47.49500
C  19.90100 -9.09000 45.03100
C  20.26400 -11.40500 47.29600
O  19.18100 -11.32500 46.80700
C  20.57700 -12.41200 48.38600
N  25.46700 -9.71700 48.66700
C  24.62800 -10.74700 48.71900
C  25.33100 -11.96800 49.48700
C  26.78300 -11.50400 49.78700
C  26.73200 -10.08300 49.13500
C  24.56700 -12.53100 50.77500
C  27.86900 -12.36100 49.13600
C  27.88900 -12.51500 47.53700
N  26.88900 -7.42200 47.71500
C  28.00200 -7.97300 48.25700
C  29.12900 -7.04500 48.19300
C  28.66600 -6.04000 47.40500
C  27.33200 -6.35700 47.03000
C  30.46900 -7.27900 48.87400
C  29.09700 -4.75400 46.81900
O  30.17000 -4.14700 46.90900
C  27.91900 -4.30600 45.80700
C  27.44900 -2.92000 46.09400
O  27.71400 -1.96700 45.36400
O  26.58100 -2.80400 47.18600
C  25.72100 -1.64000 47.44300
H  21.47100 -7.01300 44.44400
H  22.94400 -11.71400 48.78600
H  28.89200 -9.66000 49.09000
H  24.97200 -3.50600 44.75000
H  23.25700 -5.21200 43.15300
H  22.90300 -3.20700 45.34900
H  21.63600 -4.37300 45.32700
H  21.89200 -3.55600 43.86100
H  25.25600 -5.18700 42.40500
H  26.73100 -4.60400 43.23200
H  26.58800 -2.56200 42.23900
H  25.04900 -2.32900 43.08900
H  20.22000 -8.65200 44.08500
H  19.28700 -8.34800 45.54100
H  19.23400 -9.93300 44.85100
H  21.26400 -13.21500 48.11900
H  19.61400 -12.92200 48.39300
H  20.80400 -12.00300 49.37100
H  25.45300 -12.72000 48.70700
H  26.97000 -11.39800 50.85500
H  23.70300 -11.91200 51.01600
H  25.26600 -12.60000 51.60900
H  24.25600 -13.57500 50.71600
H  27.86300 -13.36200 49.56700
H  28.78700 -11.83200 49.39400
H  28.64700 -11.81900 47.17800
H  27.07600 -12.01700 47.00900
H  28.01200 -13.56200 47.25900
H  30.80000 -6.35100 49.34100
H  31.27800 -7.43200 48.15900
H  30.42700 -8.10100 49.58900
H  28.24200 -4.40900 44.77100
H  24.84100 -1.88200 48.03900
H  25.44900 -1.17800 46.49400
H  26.35900 -0.97000 48.01800
Mg 30.68900 59.03800 40.14400
C  27.70300 57.44800 39.37500
C  32.33000 56.15300 39.30700
C  33.48000 60.85800 39.92300
C  28.82100 62.10700 40.38800
N  30.03900 57.02800 39.56600
C  28.79500 56.58100 39.39600
C  28.76800 55.12800 38.88500
C  30.18300 54.68900 39.23800
C  30.91700 56.03000 39.37100
C  30.29400 53.98400 40.67300
C  28.51200 55.18900 37.26400
C  27.51000 54.16300 36.59300
H  26.61600 54.68300 35.42800
N  32.64100 58.58400 39.77100
C  33.10000 57.32000 39.47800
C  34.55900 57.45200 39.24900
C  34.95500 58.79900 39.53500
C  33.66300 59.46500 39.73000
C  35.39100 56.19800 39.06100
C  36.34300 59.35600 39.71200
O  37.27900 58.60300 39.39200
C  36.79200 60.64800 40.34400
N  31.15300 61.14500 40.16600
C  32.32200 61.66100 40.12800
C  32.36700 63.15000 40.17300
C  30.88000 63.57000 40.37800
C  30.19100 62.17000 40.24800
C  33.39400 63.72200 41.16500
C  30.38800 64.61200 39.36900
C  29.75400 65.86500 39.93400
N  28.72300 59.66100 39.98000
C  28.12100 60.98800 40.08300
C  26.72700 60.81500 39.75200
C  26.62100 59.50300 39.45700
C  27.78200 58.81900 39.59300
C  25.58200 61.81400 39.57800
C  25.62300 58.55900 39.04200
O  24.44500 58.77500 38.89400
C  26.29100 57.20700 38.93800
C  25.54300 56.19000 39.78100
O  25.44100 56.11100 41.04000
O  25.10100 55.17700 38.94500
C  24.93100 53.85300 39.52200
H  32.90900 55.24300 39.13500
H  34.42800 61.39900 39.88500
H  28.26700 63.04800 40.33600
H  27.97300 54.51100 39.30500
H  30.66400 54.02400 38.52100
H  29.33500 53.70000 41.10700
H  30.73000 54.63100 41.43400
H  31.00600 53.17100 40.52500
H  29.49000 54.86600 36.90800
H  28.37900 56.18700 36.84600
H  26.79700 53.74500 37.30500
H  28.16600 53.36500 36.24600
H  34.88100 55.64400 38.27300
H  35.14600 55.63500 39.96200
H  36.36900 56.44200 38.64600
H  37.81700 60.46400 40.66500
H  36.11600 60.93500 41.14900
H  36.77300 61.46100 39.61800
H  32.66200 63.53800 39.19800
H  30.74300 63.96900 41.38300
H  33.86900 62.87200 41.65600
H  32.95000 64.39700 41.89700
H  34.15800 64.31600 40.66500
H  29.58100 64.17100 38.78500
H  31.03700 64.92800 38.55200
H  30.09900 66.61100 39.21800
H  30.14600 66.21000 40.89100
H  28.67000 65.77500 39.85900
H  24.80700 61.57200 40.30600
H  25.22000 61.81200 38.55000
H  25.96700 62.79000 39.87200
H  26.20000 56.81000 37.92700
H  25.91300 53.43700 39.74400
H  24.56300 53.21400 38.71900
H  24.26800 53.89600 40.38600

