158

Mg 40.86500 9.24800 30.51300
C  42.53700 10.56200 33.16800
C  38.63900 7.66600 32.74800
C  39.17400 7.96100 27.93500
C  43.38300 10.12100 28.40200
N  40.56800 9.30400 32.70000
C  41.40300 9.88700 33.58300
C  40.88900 9.75200 35.03100
C  39.71800 8.73600 34.91300
C  39.66100 8.48400 33.35700
C  39.85800 7.30800 35.64100
C  40.50100 11.18800 35.65200
C  41.24200 11.63400 36.90800
H  40.37700 12.18800 38.02500
N  39.09700 8.03700 30.37500
C  38.33700 7.55800 31.39900
C  37.19100 6.88500 30.83400
C  37.31600 6.94900 29.39900
C  38.56900 7.57500 29.16900
C  36.08300 6.26100 31.71400
C  36.29800 6.50400 28.36200
O  36.47800 6.56600 27.17000
C  34.92300 6.10400 28.81100
N  41.18600 9.14700 28.47800
C  40.33100 8.56400 27.59500
C  40.88900 8.67000 26.16100
C  42.17800 9.53400 26.36200
C  42.30500 9.49300 27.86100
C  41.24100 7.28700 25.45700
C  41.97400 11.11400 25.90500
C  41.79400 11.48300 24.43600
N  42.53300 10.28500 30.64000
C  43.54700 10.44700 29.74900
C  44.58000 11.29800 30.36500
C  44.20200 11.35000 31.70300
C  43.00900 10.70200 31.86900
C  45.72100 11.83900 29.56100
C  44.67600 11.78600 32.92400
O  45.73900 12.40100 33.07300
C  43.65300 11.31100 34.06600
C  44.28500 10.43800 35.06000
O  44.37600 9.18800 35.06400
O  44.62800 11.20800 36.14200
C  44.83900 10.47600 37.35100
H  37.99900 7.19100 33.49500
H  38.74600 7.52400 27.03000
H  44.05600 10.56800 27.66700
H  41.67300 9.14300 35.48000
H  38.79700 9.20300 35.26300
H  40.00400 6.52500 34.89700
H  38.90800 6.97000 36.05500
H  40.65200 7.33200 36.38700
H  39.42500 11.23000 35.81800
H  40.82800 11.90200 34.89700
H  41.91500 12.43800 36.61000
H  41.83500 10.83000 37.34300
H  36.00600 5.17600 31.64300
H  35.16700 6.79400 31.45900
H  36.28400 6.49000 32.76100
H  34.97400 5.26000 29.49900
H  34.37600 5.70600 27.95500
H  34.39300 6.93200 29.28200
H  40.22600 9.21400 25.48800
H  43.06200 9.04900 25.94700
H  40.89400 6.46300 26.08100
H  42.27600 7.14100 25.14900
H  40.70000 7.26300 24.51100
H  42.83300 11.73700 26.15300
H  41.10000 11.52800 26.40800
H  42.71400 11.21100 23.91700
H  41.49700 12.52600 24.33000
H  41.00900 10.81200 24.08700
H  45.41400 12.16100 28.56600
H  46.34300 10.94700 29.47900
H  46.24200 12.61100 30.12700
H  43.21700 12.15100 34.60600
H  44.18200 10.76700 38.17100
H  45.81200 10.66000 37.80600
H  44.74000 9.39300 37.27400
Mg 41.78800 41.27200 26.53000
C  41.16500 43.82400 29.09800
C  42.47300 39.08800 29.13400
C  42.72700 39.23500 24.34200
C  41.28200 43.82100 24.11100
N  42.03200 41.47400 28.82300
C  41.65900 42.62000 29.61500
C  41.54800 42.11300 31.11600
C  41.94900 40.63600 31.12300
C  42.16000 40.37500 29.62700
C  43.29900 40.25900 31.85300
C  40.04500 42.27900 31.70500
C  39.91400 42.98800 33.00000
H  39.18200 42.37300 34.20400
N  42.54500 39.41600 26.66800
C  42.62700 38.60300 27.83400
C  42.90300 37.24400 27.40700
C  43.11500 37.27600 26.00500
C  42.78800 38.67500 25.60500
C  43.32300 36.22300 28.46100
C  43.58700 36.23700 25.05100
O  43.85400 36.44400 23.86000
C  43.61700 34.74000 25.60300
N  42.04100 41.56800 24.50800
C  42.33200 40.47200 23.80200
C  42.08900 40.66000 22.28200
C  41.50400 42.16600 22.17200
C  41.70100 42.56500 23.66800
C  43.27200 40.36900 21.30700
C  40.08700 42.24600 21.62600
C  39.02400 41.54300 22.44800
N  41.35500 43.35800 26.52400
C  41.20900 44.23200 25.43700
C  40.75900 45.51200 25.93400
C  40.76200 45.37400 27.36900
C  41.07900 44.05100 27.66400
C  40.27500 46.67900 25.06900
C  40.53800 46.16400 28.59100
O  40.39400 47.36400 28.70700
C  40.76500 45.16700 29.73700
C  41.82800 45.68700 30.62500
O  43.01400 45.92100 30.36100
O  41.26100 45.98800 31.84400
C  42.15400 46.73100 32.74100
H  42.45200 38.39700 29.97900
H  42.81200 38.50800 23.53200
H  40.87900 44.44900 23.31300
H  42.28500 42.80800 31.52000
H  41.13200 40.05800 31.55600
H  43.54000 41.06400 32.54700
H  44.09800 40.15000 31.12000
H  43.07600 39.35500 32.41900
H  39.43100 41.37900 31.69900
H  39.50800 42.85500 30.95100
H  39.44500 43.95500 32.81500
H  40.89200 43.27600 33.38700
H  44.36900 35.95500 28.31100
H  42.80300 35.28200 28.27900
H  43.20900 36.51100 29.50600
H  44.53000 34.59300 26.18000
H  43.63100 34.05700 24.75300
H  42.69500 34.46900 26.11700
H  41.19700 40.05500 22.12200
H  42.25400 42.81800 21.72500
H  43.48900 41.25500 20.71000
H  43.08700 39.51200 20.65900
H  44.16300 40.04100 21.84200
H  40.00200 41.72200 20.67400
H  39.75100 43.27300 21.48100
H  39.32900 41.15300 23.41900
H  38.71800 40.68600 21.84700
H  38.17100 42.21300 22.55200
H  40.54400 46.60800 24.01500
H  40.76600 47.53600 25.53100
H  39.20500 46.87500 25.14700
H  39.83300 45.03800 30.28600
H  42.94300 47.28500 32.23200
H  42.54300 46.00200 33.45200
H  41.64300 47.49000 33.33300

