158

Mg 40.57700 8.95500 28.80600
C  42.13200 10.07700 31.83000
C  38.23700 7.36600 30.91000
C  39.26000 7.43700 26.11900
C  43.27900 9.91900 26.93500
N  40.21900 8.91500 31.05900
C  40.94400 9.41500 32.13600
C  40.37500 9.06500 33.47700
C  39.21600 8.04500 33.05300
C  39.25100 8.07200 31.58800
C  39.35600 6.64100 33.62900
C  39.90800 10.35600 34.22200
C  40.19700 10.24100 35.72500
H  41.11600 11.28800 36.45300
N  38.90300 7.71400 28.54000
C  38.15500 7.08400 29.51900
C  37.18400 6.25300 28.93300
C  37.40700 6.32300 27.56700
C  38.55500 7.24500 27.32300
C  36.14900 5.33700 29.73600
C  36.59500 5.64600 26.50900
O  36.91000 5.67000 25.32600
C  35.36500 4.94400 26.81300
N  41.27900 8.68600 26.86700
C  40.44900 8.10600 25.94600
C  41.02600 8.21200 24.48600
C  42.30600 9.08700 24.76900
C  42.27400 9.31300 26.26000
C  41.19000 6.90700 23.76400
C  42.58500 10.34900 23.87900
C  41.86700 11.64900 24.42200
N  42.29700 9.80200 29.23900
C  43.34000 10.20400 28.38100
C  44.40800 10.91800 29.13500
C  43.93500 10.86100 30.47800
C  42.69900 10.19700 30.46600
C  45.69400 11.39000 28.55100
C  44.34000 11.14400 31.79100
O  45.39400 11.60900 32.20400
C  43.09900 10.68500 32.74500
C  43.66900 9.61700 33.64200
O  44.09100 8.47600 33.24800
O  43.83900 10.19600 34.87000
C  44.52100 9.40200 35.93200
H  37.51800 6.95200 31.61900
H  38.90100 7.00200 25.18300
H  44.16700 10.29700 26.42500
H  41.11800 8.56700 34.10100
H  38.22000 8.48000 33.13400
H  40.15100 6.56600 34.37200
H  39.61900 5.96700 32.81400
H  38.38600 6.25000 33.93400
H  38.82800 10.50000 34.16800
H  40.43300 11.22600 33.82700
H  40.55600 9.26500 36.05100
H  39.23600 10.28100 36.23800
H  36.55700 5.13000 30.72500
H  36.09100 4.35300 29.27100
H  35.18400 5.84100 29.78900
H  35.54700 3.88800 27.01200
H  34.74600 4.92500 25.91600
H  34.73900 5.28900 27.63500
H  40.34500 8.79900 23.87000
H  43.12500 8.40000 24.55600
H  40.99100 5.98800 24.31600
H  42.23500 6.93800 23.45500
H  40.53300 7.00900 22.90100
H  42.29400 10.19000 22.84100
H  43.66000 10.42300 23.71800
H  42.55900 12.37400 24.85200
H  41.17500 11.38800 25.22300
H  41.41600 12.22800 23.61700
H  45.51400 12.01300 27.67500
H  46.36300 10.57300 28.27900
H  46.04000 12.06000 29.33900
H  42.82900 11.51600 33.39600
H  44.45500 9.95500 36.86900
H  45.56700 9.19100 35.71100
H  43.99200 8.46900 36.12400
Mg -11.96600 16.65700 42.06200
C  -8.83100 15.06900 41.50000
C  -10.70600 19.44700 40.66000
C  -15.05400 17.84000 42.04000
C  -13.17600 13.41600 43.04800
N  -9.99000 17.15900 41.01100
C  -8.86400 16.38400 41.05300
C  -7.68100 17.23300 40.51800
C  -8.23600 18.71400 40.62400
C  -9.72500 18.40700 40.78400
C  -7.55700 19.66300 41.72000
C  -7.18100 16.82700 39.12300
C  -5.69000 17.34700 38.88900
H  -5.63000 18.16600 37.64100
N  -12.75200 18.39300 41.52200
C  -12.05200 19.44900 40.99200
C  -12.80200 20.60400 40.88800
C  -14.11100 20.20900 41.38500
C  -14.00300 18.78600 41.66100
C  -12.19900 22.03500 40.55400
C  -15.31500 21.06300 41.50800
O  -15.23800 22.22000 41.18900
C  -16.63400 20.73300 42.03900
N  -13.85700 15.68800 42.49000
C  -14.96200 16.44700 42.39500
C  -16.26000 15.67200 42.73400
C  -15.60100 14.29900 43.32500
C  -14.14000 14.42400 42.93200
C  -17.33200 16.27700 43.69400
C  -16.16100 13.01400 42.68900
C  -16.29800 11.83600 43.67800
N  -11.28700 14.65500 42.25400
C  -11.82000 13.42900 42.68300
C  -10.79400 12.42800 42.73800
C  -9.64200 13.06200 42.26000
C  -9.98700 14.35500 42.00400
C  -10.87900 11.03900 43.30200
C  -8.24300 12.87600 42.07000
O  -7.54400 11.85700 42.08800
C  -7.66300 14.16700 41.48500
C  -6.48600 14.55200 42.40900
O  -6.55600 14.62700 43.64500
O  -5.32100 14.74400 41.64300
C  -4.07800 15.02500 42.36500
H  -10.21600 20.39700 40.43300
H  -16.07500 18.19100 41.87900
H  -13.53300 12.48600 43.49600
H  -6.90100 17.05900 41.26000
H  -8.22700 19.18600 39.64200
H  -8.36600 19.91700 42.40400
H  -7.28300 20.60100 41.23600
H  -6.63700 19.25400 42.13900
H  -7.73700 17.44300 38.41600
H  -7.27900 15.75300 38.97000
H  -5.05300 16.46700 38.80100
H  -5.29800 17.91300 39.73400
H  -12.21400 22.41100 39.53000
H  -11.19300 22.07300 40.97300
H  -12.79500 22.72400 41.15100
H  -17.21600 21.59900 42.35400
H  -16.60100 20.10200 42.92700
H  -17.22700 20.22200 41.28100
H  -16.68400 15.47900 41.74800
H  -15.69400 14.32400 44.41000
H  -17.17200 17.33800 43.88600
H  -17.52400 15.74200 44.62400
H  -18.23700 16.15600 43.09900
H  -15.54300 12.77100 41.82500
H  -17.14800 13.22700 42.27800
H  -16.33900 12.08400 44.73800
H  -15.60300 11.00200 43.58000
H  -17.30800 11.45700 43.51800
H  -11.44800 10.35500 42.67300
H  -11.39400 11.16000 44.25500
H  -9.87000 10.69400 43.52800
H  -7.30500 14.06400 40.46100
H  -3.85200 14.06900 42.83800
H  -4.22000 15.78900 43.12900
H  -3.17000 15.31600 41.83700

