158

Mg 50.44100 45.87600 42.70900
C  47.58800 46.93900 41.02400
C  50.02300 42.72400 41.26100
C  53.66300 45.15100 43.35500
C  51.04500 49.24400 43.77600
N  48.94900 45.01000 41.21100
C  47.83100 45.60000 40.80200
C  46.95700 44.60000 40.00200
C  47.70100 43.16000 40.21700
C  48.95300 43.60800 40.94400
C  46.87100 42.09800 40.91700
C  46.75600 45.09800 38.50400
C  45.37400 44.88500 37.93600
H  45.13300 43.69800 36.98500
N  51.55700 44.07400 42.59300
C  51.24800 42.95900 41.95500
C  52.35200 41.93600 42.06200
C  53.42100 42.64100 42.65800
C  52.90900 44.03800 42.87900
C  52.11000 40.52300 41.59600
C  54.75000 42.07700 43.05900
O  54.88900 40.88400 43.07600
C  55.86600 42.95700 43.56700
N  52.03700 47.00400 43.55000
C  53.26400 46.44100 43.67400
C  54.24100 47.51000 44.15200
C  53.45400 48.75200 44.49800
C  52.08200 48.32800 44.02000
C  55.23400 47.11600 45.31800
C  53.98600 50.08200 43.96400
C  54.07400 51.25200 44.97100
N  49.55700 47.70800 42.63100
C  49.87200 48.95000 43.09900
C  48.81000 49.88300 42.69000
C  47.92600 49.12300 41.93900
C  48.41000 47.81900 41.82600
C  48.77200 51.32400 43.00500
C  46.65700 49.27400 41.16400
O  45.94000 50.23900 40.89200
C  46.46500 47.79800 40.55700
C  45.13800 47.33900 41.17300
O  44.86600 46.82600 42.29700
O  44.20500 47.49100 40.18800
C  42.85300 47.07200 40.46300
H  49.77000 41.73300 40.87700
H  54.75200 45.12900 43.27600
H  51.20900 50.30300 43.99200
H  45.95600 44.47600 40.41500
H  47.90100 42.54700 39.33800
H  45.81800 42.29600 40.71900
H  46.96300 42.02700 42.00100
H  47.17900 41.15800 40.45900
H  47.44600 44.55000 37.86300
H  46.93200 46.17000 38.41900
H  45.08000 45.72500 37.30700
H  44.63300 44.77700 38.72800
H  52.97900 39.88800 41.76900
H  51.87300 40.34100 40.54700
H  51.41100 39.99200 42.24200
H  55.53800 43.54600 44.42400
H  56.24300 43.59300 42.76700
H  56.74700 42.36100 43.80500
H  54.75500 47.62400 43.19800
H  53.21400 48.88000 45.55300
H  54.80600 46.24700 45.81800
H  55.26900 47.83200 46.13900
H  56.22100 47.01800 44.86500
H  53.47600 50.32100 43.03100
H  55.03500 49.93000 43.70900
H  54.50700 50.87300 45.89700
H  53.06400 51.56700 45.23400
H  54.57700 52.14800 44.60900
H  48.73000 51.96900 42.12700
H  49.63500 51.62900 43.59700
H  47.85100 51.44400 43.57600
H  46.31200 47.79900 39.47800
H  42.24800 47.55100 39.69300
H  42.60200 47.36500 41.48200
H  42.72600 46.01100 40.24900
Mg -10.20500 17.17300 40.93800
C  -6.57500 16.80600 41.22700
C  -9.59500 20.51900 40.55300
C  -13.38800 17.43300 40.77500
C  -10.51500 13.64400 41.20100
N  -8.21900 18.45300 40.75200
C  -7.00200 18.14900 41.07900
C  -6.09700 19.44100 40.95500
C  -7.11600 20.54600 41.28800
C  -8.41100 19.79100 40.86100
C  -7.07400 20.93600 42.83800
C  -5.60700 19.62700 39.38400
C  -4.14900 19.33000 39.09100
H  -3.74300 18.42300 37.89200
N  -11.30700 18.75000 40.52600
C  -10.91900 20.06600 40.39700
C  -12.08800 20.92200 40.12200
C  -13.24100 20.03700 40.26700
C  -12.70500 18.69700 40.58100
C  -12.10200 22.34800 39.81300
C  -14.68200 20.39200 40.05100
O  -15.04500 21.53300 39.82700
C  -15.80200 19.41300 40.02700
N  -11.73000 15.71400 41.04900
C  -12.97000 16.13000 41.03800
C  -14.02600 14.95000 41.17900
C  -13.04600 13.69200 41.07700
C  -11.67900 14.36900 41.15400
C  -14.98800 14.85200 42.43300
C  -13.11000 12.80100 39.81700
C  -13.04600 11.33700 39.99000
N  -8.91500 15.52600 41.06300
C  -9.20100 14.21600 41.22400
C  -7.88500 13.50700 41.40400
C  -6.86400 14.46900 41.51400
C  -7.50900 15.68600 41.23900
C  -7.69600 12.01800 41.53400
C  -5.44600 14.73300 41.80200
O  -4.51000 13.95800 42.06500
C  -5.28300 16.23000 41.53100
C  -4.48400 16.81700 42.67100
O  -3.39600 17.25300 42.60300
O  -5.21200 16.73100 43.88800
C  -4.48000 16.92300 45.11600
H  -9.53700 21.60100 40.68300
H  -14.47200 17.39800 40.90000
H  -10.56600 12.55900 41.31500
H  -5.19700 19.50900 41.56500
H  -6.80400 21.38100 40.66100
H  -6.16000 20.63200 43.34700
H  -7.84500 20.31000 43.28900
H  -7.37300 21.95700 43.07700
H  -5.88200 20.60500 38.98800
H  -6.21700 18.97900 38.75600
H  -3.56700 19.06300 39.97300
H  -3.76100 20.31100 38.81500
H  -12.56900 22.96900 40.57700
H  -12.67200 22.42800 38.88700
H  -11.08500 22.70600 39.65400
H  -15.65600 18.94400 39.05400
H  -16.70700 19.94900 39.74200
H  -15.76000 18.84400 40.95600
H  -14.79200 14.97200 40.40400
H  -13.13600 13.06400 41.96300
H  -15.99800 15.16900 42.17300
H  -14.57400 15.44500 43.24900
H  -15.25600 13.82800 42.69300
H  -12.28400 13.04800 39.14900
H  -14.05300 13.06800 39.34200
H  -12.14200 10.91300 39.55300
H  -13.86200 10.94000 39.38500
H  -13.00000 10.98500 41.02100
H  -7.81400 11.56100 40.55200
H  -8.59200 11.75200 42.09600
H  -6.73700 11.90800 42.04000
H  -4.64000 16.26200 40.65200
H  -5.01100 16.42900 45.93000
H  -4.36300 18.00600 45.16500
H  -3.52200 16.41300 45.01700

