158

Mg 34.73700 2.65900 29.37500
C  32.72400 3.71600 32.07600
C  37.47200 2.57400 31.48600
C  36.80300 2.46000 26.70700
C  32.11300 3.44400 27.17100
N  34.99900 3.27100 31.56000
C  34.05400 3.53200 32.48400
C  34.64700 3.38300 33.91000
C  36.17500 3.18100 33.68600
C  36.27100 3.03600 32.13000
C  37.06800 4.31800 34.28000
C  33.87100 2.24700 34.73800
C  33.58100 2.35800 36.27200
H  34.20300 3.53000 37.07500
N  36.81100 2.42600 29.11500
C  37.77000 2.37700 30.15100
C  39.08000 2.17000 29.54200
C  38.91700 2.02700 28.13200
C  37.47200 2.22000 27.91200
C  40.35100 2.12700 30.34900
C  39.93200 1.69800 27.06200
O  39.55700 1.60500 25.90300
C  41.38000 1.40500 27.37500
N  34.44800 2.90100 27.23400
C  35.47900 2.76800 26.32400
C  35.05300 3.03800 24.86900
C  33.48900 3.13000 25.08700
C  33.28900 3.11700 26.56500
C  35.70100 4.27500 24.25000
C  32.62200 2.04800 24.41800
C  31.16500 2.35200 24.16100
N  32.75700 3.16900 29.53600
C  31.83500 3.45400 28.54600
C  30.55200 3.91200 29.15100
C  30.92300 3.95700 30.52900
C  32.25600 3.55200 30.76500
C  29.21500 4.21700 28.44800
C  30.32100 4.31400 31.83800
O  29.18800 4.79000 32.13800
C  31.51300 4.13700 32.85400
C  31.69000 5.50000 33.58000
O  32.10200 6.58700 33.16300
O  31.23200 5.31500 34.80800
C  31.00700 6.51200 35.61600
H  38.33300 2.45800 32.14800
H  37.47300 2.47700 25.84400
H  31.27100 3.68600 26.52000
H  34.59700 4.27000 34.54300
H  36.53700 2.21500 34.03700
H  37.83100 3.88800 34.92900
H  36.66100 5.12800 34.88600
H  37.62600 4.78400 33.46800
H  34.48900 1.38200 34.49700
H  32.95300 1.96000 34.22600
H  33.82700 1.39800 36.72500
H  32.51100 2.55800 36.33400
H  40.21400 2.77100 31.21800
H  41.16900 2.56200 29.77600
H  40.58000 1.12000 30.69900
H  41.52200 0.78000 28.25700
H  41.87300 2.32100 27.69900
H  41.82800 0.97500 26.47900
H  35.11200 2.12400 24.27700
H  33.10100 4.07400 24.70400
H  36.49000 4.68000 24.88400
H  34.97900 5.05300 24.00200
H  36.32900 3.94400 23.42300
H  32.81200 1.14500 24.99800
H  32.94700 1.88800 23.39000
H  30.94300 2.12200 23.11900
H  30.82400 3.35100 24.43500
H  30.59600 1.66200 24.78300
H  28.43600 4.57900 29.11900
H  28.87700 3.22600 28.14500
H  29.30100 4.78000 27.51800
H  31.35700 3.30700 33.54300
H  29.97600 6.86300 35.56700
H  31.72200 7.33300 35.56900
H  31.11600 6.08500 36.61300
Mg -11.79800 15.95700 42.71500
C  -8.68800 14.34200 42.04900
C  -10.47700 18.76800 41.08700
C  -14.86800 17.25200 42.72300
C  -13.09500 12.86200 43.66000
N  -9.74100 16.47900 41.77100
C  -8.68400 15.67000 41.55500
C  -7.60400 16.41200 40.72700
C  -8.23200 17.77600 40.45500
C  -9.58200 17.66900 41.15500
C  -7.45800 18.97900 41.06900
C  -7.11700 15.68900 39.38700
C  -5.67600 15.79600 39.20300
H  -5.13600 15.40300 37.83800
N  -12.53800 17.79200 42.04500
C  -11.88900 18.82000 41.41800
C  -12.83500 19.89100 41.06900
C  -14.06800 19.47700 41.57500
C  -13.91900 18.06000 42.17200
C  -12.49400 21.05400 40.31500
C  -15.32000 20.20700 41.39600
O  -15.36100 21.35300 40.91100
C  -16.55800 19.65100 41.78200
N  -13.71400 15.15300 43.16800
C  -14.86200 15.92400 43.12600
C  -16.07100 15.09300 43.63500
C  -15.50200 13.68200 43.75200
C  -13.99600 13.91600 43.64200
C  -16.70900 15.64200 44.90100
C  -15.99400 12.74900 42.61000
C  -17.03000 11.69000 42.88800
N  -11.07600 14.00800 42.96700
C  -11.74500 12.87100 43.40400
C  -10.76700 11.85100 43.47700
C  -9.56800 12.40000 42.97800
C  -9.81900 13.68100 42.63600
C  -11.17700 10.34800 43.83000
C  -8.06300 12.18400 42.75200
O  -7.39800 11.19800 43.00300
C  -7.52100 13.41700 42.05000
C  -6.32200 13.93100 42.85900
O  -6.38500 14.85500 43.65200
O  -5.16200 13.25800 42.55700
C  -3.92500 13.79300 43.10000
H  -10.16700 19.62700 40.48800
H  -15.91500 17.55400 42.66000
H  -13.66600 12.00400 44.02000
H  -6.82000 16.50200 41.48000
H  -8.36700 18.04400 39.40800
H  -6.43300 18.66200 40.87700
H  -7.64200 19.06600 42.14000
H  -7.48000 19.90000 40.48700
H  -7.55200 16.18200 38.51700
H  -7.52900 14.68000 39.35700
H  -5.24600 15.18700 39.99800
H  -5.37100 16.82000 39.41900
H  -12.72300 20.89000 39.26200
H  -11.41600 21.21000 40.30500
H  -12.98700 21.94100 40.71500
H  -16.73400 18.74300 41.20600
H  -17.31100 20.40200 41.54200
H  -16.70300 19.43400 42.84100
H  -16.82900 15.07900 42.85200
H  -15.67700 13.22400 44.72500
H  -16.35800 16.63600 45.17600
H  -16.62400 14.98600 45.76700
H  -17.76500 15.88000 44.77600
H  -15.18200 12.10900 42.26500
H  -16.21900 13.34800 41.72800
H  -17.83200 11.94600 43.58100
H  -16.63400 10.71200 43.16000
H  -17.57800 11.67300 41.94600
H  -11.57700 9.88800 42.92700
H  -11.99800 10.39800 44.54600
H  -10.35400 9.74200 44.21000
H  -7.25400 13.30900 40.99800
H  -3.62100 14.79800 42.80600
H  -3.10200 13.25700 42.62700
H  -3.89200 13.61700 44.17500

