158

Mg 35.53800 1.28900 29.79500
C  33.24000 2.43500 32.32000
C  37.97900 1.42000 32.22600
C  37.81200 0.78300 27.40900
C  32.98600 1.85200 27.41100
N  35.60100 1.93900 31.93100
C  34.54100 2.20300 32.80200
C  34.94100 2.28000 34.24700
C  36.58600 2.36600 34.13700
C  36.73500 1.88500 32.71200
C  37.20900 3.73200 34.48700
C  34.42600 1.12100 34.98600
C  34.43400 1.24700 36.50800
H  35.21100 2.35100 37.22000
N  37.62400 0.83400 29.80200
C  38.42700 1.05300 30.90600
C  39.83300 0.79700 30.50000
C  39.78400 0.53900 29.06500
C  38.36700 0.78900 28.68800
C  40.94100 0.84500 31.47100
C  40.89400 0.30900 28.15100
O  40.79800 0.17000 26.94100
C  42.29400 0.27400 28.70200
N  35.35700 1.14600 27.70800
C  36.47500 0.89700 26.97600
C  36.12600 0.75500 25.45300
C  34.57700 1.10700 25.45300
C  34.27600 1.43400 26.95700
C  37.07400 1.69200 24.55100
C  33.76600 -0.05600 24.89000
C  33.33500 -1.15700 25.83200
N  33.54800 2.08100 29.78700
C  32.61000 2.13300 28.72500
C  31.31500 2.56300 29.25400
C  31.57100 2.66200 30.63800
C  32.91100 2.41300 30.93800
C  30.07500 2.88400 28.45300
C  30.86900 3.00800 31.88300
O  29.66200 3.37600 31.99200
C  31.91400 2.84500 33.03400
C  31.96800 4.15900 33.76300
O  32.30500 5.23400 33.23700
O  31.79300 3.95300 35.10500
C  31.72900 5.23200 35.86300
H  38.75500 1.34700 32.99100
H  38.56200 0.72900 26.61700
H  32.18600 1.92500 26.67200
H  34.56400 3.21200 34.66900
H  37.03900 1.64800 34.82000
H  38.04800 3.67800 35.17900
H  36.50300 4.50600 34.78800
H  37.64700 4.15400 33.58200
H  34.96600 0.21600 34.70400
H  33.42200 0.79300 34.71800
H  34.57700 0.25000 36.92400
H  33.39600 1.50200 36.71900
H  41.40200 -0.13800 31.57100
H  40.57400 1.18600 32.43900
H  41.76800 1.47500 31.14400
H  42.73900 1.22700 28.98700
H  43.00700 -0.21200 28.03600
H  42.29700 -0.40800 29.55300
H  36.34400 -0.28000 25.18800
H  34.27500 1.94500 24.82500
H  37.77100 1.01600 24.05500
H  37.66000 2.43400 25.09300
H  36.58400 2.19900 23.71900
H  34.36400 -0.50600 24.09700
H  32.89200 0.37300 24.40000
H  33.73600 -1.04500 26.84000
H  33.60600 -2.15600 25.49100
H  32.26600 -1.09200 26.03200
H  30.33100 2.82200 27.39500
H  29.67900 3.87100 28.68800
H  29.29200 2.15800 28.67300
H  31.62800 2.01900 33.68500
H  31.03200 5.94000 35.41400
H  32.74100 5.62800 35.95000
H  31.36800 4.83500 36.81100
Mg 47.59800 15.48200 27.67600
C  45.36200 14.90500 30.23000
C  49.10500 17.86900 29.80900
C  49.58100 16.34200 25.19300
C  45.40800 13.77900 25.48200
N  47.31900 16.19000 29.85500
C  46.43000 15.63700 30.70600
C  46.74700 16.11800 32.10600
C  47.76700 17.31000 31.93900
C  48.05900 17.14100 30.43100
C  47.23300 18.66900 32.44900
C  47.23000 14.98600 33.03400
C  47.08100 15.45900 34.48800
H  48.31000 15.22200 35.40000
N  49.32000 16.69400 27.59600
C  49.72600 17.63400 28.53400
C  50.92200 18.21800 27.96300
C  51.13500 17.72400 26.67300
C  49.97000 16.85900 26.44700
C  51.78100 19.31700 28.73300
C  52.27100 18.05000 25.74500
O  52.43000 17.52100 24.66600
C  53.26500 19.09500 26.15800
N  47.55900 14.98400 25.56000
C  48.52900 15.51700 24.73800
C  48.10900 15.24900 23.22300
C  46.91100 14.24100 23.34400
C  46.56300 14.32400 24.85700
C  47.80200 16.52700 22.40200
C  47.23900 12.76800 22.94100
C  47.97000 11.79400 23.94500
N  45.77700 14.52000 27.74600
C  45.01400 13.85200 26.85100
C  43.73300 13.50200 27.44600
C  43.84900 13.80000 28.78600
C  45.09600 14.47900 28.95100
C  42.60700 12.88700 26.59000
C  43.10400 13.82100 30.06300
O  41.92600 13.56400 30.34000
C  44.13000 14.45900 31.03900
C  43.47900 15.53100 31.84000
O  42.87800 16.50300 31.41200
O  43.49100 15.24800 33.19500
C  42.92600 16.31400 34.00900
H  49.45400 18.66700 30.46900
H  50.12800 16.73200 24.33200
H  44.69800 13.26100 24.83400
H  45.83300 16.49600 32.56500
H  48.68700 17.17400 32.50700
H  47.61500 19.44800 31.78900
H  47.73500 18.95000 33.37500
H  46.14700 18.75700 32.44100
H  48.26000 14.76600 32.75400
H  46.72600 14.02700 32.92000
H  46.27900 14.83000 34.87300
H  46.64300 16.44100 34.66300
H  51.26900 19.60800 29.65000
H  51.81700 20.17600 28.06300
H  52.80000 19.05700 29.01900
H  54.04400 19.02200 25.39800
H  53.79400 18.92700 27.09600
H  52.89100 20.11900 26.14900
H  48.94800 14.70900 22.78500
H  46.05000 14.55400 22.75400
H  48.70500 16.74600 21.83300
H  47.45100 17.37500 22.99000
H  47.02700 16.27000 21.68000
H  47.93000 12.67800 22.10300
H  46.28700 12.29600 22.69700
H  48.86800 11.33200 23.53400
H  47.23600 11.04200 24.23400
H  48.14100 12.16300 24.95600
H  41.65500 13.09700 27.07700
H  42.79700 11.81700 26.50400
H  42.59400 13.29400 25.57800
H  44.34400 13.64800 31.73600
H  43.33000 17.28700 33.72800
H  43.04200 15.91800 35.01700
H  41.86900 16.35800 33.74600

