158

Mg 16.13400 -1.46000 27.83500
C  14.81000 0.40800 30.47600
C  17.99800 -3.28000 30.09600
C  17.43200 -3.12600 25.35800
C  14.08300 0.38000 25.68600
N  16.45500 -1.38500 29.98600
C  15.76600 -0.57300 30.91500
C  16.22900 -0.82700 32.26400
C  17.36800 -1.88500 32.18300
C  17.32000 -2.20300 30.64700
C  18.77500 -1.47100 32.65900
C  15.04300 -1.08300 33.20400
C  15.05600 -0.27200 34.44600
H  16.35100 0.24600 35.14000
N  17.41800 -3.10500 27.73000
C  18.02700 -3.70700 28.73400
C  18.79200 -4.83200 28.21500
C  18.57800 -4.90300 26.84000
C  17.77100 -3.66900 26.56900
C  19.49600 -5.81200 29.14900
C  19.14400 -5.89700 25.90300
O  18.97300 -5.72700 24.73800
C  20.02500 -6.98000 26.28300
N  15.87500 -1.21400 25.85900
C  16.62300 -2.05000 25.04100
C  16.39300 -1.64300 23.48400
C  15.21700 -0.65000 23.61300
C  15.02900 -0.49800 25.13900
C  17.69200 -1.10400 22.77500
C  13.83300 -0.97100 22.95500
C  13.50600 -0.07800 21.79400
N  14.72900 0.09100 27.98700
C  13.98500 0.74100 27.02500
C  13.11400 1.72300 27.57800
C  13.36600 1.69100 28.92800
C  14.36400 0.63300 29.13600
C  12.13700 2.55400 26.86300
C  13.06900 2.22300 30.22800
O  12.35500 3.22000 30.55300
C  13.95900 1.43000 31.30700
C  14.87900 2.38300 32.05200
O  15.92100 2.85800 31.63500
O  14.28700 2.68700 33.30600
C  14.99700 3.70700 34.20400
H  18.59500 -3.86000 30.80400
H  18.02800 -3.49900 24.52200
H  13.41700 0.88300 24.98200
H  16.68300 0.04800 32.73000
H  17.06600 -2.75100 32.77200
H  18.69900 -0.63100 33.35000
H  19.29100 -1.30800 31.71300
H  19.31600 -2.21000 33.25200
H  15.23500 -2.05800 33.65100
H  14.04500 -1.09300 32.76600
H  14.65300 -0.84300 35.28300
H  14.26200 0.46200 34.30800
H  20.27000 -6.32100 28.57400
H  18.83300 -6.54600 29.60700
H  19.93800 -5.28200 29.99200
H  19.54200 -7.66700 26.97700
H  20.94500 -6.52700 26.65100
H  20.29900 -7.56200 25.40400
H  16.12400 -2.56500 22.96800
H  15.53900 0.32800 23.25700
H  18.40400 -0.92500 23.58000
H  17.48200 -0.11700 22.36100
H  18.01800 -1.86200 22.06300
H  13.03600 -1.00600 23.69700
H  13.93800 -1.96000 22.50700
H  13.71400 -0.56100 20.84000
H  13.94700 0.90100 21.98400
H  12.44200 0.10300 21.94800
H  11.44100 2.78200 27.67000
H  11.56700 1.96700 26.14300
H  12.61500 3.46500 26.50300
H  13.32600 0.95000 32.05300
H  16.08200 3.71500 34.09300
H  14.75300 3.37400 35.21300
H  14.68800 4.70300 33.88600
Mg 54.81900 25.15200 43.58100
C  52.05300 27.37500 43.22600
C  52.95200 22.76500 41.97900
C  57.62400 23.42800 43.08000
C  56.67200 27.98000 44.72000
N  52.72100 25.09500 42.85300
C  51.83300 26.09000 42.69700
C  50.49000 25.65600 42.01900
C  50.73300 24.08000 42.02300
C  52.19300 23.99800 42.26100
C  49.93200 23.22600 43.09000
C  50.20500 26.24800 40.62000
C  51.25700 27.02900 39.86300
H  51.92800 26.15100 38.74100
N  55.24600 23.38200 42.63100
C  54.29800 22.46300 42.11200
C  54.97500 21.15700 41.91800
C  56.30900 21.30500 42.39200
C  56.47600 22.73700 42.70800
C  54.28300 19.94600 41.27300
C  57.28300 20.13600 42.33300
O  56.90600 19.03300 42.02800
C  58.64300 20.21600 42.87900
N  56.91400 25.64100 43.75100
C  57.87600 24.74200 43.54900
C  59.32100 25.40900 43.70400
C  58.93200 26.84700 44.22100
C  57.44700 26.89600 44.24500
C  60.27500 24.63800 44.61300
C  59.36300 28.00500 43.22300
C  60.26800 29.14100 43.69000
N  54.46600 27.22000 44.10100
C  55.27100 28.16200 44.65700
C  54.48300 29.32200 44.99700
C  53.19200 29.03200 44.46300
C  53.28000 27.81800 43.85300
C  54.88600 30.38300 45.81000
C  51.85500 29.51300 44.25500
O  51.37700 30.56000 44.52800
C  50.99500 28.46900 43.40600
C  50.67600 29.27500 42.14300
O  51.45200 29.99800 41.52600
O  49.33700 29.06900 41.84400
C  48.72400 29.96000 40.74800
H  52.29200 22.13300 41.38100
H  58.51300 22.79700 43.13800
H  57.27700 28.76200 45.18300
H  49.63100 25.84200 42.66300
H  50.56800 23.58900 41.06400
H  49.65100 22.25200 42.68900
H  48.99300 23.74900 43.27300
H  50.51300 23.12100 44.00600
H  49.32200 26.88700 40.64200
H  49.98400 25.47000 39.88900
H  52.10600 27.38600 40.44500
H  50.69100 27.86100 39.44400
H  54.81800 19.42400 40.48000
H  53.50400 20.39600 40.65700
H  53.75000 19.29500 41.96500
H  59.14900 19.33700 43.27800
H  58.48900 20.90000 43.71400
H  59.23100 20.72500 42.11500
H  59.81500 25.50100 42.73700
H  59.25400 27.13500 45.22100
H  60.48900 25.13500 45.55900
H  61.19500 24.27400 44.15700
H  59.71400 23.74500 44.88700
H  58.50800 28.42400 42.69300
H  59.97000 27.57600 42.42600
H  61.31600 29.08700 43.39300
H  60.29600 29.27500 44.77100
H  59.88100 29.99000 43.12700
H  55.33000 31.20600 45.25100
H  55.54600 30.07700 46.62200
H  53.94300 30.81300 46.14900
H  50.07100 28.11600 43.86300
H  47.73000 30.09900 41.17100
H  48.55600 29.43100 39.81000
H  49.18300 30.93800 40.60300

