158

Mg 41.19400 7.74500 29.70000
C  42.51900 9.30300 32.65400
C  38.85100 6.16800 31.75400
C  40.18100 6.09400 27.06800
C  43.72300 9.23700 27.99800
N  40.66400 7.80800 31.99900
C  41.38600 8.49700 32.93700
C  40.68900 8.28000 34.34000
C  39.57600 7.15300 34.04900
C  39.69700 6.98000 32.53700
C  39.55300 5.85400 34.93600
C  40.03400 9.55500 35.06100
C  40.04100 9.40600 36.54000
H  40.15600 10.72700 37.32100
N  39.56100 6.45200 29.40600
C  38.80300 5.91200 30.39500
C  37.84400 5.06800 29.72200
C  38.12000 5.02600 28.26900
C  39.38000 5.81200 28.17700
C  36.62100 4.44500 30.49500
C  37.35800 4.39600 27.17800
O  37.71000 4.44800 26.00400
C  36.09800 3.64500 27.52100
N  41.84300 7.71900 27.80500
C  41.31200 6.88600 26.85400
C  41.96700 6.92800 25.42400
C  42.97500 8.09300 25.66300
C  42.87100 8.41600 27.19100
C  42.66200 5.58400 25.04100
C  42.72800 9.28900 24.73600
C  41.38900 10.09100 25.19300
N  42.76900 8.91700 30.17300
C  43.68200 9.46300 29.32200
C  44.66800 10.20300 30.10100
C  44.25000 10.09400 31.46500
C  43.09900 9.31900 31.41400
C  45.82000 10.87900 29.58000
C  44.52000 10.59600 32.77200
O  45.47900 11.31000 33.08100
C  43.34200 10.08200 33.58700
C  43.84000 9.33400 34.77200
O  44.35300 8.23500 34.78200
O  43.66900 10.06400 35.84700
C  44.02400 9.41200 37.15800
H  38.06400 5.68500 32.33700
H  39.78100 5.57100 26.19700
H  44.50000 9.64400 27.34800
H  41.33600 7.69100 34.98900
H  38.60400 7.62600 34.18600
H  39.88500 5.02600 34.31000
H  38.54300 5.67200 35.30400
H  40.21000 5.87800 35.80600
H  38.99800 9.73500 34.77600
H  40.66900 10.37400 34.72400
H  40.70900 8.60200 36.84800
H  39.03500 9.04100 36.74600
H  35.75800 4.97600 30.09300
H  36.60400 4.52900 31.58200
H  36.60400 3.36900 30.32200
H  36.37800 2.83500 28.19500
H  35.76700 3.19900 26.58300
H  35.29700 4.26100 27.92900
H  41.15700 7.05500 24.70500
H  44.02800 7.83500 25.55000
H  42.27900 4.74700 25.62500
H  43.74700 5.48700 25.08200
H  42.30200 5.41200 24.02700
H  42.71000 8.83600 23.74400
H  43.69200 9.79800 24.75600
H  40.86900 9.68500 26.06100
H  40.71000 9.94400 24.35300
H  41.70600 11.12700 25.30700
H  45.95800 11.91000 29.90500
H  45.85600 10.72900 28.50100
H  46.59200 10.26700 30.04800
H  42.80200 10.95600 33.95000
H  45.06500 9.10300 37.06700
H  43.43000 8.55600 37.47800
H  43.91500 10.09400 38.00100
Mg 9.02900 48.08200 28.20900
C  6.97200 47.31500 30.92400
C  11.71000 48.29600 30.32900
C  10.91100 48.86500 25.55900
C  6.18200 48.33000 26.22000
N  9.26500 47.89000 30.36600
C  8.33200 47.48500 31.25000
C  8.89300 47.44700 32.72300
C  10.39000 47.96300 32.58600
C  10.46700 48.04800 31.02200
C  10.57200 49.25500 33.41800
C  8.81100 45.95500 33.34000
C  9.85000 45.45200 34.38200
H  9.39300 45.09100 35.83600
N  11.03800 48.45700 27.94100
C  12.01000 48.45300 28.94100
C  13.29900 48.69800 28.36800
C  13.02200 48.84100 26.95600
C  11.61600 48.69100 26.75100
C  14.54300 48.81500 29.24800
C  14.05600 48.89300 25.84000
O  13.79900 48.76300 24.63700
C  15.57200 48.94100 26.13600
N  8.60200 48.69500 26.29300
C  9.54300 48.90900 25.29100
C  8.89400 49.34400 24.02600
C  7.53300 48.74800 24.10400
C  7.42000 48.56200 25.63700
C  8.88400 50.83200 23.62300
C  7.35300 47.42700 23.22700
C  6.26200 47.48500 22.03500
N  6.95000 48.01900 28.49000
C  5.86800 48.08500 27.56900
C  4.63200 47.81300 28.34500
C  5.00600 47.52100 29.63400
C  6.44100 47.63200 29.68300
C  3.23900 47.63000 27.72700
C  4.48800 47.12500 30.93000
O  3.31200 46.91600 31.35500
C  5.71600 46.96800 31.78700
C  5.74100 45.53700 32.29000
O  6.40400 44.60300 31.80300
O  5.12700 45.53100 33.52400
C  5.13800 44.24600 34.25500
H  12.50700 48.29000 31.07500
H  11.51200 49.13200 24.68700
H  5.35900 48.42500 25.50800
H  8.41300 48.12500 33.42900
H  11.06900 47.19600 32.95800
H  10.66000 50.05900 32.68700
H  11.50300 49.28700 33.98500
H  9.80200 49.35800 34.18300
H  8.60300 45.29200 32.50000
H  7.88400 45.82100 33.89700
H  10.54000 46.23800 34.68900
H  10.45400 44.62600 34.00600
H  14.30700 48.87600 30.31000
H  15.08900 49.70900 28.94500
H  15.24000 47.98900 29.10900
H  15.94800 48.94400 25.11300
H  15.86200 48.02300 26.64800
H  15.96700 49.81000 26.66100
H  9.45400 48.97600 23.16700
H  6.84000 49.52300 23.77600
H  8.92600 51.51600 24.47100
H  7.96800 51.09800 23.09600
H  9.74000 51.01100 22.97200
H  7.11100 46.60400 23.89900
H  8.24700 47.11400 22.68800
H  6.82100 47.66900 21.11700
H  5.48400 48.20000 22.30200
H  5.74700 46.52800 21.94800
H  2.61100 48.43800 28.09900
H  2.73600 46.73900 28.10200
H  3.43600 47.57800 26.65600
H  5.52600 47.58200 32.66700
H  4.19300 43.70400 34.20400
H  5.32200 44.49500 35.30000
H  5.92900 43.58700 33.89800

