158

Mg 0.06800 8.14200 26.77400
C  0.97900 10.23300 29.41000
C  -0.52300 5.69400 29.00600
C  -0.38900 6.15500 24.21600
C  0.65500 10.87700 24.61400
N  0.37000 7.93400 28.98700
C  0.61600 8.96900 29.86100
C  0.30600 8.59800 31.38100
C  0.16000 6.99600 31.17300
C  -0.16800 6.90400 29.64200
C  1.41200 6.25200 31.61700
C  -0.96900 9.28200 32.06900
C  -0.98700 9.56100 33.54700
H  0.17300 9.06000 34.37500
N  -0.22500 6.17300 26.58400
C  -0.48400 5.33800 27.59800
C  -0.91900 3.98600 27.07600
C  -0.94400 4.12700 25.65700
C  -0.53200 5.51100 25.43800
C  -1.40300 2.83400 27.90100
C  -1.26000 3.06700 24.62100
O  -1.17400 3.37000 23.41400
C  -1.55700 1.59800 25.04200
N  0.25400 8.43400 24.69000
C  -0.00100 7.41500 23.81500
C  -0.05200 7.92300 22.34600
C  -0.08100 9.47000 22.59700
C  0.40800 9.59500 24.04700
C  1.10300 7.44100 21.41900
C  -1.45900 10.11700 22.34400
C  -1.44500 11.20700 21.27900
N  0.86000 10.13500 26.88900
C  0.98600 11.12100 25.94000
C  1.48500 12.35500 26.52200
C  1.53900 12.08100 27.86100
C  1.09000 10.71300 28.08400
C  1.65500 13.67700 25.87100
C  1.77500 12.61400 29.19400
O  2.03100 13.69600 29.63600
C  1.37200 11.44900 30.21400
C  2.49600 11.16500 31.15000
O  3.49000 10.46400 30.86400
O  2.45300 12.03500 32.19700
C  3.65200 12.08500 33.06500
H  -0.75500 4.90500 29.72400
H  -0.68600 5.56200 23.34800
H  0.54900 11.72800 23.93700
H  1.20600 8.94700 31.88800
H  -0.58200 6.55700 31.83900
H  2.04500 6.83600 32.28500
H  1.97200 6.02000 30.71100
H  1.15500 5.36600 32.19600
H  -1.83600 8.64700 31.88900
H  -1.19200 10.11400 31.40100
H  -1.92700 9.19800 33.96300
H  -0.88100 10.62500 33.75900
H  -0.80100 2.01700 27.50300
H  -2.45400 2.62700 27.70000
H  -1.16800 3.02500 28.94800
H  -1.92700 1.00000 24.20900
H  -2.32800 1.64600 25.81200
H  -0.71500 1.04000 25.45300
H  -1.04300 7.51500 22.14800
H  0.66400 9.95500 21.96600
H  0.67400 6.63900 20.81800
H  1.85100 7.12800 22.14800
H  1.45300 8.15900 20.67800
H  -1.85300 10.64100 23.21500
H  -2.14800 9.34900 21.99200
H  -1.98000 10.78100 20.43100
H  -0.42600 11.42000 20.95300
H  -1.93100 12.12400 21.61200
H  0.83100 14.33300 26.15000
H  1.80800 13.64300 24.79200
H  2.59000 14.02200 26.31200
H  0.59800 11.78700 30.90300
H  4.40500 12.32200 32.31300
H  3.94900 11.12000 33.47600
H  3.65000 12.79800 33.89000
Mg 47.46300 15.84800 27.78100
C  45.41800 16.13800 30.67500
C  49.78800 17.74300 29.45200
C  49.04500 16.03300 24.94200
C  44.63500 14.55400 26.13100
N  47.55400 16.87400 29.77900
C  46.73100 16.68200 30.82300
C  47.33700 17.26600 32.14200
C  48.54400 18.02800 31.60900
C  48.66500 17.56900 30.20900
C  48.57900 19.55300 31.89500
C  47.64100 16.24500 33.18100
C  47.34800 16.58100 34.61700
H  46.90400 18.02500 34.87100
N  49.28200 16.51800 27.34600
C  50.14900 17.27000 28.15100
C  51.37800 17.40100 27.45100
C  51.22300 16.90600 26.07900
C  49.82500 16.42400 26.06300
C  52.65400 17.96100 27.96200
C  52.20300 16.73100 24.89200
O  51.83100 16.20700 23.81900
C  53.52600 17.40600 24.85900
N  47.01300 15.11200 25.77200
C  47.82800 15.42700 24.79200
C  47.08900 15.27600 23.43200
C  45.84000 14.39600 23.80400
C  45.74800 14.69900 25.34600
C  46.52000 16.71800 22.89600
C  46.10100 12.89100 23.61600
C  45.17600 12.18200 22.56900
N  45.42300 15.35900 28.23800
C  44.44500 14.85600 27.45400
C  43.24200 14.62800 28.24300
C  43.62000 15.01600 29.53600
C  44.89900 15.56300 29.44900
C  41.97400 14.08200 27.70900
C  43.18100 15.10700 30.86900
O  42.23100 14.60600 31.47200
C  44.25700 15.91600 31.68700
C  43.67400 17.14600 32.19700
O  43.67300 18.27600 31.63000
O  43.19900 16.91700 33.44400
C  42.60900 18.06600 34.03600
H  50.57000 18.31600 29.95500
H  49.56900 16.09400 23.98600
H  43.93900 14.02400 25.47600
H  46.59900 17.96000 32.54600
H  49.46500 17.73000 32.11000
H  49.27100 19.68200 32.72700
H  47.60600 19.83700 32.29700
H  48.88700 20.10100 31.00600
H  48.67100 15.92500 33.02500
H  47.00100 15.40300 32.92100
H  48.11900 16.32400 35.34300
H  46.42100 16.05400 34.84300
H  53.47400 17.26600 27.77900
H  52.50200 18.00000 29.04100
H  52.79800 18.98600 27.62200
H  54.25500 16.91600 25.50500
H  53.39200 18.48500 24.92800
H  53.95500 17.30300 23.86300
H  47.77400 14.83100 22.71000
H  44.95900 14.70500 23.24000
H  46.87400 17.51700 23.54700
H  45.43600 16.79100 22.98500
H  46.85500 16.98400 21.89400
H  45.94000 12.36400 24.55700
H  47.11500 12.80700 23.22500
H  44.46300 12.88900 22.14500
H  44.71900 11.36500 23.12700
H  45.60800 11.75500 21.66400
H  41.83700 13.04600 28.01800
H  41.95800 14.05800 26.61900
H  41.21200 14.70200 28.18100
H  44.65700 15.34200 32.52300
H  41.57100 18.09700 33.70800
H  43.07700 19.01200 33.76400
H  42.59100 18.02700 35.12500

