158

Mg 2.56600 8.68500 26.39100
C  2.97400 10.97900 29.16300
C  3.03200 6.17300 28.71600
C  2.86200 6.67100 23.79700
C  2.83400 11.41300 24.25000
N  3.06200 8.61800 28.62400
C  3.07800 9.66800 29.55500
C  3.10800 9.11500 30.98400
C  3.07500 7.64100 30.77100
C  3.07600 7.43400 29.28200
C  4.15100 6.87000 31.50800
C  1.85700 9.63000 31.64400
C  1.42700 9.07100 32.99900
H  2.48800 8.43900 33.85100
N  2.78600 6.65200 26.28800
C  2.92900 5.78900 27.37400
C  2.92200 4.45900 26.77800
C  2.88200 4.51100 25.30700
C  2.81800 6.02400 25.06800
C  3.10700 3.17500 27.51700
C  2.84000 3.34800 24.27900
O  2.61700 3.55200 23.05200
C  3.14000 1.94100 24.66600
N  2.60100 9.01500 24.22900
C  2.79200 7.96800 23.42000
C  2.64500 8.40800 21.98100
C  2.84900 9.98700 22.06200
C  2.83100 10.19500 23.59100
C  3.48100 7.63700 20.90900
C  1.74800 10.87000 21.39100
C  0.33800 10.78100 21.81100
N  2.70200 10.79400 26.55300
C  2.81600 11.75600 25.60900
C  2.96600 13.08100 26.22300
C  2.96400 12.79700 27.62200
C  2.87500 11.40900 27.76500
C  3.16700 14.23400 25.45400
C  3.17500 13.43300 28.90100
O  3.36000 14.65100 29.12100
C  3.23500 12.28200 29.97700
C  4.54800 12.37100 30.55300
O  5.63700 12.51700 29.98500
O  4.44000 12.26200 31.91000
C  5.63600 12.16900 32.71700
H  2.94500 5.36500 29.44500
H  2.99100 5.99100 22.95200
H  3.01400 12.26400 23.59000
H  3.99700 9.48700 31.49500
H  2.08900 7.32200 31.10700
H  4.67400 6.40400 30.67200
H  3.51500 6.29500 32.18100
H  4.89900 7.46700 32.02800
H  1.04800 9.35900 30.96700
H  2.01500 10.70700 31.70000
H  0.64700 8.31500 32.90500
H  0.99900 9.89400 33.57200
H  4.03400 2.65200 27.28000
H  2.29600 2.47600 27.31400
H  3.29000 3.33300 28.58000
H  2.90200 1.30600 23.81300
H  2.38500 1.61900 25.38300
H  4.18000 1.81800 24.96900
H  1.58600 8.25600 21.77200
H  3.85700 10.23300 21.72900
H  4.34200 7.08200 21.28200
H  3.83100 8.32800 20.14200
H  2.87800 6.91800 20.35300
H  1.73800 10.61500 20.33100
H  2.01300 11.92700 21.42500
H  -0.34300 11.02100 20.99500
H  0.15400 11.53100 22.58100
H  0.01100 9.84900 22.27100
H  2.28700 14.68000 24.99100
H  3.90500 14.00100 24.68700
H  3.71300 14.97800 26.03500
H  2.39600 12.40800 30.66100
H  6.06400 13.17000 32.66100
H  6.32500 11.38700 32.39900
H  5.28500 11.98700 33.73300
Mg 25.39900 51.29300 26.22400
C  23.49600 52.57800 28.82800
C  27.78200 50.17700 28.53800
C  27.65400 50.83400 23.70500
C  23.22200 52.64500 23.95900
N  25.55300 51.36300 28.38800
C  24.63000 51.88600 29.27800
C  25.06000 51.63100 30.71600
C  26.49500 51.00900 30.56400
C  26.63100 50.86800 29.05200
C  27.73500 51.78400 31.18100
C  24.06100 50.77400 31.54600
C  23.72200 51.33700 32.90900
H  24.96800 51.45200 33.84100
N  27.38500 50.55900 26.15300
C  28.16600 50.07100 27.16400
C  29.19200 49.33400 26.67200
C  29.24700 49.60800 25.22000
C  28.03600 50.40600 24.97700
C  30.01300 48.38600 27.47500
C  30.16000 48.99900 24.18800
O  30.07100 49.20300 22.97200
C  31.14400 47.95000 24.58900
N  25.46500 51.80500 24.13500
C  26.48600 51.45000 23.31300
C  26.19700 51.86800 21.89200
C  24.71700 52.18500 21.95600
C  24.38200 52.17700 23.43700
C  26.98100 53.06500 21.23100
C  23.87400 51.33700 21.01300
C  23.13600 50.07500 21.63600
N  23.56900 52.31800 26.30000
C  22.83500 52.86800 25.35100
C  21.58700 53.53000 25.88300
C  21.77900 53.39100 27.26200
C  23.06300 52.74400 27.42400
C  20.49400 54.20800 25.14700
C  21.26100 53.68300 28.55200
O  20.29300 54.33000 28.92700
C  22.31200 53.22500 29.55400
C  22.67200 54.23700 30.48800
O  23.59500 55.04700 30.33200
O  21.75900 54.33300 31.46000
C  21.72000 55.64900 32.27000
H  28.57900 49.96400 29.25500
H  28.16300 50.46200 22.81300
H  22.52200 52.98900 23.19500
H  25.01400 52.58100 31.24800
H  26.58600 50.13500 31.20900
H  27.16100 52.61000 31.60100
H  28.43700 52.12400 30.42000
H  28.30600 51.12000 31.83000
H  24.48600 49.78100 31.69500
H  23.21400 50.49600 30.91900
H  22.90500 50.82200 33.41500
H  23.34200 52.34500 32.74000
H  31.05200 48.70900 27.53300
H  30.05300 47.34300 27.16400
H  29.74300 48.33000 28.53000
H  31.71000 48.25900 25.46800
H  31.82100 47.66300 23.78500
H  30.58900 47.05700 24.87700
H  26.38300 51.08100 21.16200
H  24.57200 53.24800 21.76200
H  27.79800 52.69000 20.61500
H  27.37800 53.69100 22.03000
H  26.45500 53.65700 20.48300
H  24.39300 51.04700 20.10000
H  23.08500 51.95500 20.58300
H  22.09100 50.31900 21.82700
H  23.64800 49.76500 22.54700
H  23.19600 49.20800 20.97700
H  20.45100 53.90900 24.09900
H  20.82500 55.24600 25.15600
H  19.46800 54.05000 25.47900
H  21.93900 52.40300 30.16600
H  21.98300 56.49300 31.63200
H  22.39200 55.50800 33.11600
H  20.72800 55.76200 32.70800

