158

Mg 44.66900 3.95500 46.45900
C  43.06400 7.15800 46.24300
C  41.81900 2.51400 45.72900
C  46.44700 1.23700 46.09100
C  47.77700 5.87500 46.13000
N  42.68800 4.80800 45.98200
C  42.19000 6.06100 45.95700
C  40.67600 6.16100 45.68100
C  40.32200 4.60400 45.65000
C  41.69400 3.87100 45.88100
C  39.28500 4.20100 46.70200
C  40.28400 6.91500 44.37300
C  41.33200 6.92600 43.32100
H  40.76400 6.94100 41.80800
N  44.18800 2.13500 45.87500
C  42.89400 1.67200 45.68700
C  42.96900 0.33300 45.46300
C  44.24500 -0.11800 45.66200
C  45.02100 1.05300 45.96300
C  41.81900 -0.59800 45.09300
C  44.78600 -1.56100 45.50100
O  44.04600 -2.43500 45.12600
C  46.22900 -1.95500 45.69000
N  46.87300 3.64400 46.05400
C  47.27200 2.36200 46.21300
C  48.82400 2.30700 46.25200
C  49.27000 3.72900 46.03800
C  47.93000 4.49300 46.06200
C  49.33400 1.62800 47.50600
C  50.19800 4.05600 44.83700
C  49.50200 4.16000 43.42400
N  45.35000 6.01400 46.40300
C  46.62100 6.63100 46.22200
C  46.53700 8.05600 46.14500
C  45.17700 8.25700 46.29900
C  44.47300 7.03700 46.32000
C  47.73300 8.91200 46.05000
C  44.13800 9.26000 46.55200
O  44.26600 10.45700 46.78200
C  42.75400 8.57800 46.45600
C  41.90600 8.83700 47.61600
O  41.97000 8.29800 48.70700
O  40.90800 9.77200 47.27500
C  39.85900 10.03300 48.25600
H  40.91200 1.92200 45.59800
H  47.01200 0.30900 46.20400
H  48.76800 6.33600 46.12300
H  40.03700 6.58000 46.45800
H  39.87300 4.31500 44.70000
H  38.66500 5.07500 46.90200
H  39.64700 3.98600 47.70700
H  38.66000 3.37200 46.37000
H  39.71700 7.82900 44.55500
H  39.51500 6.35500 43.84100
H  41.94800 6.02700 43.34600
H  41.96300 7.80500 43.45100
H  41.74000 -1.51500 45.67600
H  41.83600 -0.82400 44.02700
H  40.88600 -0.06200 45.26800
H  46.56200 -2.98600 45.57000
H  46.40600 -1.69700 46.73500
H  46.81300 -1.40200 44.95400
H  49.01200 1.69800 45.36800
H  49.83500 4.09200 46.89600
H  49.30700 0.54200 47.41800
H  48.51500 1.69400 48.22200
H  50.29300 1.93400 47.92300
H  50.93200 3.25000 44.84400
H  50.79600 4.89800 45.18600
H  48.45600 3.85400 43.39300
H  49.91900 3.59700 42.58900
H  49.43800 5.20700 43.12700
H  48.21000 8.58400 45.12600
H  48.38800 8.82200 46.91700
H  47.44800 9.95500 45.91500
H  42.12800 8.92000 45.63100
H  39.55800 11.07600 48.35200
H  39.97200 9.59900 49.25000
H  38.98300 9.45700 47.95700
Mg 17.18900 51.96700 25.96600
C  18.55100 50.73700 28.79900
C  14.36300 53.03400 27.85300
C  15.62500 53.10600 23.25300
C  19.63300 50.54400 23.97900
N  16.48000 51.81400 28.04700
C  17.29200 51.36200 29.06300
C  16.60400 51.55600 30.51300
C  15.29900 52.28500 30.10000
C  15.40400 52.43800 28.55900
C  13.97800 51.48200 30.57000
C  17.51300 52.44400 31.50300
C  17.76700 51.73300 32.80500
H  17.08100 52.41900 33.99000
N  15.24200 53.10200 25.67300
C  14.25300 53.43900 26.51500
C  13.21500 54.13700 25.82100
C  13.62000 54.22200 24.43300
C  14.85700 53.45200 24.43500
C  11.99900 54.66200 26.52500
C  12.99100 54.94000 23.28600
O  13.44100 54.92100 22.17100
C  11.83500 55.84800 23.48400
N  17.53100 51.72800 23.95200
C  16.77500 52.37500 23.00800
C  17.37500 52.30700 21.56400
C  18.82700 51.73400 21.82400
C  18.64800 51.29300 23.31600
C  16.57500 51.38900 20.54600
C  19.93700 52.70400 21.64400
C  19.77700 54.21600 21.97000
N  18.73300 50.78800 26.27600
C  19.68400 50.26600 25.40800
C  20.64000 49.48200 26.14900
C  20.30000 49.69300 27.46600
C  19.07700 50.42600 27.46800
C  21.76900 48.72900 25.63300
C  20.66100 49.38700 28.85700
O  21.61500 48.67300 29.28800
C  19.47000 50.01800 29.74400
C  18.81300 48.98700 30.59800
O  17.92300 48.18600 30.32600
O  19.45900 49.08600 31.80400
C  18.92000 48.33600 32.91500
H  13.59500 53.42000 28.52700
H  15.37900 53.72000 22.38400
H  20.50600 50.14300 23.46000
H  16.30300 50.58900 30.91500
H  15.25500 53.28000 30.54200
H  13.60800 50.83500 29.77400
H  13.29400 52.22200 30.98400
H  14.17400 50.87600 31.45400
H  17.02400 53.40200 31.68100
H  18.45800 52.60200 30.98300
H  18.84200 51.63300 32.95700
H  17.30600 50.74600 32.79900
H  11.94900 55.73400 26.71400
H  11.75700 54.22500 27.49400
H  11.22500 54.43200 25.79200
H  11.97500 56.48500 24.35700
H  10.95900 55.20200 23.54800
H  11.58100 56.39500 22.57600
H  17.41800 53.24100 21.00300
H  19.01900 50.94000 21.10200
H  17.00800 50.41400 20.31900
H  16.25000 51.84600 19.61100
H  15.63000 51.04400 20.96600
H  20.31100 52.70400 20.62000
H  20.78700 52.36800 22.23800
H  19.80500 54.79300 21.04600
H  20.65200 54.55100 22.52900
H  18.85400 54.46400 22.49400
H  22.30700 49.40000 24.96400
H  21.61500 47.88700 24.95800
H  22.43900 48.33300 26.39600
H  19.95200 50.78900 30.34600
H  19.80500 47.76400 33.19100
H  18.14600 47.57400 32.82400
H  18.72900 49.09700 33.67200

