158

Mg 35.45600 1.00300 29.17700
C  33.08000 2.18700 31.64800
C  37.91500 0.94600 31.71900
C  37.65100 -0.07100 26.91700
C  32.99800 1.56800 26.70100
N  35.42900 1.50200 31.40100
C  34.31900 1.94800 32.21400
C  34.68400 1.77900 33.72800
C  36.22800 1.51200 33.63100
C  36.55300 1.35400 32.17000
C  37.14900 2.62600 34.42300
C  33.86300 0.63500 34.40300
C  33.16700 0.87000 35.79300
H  33.66100 2.12800 36.62100
N  37.42400 0.47700 29.28900
C  38.27900 0.52300 30.41900
C  39.62100 0.11000 30.02500
C  39.57500 -0.24400 28.66500
C  38.15500 0.03600 28.24400
C  40.74000 -0.11900 31.03300
C  40.62000 -0.91300 27.75600
O  40.33100 -1.36700 26.60800
C  41.98600 -1.15200 28.33000
N  35.33300 0.92400 27.03900
C  36.34800 0.30700 26.34600
C  35.99300 0.10900 24.85600
C  34.51100 0.55300 24.83400
C  34.30100 1.10700 26.27300
C  37.00100 0.68900 23.90900
C  33.53700 -0.63600 24.49100
C  33.46100 -0.97900 23.00000
N  33.44700 1.80700 29.07200
C  32.62800 1.90200 28.03000
C  31.32800 2.39700 28.48800
C  31.45300 2.53100 29.90100
C  32.76200 2.14000 30.20600
C  30.07500 2.68700 27.66200
C  30.81100 2.89800 31.12300
O  29.68600 3.33000 31.39300
C  31.81900 2.65100 32.31300
C  31.93500 3.95000 33.00900
O  32.90600 4.60700 33.19100
O  30.79600 4.26300 33.74700
C  30.83800 5.48200 34.59100
H  38.71500 1.15800 32.43200
H  38.25400 -0.54900 26.14200
H  32.24900 1.62300 25.90800
H  34.49900 2.77000 34.14500
H  36.43400 0.56500 34.13000
H  36.58500 3.20000 35.15800
H  37.68600 3.28900 33.74500
H  37.94400 2.18200 35.02200
H  34.53300 -0.21300 34.54800
H  33.05600 0.38000 33.71600
H  33.16300 -0.03100 36.40700
H  32.10500 1.09500 35.70000
H  41.54000 0.58400 30.80100
H  41.09400 -1.14800 30.97200
H  40.45600 0.02100 32.07600
H  42.75200 -1.22100 27.55800
H  41.97800 -2.04000 28.96100
H  42.33700 -0.27100 28.86800
H  36.06600 -0.96300 24.67100
H  34.42100 1.36800 24.11600
H  37.53000 1.50700 24.40000
H  36.51500 1.26400 23.12100
H  37.57700 -0.12600 23.47400
H  32.51600 -0.33000 24.71900
H  33.68400 -1.53300 25.09200
H  34.35700 -0.65200 22.47200
H  32.53500 -0.64000 22.53600
H  33.52300 -2.06200 22.89400
H  29.63300 1.83800 27.14100
H  30.46400 3.45200 26.99100
H  29.32200 3.23900 28.22400
H  31.40700 1.89600 32.98200
H  29.92100 5.73200 35.12400
H  31.22300 6.31200 33.99800
H  31.55700 5.39500 35.40600
Mg -3.28200 35.01400 26.95300
C  -4.33600 32.86500 29.26500
C  -1.74000 36.85800 29.57600
C  -2.33700 37.45400 24.73800
C  -4.88400 33.38000 24.40600
N  -3.09600 34.85200 29.13600
C  -3.53800 33.82800 29.91200
C  -3.08300 33.93600 31.34100
C  -2.37500 35.29400 31.46500
C  -2.32200 35.66100 29.90400
C  -3.11900 36.33600 32.37700
C  -2.27500 32.64900 31.81400
C  -2.81700 31.88400 33.05800
H  -2.15900 31.92800 34.44100
N  -2.22700 36.87100 27.15000
C  -1.62800 37.43500 28.30200
C  -0.93900 38.69800 27.97700
C  -1.08800 38.88500 26.59200
C  -1.92900 37.72500 26.10000
C  -0.28900 39.61600 29.05000
C  -0.63400 40.03400 25.73000
O  -0.89000 40.07400 24.51700
C  0.15600 41.19700 26.34200
N  -3.78600 35.46900 24.92100
C  -3.16100 36.48500 24.20000
C  -3.70900 36.50800 22.75700
C  -4.29700 35.07300 22.58300
C  -4.33600 34.56600 24.05200
C  -4.66300 37.66900 22.57300
C  -3.59000 34.22000 21.54300
C  -2.24900 33.60200 21.83100
N  -4.51700 33.43100 26.85400
C  -5.05400 32.85600 25.73700
C  -5.68900 31.64700 26.19700
C  -5.56500 31.61200 27.56900
C  -4.81600 32.75100 27.97900
C  -6.26300 30.58700 25.28800
C  -5.80500 30.84100 28.82000
O  -6.30100 29.75200 29.11700
C  -5.04700 31.67100 29.89800
C  -5.99500 32.00900 30.95700
O  -6.70000 33.01800 30.86500
O  -5.94300 31.11700 32.03800
C  -7.00300 31.33000 33.00800
H  -1.05800 37.28000 30.31800
H  -1.98400 38.12400 23.95100
H  -5.39700 32.76700 23.66200
H  -3.97400 34.09800 31.94600
H  -1.32600 35.21800 31.75200
H  -3.84200 36.84200 31.73800
H  -2.40000 37.11800 32.62500
H  -3.63600 35.96800 33.26300
H  -1.28500 32.83000 32.23400
H  -2.17400 31.95000 30.98300
H  -3.08500 30.86000 32.80000
H  -3.82200 32.23000 33.30100
H  0.74800 39.79600 28.76300
H  -0.21000 39.15600 30.03500
H  -0.92300 40.50100 29.10600
H  0.41400 41.92000 25.56800
H  0.96700 40.62300 26.79200
H  -0.46900 41.66600 27.10100
H  -2.90300 36.65000 22.03700
H  -5.34900 35.13100 22.30500
H  -4.13900 38.36200 21.91600
H  -4.88300 38.29800 23.43500
H  -5.62200 37.43300 22.11300
H  -3.37900 34.73200 20.60400
H  -4.31300 33.45500 21.26100
H  -2.36000 32.54300 21.60200
H  -1.77700 33.79000 22.79600
H  -1.56500 33.87900 21.02900
H  -5.95500 30.65500 24.24400
H  -7.32800 30.81200 25.22800
H  -6.07900 29.54200 25.53700
H  -4.34900 30.98500 30.37800
H  -7.95300 31.17500 32.49600
H  -7.14600 32.36300 33.32600
H  -6.85600 30.72500 33.90200

