158

Mg 47.17000 24.69000 27.62900
C  47.92600 26.92200 30.19000
C  46.15400 22.53500 29.90400
C  46.55700 22.58100 25.06300
C  48.78900 26.82100 25.36600
N  47.25400 24.63300 29.93500
C  47.44300 25.72600 30.71000
C  46.93700 25.44900 32.14000
C  46.35100 23.99800 31.92900
C  46.58000 23.67000 30.53000
C  46.91900 22.91100 32.96800
C  46.10000 26.44700 32.83500
C  45.07100 25.95400 33.84600
H  44.79200 26.97700 34.91000
N  46.34600 22.81200 27.51100
C  46.10200 22.07300 28.56500
C  45.48600 20.82800 28.07800
C  45.54900 20.88600 26.70900
C  46.15800 22.09500 26.32500
C  44.85800 19.77100 29.01000
C  44.97900 19.91400 25.66600
O  44.95700 20.14000 24.42100
C  44.39900 18.61700 26.09500
N  47.70800 24.55700 25.57900
C  47.31600 23.61400 24.66000
C  47.72200 23.91800 23.16700
C  48.12900 25.39600 23.32500
C  48.28900 25.57400 24.85500
C  48.90000 23.08200 22.55200
C  47.04100 26.30600 22.72100
C  47.35100 27.79700 22.63700
N  48.16100 26.43500 27.70100
C  48.73000 27.20300 26.73700
C  49.10600 28.53700 27.30700
C  48.77300 28.46500 28.65500
C  48.25000 27.11500 28.84200
C  49.75600 29.73300 26.60400
C  48.76300 29.19400 29.86800
O  49.15900 30.33800 30.06100
C  48.15500 28.20900 30.95500
C  49.23800 28.16500 32.01200
O  50.38100 27.62800 31.95400
O  48.67200 28.59500 33.19700
C  49.51000 28.63300 34.37700
H  45.62100 21.87300 30.59000
H  46.33600 21.99200 24.17000
H  49.35300 27.47400 24.69700
H  47.85500 25.44500 32.72700
H  45.28900 23.99600 32.17700
H  46.17600 22.55700 33.68300
H  47.79300 23.36500 33.43500
H  47.17400 22.02700 32.38400
H  45.62500 26.94600 31.99000
H  46.80700 27.11800 33.32300
H  45.35400 25.00400 34.29900
H  44.12400 25.92800 33.30600
H  43.78600 19.86400 28.83600
H  45.20900 19.86200 30.03800
H  45.19500 18.77400 28.72700
H  43.56000 18.85900 26.74800
H  45.17500 18.07800 26.63800
H  44.11200 18.09800 25.18000
H  46.80400 23.80400 22.59100
H  49.10900 25.50600 22.86300
H  49.10000 22.16600 23.10800
H  49.86700 23.57600 22.64500
H  48.64900 22.95600 21.49900
H  46.28200 26.37800 23.50100
H  46.64700 25.95700 21.76600
H  47.28500 28.15100 23.66500
H  46.81600 28.37500 21.88300
H  48.43200 27.89100 22.53100
H  49.50900 29.74500 25.54200
H  50.82900 29.68800 26.78800
H  49.27800 30.61200 27.03500
H  47.25400 28.62300 31.40800
H  48.94200 28.07500 35.12100
H  49.69000 29.68700 34.59100
H  50.41400 28.02900 34.29000
Mg 0.30800 43.09200 26.53100
C  2.60700 43.09400 29.06300
C  -2.20400 42.51000 28.65200
C  -1.73400 42.33400 23.94600
C  3.02500 43.31500 24.22100
N  0.30300 42.75100 28.59800
C  1.30000 42.91800 29.53300
C  0.78100 42.89300 30.97100
C  -0.64500 42.36100 30.76600
C  -0.90800 42.47000 29.23300
C  -0.79400 40.89300 31.42700
C  0.75000 44.33100 31.61700
C  1.22100 44.26500 33.03800
H  0.87300 42.97100 33.77400
N  -1.70700 42.59400 26.30500
C  -2.61800 42.59300 27.33600
C  -3.93500 42.51000 26.75900
C  -3.80300 42.44100 25.37100
C  -2.34500 42.40000 25.14500
C  -5.20700 42.34500 27.53500
C  -4.81000 42.44200 24.22200
O  -4.52000 42.39500 23.01900
C  -6.23800 42.57300 24.51000
N  0.64300 42.56600 24.35300
C  -0.41100 42.31800 23.54900
C  0.04800 42.17900 22.13600
C  1.57500 42.65500 22.15500
C  1.77500 42.84400 23.65900
C  -0.07100 40.67200 21.62700
C  1.81800 44.06500 21.46800
C  1.26300 45.31100 22.20000
N  2.37400 43.32900 26.57600
C  3.38300 43.38100 25.57400
C  4.67200 43.54600 26.20900
C  4.39900 43.42900 27.62100
C  3.00600 43.34500 27.74600
C  5.96700 43.69200 25.53000
C  5.02000 43.36300 28.94900
O  6.19300 43.44000 29.26800
C  3.87700 43.26700 29.95300
C  4.10500 42.03300 30.81700
O  4.21700 40.90000 30.45600
O  4.05200 42.40000 32.16200
C  4.38700 41.36000 33.08400
H  -3.05700 42.26900 29.29000
H  -2.37100 41.91100 23.16600
H  3.90100 43.35800 23.57000
H  1.37400 42.14700 31.49900
H  -1.40200 43.03300 31.17100
H  -1.19800 40.19900 30.69000
H  -1.57900 41.05500 32.16500
H  0.10500 40.37100 31.75600
H  -0.27800 44.69000 31.66800
H  1.33500 45.03300 31.02200
H  0.77300 45.06300 33.63000
H  2.31000 44.30000 33.03700
H  -5.65200 41.36700 27.35500
H  -5.96400 43.06700 27.23000
H  -5.01200 42.35000 28.60800
H  -6.58900 42.06500 25.40900
H  -6.93400 42.25400 23.73400
H  -6.49400 43.62100 24.66400
H  -0.49700 42.70400 21.35200
H  2.26400 41.93600 21.71200
H  0.89500 40.24900 21.90300
H  -0.07500 40.83200 20.54900
H  -0.95600 40.17000 22.01800
H  1.32300 44.07100 20.49700
H  2.87200 44.31500 21.34800
H  0.95300 46.14400 21.56800
H  2.05300 45.56900 22.90500
H  0.49700 44.86900 22.83800
H  5.96300 43.55700 24.44800
H  6.69100 43.02600 25.99800
H  6.34300 44.70900 25.64600
H  3.82500 44.10800 30.64400
H  3.84000 40.41700 33.07200
H  4.27800 41.77600 34.08600
H  5.46400 41.30500 32.92400

