158

Mg 34.97400 49.15300 24.43100
C  35.17600 47.20900 27.33000
C  33.62700 51.65400 26.46500
C  34.68600 51.02700 21.67400
C  35.97500 46.33000 22.52800
N  34.27900 49.34000 26.65500
C  34.76800 48.51500 27.62300
C  34.42900 49.06500 29.06700
C  33.63300 50.38600 28.75700
C  33.79100 50.45300 27.17300
C  32.17200 50.59200 29.19400
C  35.66100 49.07100 30.01100
C  35.45700 48.42900 31.40500
H  34.00500 48.60500 32.02400
N  34.23200 51.07200 24.13300
C  33.80900 51.98500 25.07900
C  33.44000 53.20700 24.42700
C  33.75400 53.02700 23.03900
C  34.22800 51.65800 22.89200
C  32.99100 54.41400 25.32400
C  33.64800 54.10300 21.89900
O  33.98200 53.87600 20.73300
C  33.02900 55.50300 22.26900
N  35.27900 48.78600 22.41100
C  35.20500 49.75800 21.49500
C  35.60800 49.24800 20.06400
C  36.20700 47.81600 20.41800
C  35.83000 47.62700 21.83700
C  34.46500 49.34100 19.02300
C  37.75600 47.62600 20.37000
C  38.23600 46.18100 20.05900
N  35.33500 47.18500 24.74500
C  35.75200 46.19500 23.89000
C  35.87700 45.02300 24.62400
C  35.73000 45.35500 25.96300
C  35.34600 46.68200 26.00200
C  36.25900 43.73200 24.06700
C  35.74300 44.86000 27.34200
O  36.08000 43.82100 27.88900
C  35.35700 46.05900 28.25600
C  34.15500 45.73300 29.08000
O  33.04500 46.00100 28.69400
O  34.41300 44.95800 30.19100
C  33.33600 44.50600 31.05800
H  33.22300 52.43700 27.11000
H  34.54600 51.57300 20.73800
H  36.43100 45.54000 21.92700
H  33.70600 48.38200 29.51200
H  34.11700 51.18100 29.32500
H  31.95500 49.75700 29.86000
H  31.41000 50.64000 28.41700
H  32.01600 51.37000 29.94200
H  35.92500 50.12900 30.02000
H  36.47800 48.53600 29.52600
H  36.13000 48.73700 32.20500
H  35.68200 47.39100 31.16200
H  33.68200 55.22200 25.08200
H  32.93000 54.33800 26.41000
H  32.01300 54.81000 25.05000
H  33.13800 56.14000 21.39200
H  33.75700 55.86100 22.99700
H  31.98900 55.43100 22.58400
H  36.47700 49.81700 19.73400
H  35.67700 47.12400 19.76300
H  33.58900 49.73500 19.53900
H  34.09100 48.34900 18.77000
H  34.60400 50.00100 18.16700
H  38.00300 47.89400 21.39700
H  38.32100 48.23900 19.66700
H  38.83400 45.72100 20.84600
H  38.85600 46.21400 19.16400
H  37.44300 45.49000 19.77200
H  35.91700 43.00500 24.80400
H  37.30200 43.59700 23.78200
H  35.71200 43.56700 23.13900
H  36.26100 46.15100 28.85900
H  32.46700 45.16200 31.11700
H  33.69600 44.46000 32.08600
H  32.84000 43.58400 30.75300
Mg -0.65100 44.15800 25.81600
C  1.42200 43.89400 28.65400
C  -3.20500 42.81400 27.90700
C  -2.60600 44.06700 23.16300
C  2.11400 45.16700 23.95000
N  -0.92700 43.66300 28.13300
C  0.04000 43.66800 29.01500
C  -0.39600 43.19500 30.41300
C  -1.83800 42.62000 30.05700
C  -2.01000 43.02200 28.62800
C  -2.07700 41.04100 30.28900
C  -0.40500 44.42000 31.39700
C  -0.07500 44.20100 32.89700
H  -0.22800 42.77200 33.52500
N  -2.63900 43.64100 25.60200
C  -3.48500 43.11000 26.52400
C  -4.73200 42.73500 25.83600
C  -4.59400 42.94800 24.47300
C  -3.22900 43.50700 24.34800
C  -5.96800 42.20600 26.48000
C  -5.54200 42.65800 23.30300
O  -5.19000 42.80400 22.11400
C  -6.86600 42.02000 23.42300
N  -0.30400 44.54400 23.87400
C  -1.31200 44.63600 22.95600
C  -0.79600 45.13700 21.66900
C  0.60800 45.72200 21.98500
C  0.86200 45.13300 23.36300
C  -0.68400 44.09400 20.52900
C  0.50100 47.28800 21.95000
C  1.12200 47.89400 20.76200
N  1.43000 44.45900 26.15500
C  2.41800 44.77700 25.27000
C  3.69900 44.77000 25.97100
C  3.33600 44.38300 27.30600
C  1.94600 44.24100 27.37200
C  5.07600 45.06600 25.44400
C  3.90400 44.16600 28.60000
O  5.08500 44.24200 28.97100
C  2.71100 43.89300 29.53300
C  2.85600 42.57300 30.16500
O  2.83700 41.53400 29.53100
O  3.23900 42.68600 31.46600
C  3.76700 41.46100 32.07700
H  -3.95500 42.26900 28.48500
H  -3.22800 44.31200 22.30000
H  3.00000 45.53300 23.42600
H  0.26100 42.37800 30.71000
H  -2.57600 43.05900 30.72900
H  -2.80000 40.87600 31.08800
H  -1.13000 40.67900 30.69000
H  -2.28100 40.36400 29.45900
H  -1.46000 44.68900 31.43700
H  0.05100 45.30600 30.95400
H  -0.72400 44.90300 33.42000
H  0.94800 44.56400 33.00200
H  -6.72200 42.98800 26.39000
H  -5.73000 41.95400 27.51300
H  -6.44100 41.36100 25.97900
H  -6.85600 41.06000 23.94000
H  -7.03300 41.72000 22.38900
H  -7.68900 42.67400 23.71300
H  -1.43000 45.94200 21.29900
H  1.51300 45.37700 21.48400
H  -0.67800 43.11900 21.01600
H  0.23500 44.26500 19.97000
H  -1.41800 44.17200 19.72700
H  1.10200 47.51600 22.83000
H  -0.46600 47.75600 22.12900
H  2.03200 48.41900 21.05200
H  0.39500 48.51000 20.23100
H  1.39500 47.05800 20.11800
H  5.85300 44.54100 26.00100
H  5.28300 46.13600 25.40600
H  5.11200 44.62900 24.44700
H  2.66800 44.58000 30.37700
H  4.85100 41.49600 31.96600
H  3.41700 40.52100 31.65100
H  3.48400 41.46500 33.12900

