158

Mg 49.01100 44.60200 43.15700
C  45.67100 45.41300 42.06900
C  48.60400 41.62200 41.35900
C  52.34400 44.27200 43.10300
C  49.26500 47.82100 44.37400
N  47.43200 43.75000 41.75300
C  46.13300 44.27200 41.50900
C  45.31500 43.31000 40.66400
C  46.05300 42.03100 40.78900
C  47.49000 42.45100 41.27500
C  45.33900 41.00400 41.70700
C  45.25000 43.87800 39.20700
C  43.98200 43.67300 38.41400
H  44.03900 42.79000 37.15700
N  50.30500 43.14100 42.41900
C  49.91600 41.96000 41.80000
C  51.12100 41.23600 41.47200
C  52.21500 41.89700 42.10300
C  51.61600 43.17800 42.53800
C  51.04800 39.88700 40.67400
C  53.60300 41.42900 42.15500
O  53.89200 40.35600 41.64000
C  54.64800 42.12400 42.87800
N  50.57900 45.90700 43.58600
C  51.90000 45.45900 43.54300
C  52.89700 46.52300 44.09600
C  51.87400 47.59200 44.69600
C  50.45100 47.10500 44.21400
C  53.99600 46.12000 45.09100
C  52.24800 49.16700 44.48300
C  52.61500 50.02500 45.65300
N  47.67900 46.22900 43.43000
C  47.95000 47.46800 43.95800
C  46.66500 48.23000 44.02100
C  45.82400 47.46000 43.29900
C  46.46000 46.24500 42.90300
C  46.43500 49.57800 44.66300
C  44.50100 47.45100 42.72500
O  43.58700 48.28700 42.62400
C  44.39300 46.08200 41.90200
C  43.15500 45.28600 42.34900
O  42.24100 44.87900 41.63400
O  43.18200 45.08900 43.68300
C  42.04100 44.45100 44.33900
H  48.43600 40.60900 40.98600
H  53.43200 44.31600 43.02100
H  49.35300 48.78600 44.87700
H  44.31300 43.24700 41.09000
H  46.22000 41.56600 39.81700
H  44.51800 41.49900 42.22600
H  45.96400 40.55700 42.47900
H  44.91200 40.16000 41.16400
H  46.01800 43.38500 38.61100
H  45.46600 44.94600 39.17500
H  43.58900 44.62500 38.05500
H  43.23400 43.22900 39.07100
H  51.82000 39.84300 39.90500
H  50.04900 39.66900 40.29600
H  51.14900 39.07700 41.39500
H  54.88300 42.94300 42.20000
H  55.42300 41.43200 43.20900
H  54.30800 42.64800 43.77100
H  53.29100 47.05400 43.22900
H  51.73900 47.41800 45.76300
H  53.97100 46.74300 45.98500
H  54.93800 46.27300 44.56600
H  53.95400 45.05700 45.32900
H  51.33200 49.69200 44.21300
H  52.93000 49.32300 43.64700
H  51.92900 50.84400 45.86700
H  53.61900 50.38100 45.42000
H  52.62000 49.42600 46.56400
H  47.32600 50.17000 44.87500
H  46.11700 49.48400 45.70100
H  45.67500 50.15000 44.13100
H  44.18900 46.23500 40.84200
H  41.73100 44.98400 45.23800
H  42.19000 43.40400 44.60400
H  41.14100 44.56700 43.73500
Mg -6.33400 25.75600 25.70800
C  -4.74700 27.36500 28.54300
C  -7.75800 23.56300 27.89700
C  -7.27600 24.11100 23.11900
C  -4.26100 27.91100 23.71300
N  -6.13700 25.45500 27.85700
C  -5.50600 26.28600 28.85400
C  -5.95700 25.82700 30.25400
C  -6.61000 24.38700 30.05700
C  -6.89300 24.48800 28.50400
C  -5.64200 23.18300 30.43200
C  -7.04100 26.81400 30.84600
C  -7.04000 27.11000 32.38000
H  -6.81800 25.82400 33.22100
N  -7.37800 23.99500 25.57900
C  -7.89100 23.23200 26.59100
C  -8.78100 22.33400 26.06800
C  -8.71300 22.47000 24.59600
C  -7.78500 23.58500 24.35200
C  -9.50000 21.36600 27.02000
C  -9.43900 21.55200 23.58400
O  -9.17000 21.75600 22.43500
C  -10.35100 20.47500 23.95400
N  -5.78600 25.99200 23.72800
C  -6.41000 25.10300 22.83500
C  -6.12100 25.53500 21.40400
C  -5.28700 26.85900 21.58700
C  -5.09400 26.97300 23.12000
C  -5.30600 24.29800 20.72100
C  -6.08700 28.13900 21.16600
C  -5.61100 28.87200 19.90400
N  -4.87900 27.44700 25.97900
C  -4.15700 28.18500 25.10100
C  -3.32300 29.14400 25.77700
C  -3.48800 28.84000 27.17400
C  -4.43900 27.78400 27.20000
C  -2.41300 30.23100 25.20100
C  -3.05100 29.14200 28.59900
O  -2.23100 29.88500 29.04600
C  -3.99100 28.25100 29.46400
C  -3.11400 27.44100 30.33700
O  -2.18700 26.69900 30.00300
O  -3.49200 27.59400 31.62000
C  -2.66200 26.91900 32.63300
H  -8.20500 23.01400 28.72900
H  -7.60700 23.52200 22.26100
H  -3.61400 28.50400 23.06300
H  -5.13300 25.71900 30.95900
H  -7.55500 24.27700 30.59000
H  -4.69200 23.57100 30.80100
H  -5.45200 22.65100 29.50000
H  -6.10900 22.45400 31.09500
H  -8.02600 26.36100 30.74000
H  -6.93900 27.78800 30.36600
H  -7.94600 27.67400 32.59900
H  -6.28100 27.88900 32.45000
H  -10.28700 21.92800 27.52200
H  -8.82600 21.04700 27.81600
H  -9.82900 20.40600 26.62300
H  -11.27300 20.79400 24.44100
H  -9.89300 19.57200 24.35800
H  -10.77900 20.21100 22.98700
H  -7.02500 25.73000 20.82500
H  -4.30500 26.77300 21.12200
H  -5.78200 24.26400 19.74100
H  -5.49200 23.36400 21.25100
H  -4.23000 24.38100 20.56700
H  -5.99900 28.95500 21.88400
H  -7.15100 27.99300 20.97700
H  -6.42000 29.49400 19.52100
H  -5.45100 28.17800 19.07900
H  -4.73000 29.49400 20.06800
H  -2.80800 30.58500 24.24900
H  -1.47300 29.74400 24.94400
H  -2.33800 31.03300 25.93600
H  -4.66800 28.85100 30.07000
H  -3.02500 27.09200 33.64600
H  -1.60600 27.18600 32.57600
H  -2.72300 25.86200 32.37400

