158

Mg 25.42400 1.05400 29.32800
C  27.46500 1.00600 32.17000
C  22.68700 1.91700 31.30800
C  23.40100 1.31200 26.57200
C  28.06700 0.12600 27.31100
N  25.10700 1.32400 31.50500
C  26.12200 1.35300 32.48100
C  25.60000 1.67700 33.90200
C  24.03900 1.84700 33.61200
C  23.87100 1.64000 32.06600
C  23.11900 0.83200 34.39400
C  26.16800 2.93600 34.67300
C  26.76600 2.74300 36.08000
H  26.61200 3.84000 37.11200
N  23.32000 1.48000 28.94100
C  22.39000 1.84200 29.88500
C  21.10800 2.17600 29.33000
C  21.36000 1.99600 27.88600
C  22.74400 1.57600 27.72400
C  19.79700 2.43600 30.12600
C  20.24500 2.08000 26.70800
O  20.59700 1.88900 25.59700
C  18.91100 2.50500 26.96900
N  25.62500 0.62600 27.24200
C  24.68800 0.85500 26.31400
C  25.31100 0.87200 24.85000
C  26.75900 0.42700 25.11400
C  26.83700 0.38600 26.65000
C  24.45200 0.08600 23.87400
C  27.85200 1.40900 24.57600
C  29.00800 0.73300 23.86700
N  27.41300 0.61900 29.62000
C  28.39100 0.26100 28.70800
C  29.66600 0.05000 29.43500
C  29.34600 0.37300 30.79500
C  27.96100 0.67400 30.89500
C  30.90400 -0.45500 28.95300
C  29.86800 0.39600 32.15300
O  30.97200 0.16200 32.60400
C  28.63500 0.87200 33.07400
C  28.50300 -0.17600 34.15100
O  28.36600 -1.35400 33.88900
O  28.71500 0.34500 35.45200
C  29.02300 -0.65100 36.55300
H  21.89500 2.17000 32.01500
H  22.80800 1.43700 25.66300
H  28.81900 -0.34700 26.67500
H  25.80000 0.83000 34.55800
H  23.65300 2.85800 33.74200
H  22.62200 0.13000 33.72400
H  22.44300 1.36700 35.06100
H  23.65300 0.20600 35.10900
H  25.39100 3.69900 34.72900
H  26.98400 3.41200 34.12900
H  27.83400 2.74800 35.86400
H  26.67200 1.76600 36.55400
H  19.94500 2.52900 31.20200
H  19.06600 1.67200 29.86000
H  19.26000 3.34400 29.85100
H  18.35100 2.73800 26.06300
H  18.82200 3.47800 27.45200
H  18.33100 1.79200 27.55500
H  25.35600 1.94300 24.65200
H  26.98200 -0.60100 24.82900
H  23.61100 -0.44600 24.31800
H  25.23600 -0.55800 23.47800
H  24.09800 0.78600 23.11700
H  28.32000 1.96500 25.38800
H  27.24800 2.09700 23.98600
H  29.99700 1.16500 24.02100
H  28.73900 0.78300 22.81200
H  29.15800 -0.30900 24.14700
H  30.86400 -1.53500 28.80700
H  31.59900 -0.09100 29.71000
H  31.02700 0.03400 27.98700
H  28.72400 1.68400 33.79500
H  28.23300 -0.58200 37.30100
H  29.97600 -0.42100 37.03000
H  29.07500 -1.64000 36.09700
Mg 47.06600 24.45400 27.58200
C  47.91100 26.94500 29.98000
C  45.98200 22.47100 30.05200
C  45.97000 22.34700 25.16200
C  48.39900 26.56400 25.19200
N  46.83800 24.75000 29.77500
C  47.29300 25.82000 30.51100
C  47.15600 25.45200 31.97200
C  46.58700 23.99800 31.99200
C  46.58400 23.65400 30.49400
C  47.40400 23.02100 32.86000
C  46.21700 26.50400 32.71000
C  45.72600 26.30800 34.10000
H  46.14800 27.39900 35.20200
N  46.11200 22.64400 27.60800
C  45.80100 21.98300 28.75000
C  45.25300 20.68600 28.39100
C  45.13700 20.64100 27.00300
C  45.78900 21.92300 26.49400
C  44.87400 19.73800 29.49000
C  44.54300 19.61900 26.14700
O  44.54100 19.68000 24.91300
C  43.96600 18.46300 26.79300
N  47.29800 24.30600 25.47400
C  46.69200 23.40400 24.66300
C  47.01600 23.73200 23.17600
C  47.51200 25.20300 23.13700
C  47.78500 25.34200 24.71300
C  47.91100 22.61700 22.66100
C  46.47300 26.26100 22.77600
C  46.04000 26.31600 21.33400
N  48.03200 26.32300 27.53000
C  48.53900 27.00900 26.44900
C  48.96600 28.34900 26.85100
C  48.82400 28.36500 28.28500
C  48.15900 27.11600 28.65500
C  49.55300 29.30100 25.98400
C  48.95500 29.17000 29.48400
O  49.33300 30.34100 29.58800
C  48.43900 28.26400 30.63800
C  49.61500 28.03100 31.59900
O  50.67700 27.48000 31.33400
O  49.34800 28.60900 32.79700
C  50.12300 28.01000 33.89100
H  45.56000 21.86500 30.85700
H  45.41300 21.75300 24.43400
H  48.61400 27.26800 24.38500
H  48.16000 25.49900 32.39400
H  45.53000 24.07700 32.24500
H  47.50200 22.03100 32.41500
H  46.90500 22.91800 33.82400
H  48.39400 23.42600 33.06900
H  45.32200 26.53100 32.08900
H  46.52400 27.55000 32.74500
H  46.11400 25.37600 34.50900
H  44.63700 26.35200 34.07100
H  44.99500 18.72000 29.12000
H  43.92700 19.99700 29.96500
H  45.50200 19.93700 30.35800
H  43.19500 18.83600 27.46800
H  44.76200 17.90500 27.28600
H  43.47800 17.80900 26.07000
H  46.09600 23.60400 22.60600
H  48.37600 25.26700 22.47500
H  48.66700 23.02000 21.98600
H  47.34400 21.85800 22.12200
H  48.55400 22.16100 23.41400
H  47.03600 27.17900 22.94200
H  45.58200 26.20800 23.40100
H  44.96200 26.18300 21.24900
H  46.55000 25.56100 20.73600
H  46.04000 27.33700 20.95200
H  49.15900 29.36200 24.97000
H  50.59300 28.99800 25.86300
H  49.42200 30.26200 26.48300
H  47.67700 28.81100 31.19400
H  50.95900 28.70800 33.94400
H  50.28300 26.96900 33.61300
H  49.53700 27.99900 34.81000

