158

Mg 3.79400 -0.55300 43.41700
C  7.20300 0.04100 43.10400
C  3.12400 2.22800 41.59300
C  0.50600 -1.59200 43.07000
C  4.52600 -3.73700 44.67500
N  5.06500 0.87600 42.52200
C  6.45900 1.02000 42.48000
C  6.95600 2.24500 41.77400
C  5.56600 3.07300 41.76800
C  4.47200 2.01900 41.96800
C  5.39400 4.20200 42.82800
C  7.61000 1.99300 40.39700
C  7.27500 0.71200 39.60000
H  6.25200 0.78900 38.47000
N  2.03900 0.29000 42.46800
C  1.96600 1.49000 41.88900
C  0.63000 1.79900 41.56300
C  -0.23400 0.73800 42.02900
C  0.76600 -0.29700 42.55600
C  0.18300 3.08100 40.99900
C  -1.75700 0.65800 42.02200
O  -2.44100 1.56400 41.55900
C  -2.57700 -0.44900 42.49600
N  2.65900 -2.37500 43.82600
C  1.34900 -2.53000 43.58200
C  0.88100 -4.00300 43.95900
C  2.25500 -4.72200 44.29300
C  3.23600 -3.53300 44.25500
C  -0.11900 -4.10600 45.21000
C  2.67900 -5.91300 43.28700
C  2.89300 -7.19300 44.05200
N  5.42700 -1.60300 44.06100
C  5.58200 -2.84200 44.60200
C  6.99400 -3.13300 45.03700
C  7.66900 -2.04100 44.45400
C  6.69200 -1.11400 43.87300
C  7.51400 -4.31900 45.75200
C  9.02000 -1.46600 44.12200
O  10.16400 -1.80000 44.37400
C  8.75100 -0.11400 43.28000
C  9.37800 1.07000 43.92700
O  9.86000 2.02400 43.29700
O  9.21900 1.12000 45.28600
C  9.55900 2.32100 45.98800
H  3.03900 3.16200 41.03300
H  -0.51400 -1.92200 43.27600
H  4.66400 -4.71100 45.15000
H  7.70900 2.70700 42.41200
H  5.54200 3.62300 40.82700
H  5.20400 5.19400 42.41700
H  6.36500 4.36200 43.29900
H  4.57300 4.08100 43.53400
H  8.69700 1.92200 40.43500
H  7.48200 2.83100 39.71100
H  6.73700 0.05900 40.28800
H  8.22500 0.23000 39.36900
H  1.00100 3.46900 40.39100
H  0.08300 3.84400 41.77100
H  -0.66500 3.08300 40.31500
H  -2.47800 -0.73000 43.54500
H  -2.19400 -1.27200 41.89300
H  -3.63900 -0.30000 42.30300
H  0.49000 -4.48800 43.06500
H  2.28300 -5.09200 45.31800
H  0.14500 -5.03900 45.70900
H  -1.17800 -4.12200 44.95500
H  0.02500 -3.27700 45.90200
H  3.49700 -5.62700 42.62500
H  1.84500 -6.06800 42.60200
H  3.31400 -7.95900 43.40100
H  1.99400 -7.47600 44.60100
H  3.68300 -7.05500 44.79100
H  8.57600 -4.35700 45.99100
H  7.23700 -5.14900 45.10200
H  6.90600 -4.46100 46.64500
H  9.27400 -0.06200 42.32500
H  9.24100 2.10500 47.00800
H  8.88500 3.11300 45.66200
H  10.61700 2.55000 45.85700
Mg 0.00200 43.94800 25.80700
C  2.42000 43.51700 28.21100
C  -2.37600 42.95100 28.06400
C  -2.12800 43.94000 23.18700
C  2.59400 44.60700 23.53900
N  0.06000 43.26200 27.91700
C  1.10900 43.31400 28.69600
C  0.69800 43.24200 30.10300
C  -0.78400 42.85100 30.05400
C  -1.09000 43.00000 28.59000
C  -1.02300 41.43800 30.59300
C  1.05200 44.49200 30.98200
C  1.28000 44.32100 32.47800
H  0.98300 42.90300 33.05500
N  -2.01700 43.52600 25.60800
C  -2.83700 43.11000 26.65500
C  -4.05800 42.77900 26.12200
C  -4.04900 43.04500 24.71900
C  -2.69500 43.53500 24.40700
C  -5.16300 42.21500 27.01500
C  -5.14500 42.78200 23.67100
O  -5.04000 43.09700 22.50500
C  -6.38600 42.07300 24.06600
N  0.21100 44.38200 23.66400
C  -0.85000 44.29200 22.81800
C  -0.41800 44.59700 21.37200
C  1.13800 44.76100 21.47200
C  1.35000 44.68400 23.02100
C  -0.88800 43.57800 20.27700
C  1.64300 46.06600 20.80300
C  1.31600 47.36900 21.50800
N  2.04500 43.98000 25.80100
C  2.96100 44.26900 24.81400
C  4.36600 44.07300 25.31100
C  4.20200 43.73900 26.68200
C  2.78900 43.78500 26.91300
C  5.66000 44.32300 24.54700
C  4.84700 43.30400 27.87700
O  6.03500 42.99200 28.05100
C  3.72400 43.30800 28.98700
C  3.68700 42.03100 29.77800
O  3.61400 40.85400 29.36600
O  4.26200 42.34100 30.98500
C  4.57800 41.15700 31.83600
H  -3.15900 42.69000 28.77900
H  -2.86600 43.89200 22.38400
H  3.49700 44.87400 22.98600
H  1.35300 42.48400 30.53400
H  -1.41400 43.54100 30.61500
H  -0.14500 40.81900 30.77800
H  -1.65600 40.84400 29.93300
H  -1.55100 41.62800 31.52700
H  0.30000 45.26800 30.84300
H  1.98600 44.96500 30.67800
H  0.57200 45.03500 32.90000
H  2.32100 44.54700 32.70900
H  -5.53600 41.29000 26.57600
H  -5.97800 42.93800 27.03200
H  -4.83200 41.97000 28.02400
H  -6.21700 41.02900 24.33300
H  -6.99800 41.89500 23.18300
H  -6.86700 42.62300 24.87500
H  -0.91800 45.53600 21.13800
H  1.66900 43.89000 21.08700
H  -1.28600 44.12700 19.42400
H  -1.53100 42.76900 20.62500
H  -0.02100 43.03700 19.89700
H  1.19000 46.07600 19.81200
H  2.69700 46.10900 20.53000
H  1.19800 47.21200 22.58100
H  0.33900 47.60100 21.08500
H  1.90000 48.25500 21.25900
H  5.54400 45.36800 24.26200
H  6.00000 43.61300 23.79300
H  6.41400 44.25500 25.33100
H  3.83300 44.21000 29.59000
H  3.84500 40.36700 31.67000
H  4.29600 41.25100 32.88500
H  5.59800 40.80600 31.68100

