158

Mg 9.06500 2.16200 27.59000
C  10.44500 0.96600 30.63700
C  6.90400 4.13500 29.58000
C  7.50000 2.96500 24.82300
C  10.70600 -0.46500 25.94900
N  8.82600 2.62400 29.91400
C  9.50600 2.02400 30.91200
C  9.13500 2.72600 32.26900
C  8.00900 3.77800 31.92100
C  7.91100 3.53800 30.38100
C  6.74500 3.72200 32.77200
C  10.46700 3.37500 32.81000
C  10.28500 4.46700 33.91600
H  10.96300 4.22600 35.25300
N  7.49300 3.36100 27.26700
C  6.69200 4.06400 28.18100
C  5.79000 4.95200 27.42200
C  6.08300 4.71400 26.04500
C  7.11900 3.67000 26.01600
C  4.76200 5.86900 28.15700
C  5.55100 5.47700 24.86700
O  5.99500 5.47400 23.74500
C  4.38300 6.41900 25.12100
N  9.12600 1.35300 25.66100
C  8.41600 1.91300 24.64700
C  8.84600 1.35800 23.23000
C  9.78500 0.25000 23.62800
C  9.93800 0.37700 25.16400
C  7.70700 1.10000 22.11600
C  11.08100 0.19400 22.96100
C  11.11500 -0.71000 21.67500
N  10.26100 0.54600 28.18800
C  10.91400 -0.34200 27.38800
C  11.86900 -1.13000 28.21600
C  11.64800 -0.71900 29.50900
C  10.73600 0.39300 29.42000
C  12.86700 -2.18600 27.85100
C  12.08400 -0.86200 30.92100
O  12.92600 -1.52800 31.42000
C  11.30800 0.25300 31.69400
C  10.51400 -0.42200 32.70800
O  9.52600 -1.00800 32.47800
O  11.17300 -0.24000 33.93800
C  10.31900 -0.42600 35.10900
H  6.01000 4.49700 30.09200
H  7.04200 3.26400 23.87700
H  11.30200 -1.23300 25.45200
H  8.93800 2.01300 33.07000
H  8.45500 4.77000 31.99100
H  5.85800 3.42300 32.21300
H  6.61500 4.65400 33.32200
H  6.75200 2.96100 33.55300
H  10.99100 3.82900 31.96900
H  11.04300 2.57700 33.27800
H  9.22600 4.61000 34.13200
H  10.70800 5.37900 33.49600
H  4.92600 6.89000 27.81300
H  4.89800 5.97100 29.23400
H  3.69300 5.68600 28.04800
H  4.67800 7.24500 25.76800
H  3.59700 5.83700 25.60100
H  4.14000 6.90400 24.17600
H  9.55100 2.16700 23.03900
H  9.04300 -0.51600 23.40400
H  7.62100 2.02700 21.54900
H  6.72500 0.82600 22.50200
H  7.98300 0.36300 21.36100
H  11.90200 -0.18100 23.57200
H  11.37600 1.18300 22.60800
H  11.17700 -0.11600 20.76400
H  10.29100 -1.40900 21.53200
H  11.98700 -1.34200 21.84700
H  13.61100 -2.32700 28.63500
H  13.40600 -1.82700 26.97400
H  12.35700 -3.11300 27.59000
H  12.02500 1.01200 32.00600
H  10.02000 -1.47200 35.05600
H  9.47400 0.26200 35.13600
H  10.88000 -0.26400 36.03000
Mg -10.97100 16.53200 41.66700
C  -7.58000 16.60800 41.33900
C  -11.10600 19.84800 40.62800
C  -14.18900 16.27800 41.71100
C  -10.67400 12.96600 42.31500
N  -9.48500 17.99800 40.85300
C  -8.12800 17.83400 40.91000
C  -7.30300 19.08200 40.41100
C  -8.55300 20.10900 40.42400
C  -9.81100 19.32900 40.70000
C  -8.35200 21.41300 41.21900
C  -6.60000 18.83600 39.00800
C  -5.10000 19.07500 38.90200
H  -4.41600 18.18400 37.93000
N  -12.46400 17.85100 41.21800
C  -12.35700 19.19100 40.82300
C  -13.68300 19.78600 40.71800
C  -14.63400 18.73700 40.88300
C  -13.78100 17.53700 41.31000
C  -13.99100 21.23500 40.27300
C  -16.25100 18.86600 40.70900
O  -16.78300 19.94500 40.47000
C  -17.03800 17.68200 40.80500
N  -12.28700 14.81500 42.02200
C  -13.58500 15.01600 42.03300
C  -14.39500 13.75100 42.38200
C  -13.30300 12.67200 42.47400
C  -12.00900 13.48600 42.24400
C  -15.32100 13.82800 43.56900
C  -13.47400 11.40400 41.60900
C  -13.95400 10.17200 42.37800
N  -9.51100 15.05900 41.82100
C  -9.52600 13.72600 42.08600
C  -8.18300 13.20800 42.19500
C  -7.36800 14.38200 42.00100
C  -8.22800 15.37400 41.62500
C  -7.76600 11.79000 42.50400
C  -6.02600 14.84000 41.90600
O  -4.98700 14.23000 42.07800
C  -6.05200 16.30300 41.50100
C  -5.41700 17.18100 42.53000
O  -5.99100 17.63000 43.50500
O  -4.06500 17.33200 42.29500
C  -3.37100 18.09800 43.36000
H  -11.16400 20.91100 40.38200
H  -15.27200 16.15300 41.75600
H  -10.55800 11.93400 42.65100
H  -6.67600 19.36900 41.25500
H  -8.62800 20.49500 39.40700
H  -7.45500 21.30300 41.82700
H  -9.22300 21.54000 41.86200
H  -8.20000 22.33200 40.65400
H  -7.13300 19.36500 38.21800
H  -6.72500 17.81200 38.65600
H  -4.54100 18.93900 39.82800
H  -4.90400 20.11800 38.64900
H  -14.70700 21.26000 39.45300
H  -13.11000 21.78800 39.94700
H  -14.42300 21.76400 41.12200
H  -17.95400 17.86700 40.24400
H  -17.02700 17.44200 41.86800
H  -16.58300 16.91600 40.17700
H  -14.90200 13.49900 41.45100
H  -13.23500 12.38800 43.52400
H  -15.09000 13.01500 44.25700
H  -16.37700 13.84200 43.29900
H  -15.06300 14.77400 44.04600
H  -12.52600 11.11900 41.15300
H  -14.21000 11.57200 40.82300
H  -14.63000 10.22300 43.23200
H  -13.08700 9.59100 42.69100
H  -14.23100 9.37000 41.69300
H  -8.60800 11.17100 42.81300
H  -6.97600 11.84800 43.25300
H  -7.39500 11.25900 41.62800
H  -5.48600 16.38800 40.57200
H  -2.29900 18.08100 43.16800
H  -3.35600 17.67400 44.36400
H  -3.73000 19.12600 43.39200

