158

Mg 36.74900 49.28100 25.95400
C  36.76600 47.43500 28.79700
C  35.32400 51.91700 27.74100
C  36.41700 51.00400 22.98900
C  38.23600 46.75100 24.20400
N  36.03200 49.52300 28.04100
C  36.23400 48.72400 29.08200
C  35.90300 49.30900 30.49000
C  35.30500 50.67700 30.03600
C  35.58600 50.73400 28.56000
C  33.74800 50.76400 30.42900
C  37.21500 49.45300 31.30000
C  37.31300 48.99300 32.77500
H  36.08700 48.86300 33.65500
N  35.95400 51.22200 25.44200
C  35.46000 52.15800 26.31800
C  35.10500 53.36500 25.61200
C  35.39700 53.08500 24.22000
C  35.94600 51.74000 24.17900
C  34.52600 54.57600 26.31400
C  35.21600 54.01600 23.02800
O  35.51400 53.59200 21.88700
C  34.69600 55.33500 23.19700
N  37.21600 48.93500 23.94100
C  37.00100 49.77500 22.86800
C  37.61400 49.27200 21.52400
C  38.44600 47.99700 21.96200
C  38.01100 47.95300 23.47600
C  36.48200 48.97300 20.48200
C  39.98000 48.09200 21.80500
C  40.67700 47.26800 20.66700
N  37.35700 47.47000 26.31700
C  37.92900 46.49600 25.56700
C  38.17800 45.30200 26.30300
C  37.68000 45.65300 27.56300
C  37.21700 46.96100 27.53100
C  38.80500 44.02900 25.71000
C  37.54300 45.08300 28.89400
O  37.70700 43.97900 29.39400
C  36.94100 46.24400 29.77700
C  35.63800 45.68900 30.30500
O  34.59500 45.57600 29.66400
O  35.85400 45.33700 31.58000
C  34.66700 45.19500 32.30900
H  34.90900 52.75100 28.31100
H  36.39600 51.39600 21.97000
H  38.71900 45.96300 23.62300
H  35.22100 48.70200 31.08600
H  35.83200 51.49000 30.53500
H  33.39400 50.01100 31.13300
H  33.17300 50.75000 29.50400
H  33.68600 51.71600 30.95700
H  37.65700 50.44900 31.30700
H  37.92700 48.83500 30.75200
H  37.96800 49.71400 33.26500
H  37.88000 48.06300 32.79200
H  33.82600 55.17600 25.73200
H  35.28500 55.26300 26.68700
H  33.82500 54.19900 27.05900
H  34.89800 55.89300 22.28200
H  35.13500 55.90600 24.01500
H  33.63200 55.15600 23.34800
H  38.33700 50.04400 21.26100
H  38.06200 47.07000 21.53600
H  36.50600 49.76400 19.73200
H  35.50100 49.01500 20.95500
H  36.64200 48.03300 19.95300
H  40.49300 47.73900 22.69900
H  40.21600 49.14300 21.64100
H  39.86200 46.82800 20.09200
H  41.28600 46.45800 21.06900
H  41.37800 47.80900 20.03100
H  39.28800 44.17900 24.74500
H  38.06900 43.28800 25.39700
H  39.61100 43.69700 26.36500
H  37.57500 46.39500 30.65100
H  33.79400 45.80400 32.07300
H  34.87500 45.46700 33.34400
H  34.47200 44.12900 32.20000
Mg -6.15700 24.70800 26.74000
C  -4.63100 25.92700 29.79200
C  -8.20800 22.72200 28.68800
C  -7.10900 22.97300 23.98000
C  -3.60400 26.26600 25.00600
N  -6.39500 24.39600 28.97800
C  -5.68700 25.00900 29.97500
C  -6.29700 24.64000 31.34100
C  -7.43600 23.57100 30.97100
C  -7.41000 23.57600 29.45700
C  -7.08300 22.17600 31.62400
C  -6.90800 25.96300 32.03000
C  -7.14300 25.96600 33.56100
H  -6.47600 24.83900 34.34500
N  -7.55800 23.18700 26.40800
C  -8.34700 22.56500 27.34200
C  -9.36000 21.80600 26.59700
C  -9.02700 21.82900 25.20100
C  -7.85300 22.73400 25.11600
C  -10.51600 21.03700 27.17400
C  -9.61500 21.01100 24.02300
O  -9.01500 20.90500 22.93600
C  -10.95500 20.29400 24.10700
N  -5.40000 24.54600 24.76500
C  -5.98100 23.76600 23.81300
C  -5.34500 24.11200 22.40100
C  -4.39700 25.26900 22.75100
C  -4.41900 25.35500 24.23800
C  -4.68900 22.88800 21.75800
C  -4.84500 26.65800 22.23500
C  -4.36600 26.95200 20.77700
N  -4.42500 25.82500 27.23400
C  -3.51100 26.44600 26.41300
C  -2.49200 27.17500 27.19000
C  -2.83600 26.91400 28.51100
C  -4.05300 26.19700 28.49700
C  -1.25600 27.91500 26.73900
C  -2.43300 27.18500 29.85300
O  -1.40500 27.71000 30.30500
C  -3.63000 26.68800 30.82200
C  -2.83400 25.93200 31.82100
O  -2.42600 24.77900 31.73600
O  -2.63300 26.70900 32.94800
C  -2.09100 25.99000 34.08800
H  -8.92100 22.12500 29.26200
H  -7.56600 22.59100 23.06500
H  -2.92300 26.87900 24.41200
H  -5.49900 24.31300 32.00700
H  -8.44800 23.80300 31.30200
H  -7.14600 21.42200 30.83900
H  -7.69700 21.87200 32.47200
H  -6.08700 22.19100 32.06700
H  -7.87700 26.05000 31.53900
H  -6.45600 26.87700 31.64400
H  -8.22400 25.83700 33.61000
H  -6.93500 26.96600 33.94000
H  -10.46300 19.96700 26.97300
H  -11.47200 21.44300 26.84200
H  -10.39600 21.22000 28.24200
H  -10.93900 19.43500 23.43600
H  -11.76600 20.95200 23.79700
H  -11.27900 19.92300 25.07900
H  -6.09800 24.42700 21.68000
H  -3.39200 25.03600 22.39800
H  -5.29600 22.61400 20.89500
H  -4.84200 22.11500 22.51100
H  -3.64700 22.98000 21.45300
H  -4.36600 27.45400 22.80600
H  -5.93300 26.71100 22.25600
H  -4.31200 25.98500 20.27600
H  -3.35300 27.35300 20.75300
H  -5.07200 27.59700 20.25400
H  -0.81700 28.30400 27.65800
H  -1.41000 28.67000 25.96800
H  -0.52800 27.27300 26.24300
H  -4.08200 27.56600 31.28400
H  -1.11600 26.43500 34.28700
H  -2.18000 24.90800 33.98700
H  -2.73200 26.28000 34.92000

