158

Mg 47.81300 35.49600 27.83500
C  46.06100 33.82800 30.22800
C  48.04500 38.16700 29.91700
C  48.92500 37.19700 25.17800
C  46.98200 32.83600 25.50900
N  47.10700 35.93600 29.85300
C  46.59500 35.01100 30.66900
C  46.66700 35.61800 32.14300
C  46.87000 37.11200 31.93200
C  47.36800 37.12600 30.51500
C  45.53800 37.77400 32.24200
C  47.74400 34.86500 33.07100
C  48.63200 35.56800 34.02300
H  47.92700 36.40300 35.12300
N  48.48500 37.32800 27.61100
C  48.53700 38.31300 28.60300
C  49.18500 39.43800 28.08600
C  49.50300 39.28700 26.71000
C  48.96600 37.86800 26.43200
C  49.41300 40.60800 28.96800
C  50.11300 40.20600 25.62400
O  50.47200 39.84800 24.53400
C  50.39800 41.56700 26.11500
N  47.96000 35.07500 25.62700
C  48.43500 35.95000 24.73800
C  48.21900 35.50600 23.28700
C  47.76400 34.08900 23.45700
C  47.68200 33.90700 24.97600
C  47.26600 36.57200 22.58200
C  48.67400 33.00000 22.75200
C  48.02400 31.97800 21.84600
N  46.83900 33.62400 27.86600
C  46.61800 32.62500 26.89500
C  45.87100 31.52300 27.47400
C  45.56200 31.99200 28.76400
C  46.25800 33.23700 28.98400
C  45.50700 30.21000 26.89500
C  44.87500 31.60600 29.94400
O  44.24600 30.61000 30.21700
C  45.10500 32.87500 30.87100
C  45.46500 32.41900 32.22700
O  46.37100 31.63300 32.50000
O  44.58400 32.88400 33.15500
C  44.75300 32.42800 34.53900
H  48.21900 38.96800 30.63800
H  49.28300 37.65100 24.25200
H  46.59200 31.97600 24.96000
H  45.69400 35.35500 32.55800
H  47.61200 37.58900 32.57200
H  45.65500 38.85600 32.19400
H  45.29400 37.67300 33.30000
H  44.77400 37.45100 31.53500
H  48.45000 34.25900 32.50200
H  47.15700 34.16000 33.66100
H  49.25100 36.21300 33.40000
H  49.30500 34.83900 34.47500
H  50.36700 41.11900 28.83700
H  49.45100 40.27000 30.00300
H  48.62600 41.35600 28.86900
H  51.30200 41.55900 26.72500
H  49.57200 41.89900 26.74400
H  50.50500 42.32100 25.33400
H  49.20700 35.35000 22.85200
H  46.69900 33.92500 23.29000
H  47.26300 37.44800 23.23100
H  46.27600 36.12800 22.47500
H  47.61300 36.66800 21.55300
H  49.19800 32.33100 23.43500
H  49.48000 33.44100 22.16600
H  48.01500 32.41600 20.84700
H  46.96400 31.87700 22.07600
H  48.49800 31.00000 21.92300
H  45.91200 30.13500 25.88600
H  44.44400 29.98400 26.80500
H  46.09100 29.49000 27.46900
H  44.16600 33.38900 31.07300
H  43.73400 32.36100 34.91900
H  45.34800 33.17000 35.07300
H  45.24500 31.45800 34.60400
Mg -1.95700 34.64500 27.03800
C  -3.64700 32.80000 29.38700
C  -0.59100 36.50800 29.53600
C  -1.01700 36.81000 24.64000
C  -3.88000 32.91900 24.53400
N  -2.16700 34.67400 29.18800
C  -2.82200 33.75000 29.95900
C  -2.60800 34.00800 31.47200
C  -1.70100 35.26200 31.45900
C  -1.39500 35.43500 29.88800
C  -2.10500 36.59500 32.13300
C  -1.88600 32.82900 32.31100
C  -2.62700 32.67500 33.69200
H  -1.72300 32.52000 34.88300
N  -0.85900 36.37500 27.02000
C  -0.35600 36.97000 28.20600
C  0.49300 38.11400 27.82600
C  0.35800 38.23600 26.39900
C  -0.60200 37.16400 25.94600
C  1.32200 38.93500 28.79000
C  1.01000 39.27500 25.49300
O  0.84300 39.24700 24.25700
C  1.88600 40.37300 25.90600
N  -2.48300 34.88800 24.88600
C  -1.86700 35.85400 24.08500
C  -2.31200 35.63800 22.58300
C  -3.16500 34.35400 22.69600
C  -3.13700 33.98100 24.13500
C  -3.01000 36.85900 22.05200
C  -2.86700 33.27700 21.59500
C  -3.99500 32.96000 20.54900
N  -3.38100 33.13700 26.92600
C  -3.96200 32.48800 25.89100
C  -4.78000 31.43900 26.33300
C  -4.70400 31.50100 27.71400
C  -3.81900 32.53400 28.03600
C  -5.38700 30.44300 25.43600
C  -5.15900 30.91200 28.91400
O  -5.97200 30.05300 29.14400
C  -4.44600 31.67300 30.07500
C  -5.42900 32.39600 30.92000
O  -6.06300 33.34300 30.51400
O  -5.59100 31.73200 32.18500
C  -6.59200 32.46300 33.08000
H  -0.19300 37.03400 30.40600
H  -0.55100 37.41300 23.85700
H  -4.40300 32.49200 23.67600
H  -3.55500 34.34700 31.89300
H  -0.74100 34.99700 31.90100
H  -2.60800 37.24800 31.42000
H  -1.16400 36.94700 32.55600
H  -2.68400 36.37900 33.03100
H  -0.81300 32.99000 32.42200
H  -1.98500 31.97000 31.64700
H  -3.13700 31.71400 33.62400
H  -3.35800 33.47300 33.81600
H  2.36600 38.83400 28.49500
H  1.18600 38.62500 29.82600
H  1.07600 39.99700 28.76600
H  1.29900 41.00500 26.57200
H  2.29200 40.87300 25.02700
H  2.69600 39.97800 26.51900
H  -1.41900 35.55600 21.96300
H  -4.21000 34.64800 22.59700
H  -2.94300 37.66200 22.78600
H  -4.06600 36.64300 21.89000
H  -2.55600 37.18100 21.11500
H  -2.61900 32.32100 22.05600
H  -1.96700 33.62900 21.09000
H  -4.46700 31.99700 20.74700
H  -3.57800 32.85000 19.54800
H  -4.63900 33.83200 20.66300
H  -4.71200 30.29400 24.59300
H  -6.34200 30.69400 24.97500
H  -5.56200 29.49800 25.94900
H  -3.80600 31.00900 30.65600
H  -7.33400 33.09500 32.59300
H  -6.01400 33.11400 33.73600
H  -7.12000 31.77800 33.74300

