158

Mg 7.99300 2.95000 27.11800
C  9.15600 1.74400 30.19200
C  6.01900 5.15000 28.91300
C  6.80100 4.05800 24.17800
C  9.45100 0.28200 25.55900
N  7.50100 3.30000 29.30100
C  8.19400 2.73900 30.31200
C  7.87200 3.51100 31.63600
C  6.72800 4.47300 31.21100
C  6.73700 4.26600 29.73500
C  5.32000 4.15300 31.87700
C  9.03400 4.26900 32.36500
C  8.69700 5.09500 33.56800
H  9.28100 4.57300 34.91500
N  6.48600 4.37200 26.64700
C  5.87400 5.19700 27.53400
C  5.19000 6.17500 26.76800
C  5.36600 5.88000 25.37700
C  6.25900 4.67700 25.34500
C  4.35800 7.31200 27.38700
C  4.88300 6.70400 24.08700
O  5.39400 6.48900 22.97200
C  3.98100 7.87000 24.17200
N  8.07100 2.11700 25.10300
C  7.57400 2.79100 24.08100
C  7.68800 1.93100 22.78200
C  8.64400 0.81400 23.21900
C  8.62800 1.03500 24.71700
C  6.28200 1.44200 22.18700
C  10.04100 0.87900 22.58000
C  11.01900 1.78600 23.38200
N  9.19100 1.44700 27.64800
C  9.80900 0.44500 26.92600
C  10.62100 -0.41900 27.75400
C  10.41000 0.08500 29.01100
C  9.50600 1.20700 28.95200
C  11.43900 -1.58300 27.33100
C  10.81400 -0.11700 30.37900
O  11.63700 -0.93200 30.80400
C  10.14500 1.04900 31.19100
C  9.51000 0.48100 32.41500
O  8.54100 -0.27700 32.47600
O  10.21200 1.00000 33.47800
C  9.55500 0.58900 34.72000
H  5.55900 5.96500 29.47700
H  6.54900 4.36500 23.16000
H  9.94700 -0.53100 25.02400
H  7.51500 2.78900 32.37000
H  7.07700 5.49800 31.33600
H  4.53600 3.99900 31.13600
H  5.17500 5.07000 32.44700
H  5.36900 3.36100 32.62500
H  9.54000 4.86500 31.60500
H  9.72600 3.54100 32.78900
H  7.62700 5.26000 33.69200
H  9.15800 6.07700 33.45800
H  4.39500 7.48000 28.46400
H  3.31000 7.28300 27.08800
H  4.68400 8.22400 26.88800
H  3.54600 8.16100 23.21500
H  4.60200 8.72200 24.45000
H  3.17900 7.73300 24.89700
H  8.21600 2.51800 22.03000
H  8.19700 -0.12500 22.89200
H  6.15100 1.82100 21.17400
H  5.48900 1.71900 22.88300
H  6.12000 0.36700 22.11700
H  10.04000 1.17800 21.53200
H  10.51500 -0.10200 22.56600
H  11.72200 1.12700 23.89200
H  10.54800 2.51100 24.04500
H  11.58500 2.43900 22.71700
H  12.51200 -1.39500 27.37100
H  11.34500 -1.79400 26.26500
H  11.13600 -2.44300 27.92800
H  10.84600 1.85200 31.41500
H  8.50400 0.88000 34.71400
H  10.17700 0.96500 35.53200
H  9.49800 -0.49700 34.78400
Mg 47.85300 16.30100 28.99800
C  45.83100 16.33500 31.92100
C  50.13400 18.18500 30.70000
C  49.55700 16.70600 26.08800
C  45.06300 15.26600 27.14600
N  48.01600 17.11000 31.09300
C  47.05200 17.00500 32.08600
C  47.52600 17.72500 33.37800
C  48.74500 18.49800 32.88500
C  48.96300 17.91300 31.49400
C  48.69500 20.10700 32.95100
C  47.78700 16.73200 34.56600
C  47.38200 17.08700 36.01500
H  47.50600 18.52800 36.45400
N  49.70700 17.20700 28.47300
C  50.53700 17.80900 29.34400
C  51.72500 18.20300 28.68000
C  51.58700 17.77800 27.29900
C  50.27500 17.12000 27.23800
C  52.78600 19.04300 29.32500
C  52.61400 17.88400 26.14700
O  52.25100 17.51600 25.02300
C  53.98500 18.52500 26.29200
N  47.44300 15.89100 26.85100
C  48.33100 16.09900 25.89900
C  47.71100 15.81900 24.53400
C  46.19000 15.41400 24.88200
C  46.25100 15.57000 26.39400
C  47.72900 17.01400 23.44700
C  45.74800 14.02300 24.32300
C  44.67600 14.09100 23.28600
N  45.88800 15.68600 29.41500
C  44.88500 15.23600 28.55600
C  43.79000 14.76500 29.36900
C  44.11100 15.13200 30.73500
C  45.39200 15.75400 30.67100
C  42.54800 14.08600 28.89800
C  43.65300 15.12500 32.10300
O  42.67400 14.60400 32.59400
C  44.66500 16.00600 32.88900
C  44.04500 17.27200 33.39400
O  43.87300 18.29200 32.77900
O  43.77800 17.11000 34.68200
C  43.36200 18.28600 35.43300
H  50.86500 18.92100 31.04200
H  49.88100 16.90500 25.06400
H  44.18100 14.85500 26.65000
H  46.80300 18.42800 33.79100
H  49.59500 18.17400 33.48600
H  48.77300 20.52200 31.94600
H  49.57000 20.51000 33.46000
H  47.80200 20.35500 33.52500
H  48.78200 16.28800 34.52500
H  47.23400 15.80500 34.42000
H  48.01300 16.44000 36.62500
H  46.33400 16.79700 36.08700
H  53.82200 18.76400 29.13400
H  52.70600 18.86600 30.39800
H  52.63700 20.09400 29.07500
H  54.40800 18.85800 25.34500
H  54.55700 17.72000 26.75400
H  53.80000 19.42500 26.87800
H  48.21800 14.93700 24.14200
H  45.48800 16.17100 24.53100
H  48.19900 16.61900 22.54600
H  48.35400 17.83800 23.79000
H  46.76100 17.47200 23.24200
H  45.34700 13.43900 25.15100
H  46.53300 13.43200 23.85100
H  44.75300 13.26500 22.58000
H  44.73300 15.06800 22.80600
H  43.75700 13.93100 23.85000
H  42.39600 14.68400 28.00000
H  41.65100 14.14100 29.51500
H  42.77400 13.04600 28.66700
H  44.99000 15.43500 33.75800
H  42.28400 18.40900 35.33700
H  43.92900 19.15800 35.10700
H  43.65700 18.24100 36.48200

