158

Mg 46.68600 24.95700 28.62300
C  47.39700 27.13500 31.29200
C  45.36900 22.75300 30.80200
C  46.55700 22.65300 26.11600
C  48.12100 27.19800 26.48000
N  46.45800 24.95400 30.82100
C  46.76300 25.98200 31.69900
C  46.21100 25.59800 33.11000
C  45.49200 24.19200 32.89600
C  45.79700 23.88300 31.43200
C  45.85800 23.13300 33.91000
C  45.27400 26.63900 33.84100
C  45.80500 27.19400 35.16400
H  44.82400 27.29400 36.32500
N  46.21400 22.93300 28.48800
C  45.54800 22.24400 29.47700
C  45.35700 20.85400 29.02200
C  45.76900 20.80500 27.67500
C  46.20900 22.15300 27.33600
C  44.62600 19.87200 29.91500
C  45.80800 19.65000 26.63900
O  46.12200 19.77700 25.44500
C  45.34200 18.26700 27.16600
N  47.25500 24.94700 26.55600
C  47.10000 23.87800 25.75900
C  47.64700 24.18800 24.36100
C  47.80700 25.74200 24.39500
C  47.68200 26.02600 25.87800
C  49.00500 23.41100 24.14800
C  46.76100 26.46600 23.61400
C  46.93200 26.66000 22.13900
N  47.56600 26.78300 28.78800
C  48.06800 27.63200 27.81900
C  48.50300 28.90000 28.35800
C  48.29500 28.70900 29.70800
C  47.69500 27.39700 29.97200
C  49.20300 30.00100 27.71400
C  48.45000 29.37200 31.02000
O  48.88500 30.46400 31.39300
C  47.81700 28.40200 32.00700
C  48.78300 28.25500 33.13100
O  49.78200 27.50000 33.14000
O  48.48300 29.10300 34.17400
C  49.14100 28.70300 35.42800
H  44.90600 22.17300 31.60400
H  46.64000 21.99300 25.24900
H  48.48000 27.91400 25.73800
H  47.08200 25.45400 33.75000
H  44.40300 24.14300 32.92400
H  45.22500 22.24800 33.84400
H  45.74700 23.57300 34.90200
H  46.89500 22.82700 33.77200
H  44.40200 26.09100 34.19800
H  45.03400 27.44200 33.14400
H  46.29000 28.16800 35.10200
H  46.57400 26.48500 35.47300
H  43.57000 19.86200 29.64600
H  44.74100 20.17600 30.95500
H  45.00500 18.85100 29.95900
H  45.42000 17.60000 26.30800
H  44.35900 18.14700 27.62300
H  46.07300 18.08700 27.95400
H  47.03700 23.85200 23.52200
H  48.78200 26.08400 24.04600
H  49.86100 24.07200 24.01100
H  49.04300 22.58200 23.44200
H  49.19200 22.93800 25.11200
H  46.75900 27.47100 24.03600
H  45.75300 26.06000 23.69500
H  47.76200 26.04200 21.79600
H  47.21000 27.69500 21.93800
H  46.07500 26.33000 21.55200
H  49.43500 29.56200 26.74400
H  50.11000 30.33400 28.21700
H  48.51900 30.84600 27.63700
H  46.95700 28.93400 32.41400
H  50.16300 29.07600 35.37500
H  49.10000 27.63700 35.65100
H  48.66900 29.20200 36.27500
Mg 46.43100 44.52900 43.32900
C  42.99100 43.66900 42.98200
C  47.26900 41.40900 42.23800
C  49.54100 45.55500 42.88400
C  45.38300 47.94500 43.87200
N  45.20600 42.76400 43.00600
C  43.88000 42.68100 42.80700
C  43.52600 41.27700 42.26600
C  44.87700 40.50400 42.36400
C  45.89200 41.56700 42.56400
C  44.95900 39.34800 43.34100
C  42.79700 41.28000 40.96300
C  43.38800 42.10800 39.77600
H  43.20500 41.39200 38.39000
N  48.13200 43.54900 42.72300
C  48.30600 42.28500 42.30000
C  49.67800 42.03000 42.06900
C  50.38700 43.24900 42.24600
C  49.38600 44.21900 42.63000
C  50.24800 40.65600 41.77500
C  51.95900 43.41800 42.05600
O  52.66800 42.51400 41.70100
C  52.59800 44.75900 42.24600
N  47.28000 46.51800 43.11200
C  48.68100 46.57700 43.12400
C  49.09400 47.98900 43.65700
C  47.72500 48.79300 43.84600
C  46.71300 47.71900 43.65200
C  50.06500 48.18100 44.79400
C  47.49300 49.87400 42.79400
C  47.47300 51.34800 43.34400
N  44.55100 45.58100 43.53200
C  44.34200 46.95200 43.69300
C  42.91100 47.17000 43.86400
C  42.28400 45.93600 43.54400
C  43.36100 44.99600 43.36600
C  42.20600 48.48100 43.98500
C  41.01400 45.29300 43.21900
O  39.89600 45.80500 43.18200
C  41.49800 43.81200 42.88500
C  40.83400 42.95600 43.98200
O  39.99300 42.10800 43.67900
O  41.53100 42.97100 45.21700
C  41.32100 41.91600 46.23400
H  47.52600 40.40900 41.88300
H  50.56900 45.85400 43.10000
H  45.15300 48.98300 44.12000
H  42.95900 40.71800 43.01100
H  45.06300 39.99000 41.42100
H  44.13200 39.38000 44.05100
H  45.85800 39.43000 43.95200
H  44.94900 38.35200 42.89800
H  41.77000 41.57900 41.17500
H  42.77400 40.20900 40.76100
H  44.47000 42.21300 39.85000
H  42.91800 43.09100 39.76500
H  49.44700 39.98200 42.08100
H  51.28600 40.53600 42.08500
H  50.13600 40.57000 40.69400
H  52.08300 45.51400 41.65200
H  53.64300 44.81200 41.94000
H  52.57400 45.05600 43.29500
H  49.60900 48.39300 42.78500
H  47.70800 49.22400 44.84700
H  50.49000 47.22900 45.11200
H  49.58100 48.59900 45.67700
H  50.87700 48.87800 44.58700
H  46.49300 49.71600 42.39000
H  48.31300 49.74800 42.08700
H  48.30200 51.68500 43.96700
H  46.44200 51.49800 43.66400
H  47.62500 51.96500 42.45900
H  41.65900 48.34300 44.91700
H  41.34300 48.50100 43.32000
H  42.86400 49.34800 43.92100
H  41.09700 43.64600 41.88500
H  40.37400 41.95400 46.77300
H  42.18500 41.96600 46.89700
H  41.37800 41.06100 45.56100

