158

Mg 35.45400 1.61000 28.85300
C  33.39400 2.78900 31.35700
C  38.09300 1.28500 31.06100
C  37.59300 0.70900 26.23600
C  32.86000 2.01300 26.56400
N  35.71300 2.01500 30.90900
C  34.69100 2.45300 31.76400
C  35.20200 2.45700 33.18200
C  36.70500 2.17700 33.06000
C  36.89700 1.81200 31.56300
C  37.52900 3.42500 33.32200
C  34.48000 1.41400 34.05500
C  34.20600 1.86400 35.49200
H  34.81200 3.14800 36.02400
N  37.47400 0.85500 28.70100
C  38.38600 0.85500 29.69700
C  39.61500 0.43000 29.14700
C  39.55700 0.30100 27.75700
C  38.14000 0.60200 27.48000
C  40.78700 0.13400 29.96100
C  40.71500 -0.06300 26.73400
O  40.46900 -0.11600 25.51800
C  42.12300 -0.12600 27.12300
N  35.28000 1.35400 26.71500
C  36.29200 1.11700 25.86700
C  35.83400 1.30200 24.43900
C  34.22700 1.29100 24.60100
C  34.05400 1.57300 26.06900
C  36.34200 2.68100 23.82100
C  33.41100 0.01800 24.08200
C  32.85000 -0.98200 25.06600
N  33.51300 2.26000 28.91100
C  32.55200 2.37600 27.88300
C  31.26400 2.86800 28.42800
C  31.55300 3.05300 29.83400
C  32.92400 2.64400 30.02800
C  30.00000 3.05200 27.70400
C  30.99300 3.41700 31.10100
O  29.83200 3.75700 31.33400
C  32.22200 3.25400 32.19700
C  32.32700 4.65600 32.73800
O  32.94800 5.58600 32.19000
O  31.48700 4.76800 33.81200
C  31.50800 6.02900 34.56100
H  39.00800 1.27200 31.65700
H  38.31500 0.56300 25.43000
H  31.98200 2.09100 25.91800
H  35.10300 3.50800 33.45500
H  37.08200 1.51400 33.83900
H  37.05400 4.36100 33.02500
H  38.45700 3.46600 32.75200
H  37.70500 3.60900 34.38200
H  34.98500 0.44800 34.07200
H  33.50000 1.16500 33.64900
H  34.55200 1.05600 36.13600
H  33.15000 1.83100 35.76000
H  40.53200 -0.22700 30.95700
H  41.40500 1.03200 29.94800
H  41.36600 -0.62400 29.43400
H  42.43800 -1.05400 27.60100
H  42.23200 0.75600 27.75300
H  42.68700 0.10200 26.21900
H  36.12200 0.48500 23.77800
H  33.79600 2.15700 24.09800
H  36.89900 2.36400 22.93900
H  37.05900 3.09500 24.53000
H  35.64100 3.48700 23.60300
H  34.06700 -0.52100 23.39900
H  32.70900 0.41500 23.34900
H  32.79700 -0.48100 26.03300
H  33.32700 -1.93600 25.29000
H  31.83500 -1.25200 24.77600
H  29.14500 2.42700 27.96100
H  30.09300 2.95900 26.62200
H  29.65000 4.05200 27.95900
H  31.80200 2.61700 32.97500
H  32.35800 6.68300 34.36400
H  31.50100 5.99600 35.65000
H  30.66300 6.62900 34.22400
Mg 6.98500 56.58300 41.83000
C  6.03800 53.09600 41.97600
C  10.07100 55.65400 40.50300
C  7.72200 59.83000 41.35600
C  4.05900 57.40100 43.40800
N  7.88200 54.63800 41.22700
C  7.29100 53.30000 41.34800
C  8.28800 52.33400 40.86600
C  9.66500 53.09000 40.88400
C  9.21500 54.57000 40.83300
C  10.53100 52.77800 42.14300
C  7.90900 51.81700 39.35900
C  8.19600 50.28100 39.27000
H  7.38900 49.47100 38.28000
N  8.57900 57.63300 40.92000
C  9.80100 57.04300 40.53600
C  10.77800 58.07400 40.30000
C  10.09400 59.30500 40.31400
C  8.68500 58.93400 40.83600
C  12.24000 57.78700 39.82500
C  10.73000 60.62900 40.02200
O  11.91900 60.70300 39.74800
C  9.98700 61.97700 40.20600
N  5.90000 58.34000 42.19600
C  6.45900 59.58200 41.93900
C  5.42800 60.64700 42.42700
C  4.27100 59.91600 43.14000
C  4.77700 58.46100 42.95000
C  6.06000 61.87200 43.25100
C  2.84700 60.20500 42.61900
C  1.66800 60.09400 43.64800
N  5.41400 55.51600 42.55600
C  4.31600 55.99300 43.22300
C  3.45900 54.93000 43.60500
C  4.06600 53.76800 43.11900
C  5.24200 54.19100 42.41600
C  2.13700 54.88000 44.25600
C  3.98000 52.33400 43.03300
O  3.14300 51.47600 43.39700
C  5.23000 51.90500 42.19000
C  4.68200 51.32100 40.95900
O  4.25100 51.86200 39.90800
O  4.69500 49.95800 41.03100
C  3.88700 49.26300 40.03200
H  11.09400 55.34600 40.28000
H  8.01400 60.87900 41.27400
H  3.13100 57.60000 43.94800
H  8.38500 51.43200 41.46900
H  10.30700 52.85900 40.03400
H  11.52200 52.53500 41.75900
H  10.18500 51.87500 42.64500
H  10.76700 53.56600 42.85900
H  8.64700 52.34700 38.75700
H  6.92500 52.19200 39.07700
H  7.90400 49.70400 40.14700
H  9.26000 50.12900 39.09000
H  13.01800 58.55100 39.82700
H  12.24900 57.59800 38.75200
H  12.65900 56.90600 40.31200
H  9.89600 62.26700 41.25200
H  9.01700 61.78500 39.74700
H  10.59900 62.68800 39.65000
H  5.03400 61.01400 41.48000
H  4.26200 60.12800 44.20900
H  6.09600 62.83200 42.73700
H  7.09000 61.62000 43.50400
H  5.48300 61.98700 44.16900
H  2.74800 59.43700 41.85200
H  2.60200 61.08700 42.02600
H  1.47100 61.04900 44.13500
H  1.82600 59.33400 44.41300
H  0.79300 59.69500 43.13500
H  1.94300 55.83800 44.73900
H  2.19300 54.19700 45.10300
H  1.30100 54.62500 43.60400
H  5.71800 51.12900 42.78200
H  2.81200 49.42100 40.12300
H  3.99900 48.18900 40.17600
H  4.18500 49.42900 38.99700

