158

Mg 41.15100 9.34400 29.85300
C  42.74800 10.48100 32.78200
C  38.58000 8.20100 31.77200
C  39.80700 7.96800 27.07800
C  43.91800 10.38200 28.06500
N  40.70300 9.45400 32.06100
C  41.49400 9.94100 33.02900
C  40.74900 9.77600 34.40300
C  39.50600 8.89500 34.11000
C  39.59200 8.76100 32.56200
C  39.42500 7.59800 34.91000
C  40.49400 11.15700 35.06700
C  40.02500 11.17200 36.55300
H  40.84300 12.07500 37.53600
N  39.34200 8.24400 29.48600
C  38.43200 7.95600 30.37900
C  37.30600 7.39700 29.72400
C  37.54200 7.35400 28.30600
C  38.96000 7.84100 28.20800
C  36.11600 6.83300 30.51100
C  36.66600 6.97900 27.13100
O  37.04300 7.20900 25.97100
C  35.26600 6.52200 27.35200
N  41.86900 9.21100 27.89800
C  41.10300 8.57900 26.92200
C  41.80900 8.55600 25.52900
C  43.11600 9.29500 25.88300
C  42.92000 9.70700 27.33900
C  42.07300 7.15500 24.85500
C  43.60500 10.40900 24.94100
C  42.95900 11.72000 25.08500
N  42.94800 10.32800 30.20500
C  43.97200 10.66000 29.35200
C  45.05300 11.20300 30.11500
C  44.67500 11.12400 31.47100
C  43.35000 10.63200 31.45000
C  46.48100 11.59900 29.61800
C  45.06700 11.38500 32.81800
O  46.05400 11.99800 33.25500
C  43.83400 10.95900 33.74500
C  44.33500 10.05500 34.75900
O  44.34500 8.86100 34.72400
O  44.82200 10.76900 35.89200
C  45.27100 9.91000 36.95200
H  37.73800 7.93200 32.41300
H  39.41600 7.50200 26.17100
H  44.88100 10.54900 27.57800
H  41.49600 9.24600 34.99500
H  38.53800 9.31800 34.38100
H  40.17900 7.51700 35.69300
H  39.64200 6.76500 34.24200
H  38.40600 7.38600 35.23500
H  39.82000 11.72200 34.42400
H  41.39900 11.73000 34.86600
H  39.91100 10.17000 36.96600
H  39.01700 11.58600 36.55400
H  35.18400 7.28300 30.16800
H  36.17300 7.08700 31.57000
H  35.87500 5.77600 30.40200
H  35.26300 5.77100 28.14200
H  34.93700 5.97200 26.47100
H  34.64400 7.40800 27.48100
H  41.17400 9.26500 24.99700
H  43.99100 8.64500 25.90900
H  41.73700 6.45800 25.62300
H  43.13200 6.99300 24.65400
H  41.41400 7.00600 23.99900
H  43.41400 9.91400 23.98800
H  44.66500 10.64500 25.03500
H  42.24300 11.63400 25.90200
H  42.36900 11.97100 24.20400
H  43.64500 12.54500 25.27900
H  46.54100 12.61700 29.23300
H  46.88800 10.89200 28.89500
H  47.04600 11.71000 30.54400
H  43.47000 11.90000 34.15800
H  45.99700 10.56900 37.42900
H  45.84100 9.03500 36.63900
H  44.54000 9.57800 37.68900
Mg 50.26500 35.05400 26.65600
C  47.98000 33.77100 29.09500
C  50.07900 38.04300 28.19600
C  51.66200 36.47600 23.89100
C  49.94500 31.98300 24.75200
N  49.43800 35.72300 28.54700
C  48.46800 35.08800 29.35400
C  48.19100 35.90200 30.65500
C  48.71200 37.33200 30.22400
C  49.46100 37.03500 28.90600
C  47.48300 38.34300 30.10800
C  49.00700 35.24000 31.79300
C  48.28000 34.96100 33.17000
H  47.99400 36.18700 34.06400
N  51.10200 36.98700 26.24600
C  50.90100 38.06000 27.03200
C  51.58700 39.16800 26.37900
C  52.09400 38.66200 25.08800
C  51.60300 37.28100 25.04900
C  51.91200 40.45900 27.13600
C  53.09400 39.27700 24.06500
O  53.58100 38.56000 23.15000
C  53.60500 40.67700 24.11000
N  50.69100 34.29700 24.63400
C  51.32100 35.14200 23.73800
C  51.77500 34.40300 22.39300
C  51.50800 32.92700 22.77300
C  50.65000 32.98900 24.12800
C  50.92800 34.93800 21.19100
C  52.67400 31.90000 22.86500
C  54.11800 32.38500 23.29400
N  49.26500 33.22800 26.86300
C  49.19100 32.07200 26.00800
C  48.29600 31.19700 26.59300
C  47.73800 31.83800 27.72400
C  48.43500 33.02400 27.92500
C  47.81700 29.88200 26.02000
C  46.83700 31.69000 28.76800
O  46.18000 30.70300 29.08800
C  46.98100 32.95500 29.77200
C  47.28700 32.41200 31.12300
O  48.39100 31.86300 31.41400
O  46.25400 32.47600 32.00600
C  46.48100 31.84600 33.27200
H  49.89100 39.00600 28.67500
H  52.07600 36.81900 22.94100
H  49.87700 31.07800 24.14500
H  47.13500 35.90100 30.92600
H  49.42100 37.76000 30.93300
H  47.66600 38.54100 29.05100
H  47.58900 39.24500 30.71100
H  46.49400 37.93500 30.31300
H  49.75000 35.98500 32.07600
H  49.48100 34.34500 31.38900
H  48.96800 34.26400 33.64700
H  47.34500 34.48700 32.86900
H  51.31500 40.52600 28.04500
H  51.69200 41.34700 26.54200
H  52.97200 40.23000 27.24500
H  54.15300 40.85500 25.03500
H  52.82900 41.44200 24.12000
H  54.33000 40.76100 23.30100
H  52.78100 34.70700 22.10400
H  50.87300 32.52400 21.98300
H  50.25200 34.14300 20.87600
H  51.49200 35.33700 20.34800
H  50.17800 35.58300 21.64900
H  52.71000 31.36500 21.91600
H  52.46900 31.15700 23.63500
H  54.20600 33.47100 23.27600
H  54.84100 31.84100 22.68700
H  54.29100 32.06300 24.32100
H  48.14900 29.11100 26.71500
H  48.26900 29.66600 25.05200
H  46.73600 29.84000 25.88200
H  46.05300 33.52000 29.86600
H  45.50200 31.63400 33.70100
H  47.07300 32.59400 33.79900
H  47.09100 30.95200 33.14100

