158

Mg 36.44800 0.51000 30.16000
C  34.59400 1.85100 32.71000
C  39.13800 0.33100 32.11200
C  38.12400 -0.55600 27.35300
C  33.54200 0.78300 28.09100
N  36.71300 0.99400 32.15400
C  35.85100 1.42700 33.04000
C  36.50300 1.69900 34.37900
C  38.08400 1.71600 34.00800
C  37.98100 0.92900 32.72200
C  38.80500 3.04800 34.10100
C  36.08400 0.51900 35.36200
C  35.37900 0.90100 36.68700
H  35.83900 2.09900 37.45200
N  38.29400 -0.17100 29.83400
C  39.22000 -0.30900 30.83800
C  40.37600 -0.98100 30.31800
C  40.15300 -1.06400 28.90900
C  38.79400 -0.61300 28.61500
C  41.54700 -1.33900 31.23000
C  41.19000 -1.57300 27.92500
O  41.02200 -1.55600 26.66700
C  42.54400 -2.00400 28.23800
N  35.89700 0.33900 28.00700
C  36.83100 -0.02500 27.09700
C  36.23800 -0.19200 25.68100
C  34.70600 0.08000 26.00800
C  34.69800 0.48000 27.45900
C  36.89600 0.75800 24.65200
C  33.82000 -1.17400 25.77900
C  33.78600 -1.94400 24.41800
N  34.50000 1.38600 30.23700
C  33.43900 1.40400 29.37400
C  32.37300 2.12200 29.98400
C  32.72400 2.23200 31.31900
C  34.06700 1.79100 31.38600
C  31.03800 2.39800 29.34000
C  32.35400 2.66100 32.56800
O  31.28900 3.19700 32.92300
C  33.45100 2.37400 33.53600
C  33.76500 3.69900 34.19300
O  34.29200 4.71200 33.71400
O  33.04300 3.67000 35.40100
C  33.02300 4.98800 36.04500
H  39.99000 0.21900 32.78600
H  38.68900 -1.02400 26.54400
H  32.60700 0.66600 27.53900
H  36.16700 2.63100 34.83400
H  38.64000 1.16300 34.76500
H  39.66700 3.00200 34.76800
H  38.14000 3.76800 34.57800
H  38.96500 3.41500 33.08700
H  36.88600 -0.21000 35.47200
H  35.28400 -0.09200 34.94500
H  35.51400 -0.00100 37.28300
H  34.30100 1.02000 36.57500
H  41.86300 -2.38300 31.22300
H  41.56900 -0.92300 32.23700
H  42.37400 -0.87100 30.69600
H  42.51900 -2.88400 28.88000
H  42.97100 -1.16800 28.79100
H  43.22500 -2.26700 27.42800
H  36.41400 -1.23100 25.40400
H  34.36400 0.92300 25.40800
H  37.94100 0.97300 24.87400
H  36.38000 1.71500 24.57100
H  36.80400 0.21200 23.71300
H  32.80100 -0.79500 25.85900
H  33.96900 -1.87900 26.59700
H  33.98700 -2.97000 24.72600
H  34.39300 -1.43200 23.67100
H  32.77600 -2.06700 24.02800
H  30.90200 1.89400 28.38300
H  31.01300 3.47000 29.14600
H  30.25000 2.10700 30.03500
H  33.17700 1.74900 34.38600
H  32.43700 5.67100 35.43000
H  34.06300 5.31400 36.07700
H  32.72800 4.98100 37.09500
Mg -3.24600 35.68500 26.53800
C  -5.08800 33.83400 28.91200
C  -1.99800 37.59300 29.12800
C  -1.80400 37.67200 24.16600
C  -5.02100 33.97000 23.95200
N  -3.45600 35.58800 28.77900
C  -4.30700 34.80900 29.55500
C  -4.21600 35.12400 31.00000
C  -3.25200 36.38300 31.05700
C  -2.84700 36.54900 29.60000
C  -3.73800 37.67700 31.76900
C  -3.54400 33.87500 31.86500
C  -4.18300 33.47200 33.22000
H  -3.33100 33.22500 34.42400
N  -2.03600 37.34300 26.65900
C  -1.56500 37.94200 27.83000
C  -0.59400 39.00100 27.42000
C  -0.60000 39.06400 26.06200
C  -1.52900 38.02600 25.53700
C  0.23700 39.73800 28.40200
C  0.26400 39.89200 25.18900
O  0.26700 39.81400 24.00500
C  1.17900 41.02800 25.67000
N  -3.51400 35.84700 24.38900
C  -2.73700 36.75600 23.70300
C  -3.02200 36.57800 22.21800
C  -3.97300 35.30700 22.12000
C  -4.13800 34.98800 23.55400
C  -3.57200 37.82800 21.54000
C  -3.39900 34.20200 21.29300
C  -2.30800 33.30400 21.90400
N  -4.71100 34.12700 26.39600
C  -5.30000 33.54000 25.26700
C  -6.19500 32.49100 25.73900
C  -6.03800 32.52700 27.20000
C  -5.21800 33.56600 27.50800
C  -6.96600 31.50400 24.90100
C  -6.47000 31.99600 28.41700
O  -7.15400 30.97900 28.54000
C  -5.89900 32.78000 29.58100
C  -6.93900 33.41100 30.41200
O  -7.56200 34.35500 30.06400
O  -7.08600 32.71300 31.65000
C  -8.03600 33.34600 32.52300
H  -1.66000 38.27500 29.91100
H  -1.21500 38.21700 23.42500
H  -5.61500 33.50000 23.16500
H  -5.20600 35.43900 31.32800
H  -2.33300 36.14500 31.59400
H  -3.28100 37.85100 32.74400
H  -4.80300 37.54800 31.95900
H  -3.45400 38.57900 31.22600
H  -2.49400 34.13700 31.99400
H  -3.42100 33.00900 31.21500
H  -4.84800 32.63900 32.99400
H  -4.81100 34.31100 33.51800
H  1.31500 39.67700 28.25100
H  -0.09100 39.32100 29.35500
H  -0.06700 40.78400 28.36900
H  0.63400 41.80200 26.21100
H  1.81200 41.41300 24.87200
H  1.85300 40.62200 26.42500
H  -2.17800 36.34400 21.56900
H  -4.97400 35.52600 21.74900
H  -2.80200 38.27300 20.90900
H  -3.86300 38.57200 22.28200
H  -4.41800 37.64000 20.87900
H  -2.97200 34.57600 20.36300
H  -4.24700 33.56700 21.03500
H  -1.99400 33.77500 22.83500
H  -1.52600 33.01000 21.20300
H  -2.60500 32.34500 22.32800
H  -7.62100 30.83700 25.46000
H  -6.27200 30.81400 24.42200
H  -7.54700 31.91000 24.07300
H  -5.36100 32.04200 30.17600
H  -8.83500 33.74100 31.89700
H  -7.51500 34.05000 33.17100
H  -8.54300 32.57100 33.09800

