158

Mg 1.28000 -1.54000 44.39600
C  4.61200 -0.24900 44.00000
C  0.21500 1.27500 42.74300
C  -1.73600 -3.00900 43.94600
C  2.51500 -4.23900 45.90200
N  2.33700 0.15000 43.20800
C  3.68000 0.52300 43.30500
C  3.98900 1.88300 42.75700
C  2.57200 2.54000 42.83700
C  1.62100 1.27500 42.90900
C  2.38900 3.50100 44.02800
C  4.55500 1.80500 41.33100
C  6.01400 2.12900 40.90500
H  6.15800 2.99200 39.60900
N  -0.66800 -0.83400 43.59300
C  -0.85800 0.35400 42.97500
C  -2.19900 0.53600 42.58000
C  -2.77800 -0.78300 42.86600
C  -1.70000 -1.61200 43.47000
C  -2.72000 1.81200 41.91300
C  -4.19300 -1.17600 42.56500
O  -4.91700 -0.42300 41.92300
C  -4.73800 -2.43200 43.06200
N  0.57500 -3.40000 44.78300
C  -0.72100 -3.69500 44.61500
C  -1.00100 -5.00800 45.34500
C  0.30700 -5.49600 45.90500
C  1.17100 -4.30800 45.48800
C  -2.06600 -4.81000 46.40900
C  0.80700 -6.89300 45.32000
C  1.13900 -7.88900 46.43100
N  3.14200 -2.21500 44.78400
C  3.52400 -3.34200 45.45000
C  4.86100 -3.29200 45.83500
C  5.36000 -2.11800 45.27200
C  4.27300 -1.48300 44.60500
C  5.64000 -4.27600 46.70600
C  6.50600 -1.25300 45.24600
O  7.62200 -1.29000 45.76600
C  6.12800 -0.07800 44.27700
C  6.38500 1.12600 45.04900
O  5.61000 1.60200 45.90700
O  7.59000 1.64000 44.65300
C  8.09600 2.71700 45.36900
H  -0.05100 2.29200 42.44800
H  -2.59300 -3.68600 43.97600
H  2.95200 -5.05100 46.48700
H  4.61200 2.44800 43.45000
H  2.35200 3.21200 42.00800
H  3.27000 3.83000 44.57900
H  1.69000 3.03600 44.72300
H  1.95600 4.44700 43.70300
H  3.98900 2.44400 40.65300
H  4.32500 0.90000 40.76800
H  6.35900 1.12300 40.66900
H  6.54400 2.56500 41.75300
H  -2.85500 1.56100 40.86100
H  -2.11900 2.72000 41.86500
H  -3.71500 2.03000 42.30200
H  -5.78900 -2.62300 42.84300
H  -4.53900 -2.31100 44.12700
H  -4.12700 -3.16600 42.53700
H  -1.31500 -5.71900 44.58000
H  0.19400 -5.47000 46.98900
H  -1.46100 -4.39700 47.21600
H  -2.48200 -5.78600 46.66100
H  -2.90300 -4.22400 46.03100
H  1.76000 -6.65100 44.85100
H  0.16100 -7.41500 44.61400
H  2.09000 -7.57900 46.86400
H  1.11700 -8.90800 46.04400
H  0.37000 -7.98100 47.19700
H  5.97500 -5.01300 45.97600
H  4.98600 -4.80100 47.40200
H  6.44600 -3.63900 47.07100
H  6.81900 0.00500 43.43800
H  9.12900 2.91700 45.08600
H  8.10800 2.44800 46.42500
H  7.50400 3.59300 45.10400
Mg 8.33200 4.05200 27.71400
C  9.49000 2.59700 30.71400
C  5.97400 5.91300 29.67400
C  7.24800 5.52900 24.95800
C  10.26000 1.81700 25.87500
N  7.80700 4.13500 29.91700
C  8.50200 3.59600 30.94500
C  7.99100 4.14200 32.29400
C  6.68800 4.90200 31.89300
C  6.83800 5.03000 30.37300
C  5.33600 4.15500 32.24900
C  8.96300 4.95700 33.17400
C  9.23800 4.39200 34.59000
H  9.91100 5.31800 35.64000
N  6.85800 5.56200 27.34200
C  5.99600 6.19400 28.23500
C  5.24200 7.15700 27.57400
C  5.57400 7.13300 26.22700
C  6.59200 5.99400 26.11100
C  4.19600 8.06800 28.26700
C  5.10000 8.04500 25.02000
O  5.43500 7.86900 23.81300
C  4.19000 9.04800 25.29200
N  8.66200 3.58900 25.72000
C  8.22100 4.51600 24.77600
C  8.82000 4.22200 23.42300
C  9.91500 3.17500 23.74500
C  9.62200 2.81300 25.21800
C  7.83400 3.78600 22.30700
C  11.39800 3.57600 23.48400
C  11.97900 4.57800 24.47700
N  9.56600 2.44100 28.17400
C  10.29400 1.62900 27.36200
C  10.98100 0.57700 28.10600
C  10.73600 0.94100 29.45700
C  9.84300 2.04900 29.41300
C  11.82500 -0.43600 27.50700
C  11.04700 0.57900 30.77500
O  11.67300 -0.26700 31.31100
C  10.31000 1.73800 31.73700
C  9.54100 0.89800 32.75600
O  8.45700 0.33900 32.58200
O  10.23400 0.87500 33.91100
C  9.75700 0.04500 35.06700
H  5.33900 6.54600 30.29700
H  6.96700 6.09000 24.06400
H  10.96000 1.14200 25.37700
H  7.66300 3.19900 32.73200
H  6.69200 5.89100 32.35200
H  4.64600 4.34600 31.42700
H  5.01600 4.56600 33.20700
H  5.51200 3.11700 32.53300
H  8.54100 5.96200 33.18200
H  9.96200 4.96400 32.73800
H  9.91200 3.53900 34.51300
H  8.33900 3.85900 34.90100
H  4.10600 8.01500 29.35200
H  3.25600 7.86300 27.75400
H  4.51600 9.11000 28.27800
H  3.26100 8.56600 25.59900
H  4.09500 9.69200 24.41800
H  4.68300 9.53000 26.13600
H  9.30800 5.14100 23.09800
H  9.78600 2.24700 23.18800
H  6.87900 3.77600 22.83100
H  8.08600 2.80400 21.90700
H  7.87300 4.58600 21.56700
H  11.43600 4.04200 22.49900
H  11.99800 2.66900 23.41200
H  11.33800 4.61800 25.35800
H  11.89200 5.51300 23.92400
H  13.00800 4.52100 24.83400
H  12.39000 0.04800 26.71100
H  11.36200 -1.25700 26.95900
H  12.52800 -0.77900 28.26700
H  11.12000 2.34800 32.13700
H  8.87800 0.58900 35.41400
H  10.50300 -0.07200 35.85300
H  9.38100 -0.90500 34.68700

