158

Mg 16.80700 -2.04000 27.54900
C  16.03600 0.29300 30.00300
C  18.32100 -3.99400 30.02500
C  18.35500 -3.78000 25.18900
C  15.98800 0.38300 25.09400
N  17.19600 -1.83600 29.75600
C  16.63100 -0.88700 30.57700
C  16.83600 -1.19400 32.08600
C  17.59600 -2.57900 32.01100
C  17.80000 -2.81300 30.49400
C  18.91100 -2.59600 32.81200
C  15.52400 -1.31000 32.87800
C  15.33600 -0.29000 34.01700
H  16.61400 0.09100 34.78500
N  17.82100 -3.78500 27.56200
C  18.29600 -4.48400 28.66800
C  19.09700 -5.62100 28.30000
C  19.29200 -5.52800 26.85000
C  18.51800 -4.29300 26.51800
C  19.64200 -6.61300 29.33200
C  20.06300 -6.41400 25.99800
O  20.15600 -6.11500 24.81000
C  20.69300 -7.66300 26.45900
N  17.05400 -1.73700 25.43700
C  17.77800 -2.57500 24.74400
C  17.87000 -2.20400 23.24000
C  17.05600 -0.93100 23.16300
C  16.59500 -0.75700 24.61700
C  19.32100 -2.02600 22.69800
C  15.88300 -0.95000 22.11400
C  15.99700 0.13000 21.03100
N  16.06400 -0.11700 27.52000
C  15.68800 0.74700 26.50000
C  15.11900 1.99400 27.03100
C  15.13500 1.78200 28.40000
C  15.80700 0.57900 28.66000
C  14.81100 3.24400 26.35100
C  14.83400 2.47000 29.70400
O  14.25600 3.56800 29.92700
C  15.45300 1.49200 30.77900
C  16.57000 2.34000 31.48900
O  17.76900 2.36800 31.10900
O  16.09500 2.92400 32.61000
C  16.86300 4.06100 33.06300
H  18.77900 -4.63300 30.78300
H  18.91800 -4.41700 24.50300
H  15.81400 1.22300 24.41900
H  17.52100 -0.41000 32.40800
H  16.90900 -3.30100 32.45300
H  18.93600 -1.68300 33.40600
H  19.73900 -2.60000 32.10300
H  18.88200 -3.48800 33.43800
H  15.42300 -2.21800 33.47200
H  14.70100 -1.14600 32.18300
H  14.67700 -0.75700 34.74800
H  14.81800 0.56000 33.57200
H  20.72700 -6.57400 29.23600
H  19.28500 -7.58400 28.98900
H  19.35300 -6.54600 30.38000
H  20.05300 -8.28700 27.08400
H  21.54200 -7.41300 27.09600
H  21.20200 -8.01200 25.56000
H  17.52700 -3.02000 22.60300
H  17.75600 -0.11500 22.98300
H  19.50000 -1.24000 21.96400
H  19.58700 -3.00900 22.30900
H  19.92200 -1.86100 23.59200
H  14.89200 -0.80300 22.54500
H  15.93300 -1.93800 21.65700
H  16.22600 1.03600 21.59400
H  15.03400 0.29300 20.54800
H  16.76100 -0.04900 20.27400
H  15.35800 3.24800 25.40800
H  15.09900 4.06000 27.01400
H  13.75900 3.22900 26.06800
H  14.76000 1.19600 31.56700
H  17.10400 4.72300 32.23100
H  17.80200 3.84400 33.57200
H  16.27700 4.59800 33.80800
Mg 53.57600 23.61100 45.11400
C  51.26800 26.04600 43.91000
C  51.72400 21.19900 43.69500
C  56.37900 21.63700 45.38600
C  55.66900 26.44200 46.07200
N  51.82700 23.63200 43.76300
C  51.01700 24.71800 43.42500
C  49.82200 24.25700 42.53200
C  49.66100 22.77300 43.03100
C  51.16400 22.49000 43.55300
C  48.58500 22.55800 44.11300
C  50.16800 24.35500 41.02200
C  49.17200 24.81900 39.96100
H  49.73000 25.24200 38.56600
N  53.96900 21.64700 44.80600
C  52.99100 20.84300 44.24900
C  53.47300 19.52800 44.29800
C  54.78700 19.55700 44.74400
C  55.15000 20.98800 45.00800
C  52.63700 18.28700 43.85000
C  55.72200 18.43400 44.78400
O  55.30700 17.29400 44.59000
C  57.12100 18.54700 45.30400
N  55.75400 24.01100 45.60500
C  56.69300 23.00200 45.71400
C  58.04400 23.48400 46.08500
C  57.70400 24.89900 46.46600
C  56.26600 25.13600 46.06500
C  58.76400 22.76800 47.26100
C  58.68700 25.99800 46.04600
C  58.69700 26.48100 44.59700
N  53.44200 25.78100 45.17900
C  54.38200 26.76700 45.60400
C  53.78200 28.08700 45.42900
C  52.57500 27.82500 44.71300
C  52.44000 26.41100 44.63300
C  54.42600 29.41900 45.71600
C  51.43100 28.38200 44.04600
O  51.08100 29.57400 43.86300
C  50.46600 27.24700 43.74500
C  49.78300 27.54200 42.39200
O  50.36900 27.67500 41.30700
O  48.46200 27.83600 42.51400
C  47.89500 28.49300 41.34700
H  51.10200 20.41400 43.26000
H  57.31200 21.07900 45.27500
H  56.15300 27.35300 46.43200
H  48.85900 24.76100 42.45000
H  49.35100 22.15900 42.18500
H  49.02100 22.22700 45.05600
H  47.88700 21.86000 43.65200
H  48.06600 23.48400 44.36400
H  50.49400 23.34500 40.77200
H  51.02200 25.03200 40.98400
H  48.51500 25.57500 40.39200
H  48.57000 23.92700 39.78300
H  52.40100 18.25300 42.78700
H  51.61600 18.29900 44.23100
H  52.99800 17.32100 44.20200
H  57.03300 19.01700 46.28300
H  57.59300 19.09600 44.48900
H  57.44600 17.51700 45.44800
H  58.73400 23.65300 45.25800
H  57.60600 25.02000 47.54500
H  58.72200 23.43200 48.12400
H  59.81300 22.56500 47.04800
H  58.16500 21.87900 47.45800
H  59.68600 25.60300 46.23300
H  58.48300 26.78600 46.77100
H  59.54000 26.19000 43.96900
H  58.64100 27.56700 44.67200
H  57.73500 26.12700 44.22600
H  55.45800 29.31300 45.37900
H  54.34700 29.69200 46.76800
H  53.87800 30.08800 45.05200
H  49.72200 27.32200 44.53800
H  47.97900 29.55000 41.60100
H  46.84300 28.35100 41.10100
H  48.40400 28.38600 40.38900

