158

Mg 17.73300 -0.91500 27.46000
C  16.29200 0.45100 30.40100
C  19.59900 -2.96800 29.43400
C  18.86000 -2.21600 24.71600
C  15.67400 1.29400 25.51300
N  17.99500 -1.12300 29.67100
C  17.30800 -0.47400 30.70400
C  17.74800 -0.90400 32.11500
C  19.00900 -1.81000 31.73200
C  18.92600 -1.99600 30.18800
C  20.37000 -1.23800 32.21900
C  16.60200 -1.59100 32.86300
C  16.49200 -1.22600 34.38100
H  17.82000 -0.64900 35.11600
N  19.12100 -2.40300 27.12700
C  19.67400 -3.21300 28.02800
C  20.36200 -4.32000 27.35400
C  20.08900 -4.16500 25.95800
C  19.33300 -2.88900 25.88300
C  20.99400 -5.44400 28.11200
C  20.57200 -4.98700 24.81400
O  20.14800 -4.87100 23.68100
C  21.46200 -6.06400 25.23000
N  17.16000 -0.52700 25.43900
C  18.01000 -1.10900 24.53600
C  17.78800 -0.54800 23.12400
C  16.77000 0.62800 23.35800
C  16.48000 0.47600 24.81500
C  19.03600 -0.24600 22.22300
C  15.55400 0.59000 22.39000
C  15.90900 0.63900 20.86900
N  16.30400 0.54000 27.80000
C  15.51600 1.29000 26.94600
C  14.46400 1.99600 27.68500
C  14.77600 1.66000 29.07700
C  15.87000 0.79200 29.08800
C  13.40200 2.99300 27.13700
C  14.30400 1.91700 30.43900
O  13.36700 2.55800 30.92500
C  15.34200 1.14200 31.29200
C  16.12600 2.18800 32.03900
O  17.04300 2.83800 31.58400
O  15.57000 2.27000 33.31400
C  16.05400 3.41800 34.08800
H  20.14600 -3.66700 30.07100
H  19.28700 -2.54900 23.76700
H  15.08900 2.09800 25.06100
H  17.97500 -0.00900 32.69400
H  18.84900 -2.76800 32.22800
H  20.87400 -1.99500 32.82000
H  20.23700 -0.29700 32.75300
H  21.02800 -1.17200 31.35300
H  16.72200 -2.65300 32.64800
H  15.68000 -1.23300 32.40600
H  16.10500 -2.03000 35.00700
H  15.72700 -0.47000 34.20800
H  20.29900 -6.27400 28.23700
H  21.24900 -5.20100 29.14300
H  21.97000 -5.79800 27.78200
H  22.34900 -5.60300 25.66500
H  21.78900 -6.47700 24.27600
H  20.90800 -6.79000 25.82600
H  17.28100 -1.40100 22.67200
H  17.27300 1.59400 23.30900
H  18.95200 0.73200 21.75000
H  19.04900 -1.03300 21.46900
H  19.90800 -0.32900 22.87200
H  14.90400 1.43200 22.62800
H  15.00200 -0.32900 22.58600
H  15.11500 1.24600 20.43300
H  15.90200 -0.41500 20.59200
H  16.90700 0.98300 20.59900
H  12.96000 3.52200 27.98200
H  12.67400 2.38500 26.59900
H  13.78400 3.80800 26.52300
H  14.70000 0.49400 31.88900
H  17.08000 3.70100 33.85300
H  16.11700 3.18200 35.15100
H  15.41400 4.29600 34.00500
Mg -1.59200 34.94500 26.54400
C  -3.35600 33.44200 29.09400
C  -0.31500 37.15900 29.00100
C  -0.16500 36.78700 24.17300
C  -3.06800 32.97000 24.23300
N  -1.88900 35.30500 28.80300
C  -2.46900 34.41300 29.67000
C  -2.12400 34.74800 31.18000
C  -1.52400 36.23500 31.03400
C  -1.14800 36.19700 29.54800
C  -2.39700 37.45300 31.52900
C  -1.19900 33.76900 31.92500
C  -1.90200 32.91700 32.99200
H  -1.31800 32.92100 34.39700
N  -0.38900 36.65200 26.58400
C  0.11100 37.37000 27.69700
C  0.84400 38.57600 27.23900
C  0.86400 38.47300 25.87100
C  0.08600 37.31100 25.44100
C  1.25700 39.71500 28.10300
C  1.46900 39.42000 24.85600
O  1.31200 39.37300 23.61500
C  2.44600 40.39700 25.28800
N  -1.86000 35.05600 24.47100
C  -0.97600 35.74600 23.69200
C  -0.81200 35.15400 22.28200
C  -1.60400 33.84800 22.39300
C  -2.22900 33.97600 23.73500
C  -1.23800 36.10800 21.07800
C  -0.78600 32.53000 22.31500
C  0.17900 32.07000 23.44500
N  -2.93700 33.52200 26.59400
C  -3.46300 32.76600 25.60800
C  -4.39500 31.80600 26.11400
C  -4.40000 31.98700 27.51100
C  -3.49200 33.08900 27.76800
C  -5.02200 30.67900 25.37000
C  -4.87600 31.58900 28.83000
O  -5.70600 30.73400 29.07700
C  -4.13300 32.41800 29.87700
C  -5.25000 33.10400 30.66600
O  -5.65400 34.21600 30.44100
O  -5.58800 32.22300 31.65000
C  -6.79800 32.70100 32.40000
H  0.08000 37.93000 29.66600
H  0.39400 37.17300 23.31800
H  -3.55800 32.30000 23.52400
H  -3.12900 34.73800 31.60400
H  -0.62400 36.33800 31.63900
H  -3.27400 37.20200 32.12500
H  -2.65600 38.08800 30.68100
H  -1.77600 38.12400 32.12100
H  -0.35000 34.31000 32.34300
H  -0.70800 33.17700 31.15200
H  -1.82700 31.88200 32.65700
H  -2.94300 33.21000 33.12600
H  2.34200 39.81000 28.14900
H  0.87100 39.56800 29.11200
H  0.80400 40.64700 27.76500
H  1.95400 41.31800 25.59900
H  3.19500 40.54900 24.51000
H  2.77700 39.72000 26.07600
H  0.26300 34.98700 22.21300
H  -2.53000 33.79200 21.82000
H  -0.38100 36.10800 20.40400
H  -1.25800 37.09000 21.54900
H  -2.18000 35.78500 20.63400
H  -0.06700 32.67300 21.50900
H  -1.55900 31.80900 22.04700
H  0.49800 32.88200 24.09800
H  1.05300 31.67600 22.92700
H  -0.26800 31.22000 23.96100
H  -4.87800 29.80200 26.00000
H  -4.59500 30.64400 24.36700
H  -6.09800 30.85200 25.33700
H  -3.59600 31.72000 30.52000
H  -7.53000 33.34200 31.91000
H  -6.43700 33.25100 33.26900
H  -7.43500 31.90100 32.77700

