158

Mg -2.32100 17.14200 25.75200
C  -2.39500 14.74800 28.43900
C  -3.24400 19.48100 28.05900
C  -2.33700 19.31000 23.29900
C  -2.18100 14.47300 23.56200
N  -2.84000 17.02300 27.98200
C  -2.72800 16.00900 28.86600
C  -3.24100 16.42300 30.27900
C  -3.77800 17.82100 30.00900
C  -3.33700 18.17200 28.54200
C  -5.33300 17.95600 30.07000
C  -2.13200 16.50800 31.39300
C  -2.20100 15.58600 32.63100
H  -2.74400 16.20800 33.91000
N  -2.61600 19.09100 25.71500
C  -2.86800 19.88900 26.78900
C  -2.88300 21.24500 26.36200
C  -2.53700 21.27800 25.01800
C  -2.52200 19.89800 24.61800
C  -3.20000 22.41800 27.23100
C  -2.24900 22.47100 24.18000
O  -2.02500 22.33600 23.00500
C  -2.03500 23.89100 24.80100
N  -2.59300 16.84100 23.68700
C  -2.41100 17.95000 22.93400
C  -2.26900 17.56600 21.47500
C  -2.05100 16.01700 21.52100
C  -2.27400 15.78100 23.00300
C  -3.51900 17.92900 20.70000
C  -0.69900 15.54900 20.81900
C  0.47100 15.90600 21.74700
N  -2.29000 15.06700 25.90400
C  -2.25000 14.09800 24.93700
C  -2.04200 12.77000 25.46000
C  -2.09500 12.95800 26.84600
C  -2.19000 14.36800 27.07700
C  -1.95400 11.52800 24.69800
C  -2.02600 12.28400 28.14700
O  -1.87000 11.13300 28.40400
C  -2.15400 13.44100 29.28000
C  -0.94300 13.40100 30.07900
O  0.00600 14.10700 29.89900
O  -1.13700 12.58300 31.24700
C  0.10400 12.37700 32.08300
H  -3.47600 20.24700 28.80200
H  -2.16300 19.97000 22.44600
H  -2.00800 13.69300 22.81700
H  -4.06200 15.77400 30.58400
H  -3.47200 18.57800 30.73200
H  -5.63100 17.49900 31.01300
H  -5.76800 17.60600 29.13400
H  -5.59100 18.98400 30.32700
H  -2.13800 17.50100 31.84300
H  -1.13800 16.37500 30.96600
H  -1.25500 15.07100 32.79900
H  -2.87400 14.76400 32.38600
H  -2.45600 23.21100 27.30000
H  -3.50500 22.15500 28.24400
H  -4.12200 22.75800 26.76000
H  -1.70200 24.62500 24.06700
H  -1.29100 23.89100 25.59700
H  -2.98400 24.32000 25.12200
H  -1.42000 18.14700 21.11400
H  -2.84900 15.50600 20.98300
H  -3.21100 18.69400 19.98800
H  -4.26400 18.49300 21.26100
H  -3.97900 17.06200 20.22500
H  -0.58100 16.00400 19.83600
H  -0.80600 14.47500 20.67200
H  0.61600 15.08300 22.44700
H  0.38100 16.95600 22.02700
H  1.29000 15.77200 21.04200
H  -1.14800 11.53100 23.96400
H  -2.93900 11.22900 24.33900
H  -1.68700 10.71400 25.37200
H  -2.87900 13.17600 30.04900
H  -0.05100 12.89200 33.03100
H  1.03800 12.80100 31.71300
H  0.30700 11.33700 32.33900
Mg -1.96300 33.63600 27.20900
C  -3.43100 31.86900 29.91800
C  -0.50400 35.63100 29.50700
C  -1.02700 35.56100 24.65900
C  -3.86100 31.68800 25.08900
N  -2.20000 33.83800 29.48800
C  -2.57800 32.82800 30.35400
C  -2.12300 33.06700 31.81200
C  -1.12700 34.33000 31.58900
C  -1.28500 34.62600 30.10200
C  -1.32100 35.55700 32.45400
C  -1.46400 31.77600 32.44200
C  -2.11000 31.21900 33.82000
H  -1.19500 31.06800 34.99900
N  -0.94500 35.41100 27.13500
C  -0.37000 35.99200 28.18400
C  0.56000 36.97100 27.62900
C  0.37600 37.04700 26.22500
C  -0.60500 36.03900 25.97500
C  1.47000 37.81400 28.53000
C  1.13200 37.92300 25.15900
O  0.87800 37.82000 23.92300
C  2.15300 38.88800 25.57700
N  -2.43200 33.62500 25.18100
C  -1.91200 34.57700 24.29500
C  -2.27600 34.17300 22.79800
C  -2.89000 32.74700 22.97400
C  -3.04000 32.63500 24.49000
C  -3.17100 35.16900 22.06700
C  -2.12000 31.55400 22.30000
C  -0.97400 31.01800 23.24000
N  -3.30800 32.02700 27.33100
C  -4.06500 31.42300 26.43800
C  -4.88400 30.38500 27.06200
C  -4.62700 30.44600 28.41800
C  -3.68500 31.49400 28.58700
C  -5.84100 29.58500 26.34000
C  -4.97400 29.91500 29.68800
O  -5.65900 28.98400 29.98000
C  -4.21600 30.83200 30.69000
C  -5.18000 31.43300 31.69500
O  -5.97700 32.36900 31.53200
O  -5.04500 30.78500 32.92600
C  -5.96600 31.17700 33.98300
H  0.18800 36.15700 30.16800
H  -0.62300 36.08700 23.79100
H  -4.46700 31.10200 24.39500
H  -2.95000 33.46400 32.40000
H  -0.11300 33.97600 31.77900
H  -1.83500 36.33800 31.89300
H  -0.33100 35.89900 32.75600
H  -1.86600 35.38200 33.38100
H  -0.41300 31.92900 32.69000
H  -1.55100 30.92000 31.77300
H  -2.44000 30.23000 33.50100
H  -3.04100 31.70700 34.10700
H  1.03800 38.81100 28.62100
H  2.44600 37.81000 28.04400
H  1.75100 37.46900 29.52500
H  2.42800 39.52400 24.73600
H  3.14400 38.47900 25.77200
H  1.79600 39.56900 26.35100
H  -1.37700 34.00200 22.20600
H  -3.89800 32.83600 22.57100
H  -3.05600 36.21000 22.37200
H  -4.23200 34.96000 22.20500
H  -2.83200 35.19900 21.03200
H  -1.68400 31.80500 21.33300
H  -2.85700 30.75900 22.19200
H  -1.33200 30.10300 23.71200
H  -0.66900 31.75900 23.97900
H  -0.11700 30.73200 22.63000
H  -5.29700 28.64800 26.21700
H  -6.13600 29.92300 25.34700
H  -6.72000 29.47000 26.97400
H  -3.55200 30.21500 31.29500
H  -6.72600 31.82700 33.55100
H  -5.43400 31.75200 34.74100
H  -6.32400 30.36000 34.61000

