158

Mg 24.91000 -5.83700 46.73800
C  27.08500 -3.61200 45.13400
C  22.37000 -4.51600 44.79700
C  23.05000 -8.48600 47.51200
C  27.65900 -7.27000 48.30800
N  24.74700 -4.22200 45.42200
C  25.74300 -3.49700 44.88900
C  25.23000 -2.42300 43.84000
C  23.63900 -2.50100 44.05900
C  23.57400 -3.80000 44.83000
C  23.02600 -1.35000 44.81300
C  25.74200 -2.59200 42.31800
C  26.41000 -1.40500 41.69800
H  25.99900 -0.92800 40.29800
N  22.87800 -6.39900 46.25400
C  22.05200 -5.69500 45.45100
C  20.78600 -6.39700 45.42300
C  20.90100 -7.64700 46.20800
C  22.31200 -7.56400 46.65400
C  19.59700 -5.97900 44.60000
C  19.80600 -8.64700 46.49300
O  18.67700 -8.48500 46.02600
C  20.06600 -9.84500 47.27300
N  25.30600 -7.72500 47.70100
C  24.32200 -8.58500 47.99700
C  24.88100 -9.74400 48.82300
C  26.27600 -9.31900 49.31100
C  26.46300 -8.05800 48.37400
C  23.85200 -10.11200 50.01600
C  27.36500 -10.38700 49.14000
C  27.87300 -10.66400 47.74000
N  27.04800 -5.51200 46.78900
C  28.02100 -6.18100 47.51900
C  29.33600 -5.54100 47.23000
C  29.01800 -4.48400 46.35000
C  27.63800 -4.60100 46.03900
C  30.63400 -6.06600 47.74400
C  29.52600 -3.42600 45.52500
O  30.68600 -3.04300 45.27000
C  28.29000 -2.75700 44.71700
C  28.24700 -1.29500 45.09600
O  27.88300 -0.84200 46.17900
O  28.71000 -0.58000 44.03700
C  28.93800 0.87700 44.25900
H  21.60300 -4.16400 44.10400
H  22.39400 -9.32100 47.76500
H  28.47000 -7.73400 48.87400
H  25.63700 -1.48400 44.21300
H  23.05200 -2.66300 43.15500
H  23.66200 -0.85000 45.54400
H  22.13900 -1.76200 45.29300
H  22.76400 -0.63600 44.03200
H  24.91500 -2.80200 41.64000
H  26.34200 -3.48600 42.14800
H  27.49100 -1.54400 41.66800
H  26.28000 -0.54800 42.35900
H  19.39300 -6.79000 43.90100
H  19.78400 -5.07600 44.01800
H  18.70000 -5.87800 45.21100
H  19.15200 -10.43700 47.32000
H  20.28500 -9.38400 48.23600
H  20.91100 -10.47200 46.98800
H  24.94300 -10.55700 48.10000
H  26.29200 -8.94700 50.33500
H  23.14600 -9.29600 50.16800
H  24.40100 -10.23600 50.94900
H  23.20900 -10.96400 49.79400
H  26.95400 -11.33300 49.49300
H  28.16500 -10.11800 49.82900
H  28.74300 -10.02000 47.60700
H  27.14400 -10.37100 46.98500
H  28.08500 -11.73000 47.66300
H  30.87300 -6.99700 47.22900
H  30.54700 -6.25400 48.81400
H  31.41500 -5.34400 47.50700
H  28.46800 -2.76800 43.64100
H  29.00300 1.04200 45.33500
H  28.02200 1.27700 43.82400
H  29.80900 1.26600 43.73200
Mg 45.18200 4.11100 46.29400
C  43.43000 7.12200 46.28500
C  42.06100 2.50400 45.80200
C  46.69100 1.23600 45.48900
C  48.18000 5.90600 46.06900
N  42.99500 4.74800 45.95700
C  42.56000 6.06600 45.94500
C  41.03900 6.09400 45.81800
C  40.60600 4.60400 46.08900
C  41.92300 3.87600 45.97500
C  40.00000 4.35500 47.51300
C  40.50500 6.48100 44.48300
C  39.76800 7.81400 44.28900
H  40.29000 8.77000 43.22800
N  44.52000 2.15900 45.83700
C  43.19500 1.72100 45.66200
C  43.08000 0.24400 45.38100
C  44.44100 -0.15900 45.38100
C  45.33500 1.06700 45.56200
C  41.81600 -0.55200 45.07300
C  44.96200 -1.48600 45.04000
O  44.22100 -2.40500 44.68000
C  46.40600 -1.85500 44.91700
N  47.12600 3.69400 45.84500
C  47.51000 2.41100 45.65100
C  49.09400 2.29700 45.47200
C  49.55700 3.78900 45.57900
C  48.18300 4.53600 45.79800
C  49.84100 1.36800 46.51000
C  50.36700 4.41200 44.38200
C  51.61600 5.19300 44.75900
N  45.73000 6.12500 46.27100
C  46.98900 6.70700 46.22300
C  46.83600 8.14700 46.36900
C  45.44300 8.36900 46.43400
C  44.81400 7.10800 46.37500
C  47.87600 9.21800 46.41900
C  44.42100 9.40000 46.50400
O  44.47000 10.63100 46.59600
C  43.09500 8.59900 46.38500
C  42.35400 8.85700 47.63800
O  42.27400 8.07800 48.56200
O  41.62500 9.98800 47.45800
C  40.57000 10.31100 48.40700
H  41.11700 1.95600 45.75800
H  47.38400 0.43900 45.20900
H  49.19900 6.29600 46.01100
H  40.60600 6.73700 46.58400
H  39.83900 4.30700 45.37500
H  40.31200 5.17200 48.16300
H  40.30200 3.40600 47.95700
H  38.91300 4.27700 47.49000
H  39.89600 5.76900 43.92600
H  41.39400 6.73700 43.90800
H  39.81000 8.40400 45.20400
H  38.71200 7.57600 44.15900
H  40.95600 0.09500 45.25000
H  41.78200 -1.39200 45.76700
H  41.88300 -0.86800 44.03200
H  46.56500 -1.33600 43.97200
H  46.50800 -2.94000 44.94000
H  47.04700 -1.50300 45.72500
H  49.27800 1.96800 44.44900
H  50.10100 4.03100 46.49200
H  50.36600 0.61600 45.92200
H  49.10400 0.96600 47.20500
H  50.58400 2.00300 46.99300
H  49.65800 5.07300 43.88400
H  50.58500 3.67600 43.60900
H  51.87900 5.26600 45.81500
H  51.37400 6.11200 44.22500
H  52.52600 4.79300 44.31200
H  47.62400 10.21200 46.78800
H  48.38700 9.28100 45.45800
H  48.64000 8.86400 47.11100
H  42.52200 9.00400 45.55100
H  40.60200 9.92000 49.42400
H  39.73300 9.82800 47.90200
H  40.31500 11.35700 48.57100

