158

Mg 26.36100 49.73400 27.16800
C  24.37500 50.85500 29.90100
C  28.96900 49.32600 29.43200
C  28.37900 49.25000 24.61300
C  23.84600 50.86500 25.00000
N  26.65400 50.24200 29.41000
C  25.65700 50.50200 30.31100
C  26.16400 50.37900 31.78400
C  27.65900 50.04000 31.56000
C  27.78600 49.85200 30.03500
C  28.71300 51.03100 32.25900
C  25.28500 49.31200 32.55000
C  24.56500 49.79500 33.89500
H  25.54900 50.31500 34.95600
N  28.36400 49.27500 27.01200
C  29.21800 49.07400 28.06000
C  30.45300 48.61400 27.59000
C  30.36100 48.69100 26.17000
C  28.97600 49.12100 25.83900
C  31.64700 48.21000 28.50300
C  31.46400 48.48700 25.16700
O  31.27400 48.59500 23.94700
C  32.87100 48.25200 25.51100
N  26.11300 50.01600 25.14800
C  27.09200 49.65000 24.29900
C  26.66100 49.67300 22.84700
C  25.16800 50.10100 22.98000
C  25.00500 50.24700 24.48900
C  27.49400 50.30800 21.65300
C  24.15600 49.07500 22.28800
C  23.09200 49.73500 21.37600
N  24.48600 50.78100 27.39700
C  23.62400 51.16000 26.40400
C  22.47800 51.75900 27.01000
C  22.67500 51.68000 28.37500
C  23.95100 51.06900 28.54300
C  21.31900 52.38300 26.28600
C  22.11300 52.00900 29.72000
O  21.09200 52.59600 30.00100
C  23.21800 51.49400 30.72600
C  23.59900 52.72400 31.53300
O  24.71700 53.24900 31.61800
O  22.64200 53.00800 32.50200
C  23.05000 53.93300 33.60300
H  29.77300 49.13000 30.14300
H  28.99600 49.02000 23.74200
H  23.06800 51.15200 24.29000
H  26.12100 51.30600 32.35500
H  27.86300 49.05200 31.97400
H  28.32200 51.96500 32.66400
H  29.49300 51.11000 31.50200
H  29.02800 50.45800 33.13000
H  25.98700 48.53600 32.85500
H  24.63300 48.74200 31.88800
H  24.00200 48.94900 34.29000
H  23.92900 50.67000 33.76200
H  31.34800 47.66800 29.40100
H  32.29600 49.04200 28.77500
H  32.32200 47.54100 27.96900
H  33.17400 48.94300 26.29800
H  33.42600 48.38400 24.58300
H  32.88300 47.21200 25.83900
H  26.56400 48.62300 22.57200
H  25.12100 51.13400 22.63500
H  28.44800 50.52600 22.13400
H  26.98100 51.18900 21.26500
H  27.58600 49.50200 20.92500
H  23.63100 48.45600 23.01600
H  24.71300 48.38100 21.65900
H  22.07700 49.40900 21.60600
H  23.30200 49.35900 20.37500
H  23.14500 50.81700 21.49900
H  20.42400 52.27500 26.89900
H  21.07900 52.17600 25.24300
H  21.59100 53.43700 26.23700
H  22.61200 50.84200 31.35500
H  23.26900 54.93400 33.23100
H  24.05300 53.76700 33.99700
H  22.34800 53.97000 34.43600
Mg -12.19100 17.01400 42.36000
C  -9.17300 15.40500 42.21900
C  -10.93000 19.74500 40.73300
C  -15.37900 18.18200 41.93400
C  -13.65300 13.80000 43.04600
N  -10.27400 17.45400 41.40500
C  -9.17300 16.69100 41.65000
C  -7.93800 17.29700 40.88400
C  -8.50100 18.77500 40.53800
C  -9.99300 18.67100 40.93800
C  -7.81800 20.02000 41.31700
C  -7.55400 16.41400 39.67100
C  -6.08500 15.99800 39.63400
H  -5.31800 16.38300 38.38600
N  -13.04500 18.75600 41.51100
C  -12.33900 19.80300 40.97900
C  -13.22200 20.86800 40.68800
C  -14.50800 20.50900 41.21000
C  -14.35800 19.10400 41.60200
C  -12.81400 22.19600 39.95800
C  -15.78000 21.35500 41.26600
O  -15.76500 22.35700 40.58800
C  -17.05400 20.99100 41.97600
N  -14.26500 16.13500 42.38400
C  -15.42000 16.89500 42.32100
C  -16.68700 16.11200 42.71300
C  -16.07800 14.65500 43.06000
C  -14.57800 14.87000 42.76800
C  -17.63800 16.77900 43.67800
C  -16.80100 13.45100 42.39600
C  -16.81400 12.19100 43.22000
N  -11.54400 15.04200 42.72300
C  -12.20600 13.86500 42.97800
C  -11.26400 12.76800 43.14900
C  -10.07100 13.34000 42.96100
C  -10.28700 14.70500 42.71000
C  -11.67700 11.39600 43.35300
C  -8.68000 13.09700 42.88300
O  -8.04400 12.08700 43.08600
C  -7.99900 14.41800 42.53100
C  -7.10200 15.01900 43.53400
O  -7.57900 15.77100 44.38300
O  -5.78300 14.65300 43.32100
C  -4.81800 15.33900 44.19900
H  -10.45100 20.64800 40.34900
H  -16.38400 18.59600 42.03600
H  -14.05800 12.79600 43.18900
H  -7.11900 17.41500 41.59200
H  -8.34100 18.87100 39.46400
H  -6.92700 19.74300 41.88100
H  -8.48300 20.51200 42.02600
H  -7.43500 20.76500 40.61900
H  -7.69800 16.93500 38.72500
H  -8.15400 15.51100 39.55800
H  -5.91900 14.92400 39.71900
H  -5.48800 16.43100 40.43700
H  -12.93800 23.11800 40.52700
H  -13.50300 22.25400 39.11500
H  -11.76900 22.10300 39.66200
H  -16.84200 20.69500 43.00400
H  -17.58900 20.17900 41.48200
H  -17.64500 21.90700 41.99800
H  -17.26900 15.87400 41.82200
H  -16.10000 14.71800 44.14800
H  -17.14100 17.49100 44.33800
H  -18.05100 16.14000 44.45900
H  -18.45000 17.31900 43.19200
H  -16.31300 13.27900 41.43700
H  -17.83500 13.58400 42.07600
H  -16.27800 11.39200 42.70700
H  -17.83700 11.83300 43.33400
H  -16.29100 12.32000 44.16800
H  -12.56200 11.34500 43.98700
H  -10.84300 10.78400 43.69500
H  -11.97300 10.99100 42.38500
H  -7.32500 14.27700 41.68600
H  -5.24300 15.54000 45.18200
H  -4.53500 16.34400 43.88600
H  -3.96200 14.71300 44.45100

