158

Mg 26.72500 50.28500 25.92100
C  24.73800 51.33800 28.68000
C  29.09100 49.50500 28.18200
C  28.53400 49.44000 23.29600
C  24.41500 51.71900 23.82200
N  26.91500 50.56900 28.23600
C  25.96600 50.87400 29.15500
C  26.43800 50.50100 30.58200
C  27.88500 50.04900 30.33400
C  27.95100 50.03700 28.81900
C  29.05200 50.95000 30.90000
C  25.48600 49.51200 31.30800
C  24.81400 49.88600 32.58700
H  25.79200 50.41400 33.63800
N  28.51700 49.52900 25.78900
C  29.38500 49.36300 26.82100
C  30.61300 48.81700 26.31000
C  30.44500 48.56700 24.88600
C  29.12600 49.21500 24.58700
C  31.90400 48.60000 27.04700
C  31.30000 47.98400 23.83100
O  31.07900 47.89300 22.65300
C  32.54800 47.28700 24.25800
N  26.48800 50.49400 23.85700
C  27.32800 50.01500 22.91900
C  26.73700 50.10300 21.51900
C  25.39100 50.83400 21.71500
C  25.46700 51.03100 23.25200
C  27.66700 50.70500 20.42100
C  24.11200 50.13900 21.11500
C  23.45900 49.04000 21.90600
N  24.89400 51.26400 26.13700
C  24.05200 51.79200 25.20400
C  22.79300 52.26300 25.73900
C  23.00900 52.16200 27.19000
C  24.28200 51.49200 27.34300
C  21.67500 52.74600 24.92100
C  22.48000 52.42800 28.55400
O  21.44100 52.89300 28.88100
C  23.62300 51.97600 29.53700
C  24.10900 53.17100 30.33200
O  25.02100 53.91900 30.12600
O  23.38200 53.12100 31.54200
C  23.83200 54.05500 32.58800
H  29.95000 49.22400 28.79600
H  29.23600 49.23000 22.48600
H  23.70500 51.97600 23.03400
H  26.33300 51.39100 31.20200
H  27.96400 48.99700 30.60700
H  28.64600 51.56000 31.70700
H  29.43200 51.61700 30.12500
H  29.92500 50.43400 31.29900
H  25.94100 48.52400 31.37500
H  24.70800 49.35900 30.56000
H  24.35000 48.98000 32.97600
H  24.09700 50.69200 32.42500
H  31.88000 49.07700 28.02700
H  32.71800 49.03700 26.46900
H  31.94000 47.55200 27.34500
H  33.04200 46.93200 23.35300
H  32.13400 46.43300 24.79500
H  33.26000 47.81500 24.89300
H  26.38200 49.15000 21.12700
H  25.50900 51.80100 21.22600
H  28.38100 51.41800 20.83400
H  27.10700 51.11800 19.58300
H  28.19000 49.78200 20.17100
H  24.33000 49.79300 20.10500
H  23.42300 50.96700 20.94900
H  24.05200 48.64600 22.73100
H  23.21200 48.21500 21.23700
H  22.52000 49.39400 22.33100
H  20.78200 52.88800 25.53000
H  21.35500 52.17000 24.05300
H  22.09500 53.66900 24.52100
H  23.10400 51.34700 30.26200
H  23.94100 55.02500 32.10500
H  24.76600 53.72400 33.04200
H  23.10900 54.06600 33.40400
Mg 1.10700 43.60400 25.17700
C  2.85000 43.34600 28.26600
C  -1.58900 42.31700 26.71000
C  -0.14500 43.38600 22.17500
C  4.42700 44.21700 23.65000
N  0.65800 43.00800 27.28600
C  1.45000 43.16900 28.34500
C  0.62400 42.94600 29.62000
C  -0.80000 42.42400 29.11400
C  -0.62000 42.59500 27.64300
C  -1.40200 41.09100 29.58700
C  0.57200 44.16800 30.53700
C  0.90800 43.98400 32.02600
H  0.51300 42.61400 32.68100
N  -0.70600 43.05100 24.56600
C  -1.67100 42.39600 25.31200
C  -2.74200 42.05300 24.48600
C  -2.41400 42.42800 23.18800
C  -1.06500 43.05100 23.24300
C  -3.96600 41.22300 25.05200
C  -3.14700 42.06700 21.88900
O  -2.69900 42.26100 20.76100
C  -4.43300 41.43800 21.95400
N  2.00700 43.83900 23.28500
C  1.19900 43.59500 22.14700
C  1.97000 43.65000 20.86600
C  3.19500 44.43800 21.36300
C  3.27300 44.11500 22.85700
C  2.20700 42.19800 20.42600
C  3.03100 45.95400 21.19200
C  4.19800 46.72200 20.58700
N  3.26600 43.85500 25.77200
C  4.44000 44.08500 25.04400
C  5.53100 44.15400 25.98600
C  4.97300 43.70400 27.20000
C  3.59500 43.70500 27.04300
C  6.96900 44.29500 25.68100
C  5.27400 43.47300 28.56800
O  6.37300 43.49500 29.06400
C  3.97700 43.29900 29.31100
C  4.03100 42.07700 30.18200
O  4.01600 40.90300 29.80200
O  4.13700 42.40700 31.46400
C  4.14400 41.36300 32.50100
H  -2.39600 41.82400 27.25700
H  -0.59200 43.41100 21.17900
H  5.42800 44.43000 23.27000
H  1.13700 42.13500 30.13700
H  -1.61100 43.13400 29.27500
H  -0.79100 40.22900 29.31700
H  -2.44100 40.97600 29.28100
H  -1.55600 41.16500 30.66400
H  -0.46500 44.43100 30.74300
H  1.13600 45.03100 30.18200
H  0.60900 44.70500 32.78800
H  1.96000 44.26700 32.05800
H  -4.86400 41.83400 24.96000
H  -3.84700 40.91600 26.09100
H  -4.03600 40.30200 24.47300
H  -5.03100 41.71500 22.82200
H  -4.35800 40.35000 21.94700
H  -5.04000 41.57200 21.05900
H  1.34200 44.13900 20.12100
H  4.10100 44.05200 20.89600
H  2.70900 41.63600 21.21300
H  2.85400 42.14300 19.55000
H  1.29300 41.63900 20.22200
H  2.86000 46.38200 22.18000
H  2.09400 46.15000 20.67000
H  4.97800 45.98600 20.39300
H  4.48000 47.45400 21.34400
H  3.92800 47.17200 19.63100
H  7.56100 43.84500 26.47800
H  7.17300 45.36500 25.70100
H  7.12600 43.82000 24.71200
H  3.91800 44.12800 30.01700
H  3.36300 40.60800 32.40700
H  4.05200 41.98400 33.39200
H  5.12200 40.88200 32.52500

