158

Mg 23.69600 -7.14600 45.21600
C  26.05700 -4.78800 44.32200
C  21.52600 -5.77600 42.78000
C  21.53900 -9.79700 45.57000
C  26.29600 -9.14900 46.65200
N  23.81500 -5.43000 43.86200
C  24.91300 -4.71500 43.59000
C  24.69600 -3.78300 42.28400
C  23.18200 -3.86100 42.18200
C  22.75100 -5.11300 43.02600
C  22.40900 -2.46700 42.53400
C  25.54100 -4.23500 41.09900
C  26.08600 -3.12900 40.14700
H  25.77100 -3.34800 38.70800
N  21.61900 -7.61100 44.46100
C  20.99500 -6.91900 43.47300
C  19.69900 -7.60500 43.21600
C  19.67900 -8.67900 44.13900
C  20.97900 -8.74800 44.78100
C  18.58900 -7.22900 42.16600
C  18.38200 -9.56500 44.39000
O  17.30200 -9.24600 43.96900
C  18.42200 -10.80700 45.25900
N  23.83700 -9.05600 46.21700
C  22.80300 -9.94200 46.13800
C  23.21600 -11.28200 46.71700
C  24.74000 -11.11300 47.13400
C  24.98800 -9.65800 46.65900
C  22.18600 -11.93900 47.66800
C  25.66600 -12.17000 46.54000
C  26.76800 -12.74600 47.48300
N  25.71800 -6.98200 45.46400
C  26.59400 -7.88200 46.16100
C  27.84800 -7.18400 46.24300
C  27.74300 -5.92900 45.59200
C  26.47800 -5.89400 45.08400
C  29.08700 -7.81200 46.83100
C  28.39000 -4.69300 45.20000
O  29.48000 -4.18200 45.52500
C  27.37400 -3.99100 44.23700
C  27.17100 -2.52800 44.55800
O  26.21100 -1.99300 45.09400
O  28.22900 -1.76600 44.07200
C  28.18500 -0.27400 44.23500
H  20.88800 -5.50900 41.93400
H  20.93300 -10.70600 45.55400
H  27.06100 -9.78600 47.10200
H  24.97500 -2.77000 42.57500
H  22.92500 -4.14600 41.16200
H  22.29100 -1.99300 41.56000
H  23.02400 -1.85900 43.19700
H  21.40900 -2.68100 42.91000
H  24.87000 -4.86900 40.52000
H  26.35100 -4.85900 41.47600
H  27.17600 -3.15700 40.12500
H  25.78100 -2.11300 40.40000
H  18.17400 -8.17900 41.82900
H  18.99300 -6.72600 41.28800
H  17.75300 -6.65000 42.55900
H  18.58300 -10.57000 46.31100
H  19.18700 -11.44000 44.80900
H  17.51300 -11.40700 45.22000
H  23.18100 -11.81700 45.76900
H  24.84800 -11.04600 48.21600
H  21.47400 -12.57200 47.13900
H  21.88700 -11.14700 48.35500
H  22.65300 -12.73900 48.24200
H  26.07900 -11.68500 45.65600
H  25.16300 -13.05500 46.14900
H  26.85000 -12.07200 48.33600
H  27.73000 -12.68700 46.97500
H  26.52500 -13.73600 47.86800
H  28.94800 -8.21400 47.83500
H  29.86800 -7.05300 46.87100
H  29.30900 -8.59600 46.10700
H  27.65700 -4.00900 43.18500
H  28.68700 -0.13800 45.19300
H  27.17400 0.13100 44.18000
H  28.84300 0.11900 43.46000
Mg 35.93600 0.42800 29.49100
C  33.59100 1.55200 31.91400
C  38.27100 0.20600 32.10000
C  38.30000 -0.04700 27.13700
C  33.58200 1.18800 27.00200
N  35.86800 0.89400 31.72000
C  34.83100 1.30600 32.48600
C  35.28200 1.39600 33.94600
C  36.78100 1.00800 34.00400
C  36.99700 0.64900 32.55100
C  37.89500 1.93800 34.55400
C  34.33900 0.60300 34.92100
C  33.57000 1.36600 36.00600
H  34.31800 2.57200 36.58300
N  37.94900 -0.01100 29.60600
C  38.75800 -0.03100 30.76300
C  40.07800 -0.25200 30.37700
C  40.12200 -0.41200 28.92400
C  38.77800 -0.11300 28.51300
C  41.22800 -0.30000 31.36100
C  41.25000 -0.80200 28.04800
O  41.04400 -1.07400 26.83700
C  42.69400 -0.96900 28.61400
N  35.95900 0.53300 27.40400
C  37.03900 0.24700 26.65800
C  36.77700 0.33900 25.16800
C  35.24800 0.54500 25.12600
C  34.90500 0.80300 26.58600
C  37.39200 1.53300 24.42600
C  34.33300 -0.43400 24.26200
C  33.63400 -1.60200 25.00600
N  33.92400 1.00400 29.44300
C  33.15500 1.29900 28.35700
C  31.88600 1.65600 28.88000
C  31.96500 1.80400 30.22300
C  33.24900 1.44600 30.53200
C  30.60700 1.91700 27.99600
C  31.30100 2.12200 31.48200
O  30.08500 2.31900 31.61600
C  32.33800 1.99600 32.71700
C  32.53200 3.31900 33.38800
O  33.48400 4.01400 33.14100
O  31.43100 3.70400 34.05300
C  31.52000 5.12000 34.59000
H  38.89900 0.09400 32.98600
H  38.99500 -0.10100 26.29600
H  32.86500 1.20200 26.17800
H  35.16700 2.44000 34.23900
H  36.80500 0.11800 34.63300
H  38.59200 1.25300 35.03500
H  37.71200 2.58300 35.41300
H  38.39200 2.37900 33.69000
H  34.80200 -0.26300 35.39400
H  33.57700 0.14600 34.29000
H  33.55900 0.69500 36.86600
H  32.51900 1.59800 35.83400
H  40.79600 -0.57400 32.32400
H  41.90200 0.55600 31.40600
H  41.89000 -1.14500 31.17300
H  42.74600 -1.88600 29.20100
H  42.98200 0.00400 29.01200
H  43.37300 -1.03100 27.76400
H  37.11000 -0.52400 24.59100
H  34.93700 1.47600 24.65100
H  38.25400 1.19600 23.85100
H  37.74600 2.25200 25.16600
H  36.67100 1.95100 23.72300
H  34.86100 -0.72300 23.35300
H  33.46500 0.14500 23.94800
H  34.01300 -2.57300 24.68600
H  32.58700 -1.82900 24.80500
H  33.84100 -1.52400 26.07400
H  30.37000 0.99400 27.46600
H  30.92000 2.60700 27.21300
H  29.70000 2.07900 28.57800
H  31.89800 1.23500 33.36100
H  32.43700 5.35600 35.13000
H  30.76200 5.16900 35.37100
H  31.47300 5.72800 33.68600

