158

Mg 54.23300 24.12300 45.06000
C  51.45000 26.15400 44.03700
C  52.21000 21.32600 43.98400
C  56.91900 22.34100 44.98600
C  55.80700 27.04900 45.87700
N  52.13700 23.79000 44.13700
C  51.19600 24.79700 43.87400
C  49.85100 24.21900 43.37100
C  50.00100 22.71900 43.84000
C  51.54000 22.55800 44.00300
C  49.28400 22.40200 45.15400
C  49.73500 24.24300 41.76100
C  51.03300 24.41600 40.94300
H  51.96300 23.25900 40.87800
N  54.54300 22.07100 44.55000
C  53.66700 21.06300 44.22400
C  54.40100 19.82700 44.05900
C  55.74700 20.17000 44.25000
C  55.81200 21.54800 44.61200
C  53.72000 18.42000 43.88400
C  57.02700 19.15100 44.03000
O  56.79300 17.95200 43.68400
C  58.47900 19.46700 44.35800
N  56.17300 24.68200 45.16100
C  57.11900 23.70300 45.22900
C  58.35200 24.20500 45.93800
C  58.05100 25.75000 45.98400
C  56.60600 25.86900 45.63900
C  58.58600 23.60000 47.34300
C  59.04100 26.63200 45.08400
C  58.62900 26.79100 43.62500
N  53.72400 26.23000 45.13500
C  54.48800 27.26700 45.60400
C  53.65000 28.50600 45.60100
C  52.49600 28.07000 44.97600
C  52.61800 26.68600 44.66700
C  54.05700 29.94300 46.06300
C  51.23100 28.53800 44.58100
O  50.66400 29.66800 44.74200
C  50.50600 27.35500 43.91300
C  50.03900 27.76000 42.60000
O  50.74200 28.15200 41.69200
O  48.62400 27.83400 42.57400
C  48.13800 28.24600 41.22900
H  51.71500 20.40700 43.66400
H  57.91700 21.90100 45.03400
H  56.53400 27.82000 46.13900
H  49.02300 24.80600 43.76700
H  49.67000 22.00500 43.08600
H  49.91700 21.84800 45.84800
H  48.34600 21.87900 44.96700
H  49.03000 23.32800 45.67100
H  49.10200 25.07300 41.44300
H  49.34000 23.27500 41.45200
H  51.56900 25.31500 41.24700
H  50.59700 24.67200 39.97700
H  53.58000 18.30500 42.81000
H  52.67000 18.41400 44.17800
H  54.27900 17.56300 44.26000
H  59.07400 18.58200 44.13600
H  58.47500 19.69500 45.42400
H  58.84500 20.17800 43.61700
H  59.16800 24.06500 45.22900
H  58.15700 26.15800 46.98900
H  57.89600 22.78200 47.55100
H  58.58300 24.28300 48.19300
H  59.61500 23.24200 47.37900
H  59.99100 26.10100 45.03000
H  59.22600 27.64200 45.45100
H  59.39600 26.37200 42.97300
H  58.63900 27.85800 43.40600
H  57.63000 26.44200 43.36600
H  54.15800 30.57800 45.18300
H  55.03700 29.92800 46.54100
H  53.33900 30.27800 46.81200
H  49.71700 27.07400 44.61000
H  48.62800 27.75000 40.39200
H  48.18800 29.33200 41.14400
H  47.11400 27.87100 41.24000
Mg 10.11900 47.78200 25.95800
C  7.87600 47.72800 28.58900
C  12.42800 49.19600 28.15100
C  12.56500 47.95300 23.48600
C  7.74800 47.03000 23.72600
N  10.07300 48.65500 28.13100
C  9.11600 48.21700 29.00200
C  9.67200 48.65200 30.41800
C  10.77200 49.72500 30.18300
C  11.13100 49.23900 28.72600
C  10.34200 51.20400 30.25300
C  10.22600 47.37700 31.22100
C  9.77100 47.34300 32.68900
H  10.03300 46.07400 33.58300
N  12.17700 48.36800 25.90700
C  12.95300 48.79800 26.91300
C  14.34500 48.76200 26.58200
C  14.46000 48.35600 25.19500
C  13.06400 48.14900 24.78500
C  15.51100 49.09100 27.50800
C  15.61600 48.18100 24.25000
O  15.54800 47.97000 23.02800
C  16.99700 48.29000 24.70300
N  10.12900 47.61200 23.88500
C  11.22500 47.67600 23.06700
C  10.89000 47.52200 21.63100
C  9.38100 47.18500 21.71900
C  9.04900 47.18600 23.19000
C  11.23300 48.88000 20.80000
C  9.02400 45.86300 21.05600
C  8.76900 44.55400 21.93100
N  8.13300 47.43300 26.07600
C  7.27000 47.07100 25.04200
C  5.92600 46.91400 25.66600
C  6.13100 47.08900 27.05100
C  7.48400 47.42300 27.19600
C  4.63300 46.60300 24.88800
C  5.49900 47.09200 28.37100
O  4.37300 46.73100 28.71800
C  6.56200 47.58700 29.37800
C  6.74600 46.59400 30.51400
O  7.36900 45.54600 30.44700
O  6.00000 47.03800 31.48300
C  6.00300 46.30600 32.82000
H  13.20500 49.64700 28.77300
H  13.28900 48.00800 22.67000
H  6.91400 46.87300 23.03900
H  8.89100 49.15600 30.98700
H  11.57000 49.59100 30.91300
H  9.29000 51.33100 30.51000
H  10.49000 51.66300 29.27500
H  10.98000 51.73500 30.95900
H  11.31100 47.48200 31.23400
H  9.96700 46.51300 30.61000
H  8.68300 47.40200 32.68200
H  10.09500 48.23800 33.22100
H  15.31500 49.46200 28.51400
H  16.02900 49.97800 27.14300
H  16.25100 48.29900 27.62600
H  17.44800 47.33200 24.96000
H  17.14900 49.09300 25.42500
H  17.62400 48.53700 23.84600
H  11.49700 46.71900 21.21300
H  8.84700 48.01100 21.24900
H  10.98300 49.85500 21.22000
H  10.78100 48.81600 19.81000
H  12.28200 49.05800 20.56700
H  9.70800 45.68300 20.22700
H  8.04400 46.00000 20.59900
H  9.54800 43.83700 21.67200
H  7.75200 44.16500 21.86800
H  8.93200 44.63800 23.00600
H  4.29800 47.50300 24.37100
H  3.87000 46.34300 25.62100
H  4.87200 45.76600 24.23200
H  6.15700 48.50400 29.80600
H  5.35600 45.43300 32.74100
H  5.53300 46.94100 33.57100
H  6.90600 45.86400 33.24300

