158

Mg 26.13200 -0.31000 29.15800
C  28.01900 -0.48600 32.19200
C  23.33900 0.34400 31.27200
C  24.26100 -0.18400 26.42300
C  28.93600 -0.94100 27.38000
N  25.73400 -0.18200 31.55700
C  26.71400 -0.08500 32.46300
C  26.16200 0.37800 33.80900
C  24.55800 0.48600 33.52900
C  24.47800 0.18100 32.02500
C  23.69300 -0.59600 34.30100
C  26.70400 1.69000 34.46800
C  26.03000 2.10700 35.79700
H  27.00800 2.24600 37.00100
N  24.03800 -0.12100 28.88600
C  23.11000 0.14200 29.88400
C  21.78600 0.15600 29.16400
C  22.00400 0.04600 27.76500
C  23.46100 -0.06900 27.60400
C  20.46700 0.28600 29.86400
C  21.02100 0.06600 26.67200
O  21.39800 0.00900 25.51100
C  19.47300 0.15500 26.85100
N  26.56000 -0.61500 27.17600
C  25.62400 -0.44000 26.21600
C  26.26500 -0.29500 24.84900
C  27.78700 -0.66800 25.12800
C  27.78800 -0.78800 26.63000
C  25.65100 -1.09800 23.70700
C  28.81300 0.34400 24.55300
C  30.06200 -0.35600 23.91900
N  28.04200 -0.75300 29.60300
C  29.12500 -1.00300 28.77800
C  30.30500 -1.25600 29.60400
C  29.90900 -1.14600 30.90800
C  28.51600 -0.81400 30.91000
C  31.63100 -1.50400 29.04000
C  30.41000 -1.10200 32.23800
O  31.56600 -1.42400 32.67300
C  29.18200 -0.65900 33.10100
C  28.95300 -1.76500 34.14600
O  28.11000 -2.64800 34.04100
O  29.65400 -1.46000 35.32900
C  29.71800 -2.44300 36.42000
H  22.46900 0.65200 31.85600
H  23.70500 -0.26000 25.48700
H  29.92000 -1.07800 26.92700
H  26.40000 -0.47800 34.43900
H  24.23700 1.50600 33.74000
H  23.77900 -0.58200 35.38800
H  23.95500 -1.61100 34.00300
H  22.63800 -0.39900 34.11100
H  26.38600 2.48700 33.79500
H  27.78600 1.71600 34.59900
H  25.25700 1.36800 36.01000
H  25.66300 3.08400 35.48100
H  19.94400 1.22700 29.69800
H  20.74600 0.26000 30.91700
H  19.79600 -0.53300 29.60400
H  18.98400 -0.53800 27.53500
H  19.02900 -0.06800 25.88100
H  19.28100 1.18200 27.16300
H  26.18100 0.75000 24.55200
H  27.95200 -1.70900 24.85000
H  24.87800 -1.70800 24.17500
H  26.25500 -1.81500 23.15100
H  25.20800 -0.38700 23.01000
H  29.24500 1.05800 25.25300
H  28.31500 0.90200 23.75900
H  30.99700 -0.05800 24.39400
H  30.07700 -0.29900 22.83100
H  29.93900 -1.41400 24.15100
H  32.22200 -0.61400 29.25800
H  31.58300 -1.60600 27.95600
H  32.06400 -2.34400 29.58300
H  29.44400 0.23600 33.66700
H  29.64300 -3.47500 36.07600
H  28.91600 -2.19500 37.11500
H  30.64200 -2.33600 36.98800
Mg 40.55000 41.49200 27.13200
C  39.98000 43.60600 29.75700
C  41.54500 39.13000 29.33800
C  41.49100 39.63200 24.53000
C  39.76600 44.02800 24.93500
N  40.59600 41.36300 29.27000
C  40.18800 42.33800 30.18300
C  40.11900 41.85500 31.63800
C  40.80200 40.37700 31.43900
C  41.00300 40.30500 29.90300
C  42.09900 40.16800 32.31800
C  38.61700 41.96500 32.14300
C  38.38600 41.17900 33.35600
H  37.62400 41.87500 34.50600
N  41.42400 39.64700 26.98600
C  41.79700 38.81000 28.02200
C  42.30600 37.58700 27.49200
C  42.29400 37.66400 26.08500
C  41.76300 39.03700 25.78500
C  42.73500 36.42300 28.34800
C  42.69500 36.68400 25.01500
O  42.56800 36.94600 23.82600
C  43.37200 35.49600 25.41000
N  40.57500 41.70600 25.01200
C  40.91900 40.77000 24.13000
C  40.75600 41.16900 22.66600
C  39.95200 42.58000 22.84600
C  40.10400 42.79700 24.35900
C  42.16800 41.46300 21.91200
C  38.42100 42.38600 22.41100
C  37.68200 41.19200 22.98400
N  40.02700 43.39600 27.24100
C  39.73100 44.36300 26.29200
C  39.46800 45.65900 26.91100
C  39.57100 45.36000 28.23400
C  39.96100 44.05100 28.40900
C  39.08500 46.89100 26.14700
C  39.49400 45.91500 29.54300
O  39.19500 47.02000 29.92100
C  39.73900 44.77800 30.61100
C  40.90600 45.16300 31.52000
O  41.89900 45.74900 31.13900
O  40.63400 44.75500 32.81300
C  41.72700 44.93600 33.75100
H  41.89500 38.44300 30.11200
H  41.67600 39.00000 23.65900
H  39.58800 44.77900 24.16400
H  40.77800 42.42600 32.29300
H  40.11900 39.55100 31.64100
H  42.84200 39.65700 31.70500
H  41.76400 39.48400 33.09700
H  42.61100 41.05400 32.69500
H  38.03700 41.48500 31.35500
H  38.25700 42.99200 32.19900
H  39.30100 40.76800 33.78200
H  37.76500 40.33100 33.06900
H  42.03700 35.60200 28.18600
H  42.81300 36.67700 29.40500
H  43.74200 36.23400 27.97500
H  42.70300 34.82900 25.95400
H  44.25600 35.71700 26.00700
H  43.83400 34.92400 24.60500
H  40.26900 40.39900 22.06800
H  40.36100 43.45700 22.34400
H  43.05900 41.11000 22.43100
H  42.31800 42.52400 21.70900
H  42.19900 41.10200 20.88400
H  38.47600 42.23200 21.33400
H  37.84700 43.30800 22.50800
H  38.25000 40.57500 23.68000
H  37.36400 40.54200 22.16900
H  36.77800 41.53800 23.48500
H  38.45500 46.73800 25.27000
H  39.99400 47.38700 25.80700
H  38.45300 47.46700 26.82400
H  38.86300 44.87400 31.25300
H  42.73900 45.11500 33.38800
H  41.71100 44.06000 34.39900
H  41.46400 45.77700 34.39200

