158

Mg 43.67300 42.44800 26.68200
C  42.58900 44.70400 29.09700
C  45.08600 40.41200 29.06000
C  44.91000 40.41000 24.21400
C  42.74900 44.70200 24.20000
N  43.71300 42.51000 28.78600
C  43.19800 43.55100 29.61600
C  43.34000 43.17800 31.10700
C  44.48100 42.05700 31.00600
C  44.48300 41.63400 29.52300
C  45.94600 42.56900 31.39100
C  42.01100 42.87500 31.78800
C  41.70100 43.67300 33.06300
H  42.49400 43.40700 34.30200
N  44.75300 40.53800 26.64400
C  45.28300 39.94800 27.75200
C  45.83300 38.63400 27.36100
C  45.69400 38.52400 25.89700
C  45.12800 39.85300 25.51500
C  46.27100 37.58400 28.34100
C  45.96800 37.34900 24.94900
O  45.80600 37.44000 23.70500
C  46.49800 36.00600 25.51100
N  44.01600 42.66700 24.56800
C  44.50900 41.65100 23.76100
C  44.32800 42.02900 22.23300
C  43.72000 43.40800 22.31400
C  43.41300 43.60000 23.80000
C  45.63400 41.86300 21.42400
C  42.60900 43.78500 21.25600
C  41.23400 43.11700 21.40300
N  42.75200 44.30800 26.57400
C  42.50500 45.17200 25.52100
C  41.96700 46.38400 25.96100
C  41.96800 46.29400 27.42400
C  42.45500 44.98800 27.73500
C  41.75000 47.61400 25.19200
C  41.66700 46.91100 28.71400
O  41.19000 48.03500 28.96400
C  42.14000 45.95400 29.84200
C  43.13600 46.60900 30.67600
O  44.33700 46.63400 30.33500
O  42.60700 47.16900 31.84100
C  43.49200 47.94000 32.69700
H  45.49600 39.75300 29.82800
H  45.32800 39.71200 23.48500
H  42.44200 45.36500 23.38900
H  43.73400 44.01800 31.67900
H  44.30200 41.23800 31.70300
H  46.05000 43.63000 31.61700
H  46.57100 42.41800 30.51100
H  46.49200 41.98200 32.12900
H  42.02800 41.82700 32.08700
H  41.21200 43.02800 31.06300
H  40.64700 43.58700 33.32700
H  41.86900 44.69700 32.72800
H  45.50400 36.82300 28.48600
H  46.65500 38.09300 29.22500
H  47.12800 37.11100 27.86200
H  45.93300 35.56000 26.33000
H  47.49000 36.20300 25.91800
H  46.60600 35.30900 24.68000
H  43.52200 41.48100 21.74600
H  44.52600 44.11400 22.11400
H  45.33100 41.74500 20.38300
H  46.23300 41.11000 21.93400
H  46.15500 42.82100 21.41600
H  43.07900 43.50800 20.31200
H  42.46900 44.86500 21.22100
H  40.93300 42.71200 20.43700
H  40.48300 43.83900 21.72300
H  41.27400 42.35800 22.18500
H  42.66800 48.15500 24.96200
H  41.08800 48.33300 25.67500
H  41.28100 47.16600 24.31600
H  41.20000 45.90500 30.39100
H  44.49000 48.00200 32.26300
H  43.44900 47.51200 33.69900
H  43.07200 48.93100 32.87000
Mg -11.72500 38.89500 42.17300
C  -10.26600 35.96600 40.98000
C  -9.33200 40.73600 40.49900
C  -13.52200 41.64700 42.66300
C  -14.67100 36.91200 42.94500
N  -10.11000 38.40500 40.89900
C  -9.54400 37.18200 40.73400
C  -8.17700 37.23700 40.04200
C  -7.76900 38.72900 40.06400
C  -9.13600 39.34000 40.57100
C  -6.57200 39.17900 41.03700
C  -8.46600 36.73800 38.58400
C  -7.45800 35.68800 38.00400
H  -6.39000 36.24700 37.01600
N  -11.45400 40.89700 41.68100
C  -10.38100 41.48300 40.99000
C  -10.45300 42.91100 41.09900
C  -11.65100 43.17200 41.82800
C  -12.32100 41.87100 42.03300
C  -9.43800 43.92000 40.51700
C  -12.20000 44.51900 42.35800
O  -11.55600 45.43900 42.00700
C  -13.37300 44.74400 43.25500
N  -13.83500 39.19700 42.64700
C  -14.19800 40.47200 42.97700
C  -15.65700 40.51900 43.40400
C  -16.11800 38.98000 43.35400
C  -14.81100 38.27200 42.94700
C  -15.80300 41.16200 44.79700
C  -17.32200 38.59300 42.48300
C  -17.15500 38.07400 41.03400
N  -12.32000 36.84400 42.15600
C  -13.51700 36.22800 42.47600
C  -13.34300 34.80000 42.32400
C  -12.03500 34.64100 41.81000
C  -11.53800 35.88000 41.61300
C  -14.40400 33.76800 42.70100
C  -11.00700 33.66600 41.36600
O  -11.03800 32.45300 41.37900
C  -9.74400 34.49400 40.91700
C  -8.76500 34.19600 42.03700
O  -7.71000 33.53700 41.97800
O  -9.16400 34.89100 43.10300
C  -8.13200 34.79800 44.16100
H  -8.42600 41.31000 40.29100
H  -14.11200 42.51300 42.97200
H  -15.54600 36.28200 43.11700
H  -7.48800 36.48000 40.41700
H  -7.61200 39.07600 39.04300
H  -5.69700 39.43900 40.44100
H  -6.22200 38.28000 41.54500
H  -6.75100 40.06100 41.65100
H  -8.50100 37.60500 37.92400
H  -9.47300 36.32700 38.50500
H  -8.04600 34.90400 37.52700
H  -6.92500 35.09600 38.74600
H  -8.41800 43.54000 40.57800
H  -9.40500 44.86300 41.06200
H  -9.65800 44.14100 39.47300
H  -13.15400 45.77100 43.54700
H  -13.33700 44.06300 44.10600
H  -14.34800 44.81000 42.77300
H  -16.15100 41.11700 42.63800
H  -16.36300 38.73700 44.38700
H  -14.95500 40.99000 45.46000
H  -16.67300 40.70200 45.26300
H  -15.93700 42.24100 44.72400
H  -17.92600 39.48900 42.33900
H  -17.79400 37.86200 43.13900
H  -17.68800 37.13000 41.14900
H  -16.16600 37.85100 40.63600
H  -17.75400 38.68000 40.35400
H  -13.94100 32.84100 42.36200
H  -15.36500 33.98000 42.23400
H  -14.63100 33.66900 43.76300
H  -9.39600 34.17600 39.93500
H  -8.28300 35.69600 44.75900
H  -7.12400 34.86100 43.75100
H  -8.14800 33.87700 44.74400

