158

Mg 8.53300 3.31000 27.77300
C  10.08500 2.03100 30.44700
C  6.61900 5.42900 29.87900
C  6.89000 4.58700 25.08000
C  10.01600 0.94200 25.75300
N  8.25800 3.61300 29.98100
C  9.11500 2.95100 30.91300
C  8.93600 3.54300 32.26900
C  7.68600 4.59900 32.01500
C  7.44000 4.51700 30.54000
C  6.46700 4.36800 32.84100
C  10.19700 4.28000 32.88600
C  9.98800 4.64300 34.33900
H  10.83900 3.93900 35.41100
N  6.94600 4.76900 27.56700
C  6.34300 5.55400 28.55000
C  5.42800 6.47500 27.94800
C  5.45400 6.14100 26.55800
C  6.45400 5.13400 26.34100
C  4.63500 7.42200 28.74300
C  4.54600 6.62800 25.41300
O  4.79700 6.36000 24.23900
C  3.39200 7.60300 25.65900
N  8.48600 2.82900 25.79800
C  7.88500 3.59100 24.86200
C  8.12500 3.09600 23.45800
C  8.96400 1.81200 23.67200
C  9.12500 1.85400 25.15900
C  6.82500 2.85900 22.53700
C  10.30600 1.76400 22.85500
C  10.41400 0.62200 21.84900
N  9.77500 1.69900 28.02600
C  10.41400 0.86800 27.10800
C  11.29200 -0.09100 27.81700
C  11.26900 0.41400 29.10300
C  10.27600 1.50000 29.20900
C  12.14300 -1.16400 27.23700
C  11.70100 0.13100 30.46100
O  12.53300 -0.69700 30.90800
C  10.96100 1.15100 31.36400
C  10.13100 0.50200 32.42700
O  9.17300 -0.18400 32.24500
O  10.67100 0.74800 33.66600
C  9.95800 0.24800 34.89400
H  6.24400 6.05700 30.69000
H  6.36200 4.90200 24.17800
H  10.53500 0.27600 25.06000
H  8.65300 2.79100 33.00600
H  8.09900 5.60100 32.12800
H  6.45800 5.01700 33.71600
H  6.56800 3.28900 32.96200
H  5.53400 4.56200 32.31200
H  10.38200 5.17700 32.29600
H  11.07900 3.71500 32.58600
H  8.96700 4.33900 34.56900
H  10.16800 5.71100 34.46700
H  4.87600 7.40500 29.80600
H  3.58900 7.11600 28.71600
H  4.72200 8.42800 28.33300
H  2.55800 7.06200 26.10700
H  3.09400 7.91400 24.65700
H  3.61900 8.38600 26.38200
H  8.69000 3.82000 22.87000
H  8.37200 0.95900 23.33800
H  5.97400 2.94800 23.21100
H  6.94100 1.93100 21.97700
H  6.71100 3.68600 21.83700
H  11.15400 1.73000 23.53900
H  10.40200 2.70000 22.30600
H  11.23300 -0.03600 22.13800
H  10.76700 1.03800 20.90600
H  9.53900 0.02000 21.60400
H  13.09600 -0.72100 26.94700
H  11.69200 -1.44300 26.28500
H  12.16500 -2.07300 27.84000
H  11.75200 1.70400 31.86900
H  9.38800 -0.67100 34.75900
H  9.25300 1.05800 35.07900
H  10.64000 0.18200 35.74100
Mg -12.21100 37.49500 41.84900
C  -10.32200 34.80800 40.45500
C  -10.11900 39.61100 40.36500
C  -14.46300 39.89400 42.66500
C  -14.55900 35.01000 42.86800
N  -10.48600 37.22600 40.64100
C  -9.85600 36.06300 40.07800
C  -8.66100 36.40000 39.12500
C  -8.52000 37.91800 39.33400
C  -9.79100 38.26000 40.23200
C  -7.15900 38.47600 39.84500
C  -8.71600 35.81300 37.68600
C  -7.41200 35.18000 37.00700
H  -6.71500 35.93600 35.96900
N  -12.23500 39.49900 41.62100
C  -11.23800 40.17000 41.03200
C  -11.58000 41.58300 41.11900
C  -12.73600 41.71500 41.85300
C  -13.22500 40.36700 42.07000
C  -10.75800 42.67100 40.50200
C  -13.53900 43.03900 42.18300
O  -13.18000 44.17400 41.74800
C  -14.71800 43.00200 43.07900
N  -14.34000 37.49500 42.35000
C  -15.02700 38.57100 42.85500
C  -16.34200 38.25200 43.45800
C  -16.26100 36.72200 43.62200
C  -15.02400 36.37200 42.78800
C  -16.74700 39.07700 44.71500
C  -17.50700 35.99200 43.09800
C  -18.19600 34.85700 43.98600
N  -12.42300 35.37300 41.71600
C  -13.36300 34.47100 42.32900
C  -12.87100 33.08000 42.31500
C  -11.72300 33.20500 41.48500
C  -11.46000 34.62000 41.22100
C  -13.45800 31.77300 42.84700
C  -10.65500 32.42200 40.93600
O  -10.52600 31.23100 40.99400
C  -9.72100 33.39600 40.16500
C  -8.23600 33.27200 40.47300
O  -7.44900 32.50900 39.89900
O  -8.05800 33.99800 41.65200
C  -6.80200 33.81200 42.41800
H  -9.38300 40.28400 39.92100
H  -15.22400 40.60300 43.00000
H  -15.24200 34.33600 43.38900
H  -7.76300 36.02200 39.61400
H  -8.66100 38.43300 38.38400
H  -6.50900 37.67000 39.50500
H  -7.26300 38.71400 40.90300
H  -6.99200 39.48500 39.46900
H  -9.11300 36.55900 36.99800
H  -9.34200 34.92000 37.68000
H  -7.58800 34.18200 36.60500
H  -6.65000 35.07200 37.78000
H  -10.63400 43.46900 41.23400
H  -11.21600 42.95400 39.55400
H  -9.74000 42.34700 40.28400
H  -15.57400 42.62300 42.52200
H  -14.85300 43.95800 43.58400
H  -14.53900 42.30800 43.90100
H  -17.18000 38.48200 42.80000
H  -15.97400 36.50400 44.65100
H  -16.11100 39.87800 45.09200
H  -16.89900 38.44300 45.58800
H  -17.76400 39.46200 44.64000
H  -17.14400 35.50100 42.19500
H  -18.25900 36.75800 42.90900
H  -19.27400 34.87700 43.82200
H  -17.97800 35.05600 45.03500
H  -17.71600 33.90300 43.76700
H  -14.49900 31.77300 42.52400
H  -13.37900 31.82800 43.93300
H  -12.91000 30.88800 42.52400
H  -10.02400 32.89100 39.24700
H  -6.78400 34.64500 43.12000
H  -6.03700 33.95500 41.65500
H  -6.62400 32.93000 43.03400

