158

Mg 41.77600 41.45900 26.18800
C  40.92800 43.72300 28.73000
C  42.71700 39.13500 28.65800
C  43.06800 39.59700 23.73500
C  41.08800 43.98200 23.75300
N  41.89100 41.48300 28.44700
C  41.36000 42.45600 29.25000
C  41.56600 42.05900 30.77400
C  42.18300 40.59900 30.71500
C  42.30100 40.36300 29.19300
C  43.43300 40.21700 31.68400
C  40.22700 42.02000 31.48300
C  40.17800 41.48700 32.92400
H  40.38000 42.38700 34.14000
N  42.60700 39.62500 26.14700
C  42.97700 38.81100 27.26800
C  43.41200 37.48800 26.74100
C  43.68200 37.70700 25.33500
C  43.11400 39.01700 24.98500
C  43.52200 36.23200 27.53900
C  44.21700 36.75800 24.36400
O  44.69500 37.12200 23.27900
C  44.53600 35.31200 24.68800
N  41.98100 41.66900 24.01500
C  42.48300 40.72800 23.20700
C  42.40600 41.09700 21.75200
C  41.56600 42.40100 21.78200
C  41.48300 42.66500 23.25900
C  43.74000 41.34200 21.05500
C  40.20100 42.18600 21.16400
C  39.23800 41.21900 21.95800
N  41.22000 43.42200 26.14400
C  41.03900 44.34300 25.11600
C  40.64800 45.62600 25.66900
C  40.53000 45.42100 27.04000
C  40.92100 44.06400 27.31000
C  40.56100 46.89400 24.92100
C  40.26000 46.03100 28.32900
O  39.98200 47.17600 28.56700
C  40.43100 44.97600 29.41600
C  41.44600 45.43800 30.34600
O  42.63400 45.49700 30.05800
O  41.01500 45.68800 31.67400
C  42.01000 46.22900 32.56200
H  43.02500 38.40200 29.40700
H  43.38000 38.92600 22.93200
H  40.71200 44.77400 23.10200
H  42.26800 42.77500 31.20200
H  41.37800 39.92900 31.01700
H  43.13200 39.86200 32.66900
H  44.21400 40.97700 31.64900
H  43.93400 39.33900 31.27600
H  39.42500 41.43400 31.03300
H  39.86900 42.99600 31.81000
H  40.88200 40.65700 32.96900
H  39.17800 41.12100 33.15600
H  43.24000 36.51300 28.55400
H  44.55200 35.88100 27.60700
H  42.90800 35.44000 27.11300
H  45.42500 35.33100 25.31800
H  44.76200 34.71100 23.80700
H  43.74200 34.83900 25.26700
H  41.80900 40.35900 21.21700
H  42.06200 43.21400 21.25200
H  43.95800 40.32000 20.74400
H  44.35500 41.64900 21.90100
H  43.58500 41.83700 20.09600
H  40.41800 41.71600 20.20500
H  39.77000 43.16600 20.95900
H  38.47000 41.79000 22.47900
H  39.74800 40.60600 22.70200
H  38.79800 40.58000 21.19200
H  40.87200 47.76700 25.49400
H  39.52600 47.03200 24.60800
H  41.29100 46.81500 24.11500
H  39.52800 44.70300 29.96300
H  41.51600 47.02300 33.12200
H  42.91000 46.59500 32.06900
H  42.33600 45.50000 33.30400
Mg 26.61300 50.11700 26.04500
C  24.53900 51.39100 28.54000
C  28.98300 49.47200 28.37900
C  28.72100 49.34600 23.52900
C  24.35800 51.37600 23.75600
N  26.69400 50.41200 28.29100
C  25.68300 50.80700 29.08200
C  26.04700 50.59700 30.59600
C  27.61400 50.21900 30.47500
C  27.79000 50.00600 28.92400
C  28.63900 51.23700 31.05500
C  25.18300 49.57800 31.37800
C  24.64300 50.04000 32.69600
H  24.90700 49.06900 33.81300
N  28.51300 49.30600 25.97900
C  29.34200 49.04300 27.06200
C  30.62900 48.48200 26.57900
C  30.54200 48.48000 25.15000
C  29.18900 49.04200 24.79400
C  31.66000 47.93400 27.54700
C  31.48200 48.09800 24.08900
O  31.38700 48.40600 22.91800
C  32.83000 47.40200 24.50100
N  26.58900 50.43900 23.91900
C  27.58500 49.99100 23.09000
C  27.22200 50.20400 21.57100
C  25.73800 50.76500 21.65300
C  25.50600 50.87900 23.19200
C  28.35200 50.98500 20.70100
C  24.69900 49.80900 20.95400
C  24.47700 48.38700 21.44800
N  24.82100 51.25900 26.04500
C  23.98100 51.69400 25.04000
C  22.81300 52.31900 25.60700
C  22.96900 52.25500 26.98400
C  24.18900 51.58100 27.20100
C  21.76400 52.91500 24.70700
C  22.40700 52.66500 28.23200
O  21.39900 53.25000 28.46600
C  23.32000 51.98400 29.34500
C  23.73400 53.09900 30.29400
O  24.36600 54.12000 29.97400
O  23.08600 52.91200 31.51700
C  23.27300 53.91300 32.56700
H  29.74500 49.03800 29.03000
H  29.23100 49.28500 22.56500
H  23.60800 51.59800 22.99400
H  25.87900 51.57900 31.03900
H  27.68600 49.22100 30.90700
H  28.20000 51.72300 31.92600
H  28.76100 51.98900 30.27600
H  29.56900 50.91800 31.52600
H  25.85200 48.74700 31.60300
H  24.38700 49.12900 30.78300
H  23.56600 50.07000 32.53000
H  24.93500 51.07400 32.87900
H  31.30200 46.91400 27.68400
H  31.53100 48.26900 28.57600
H  32.66400 48.14600 27.17900
H  33.25600 48.22500 25.07500
H  33.35500 47.03700 23.61800
H  32.66600 46.56500 25.18000
H  27.29500 49.22900 21.09100
H  25.69400 51.75600 21.20000
H  28.61200 50.42200 19.80500
H  29.20400 51.26300 21.32100
H  27.93000 51.93100 20.36200
H  25.03700 49.88600 19.92000
H  23.70700 50.25200 20.86500
H  23.49400 48.29400 21.91100
H  25.21000 48.12300 22.21100
H  24.51800 47.69400 20.60700
H  21.84800 52.47200 23.71500
H  22.02700 53.96800 24.60600
H  20.72500 52.89000 25.03600
H  22.86700 51.15100 29.88200
H  23.92200 53.71100 33.41800
H  22.27600 54.00200 32.99900
H  23.56000 54.87800 32.15000

