158

Mg 41.54800 41.20100 26.75000
C  40.79400 43.38800 29.47400
C  42.61800 38.90400 29.05000
C  42.65600 39.28800 24.21800
C  40.77300 43.82600 24.55600
N  41.70500 41.13900 29.06700
C  41.16800 42.13900 29.89700
C  41.36900 41.57500 31.37300
C  42.11300 40.15100 31.29700
C  42.17500 40.04100 29.73100
C  43.37900 39.99300 32.03700
C  40.06500 41.59900 32.13000
C  40.20400 41.40400 33.63600
H  39.54600 42.50600 34.52300
N  42.45900 39.31800 26.61400
C  42.81900 38.52900 27.67100
C  43.43400 37.27600 27.14600
C  43.45700 37.34100 25.72400
C  42.80300 38.70900 25.45000
C  43.96100 36.18600 28.07500
C  44.04600 36.32300 24.75000
O  44.04600 36.55300 23.50100
C  44.89100 35.14000 25.17200
N  41.80300 41.58900 24.71700
C  42.14900 40.55900 23.87900
C  41.97400 40.99900 22.46100
C  41.11700 42.31500 22.50000
C  41.23000 42.58300 24.01900
C  43.32000 41.37100 21.61900
C  39.63700 42.27400 22.02000
C  38.81700 41.06400 22.45600
N  40.95000 43.19500 26.93000
C  40.74300 44.21100 25.89000
C  40.44600 45.45800 26.49900
C  40.28500 45.13200 27.91000
C  40.72700 43.76900 28.11600
C  40.13100 46.72900 25.84100
C  39.84100 45.73200 29.22300
O  39.44100 46.86800 29.53000
C  40.14000 44.54600 30.24500
C  41.16200 45.22200 31.13900
O  42.20000 45.65700 30.70200
O  40.80000 45.31700 32.46300
C  41.85400 45.97200 33.38600
H  42.97000 38.19800 29.80600
H  43.08800 38.73900 23.37900
H  40.37700 44.63500 23.93800
H  42.09300 42.27100 31.79600
H  41.43500 39.33200 31.54100
H  43.87500 40.94400 32.23200
H  43.99900 39.36200 31.39900
H  43.28000 39.44900 32.97700
H  39.48500 40.74400 31.78300
H  39.59300 42.58000 32.08400
H  41.27000 41.25000 33.80900
H  39.75000 40.45600 33.92300
H  44.97600 35.90900 27.78900
H  43.35600 35.30400 27.86100
H  43.95300 36.36800 29.14900
H  44.97400 34.39200 24.38400
H  44.33100 34.70400 25.99900
H  45.86700 35.58800 25.35900
H  41.57200 40.18500 21.85600
H  41.56200 43.14600 21.95100
H  44.15400 40.93100 22.16700
H  43.46600 42.44500 21.50400
H  43.35100 41.04500 20.57900
H  39.65300 42.26500 20.93000
H  39.05800 43.15900 22.28300
H  38.63400 40.51200 21.53400
H  37.87600 41.31000 22.94700
H  39.43600 40.40100 23.06200
H  40.31100 46.70600 24.76600
H  40.74200 47.53400 26.24900
H  39.08800 46.96000 26.05700
H  39.22300 44.45000 30.82500
H  42.02100 45.30200 34.22900
H  41.52400 46.94900 33.73900
H  42.81500 46.06300 32.88000
Mg 26.04400 50.30300 27.10700
C  24.09600 51.43400 29.84400
C  28.46200 49.32300 29.45300
C  27.95500 49.21600 24.56400
C  23.62900 51.44300 24.96300
N  26.26200 50.29300 29.40100
C  25.27000 50.83700 30.26200
C  25.63900 50.36500 31.72100
C  27.09100 49.82200 31.57400
C  27.28600 49.80900 30.05600
C  28.23500 50.51200 32.39700
C  24.52700 49.35400 32.39700
C  23.88700 49.82900 33.71100
H  24.93400 50.15800 34.87500
N  27.89000 49.47200 26.96500
C  28.77900 49.26800 28.05400
C  30.04700 48.71500 27.55500
C  29.95300 48.62500 26.08900
C  28.55000 49.07700 25.85400
C  31.11500 48.29200 28.48100
C  30.99500 48.12000 25.12900
O  30.70500 48.02900 23.92400
C  32.38700 47.73700 25.61300
N  25.90900 50.38100 25.06000
C  26.76500 49.76600 24.18900
C  26.36100 50.01300 22.68200
C  24.84600 50.22000 22.92400
C  24.70300 50.71300 24.43700
C  27.19200 51.13600 21.95000
C  23.91400 49.00400 22.61000
C  23.31200 48.09500 23.75200
N  24.32200 51.33600 27.27400
C  23.42500 51.70700 26.27800
C  22.26900 52.34100 26.85600
C  22.51600 52.28800 28.28300
C  23.76800 51.65600 28.47800
C  21.07500 52.97300 26.17100
C  21.98300 52.63200 29.59900
O  20.86500 53.10500 29.89400
C  23.00600 52.08600 30.69500
C  23.42200 53.10900 31.58900
O  24.54200 53.64900 31.58300
O  22.46400 53.33200 32.61100
C  22.82200 54.22800 33.75600
H  29.24900 48.99600 30.13500
H  28.50300 48.83800 23.69800
H  22.83200 51.54600 24.22400
H  25.64900 51.32600 32.23500
H  27.08500 48.78800 31.91800
H  28.83100 49.65200 32.70100
H  27.86200 51.00800 33.29300
H  28.90500 51.05100 31.72700
H  25.03100 48.44300 32.71800
H  23.79100 49.17000 31.61500
H  23.40300 48.97000 34.17700
H  23.16600 50.63600 33.57800
H  30.93900 47.25300 28.76200
H  31.13300 48.79800 29.44600
H  32.10100 48.32300 28.01700
H  32.80700 48.62900 26.07800
H  33.07600 47.57100 24.78500
H  32.26700 46.87000 26.26200
H  26.50700 49.05100 22.19200
H  24.41800 51.01400 22.31100
H  28.03900 51.61700 22.43900
H  26.43200 51.82900 21.58900
H  27.52300 50.57200 21.07800
H  24.28400 48.38500 21.79300
H  23.03100 49.40300 22.11100
H  23.75100 47.09800 23.70900
H  22.24500 47.95300 23.58400
H  23.43900 48.46300 24.77000
H  21.02100 52.54500 25.17000
H  21.12300 54.06100 26.21700
H  20.17400 52.66300 26.70000
H  22.42800 51.48400 31.39600
H  22.61800 55.27900 33.54900
H  23.89200 54.14400 33.94700
H  22.13400 54.04800 34.58200

