158

Mg 1.64700 -1.64100 44.03100
C  4.98700 -0.54400 43.14800
C  0.42300 1.11900 42.30100
C  -1.30500 -3.03500 44.34300
C  3.26600 -4.53900 45.33000
N  2.59400 -0.06600 42.69600
C  3.96800 0.18400 42.45000
C  4.16100 1.30100 41.50600
C  2.81200 2.14800 41.78500
C  1.84500 1.01200 42.21000
C  2.98200 3.24400 42.88600
C  4.37100 0.72900 40.03300
C  5.36600 1.54700 39.19100
H  4.95200 2.11500 37.90100
N  -0.19700 -0.96100 43.48500
C  -0.55500 0.17600 42.82100
C  -2.03000 0.35600 42.87500
C  -2.52300 -0.83300 43.54500
C  -1.33800 -1.68700 43.80500
C  -2.74200 1.47600 42.16300
C  -4.01500 -1.10000 43.82100
O  -4.88400 -0.24900 43.58400
C  -4.52500 -2.33700 44.56400
N  0.99900 -3.58500 44.61400
C  -0.27400 -3.92500 44.74900
C  -0.44400 -5.36600 45.31200
C  1.01500 -5.84500 45.42500
C  1.81800 -4.57900 45.18200
C  -1.25700 -5.57600 46.63100
C  1.51400 -7.07900 44.50800
C  2.33200 -8.15400 45.31000
N  3.66900 -2.33800 44.39200
C  4.10000 -3.47300 44.97600
C  5.58700 -3.49900 45.09500
C  5.95900 -2.32700 44.34800
C  4.77300 -1.68100 43.95100
C  6.45300 -4.44800 45.78800
C  7.08200 -1.45600 43.95600
O  8.31200 -1.51700 44.18800
C  6.45800 -0.27400 43.17600
C  6.80000 1.03300 43.86100
O  6.87800 1.07000 45.09700
O  7.29300 2.00300 42.96300
C  7.74900 3.25100 43.60100
H  -0.08000 1.99200 41.88100
H  -2.21700 -3.59300 44.56600
H  3.70600 -5.38000 45.87100
H  4.99900 1.92100 41.82300
H  2.39400 2.61800 40.89500
H  2.80100 4.15200 42.31100
H  4.02000 3.18600 43.21500
H  2.33200 3.21000 43.76000
H  3.38200 0.68300 39.57600
H  4.56000 -0.34500 40.04200
H  6.19100 0.86000 39.00200
H  5.75900 2.39000 39.76000
H  -3.63100 1.60500 42.78000
H  -2.86800 1.38600 41.08400
H  -2.14500 2.38800 42.19400
H  -5.49900 -2.20300 45.03300
H  -3.90200 -2.64400 45.40400
H  -4.47000 -3.22000 43.92600
H  -0.89900 -5.89300 44.47300
H  1.24900 -6.01400 46.47600
H  -1.35400 -4.63700 47.17600
H  -0.72600 -6.29500 47.25400
H  -2.26800 -5.97600 46.55500
H  2.21100 -6.72200 43.74900
H  0.72000 -7.65300 44.03000
H  1.84500 -9.12600 45.23300
H  2.28400 -7.95400 46.38000
H  3.35200 -8.20400 44.93100
H  6.21400 -4.51100 46.85000
H  7.51700 -4.23400 45.68800
H  6.28800 -5.42800 45.34000
H  6.89700 -0.28000 42.17800
H  7.06000 4.07400 43.41200
H  8.73900 3.50800 43.22300
H  7.94700 3.16300 44.66900
Mg 24.28300 -4.61800 45.68300
C  26.34300 -2.19900 44.08100
C  21.65500 -3.40000 43.57400
C  22.51600 -7.38400 46.35000
C  27.05100 -5.82800 47.35700
N  24.07700 -3.03600 43.97800
C  25.00900 -2.16000 43.61100
C  24.58300 -1.25900 42.44900
C  23.04900 -1.37100 42.60300
C  22.91300 -2.69900 43.42100
C  22.33300 -0.22100 43.35600
C  25.12100 -1.87800 41.05400
C  25.77700 -0.76300 40.16800
H  25.34400 -0.88600 38.68000
N  22.27100 -5.25600 45.12400
C  21.44000 -4.64200 44.25100
C  20.23500 -5.45800 44.15900
C  20.41900 -6.66200 44.93500
C  21.78900 -6.45700 45.51500
C  19.11200 -5.12700 43.29000
C  19.38400 -7.72000 45.17900
O  18.29600 -7.65300 44.60000
C  19.63800 -8.75300 46.20000
N  24.69900 -6.29300 46.68100
C  23.82900 -7.34100 46.84500
C  24.24100 -8.42100 47.78400
C  25.65300 -7.88800 48.20600
C  25.79700 -6.54400 47.42400
C  23.24800 -8.78500 48.91300
C  26.88700 -8.85400 48.04900
C  28.05400 -8.74500 49.03600
N  26.32800 -4.12400 45.81800
C  27.31900 -4.66000 46.57000
C  28.60100 -3.96700 46.42700
C  28.28300 -2.98200 45.38100
C  26.88000 -3.11500 45.05100
C  29.98700 -4.35500 47.10000
C  28.80400 -1.92700 44.54500
O  29.91000 -1.35300 44.49600
C  27.58200 -1.36600 43.65400
C  27.36000 0.06900 43.92400
O  26.61200 0.58100 44.78100
O  28.07100 0.75700 42.95000
C  27.82800 2.19100 43.01000
H  20.87400 -2.94000 42.96400
H  21.93200 -8.25300 46.66100
H  27.85000 -6.22500 47.98700
H  24.96700 -0.25000 42.59900
H  22.56400 -1.39500 41.62800
H  21.73500 -0.62700 44.17200
H  21.62400 0.19200 42.63800
H  22.99800 0.60500 43.61100
H  24.27700 -2.21300 40.45000
H  25.79600 -2.72900 41.14500
H  26.86700 -0.77300 40.14000
H  25.48500 0.21700 40.54500
H  18.93000 -5.97900 42.63500
H  19.17700 -4.12700 42.86100
H  18.23300 -5.08600 43.93400
H  18.74500 -9.37900 46.20600
H  19.77300 -8.33200 47.19600
H  20.38600 -9.50800 45.95700
H  24.44500 -9.28300 47.14900
H  25.44100 -7.69100 49.25700
H  22.44400 -8.05000 48.96600
H  23.74700 -8.72500 49.88000
H  22.70500 -9.73000 48.88000
H  27.30300 -8.83200 47.04200
H  26.50600 -9.87400 48.00100
H  28.12200 -9.53900 49.78000
H  27.79800 -7.88600 49.65600
H  29.01100 -8.62000 48.53000
H  30.08300 -5.43000 46.94400
H  30.03200 -4.14200 48.16800
H  30.85600 -3.86000 46.66600
H  27.82700 -1.60300 42.61900
H  26.90400 2.50400 43.49500
H  27.71800 2.53100 41.98000
H  28.60600 2.83400 43.42200

