158

Mg 24.96700 0.53300 30.47100
C  26.93700 0.59900 33.42000
C  22.17500 0.54800 32.42900
C  23.05100 0.09900 27.65500
C  27.77100 -0.15800 28.67300
N  24.61200 0.78900 32.67400
C  25.54900 0.78300 33.68500
C  24.88900 1.08100 35.08500
C  23.38000 0.85900 34.66700
C  23.31700 0.67000 33.12200
C  22.70200 -0.39500 35.40500
C  25.13100 2.52200 35.63100
C  26.14200 2.71500 36.71500
H  25.64200 3.46700 37.97400
N  22.88000 0.33600 30.13400
C  21.90200 0.42600 31.02500
C  20.62900 0.19800 30.44300
C  20.80300 0.11600 29.03600
C  22.30200 0.19900 28.88600
C  19.32300 0.33000 31.19100
C  19.79500 0.02500 27.89700
O  20.16300 -0.12800 26.77900
C  18.27700 -0.04300 28.21600
N  25.35300 -0.00100 28.42900
C  24.42600 0.02100 27.45600
C  25.08500 -0.01700 26.08200
C  26.61900 -0.03100 26.42100
C  26.59500 0.00200 27.93600
C  24.59400 -1.15700 25.26000
C  27.37500 1.21100 25.78500
C  28.70000 0.88600 25.00000
N  27.01100 0.35100 30.85100
C  27.98100 0.03100 30.00600
C  29.19900 0.04800 30.74600
C  28.89900 0.25200 32.09200
C  27.51600 0.37400 32.13500
C  30.52500 -0.38400 30.18900
C  29.43800 0.39300 33.48200
O  30.56800 0.32500 33.98800
C  28.17100 0.65400 34.38200
C  28.06800 -0.45600 35.44000
O  27.44200 -1.53200 35.34900
O  28.88700 -0.17200 36.49500
C  28.68200 -0.96900 37.67900
H  21.29500 0.53200 33.07500
H  22.46500 -0.01700 26.74200
H  28.68400 -0.33500 28.10100
H  25.14600 0.24400 35.73400
H  22.70500 1.68600 34.88800
H  22.48600 -1.10400 34.60500
H  21.72500 -0.12100 35.80400
H  23.26900 -0.78000 36.25200
H  24.13900 2.90100 35.87700
H  25.50400 3.09300 34.78100
H  26.90300 3.39600 36.33700
H  26.65400 1.77500 36.92100
H  18.73100 1.11900 30.72800
H  19.42700 0.47300 32.26700
H  18.76500 -0.58700 31.00100
H  17.95600 0.92600 28.59800
H  18.07000 -0.88100 28.88200
H  17.69200 -0.30200 27.33300
H  24.73300 0.88600 25.58400
H  27.16100 -0.91500 26.08600
H  25.47900 -1.65200 24.86100
H  23.96200 -0.83400 24.43300
H  24.05300 -1.89800 25.84800
H  27.76500 1.81600 26.60400
H  26.73600 1.95700 25.31300
H  28.75400 1.47700 24.08600
H  28.51500 -0.12200 24.63100
H  29.56000 1.00200 25.66000
H  31.04900 0.52400 29.88900
H  30.46800 -1.00800 29.29700
H  31.10000 -0.97100 30.90500
H  28.25100 1.68000 34.74200
H  27.74100 -0.70700 38.16200
H  29.53400 -0.87500 38.35300
H  28.63400 -2.03700 37.46800
Mg 42.22200 41.77800 26.56300
C  41.42300 44.34500 28.92900
C  43.13200 39.79600 29.20600
C  43.10400 39.42800 24.33000
C  41.67600 44.03900 24.06800
N  42.35300 42.06800 28.81800
C  41.92700 43.14400 29.58900
C  42.08100 42.84500 31.11000
C  42.78000 41.42700 31.09800
C  42.73200 41.05700 29.63600
C  44.17800 41.43000 31.80400
C  40.73900 42.83900 31.90200
C  40.80700 43.56700 33.28200
H  40.12100 42.84100 34.39300
N  43.05100 39.87700 26.72600
C  43.26800 39.20800 27.88600
C  43.77300 37.85100 27.59100
C  43.91600 37.78600 26.16000
C  43.40100 39.10900 25.70200
C  44.24900 36.91700 28.65000
C  44.46100 36.76300 25.25700
O  44.55200 36.78200 23.99900
C  44.74100 35.44800 25.82100
N  42.59700 41.76200 24.45100
C  42.71700 40.63600 23.80900
C  42.36300 40.82300 22.27700
C  41.73700 42.26600 22.22900
C  41.90700 42.70800 23.70000
C  43.62000 40.49100 21.40100
C  40.26200 42.39300 21.78700
C  39.16600 41.38000 22.25800
N  41.68800 43.76400 26.44600
C  41.59500 44.60000 25.32400
C  41.27800 45.87900 25.76600
C  41.23200 45.87800 27.13900
C  41.47000 44.52400 27.53700
C  41.15400 47.00400 24.74900
C  41.00800 46.66500 28.28500
O  40.74500 47.84800 28.45500
C  41.09700 45.75300 29.50200
C  42.09100 46.28500 30.51200
O  43.26200 46.37700 30.21200
O  41.54800 46.66000 31.71600
C  42.54000 46.77900 32.77900
H  43.29200 39.11500 30.04500
H  43.26200 38.63100 23.60000
H  41.31500 44.73800 23.31100
H  42.76500 43.52600 31.61500
H  42.12400 40.74200 31.63500
H  44.10900 40.81700 32.70300
H  44.39200 42.43900 32.15700
H  44.83300 41.11400 30.99200
H  40.36900 41.84400 32.14900
H  39.96000 43.36500 31.35000
H  40.41000 44.57900 33.21000
H  41.82500 43.70800 33.64800
H  43.79100 35.94900 28.44700
H  43.88500 37.28800 29.60800
H  45.33400 36.82500 28.70800
H  45.40400 35.55000 26.68000
H  45.09400 34.83300 24.99200
H  43.83500 35.04200 26.27100
H  41.52700 40.17700 22.00800
H  42.40200 42.91700 21.66200
H  43.92500 41.45200 20.98900
H  43.43700 39.74200 20.63100
H  44.49700 40.12900 21.93700
H  40.30300 42.22800 20.71000
H  40.03200 43.42500 22.05100
H  38.75800 41.85000 23.15300
H  39.59000 40.43600 22.59900
H  38.51900 41.32200 21.38200
H  40.22300 46.83400 24.21000
H  42.04800 47.10300 24.13300
H  41.07000 47.85400 25.42600
H  40.11300 45.61400 29.94900
H  43.04900 45.83700 32.98500
H  42.02500 47.18000 33.65200
H  43.31400 47.50300 32.52600

