158

Mg 2.27100 -1.75800 44.51600
C  5.39800 -0.74700 43.76400
C  0.99700 0.93000 42.71100
C  -0.87200 -3.25000 44.74100
C  3.59300 -4.71200 46.11700
N  3.08000 -0.14700 43.21200
C  4.42600 0.10000 43.17100
C  4.72400 1.34600 42.35100
C  3.27600 2.03900 42.25400
C  2.38300 0.87100 42.71800
C  3.19800 3.43200 43.11000
C  5.38500 0.93300 40.97000
C  6.21100 2.06600 40.39000
H  6.71400 1.92100 38.92000
N  0.35000 -1.25400 43.84000
C  0.03700 -0.08300 43.16600
C  -1.35500 -0.09200 42.86600
C  -1.92300 -1.29000 43.43900
C  -0.80700 -2.00300 44.04800
C  -2.01700 0.98800 41.95800
C  -3.41200 -1.59400 43.37800
O  -4.22800 -0.72200 43.01800
C  -3.99000 -2.88500 43.91200
N  1.46200 -3.76100 45.26200
C  0.13600 -4.03600 45.26600
C  -0.09000 -5.41900 45.94800
C  1.30200 -5.83500 46.57900
C  2.22000 -4.79300 45.91200
C  -1.27900 -5.58700 46.93000
C  1.70000 -7.32200 46.35500
C  2.18700 -8.10100 47.61600
N  4.10400 -2.63200 44.93500
C  4.48100 -3.73600 45.59800
C  5.97300 -3.72000 45.67900
C  6.37700 -2.56700 45.01500
C  5.21700 -1.95900 44.49700
C  6.77400 -4.73700 46.38700
C  7.45800 -1.80200 44.69500
O  8.70100 -1.85300 44.82100
C  6.88700 -0.48800 44.03600
C  6.91100 0.61300 45.05300
O  6.18400 0.75400 46.02700
O  7.93700 1.45400 44.69900
C  7.89700 2.72700 45.40900
H  0.58700 1.80600 42.20400
H  -1.81500 -3.80000 44.76900
H  4.00500 -5.56200 46.66300
H  5.43400 2.03600 42.80700
H  3.02000 2.38600 41.25300
H  4.20300 3.74100 43.39700
H  2.63000 3.22800 44.01800
H  2.64800 4.19600 42.56100
H  4.50700 0.86000 40.32700
H  5.97300 0.01500 40.96500
H  7.16200 2.11400 40.92200
H  5.67800 3.01000 40.50800
H  -1.25600 1.65200 41.54800
H  -2.77100 1.54900 42.51100
H  -2.42200 0.58000 41.03200
H  -5.07800 -2.93200 43.87600
H  -3.74700 -2.90000 44.97500
H  -3.52900 -3.76200 43.45700
H  -0.29600 -6.15000 45.16600
H  1.26500 -5.57500 47.63700
H  -2.11600 -4.90400 46.78500
H  -1.05200 -5.64300 47.99500
H  -1.69700 -6.58300 46.77800
H  2.49600 -7.26100 45.61300
H  0.84100 -7.85700 45.94900
H  2.51400 -7.37800 48.36300
H  2.95900 -8.79700 47.28700
H  1.38500 -8.71200 48.03000
H  7.13900 -5.65800 45.93100
H  6.20200 -5.07100 47.25300
H  7.69100 -4.27500 46.75400
H  7.40400 -0.22700 43.11300
H  8.40900 3.47000 44.79700
H  8.43400 2.57900 46.34600
H  6.93800 3.23300 45.51400
Mg 9.28400 48.34700 26.11900
C  7.18200 48.82600 28.86500
C  11.99500 49.18600 28.26400
C  11.50000 48.11300 23.55800
C  6.57300 48.07400 24.02200
N  9.58100 48.90200 28.26400
C  8.55000 48.84500 29.16800
C  9.14100 48.88000 30.63800
C  10.58000 49.37500 30.37800
C  10.73900 49.19400 28.85100
C  10.86500 50.81700 30.85400
C  9.12600 47.50100 31.38200
C  9.70200 47.52200 32.79700
H  8.80500 46.98800 33.99100
N  11.45500 48.76600 25.86800
C  12.34200 48.99800 26.89900
C  13.71300 48.75000 26.33200
C  13.56500 48.42800 24.97700
C  12.12800 48.51700 24.69700
C  14.93500 48.82300 27.21200
C  14.61900 48.00000 24.01300
O  14.46600 47.90400 22.76600
C  16.04100 47.66600 24.49900
N  9.02200 48.18300 24.10400
C  10.09900 47.84000 23.28600
C  9.63000 47.44500 21.81300
C  8.05000 47.61300 21.94700
C  7.85600 47.88900 23.48100
C  10.31200 48.06700 20.56100
C  7.24400 46.39700 21.43700
C  5.91900 46.46800 20.65500
N  7.28100 48.49000 26.36300
C  6.30300 48.28600 25.38600
C  4.95000 48.48300 26.04400
C  5.29400 48.65500 27.36700
C  6.66700 48.67000 27.51900
C  3.55300 48.35900 25.43000
C  4.72600 48.80900 28.70200
O  3.51900 48.84900 28.98500
C  5.88900 49.04200 29.67800
C  5.77600 48.05300 30.79300
O  5.74200 46.89300 30.69500
O  5.59300 48.75600 31.97700
C  5.40900 48.04100 33.24200
H  12.79200 49.25100 29.00900
H  12.13000 47.61100 22.82100
H  5.81600 48.02800 23.23600
H  8.50400 49.55400 31.21000
H  11.37800 48.79500 30.84100
H  11.51000 50.79100 31.73200
H  9.94500 51.31600 31.16000
H  11.35200 51.40400 30.07500
H  9.56400 46.70000 30.78500
H  8.13500 47.04700 31.38500
H  10.10400 48.52500 32.94300
H  10.50600 46.78700 32.76600
H  15.58000 47.95500 27.07700
H  14.78900 48.98100 28.28100
H  15.59100 49.63900 26.90800
H  16.42000 48.59900 24.91600
H  16.66200 47.42200 23.63700
H  15.99600 46.79900 25.15700
H  9.81100 46.37100 21.77100
H  7.71500 48.40900 21.28200
H  9.66700 48.88400 20.23700
H  10.48100 47.34100 19.76600
H  11.31100 48.47600 20.70900
H  6.89500 45.77500 22.26100
H  7.90900 45.79600 20.81600
H  5.14300 45.96900 21.23500
H  6.10100 46.20200 19.61300
H  5.67100 47.52900 20.67700
H  3.30800 47.31300 25.24700
H  3.37300 48.97400 24.54800
H  2.72700 48.53600 26.11900
H  6.07000 50.06500 30.00800
H  4.34900 48.05200 33.49700
H  5.95900 48.49600 34.06600
H  5.66900 46.98500 33.17400

