158

Mg 27.39200 50.41200 26.84200
C  25.09800 50.97000 29.44500
C  29.78700 49.78300 29.30500
C  29.53500 49.73700 24.40000
C  24.92700 51.48000 24.58400
N  27.41400 50.52800 29.08200
C  26.36100 50.67700 29.95100
C  26.74000 50.52000 31.40000
C  28.34100 50.38900 31.31700
C  28.55800 50.23500 29.76800
C  29.24600 51.51700 31.92000
C  25.98200 49.33800 32.13200
C  25.33400 49.73000 33.53200
H  25.67800 48.80200 34.71000
N  29.37500 49.92900 26.85900
C  30.21500 49.61000 28.02000
C  31.52800 49.21500 27.49900
C  31.48600 49.32500 26.06200
C  30.08600 49.58800 25.67100
C  32.74000 48.86400 28.37100
C  32.61400 49.26800 25.03500
O  32.47600 49.35100 23.79100
C  33.98200 49.06100 25.56500
N  27.30000 50.90100 24.83100
C  28.28600 50.36200 24.01800
C  27.92800 50.47200 22.55200
C  26.43000 50.86600 22.63000
C  26.20900 51.18000 24.08900
C  28.81700 51.54000 21.78200
C  25.46100 49.80600 22.02200
C  25.06600 48.63900 22.87900
N  25.51000 51.23500 26.95900
C  24.61700 51.50000 25.98500
C  23.32700 51.84200 26.50800
C  23.50300 51.66900 27.84500
C  24.81100 51.22400 28.09000
C  22.11100 52.33500 25.71800
C  22.76100 51.73100 29.10900
O  21.65000 52.13900 29.31700
C  23.83500 51.36800 30.21300
C  24.08900 52.51300 31.23200
O  24.66100 53.52900 31.02000
O  23.45000 52.13200 32.40800
C  23.46800 53.13600 33.54500
H  30.60300 49.60000 30.00700
H  30.23700 49.42300 23.62500
H  24.17500 51.76300 23.84500
H  26.55400 51.46900 31.90200
H  28.61000 49.44800 31.79800
H  29.72500 51.15200 32.82800
H  28.55000 52.32000 32.16400
H  29.95400 51.77700 31.13300
H  26.63100 48.46600 32.21900
H  25.22000 48.85100 31.52300
H  24.28000 49.93300 33.34100
H  25.76400 50.70200 33.77500
H  33.06500 47.88400 28.02300
H  32.44300 48.88800 29.41900
H  33.61300 49.49500 28.20500
H  34.66100 48.93400 24.72100
H  34.04600 48.16700 26.18400
H  34.26500 49.96100 26.11100
H  28.10900 49.44000 22.25300
H  26.27000 51.84100 22.16900
H  29.74600 51.73300 22.31900
H  28.27600 52.47000 21.60800
H  29.12800 51.05000 20.85900
H  26.09300 49.46200 21.20400
H  24.55800 50.25400 21.60800
H  25.23700 48.69400 23.95500
H  25.48100 47.72500 22.45600
H  23.99000 48.49300 22.79100
H  22.26500 52.19900 24.64800
H  21.99700 53.40600 25.88400
H  21.24900 51.78600 26.09500
H  23.46000 50.49600 30.74800
H  24.27900 52.75800 34.16600
H  22.58400 53.13900 34.18300
H  23.81000 54.13900 33.28700
Mg -6.23800 24.64500 26.04700
C  -4.40900 25.92200 28.81000
C  -8.11900 22.63000 28.15800
C  -7.49400 22.92100 23.41300
C  -4.13000 26.48500 24.03800
N  -6.22600 24.30700 28.20300
C  -5.33300 24.91500 29.10100
C  -5.76600 24.39900 30.60700
C  -6.65600 23.19300 30.30800
C  -7.10800 23.39400 28.80500
C  -5.91700 21.86800 30.57400
C  -6.55600 25.54900 31.37300
C  -5.80400 26.01600 32.64700
H  -5.53100 25.00500 33.84600
N  -7.73000 23.11400 25.77900
C  -8.39100 22.51500 26.74700
C  -9.43400 21.64900 26.13300
C  -9.22200 21.67900 24.76900
C  -8.08600 22.58100 24.59100
C  -10.49000 20.83700 26.94200
C  -9.89600 20.99100 23.61600
O  -9.57700 21.16100 22.46300
C  -10.91400 20.01000 23.93400
N  -5.60900 24.45000 24.10000
C  -6.34500 23.71200 23.17000
C  -5.80000 23.94900 21.74400
C  -4.72600 25.14900 21.92800
C  -4.80800 25.39200 23.44900
C  -5.28300 22.64300 21.05100
C  -5.05700 26.36500 20.94100
C  -3.90800 26.89500 20.03100
N  -4.70200 26.13600 26.31600
C  -3.98900 26.76900 25.35900
C  -3.11100 27.72100 25.95800
C  -3.18400 27.44700 27.36500
C  -4.20100 26.47400 27.49700
C  -2.18600 28.65800 25.25900
C  -2.58900 27.72700 28.70200
O  -1.64700 28.41200 29.10600
C  -3.42700 26.72000 29.61200
C  -2.47100 25.81500 30.29300
O  -2.12900 24.74400 29.99400
O  -2.06900 26.37100 31.47500
C  -1.28700 25.45900 32.38000
H  -8.65200 22.00700 28.87900
H  -7.77300 22.45400 22.46600
H  -3.50600 26.95500 23.27500
H  -4.87000 24.15800 31.17900
H  -7.55300 23.16900 30.92700
H  -4.92700 21.95400 31.02100
H  -5.83000 21.31300 29.64000
H  -6.45200 21.20800 31.25800
H  -7.62900 25.38700 31.48000
H  -6.50500 26.40100 30.69500
H  -6.31600 26.86900 33.09100
H  -4.82600 26.31100 32.26700
H  -10.28600 20.70200 28.00500
H  -10.60700 19.79200 26.65400
H  -11.51100 21.11800 26.68500
H  -11.33600 19.49700 23.06900
H  -11.68400 20.55900 24.47700
H  -10.32300 19.27900 24.48400
H  -6.69200 24.23000 21.18500
H  -3.79100 24.62300 21.73700
H  -5.56700 21.76500 21.63200
H  -4.20100 22.74600 21.13700
H  -5.49200 22.66600 19.98200
H  -5.31700 27.21800 21.56700
H  -5.90400 26.15800 20.28700
H  -3.83800 27.96300 20.23600
H  -4.21800 26.72400 19.00000
H  -2.95500 26.37100 20.10000
H  -2.71000 29.59500 25.07500
H  -1.93400 28.24900 24.28000
H  -1.35900 28.79100 25.95700
H  -3.89900 27.37300 30.34600
H  -0.35900 25.19500 31.87300
H  -1.86000 24.57700 32.66600
H  -1.04800 26.06100 33.25700

