158

Mg 53.07100 23.28700 45.13400
C  50.42700 25.53200 44.10900
C  51.11200 20.68100 43.88800
C  55.91800 21.48700 44.88900
C  54.86500 26.10200 46.30700
N  51.01500 23.23300 44.03100
C  50.13600 24.23700 43.72000
C  48.90400 23.64100 43.01200
C  48.99200 22.14200 43.44400
C  50.43700 21.97000 43.76800
C  48.04100 21.85800 44.62800
C  48.93900 23.67400 41.41100
C  47.61000 23.62800 40.70000
H  47.48100 22.91700 39.30900
N  53.46300 21.34400 44.61300
C  52.53500 20.40400 44.11800
C  53.23400 19.13000 43.93500
C  54.60200 19.28700 44.29500
C  54.72500 20.77100 44.67200
C  52.62300 17.93100 43.28700
C  55.69700 18.25000 44.18000
O  55.46000 17.08100 43.96000
C  57.11200 18.50100 44.63300
N  55.14500 23.75900 45.50500
C  56.08800 22.79100 45.48700
C  57.40000 23.25300 46.12400
C  57.12100 24.71100 46.60700
C  55.68800 24.91900 45.98100
C  57.79800 22.31700 47.29000
C  58.27400 25.74900 46.10600
C  59.13100 26.42100 47.19700
N  52.72600 25.39000 45.31800
C  53.50100 26.35300 45.91200
C  52.76700 27.62100 45.85600
C  51.52700 27.32400 45.17900
C  51.56600 25.97800 44.87200
C  53.23500 29.01600 46.29500
C  50.30800 27.93400 44.75100
O  49.83700 29.05200 44.98600
C  49.47500 26.75600 44.11200
C  48.89000 27.07700 42.76000
O  49.54700 27.36600 41.72500
O  47.55800 27.13200 42.88600
C  46.86300 27.44400 41.64100
H  50.49100 19.85000 43.54700
H  56.84300 20.95200 44.66200
H  55.53700 26.87400 46.68700
H  48.07700 24.23300 43.40300
H  48.71000 21.44000 42.65800
H  47.41300 22.73600 44.77900
H  48.62200 21.72000 45.54000
H  47.41700 21.02000 44.31700
H  49.47500 22.80400 41.03100
H  49.48800 24.56400 41.10400
H  47.34900 24.65200 40.43300
H  46.83600 23.27500 41.38100
H  53.09800 17.61300 42.35900
H  51.63600 18.16100 42.88700
H  52.54900 17.18000 44.07400
H  57.51200 19.03800 43.77300
H  57.58800 17.54300 44.84200
H  57.17300 19.10900 45.53500
H  58.15200 23.09400 45.35100
H  57.08800 24.82500 47.69100
H  58.85600 22.07000 47.20000
H  57.24300 21.38300 47.19900
H  57.61300 22.79400 48.25200
H  57.75500 26.51300 45.52800
H  59.01100 25.24200 45.48300
H  58.95800 25.85400 48.11100
H  58.84100 27.46700 47.29800
H  60.17900 26.37300 46.90300
H  54.10800 28.97600 46.94600
H  52.37900 29.53200 46.73000
H  53.42700 29.69300 45.46300
H  48.66900 26.62200 44.83400
H  46.12300 28.23100 41.78500
H  46.25200 26.62200 41.27000
H  47.45200 27.75500 40.77800
Mg 47.31200 14.39400 28.18600
C  45.14700 14.41000 30.84200
C  49.40900 16.43900 29.87300
C  49.13500 14.77500 25.32900
C  44.97800 12.39200 26.30600
N  47.24600 15.36600 30.17100
C  46.35500 15.11600 31.16600
C  46.83900 15.70200 32.48400
C  48.06400 16.61800 32.08100
C  48.29400 16.09000 30.63700
C  47.86600 18.20400 32.24800
C  47.09000 14.58400 33.54800
C  47.04000 15.09000 35.02500
H  48.34300 15.06400 35.86200
N  49.17900 15.31700 27.74600
C  49.86800 16.06200 28.59100
C  51.14400 16.43500 27.95900
C  51.01800 16.05600 26.61400
C  49.77100 15.33600 26.46800
C  52.21800 17.19800 28.72400
C  51.92000 16.21400 25.43300
O  51.65700 15.82500 24.29100
C  53.23000 16.88300 25.69900
N  47.17400 13.59400 26.20100
C  47.92400 14.07000 25.20100
C  47.55000 13.42000 23.80100
C  46.34900 12.53500 24.10500
C  46.16800 12.74800 25.67600
C  47.32600 14.38100 22.61000
C  46.51400 11.06000 23.70500
C  47.04300 10.03100 24.76300
N  45.47200 13.54700 28.45600
C  44.61300 12.79300 27.64900
C  43.41800 12.46700 28.29400
C  43.58800 13.06000 29.55800
C  44.86800 13.65700 29.64400
C  42.24700 11.52400 27.86000
C  42.98000 13.23800 30.81300
O  41.94000 12.82000 31.24200
C  43.98100 14.09400 31.76000
C  43.36400 15.29500 32.09900
O  43.06400 16.12900 31.25200
O  43.13800 15.33600 33.48100
C  42.84300 16.66900 33.97900
H  50.11800 17.08300 30.39600
H  49.49400 14.97300 24.31700
H  44.21600 11.92900 25.67400
H  45.99800 16.31800 32.80200
H  48.82900 16.21700 32.74700
H  48.56500 18.79400 31.65400
H  48.12100 18.34000 33.29900
H  46.85500 18.55100 32.03700
H  48.07100 14.15000 33.35300
H  46.31200 13.82400 33.48700
H  46.31100 14.42000 35.48100
H  46.55700 16.06700 34.99700
H  53.20900 16.81400 28.48300
H  52.10500 17.10700 29.80400
H  52.22400 18.22900 28.37200
H  52.99600 17.85400 26.13400
H  53.74300 17.10200 24.76300
H  53.85300 16.45700 26.48600
H  48.34800 12.74700 23.48600
H  45.50800 12.94500 23.54400
H  46.35800 14.37200 22.11000
H  48.05200 14.16500 21.82600
H  47.43100 15.43600 22.86100
H  47.06400 10.91100 22.77500
H  45.46600 10.81900 23.52900
H  47.18100 10.50500 25.73500
H  47.92800 9.54800 24.34900
H  46.32700 9.21700 24.86800
H  41.82800 11.59700 26.85700
H  41.52400 11.82200 28.61900
H  42.55600 10.48500 27.98100
H  44.26200 13.59300 32.68600
H  43.73800 17.25300 34.19200
H  42.33300 16.52300 34.93100
H  42.17600 17.16900 33.27800

