158

Mg 40.40800 9.92900 29.03900
C  42.26300 11.31900 31.61100
C  38.31400 8.66100 31.45000
C  38.70200 8.52400 26.45600
C  42.99600 10.64600 26.76900
N  40.36500 9.99700 31.25900
C  41.10500 10.73100 32.10000
C  40.62500 10.62800 33.49100
C  39.54900 9.53600 33.52100
C  39.32200 9.45000 31.96300
C  39.96900 8.14100 34.13800
C  40.24800 11.96900 34.09700
C  39.92800 11.79100 35.59900
H  40.83100 12.42600 36.75600
N  38.69800 8.84200 28.96100
C  38.01000 8.39100 30.08100
C  36.90100 7.59600 29.63900
C  36.94100 7.63100 28.21500
C  38.16000 8.34400 27.77000
C  36.08800 6.73100 30.52500
C  35.92100 7.07000 27.26600
O  36.14300 7.09500 26.05500
C  34.61200 6.58600 27.77400
N  40.89200 9.45700 26.93700
C  39.94900 9.03800 26.08400
C  40.52600 9.04000 24.61100
C  41.89500 9.76000 24.80000
C  41.94300 9.97900 26.24200
C  40.48700 7.70900 23.81900
C  41.94100 11.08700 23.92800
C  41.39500 12.43000 24.62900
N  42.29200 10.76400 29.12100
C  43.22500 10.97700 28.10600
C  44.35700 11.72800 28.65000
C  44.01400 11.83500 30.06100
C  42.73800 11.19300 30.27200
C  45.42500 12.34500 27.84900
C  44.45700 12.38000 31.33400
O  45.48400 12.96600 31.65700
C  43.32000 12.16100 32.35300
C  43.92900 11.43900 33.53400
O  44.41800 10.31800 33.48700
O  43.71100 12.19000 34.60800
C  44.03400 11.65000 35.90400
H  37.66000 8.27100 32.23300
H  38.15900 8.33000 25.52900
H  43.70000 11.02600 26.02600
H  41.40700 10.30600 34.17800
H  38.58000 9.74500 33.97500
H  39.19000 7.87400 34.85200
H  40.94200 8.31100 34.59800
H  40.01500 7.36400 33.37400
H  39.36200 12.34100 33.58200
H  41.02800 12.69100 33.85700
H  39.85300 10.74500 35.89700
H  38.96900 12.21700 35.89400
H  36.60000 6.55100 31.47000
H  36.11400 5.79000 29.97600
H  35.02600 6.96600 30.59400
H  34.80800 5.57900 28.14200
H  33.85600 6.48300 26.99500
H  34.20600 7.27300 28.51600
H  39.81300 9.72400 24.14900
H  42.73600 9.13500 24.50100
H  40.27800 6.90200 24.52100
H  41.42700 7.59400 23.27800
H  39.58700 7.82400 23.21500
H  41.44200 10.93000 22.97200
H  43.01600 11.24600 23.84800
H  42.18500 13.17900 24.68700
H  40.91800 12.20000 25.58200
H  40.55300 12.63400 23.96800
H  45.19200 13.36700 27.55000
H  45.70700 11.74600 26.98300
H  46.29000 12.47800 28.50000
H  42.88500 13.14500 32.53400
H  43.38600 10.79800 36.10800
H  43.96700 12.35400 36.73300
H  45.09500 11.40300 35.92400
Mg -10.29100 39.28400 41.63900
C  -8.89500 36.12400 40.93600
C  -7.80500 40.70400 39.86700
C  -12.23500 42.03100 41.32200
C  -13.23300 37.50900 42.57400
N  -8.54900 38.48700 40.56800
C  -8.13800 37.15500 40.40700
C  -6.83500 37.08100 39.63000
C  -6.51500 38.53600 39.29000
C  -7.70300 39.32100 39.93700
C  -5.14200 39.00300 39.82800
C  -6.92000 36.03100 38.38400
C  -5.64500 35.34200 38.07900
H  -4.65800 36.19500 37.18900
N  -9.92100 41.16100 40.96500
C  -8.80600 41.58700 40.32400
C  -8.83300 42.97300 40.08300
C  -10.16200 43.42400 40.53000
C  -10.88900 42.18600 40.92000
C  -7.74100 43.74100 39.36800
C  -10.64600 44.86000 40.63800
O  -10.07000 45.76000 40.16300
C  -11.98400 45.23800 41.40900
N  -12.48300 39.72000 41.82500
C  -12.93300 40.98800 41.76900
C  -14.47800 41.00800 42.20200
C  -14.70900 39.50500 42.51600
C  -13.38600 38.88700 42.34300
C  -14.91600 42.08400 43.25600
C  -15.82900 38.89500 41.64300
C  -15.42800 38.27400 40.34200
N  -10.99800 37.21600 41.82100
C  -12.10300 36.72500 42.37000
C  -11.96500 35.29800 42.56400
C  -10.72700 34.96300 41.97600
C  -10.14800 36.20900 41.58600
C  -12.90700 34.39000 43.33000
C  -9.71900 33.93700 41.86400
O  -9.64400 32.75300 42.15200
C  -8.55900 34.62600 41.05300
C  -7.16700 34.42700 41.76200
O  -6.29900 33.61100 41.46400
O  -7.01200 35.37400 42.77100
C  -5.95200 35.10100 43.76500
H  -7.13000 41.13300 39.12300
H  -12.94400 42.85700 41.24300
H  -14.07500 37.04100 43.08700
H  -6.17000 36.72500 40.41700
H  -6.52900 38.65400 38.20700
H  -5.26300 39.85100 40.50200
H  -4.69300 39.53800 38.99200
H  -4.52200 38.22800 40.28000
H  -7.12900 36.61000 37.48400
H  -7.74600 35.32300 38.31800
H  -5.89500 34.39900 37.59100
H  -5.08100 35.03600 38.96000
H  -7.27200 43.12800 38.59800
H  -7.02700 44.09600 40.11100
H  -8.17700 44.59200 38.84500
H  -12.10200 44.62900 42.30400
H  -12.86000 45.06700 40.78400
H  -12.07000 46.31600 41.54900
H  -14.95700 41.30900 41.27000
H  -14.90200 39.27900 43.56400
H  -15.47200 42.89600 42.78600
H  -14.04400 42.37000 43.84500
H  -15.63000 41.71100 43.99100
H  -16.56400 39.67100 41.42900
H  -16.33200 38.13600 42.24300
H  -16.08400 38.77000 39.62700
H  -15.64400 37.20700 40.40200
H  -14.37800 38.41600 40.08600
H  -12.66000 34.31100 44.38900
H  -12.74400 33.40200 42.89900
H  -13.94300 34.72000 43.25900
H  -8.38500 34.09000 40.12000
H  -4.96000 34.93800 43.34400
H  -6.38600 34.30200 44.36700
H  -5.84700 36.03200 44.32300

