158

Mg 8.99600 3.26200 27.07800
C  10.13100 1.76900 30.00800
C  7.13000 5.47700 29.01500
C  7.34400 4.22000 24.27400
C  10.46700 0.69300 25.21200
N  8.52500 3.46800 29.25300
C  9.22500 2.76500 30.25400
C  8.95500 3.39000 31.62600
C  7.87600 4.38000 31.35700
C  7.81400 4.50300 29.78000
C  6.42500 4.14100 31.90100
C  10.22100 4.09500 32.18400
C  10.76100 3.58000 33.50300
H  10.94900 4.46500 34.71600
N  7.49300 4.64500 26.68400
C  6.93000 5.53800 27.59700
C  6.13300 6.54500 26.91000
C  6.34900 6.30600 25.54800
C  7.06000 5.00100 25.43900
C  5.16000 7.51500 27.53900
C  5.95700 7.19600 24.27200
O  6.20600 6.89200 23.11800
C  5.32400 8.55500 24.48000
N  8.80500 2.47200 25.01200
C  8.12600 3.10600 24.06400
C  8.29000 2.46900 22.70800
C  9.46900 1.50000 23.01000
C  9.58700 1.55000 24.46600
C  6.97200 1.66000 22.32000
C  10.78700 1.77500 22.24300
C  11.25600 0.55700 21.36600
N  10.14000 1.63100 27.47700
C  10.73100 0.72700 26.61700
C  11.48500 -0.24100 27.40600
C  11.33200 0.18700 28.76400
C  10.41300 1.27500 28.65200
C  12.39700 -1.39800 26.93700
C  11.75300 -0.04000 30.11800
O  12.70100 -0.74800 30.53900
C  10.93400 1.02800 31.00800
C  10.18100 0.30300 32.04200
O  9.06500 -0.13200 31.96700
O  10.98500 0.22200 33.15800
C  10.36600 -0.57500 34.24200
H  6.54500 6.17000 29.62300
H  6.82800 4.62600 23.40200
H  11.02400 -0.07300 24.66800
H  8.70600 2.51400 32.22500
H  8.05000 5.39500 31.71300
H  6.48000 3.14500 32.33900
H  5.68400 4.12400 31.10200
H  6.26900 4.97600 32.58400
H  10.07100 5.15000 32.41500
H  11.00200 3.93000 31.44200
H  11.79100 3.37900 33.20600
H  10.31200 2.71000 33.98100
H  4.21100 6.97900 27.53600
H  5.09600 8.47800 27.03300
H  5.42300 7.77900 28.56400
H  5.19000 9.13600 23.56700
H  5.96700 9.18600 25.09400
H  4.37000 8.45300 24.99700
H  8.61700 3.26200 22.03500
H  9.03900 0.50800 22.87300
H  6.71000 2.05900 21.34100
H  6.07200 1.84500 22.90700
H  7.11700 0.58000 22.32400
H  11.53500 1.85500 23.03200
H  10.55900 2.69000 21.69600
H  10.45400 -0.13800 21.11500
H  11.95500 0.01000 22.00000
H  11.72200 0.91800 20.44900
H  13.44000 -1.08100 26.89800
H  12.11300 -1.74900 25.94500
H  12.33600 -2.30500 27.53800
H  11.58600 1.73800 31.51600
H  9.66900 0.09700 34.74300
H  11.16200 -0.69000 34.97700
H  9.89700 -1.54500 34.07500
Mg 36.92600 49.55900 24.37100
C  36.96400 47.72200 27.36100
C  35.69800 52.27200 26.37100
C  36.06700 51.10200 21.57500
C  37.53300 46.68500 22.63700
N  36.51400 49.95000 26.59300
C  36.69300 49.07500 27.63900
C  36.47600 49.78400 29.02400
C  36.15200 51.26100 28.65500
C  36.16100 51.17000 27.09900
C  34.88100 51.81400 29.33800
C  37.85400 49.61800 29.87000
C  37.87200 49.16900 31.31800
H  36.54500 48.95100 32.05000
N  36.06200 51.39200 24.06600
C  35.71500 52.42100 24.95000
C  35.19000 53.54500 24.17000
C  35.27400 53.21100 22.79600
C  35.85600 51.89600 22.78900
C  34.82000 54.76300 24.97500
C  34.80700 53.95900 21.54800
O  34.87700 53.48800 20.43500
C  34.15400 55.35500 21.71300
N  36.73100 48.93600 22.37700
C  36.44700 49.76900 21.34000
C  36.80800 49.23000 20.03800
C  37.42700 47.85400 20.39600
C  37.21100 47.77200 21.87700
C  35.56800 49.34900 19.08200
C  38.96600 47.82700 20.14400
C  39.35200 46.49900 19.55900
N  37.28600 47.61200 24.86600
C  37.50800 46.53200 24.02200
C  37.69100 45.37300 24.82200
C  37.54200 45.81500 26.16500
C  37.25300 47.16200 26.12700
C  37.86100 44.02100 24.33800
C  37.46300 45.38000 27.53900
O  37.82000 44.29900 28.01700
C  37.08600 46.57500 28.31000
C  35.79900 46.28800 29.08900
O  34.65500 46.69700 28.80300
O  36.14000 45.60100 30.17000
C  34.95400 45.23700 30.92900
H  35.28700 53.19100 26.79400
H  35.94000 51.58600 20.60400
H  37.71800 45.74900 22.10500
H  35.61500 49.40600 29.57600
H  36.97700 51.94200 28.86300
H  34.10700 52.06700 28.61400
H  35.01300 52.67700 29.99200
H  34.53300 51.06000 30.04400
H  38.42300 50.54800 29.85600
H  38.43000 48.91700 29.26500
H  38.44400 49.90200 31.88800
H  38.31000 48.17200 31.26000
H  34.34200 55.52900 24.36400
H  35.68800 55.14000 25.51500
H  34.07200 54.49800 25.72200
H  33.75200 55.69900 20.76000
H  34.87200 56.13300 21.97300
H  33.33000 55.36100 22.42700
H  37.62800 49.88500 19.74200
H  37.00100 47.01300 19.84900
H  34.68300 49.74300 19.58200
H  35.33900 48.34300 18.73000
H  35.81400 49.91000 18.18100
H  39.59900 47.92900 21.02500
H  39.36500 48.58500 19.47000
H  39.09000 45.69500 20.24600
H  40.42800 46.39400 19.41800
H  38.85500 46.40000 18.59400
H  38.87600 43.91600 23.95400
H  37.02700 43.76900 23.68300
H  37.83100 43.47300 25.27900
H  37.77000 46.93300 29.07900
H  35.17700 44.61600 31.79600
H  34.27200 44.62600 30.33600
H  34.31900 46.03000 31.32400

