158

Mg 8.98700 3.97900 27.99400
C  10.34200 2.22200 30.67800
C  7.13700 5.80700 30.18200
C  7.67700 5.37700 25.33600
C  10.51400 1.46700 25.87900
N  8.75000 3.98500 30.20800
C  9.44600 3.22600 31.10600
C  9.18800 3.73100 32.57700
C  7.98700 4.78900 32.35800
C  8.02100 4.98700 30.82500
C  6.62900 4.23100 32.85500
C  10.50000 4.25800 33.39100
C  10.76600 3.71900 34.74400
H  11.10200 4.77500 35.82400
N  7.74800 5.43300 27.79900
C  7.04900 6.00200 28.81100
C  6.28100 7.11400 28.22100
C  6.58500 7.17000 26.79800
C  7.35300 5.89600 26.54200
C  5.51900 8.18100 28.98500
C  6.28700 8.21700 25.77700
O  6.71900 8.15900 24.63300
C  5.39500 9.46000 26.14900
N  8.97200 3.39300 25.90900
C  8.40800 4.21900 25.00200
C  8.68400 3.77500 23.55200
C  9.63000 2.54200 23.69400
C  9.72100 2.39900 25.24100
C  7.38700 3.54700 22.71000
C  10.99200 2.57100 22.99700
C  11.44200 1.29400 22.27100
N  10.15700 2.21000 28.15000
C  10.72900 1.31000 27.28100
C  11.37900 0.21500 27.96000
C  11.35900 0.55600 29.31800
C  10.64400 1.73500 29.36800
C  12.13000 -0.98000 27.32500
C  11.87300 0.18500 30.63500
O  12.62700 -0.74700 30.95300
C  11.17400 1.21700 31.58600
C  10.39000 0.38800 32.48700
O  9.27700 -0.07300 32.20500
O  11.04900 0.30400 33.68000
C  10.36900 -0.35300 34.76900
H  6.41800 6.32000 30.82400
H  7.33300 5.85400 24.41600
H  10.91800 0.68900 25.22900
H  8.76900 2.92800 33.18400
H  8.09000 5.72800 32.90300
H  6.48600 4.70600 33.82600
H  6.64600 3.15000 32.98800
H  5.76300 4.52900 32.26400
H  10.38000 5.33700 33.48900
H  11.41500 3.94800 32.88800
H  11.67700 3.13700 34.61200
H  9.96000 3.11900 35.16700
H  4.63800 8.38900 28.37800
H  6.04300 9.12900 29.11100
H  5.08200 7.93600 29.95400
H  4.37500 9.20500 26.43600
H  5.28500 9.98800 25.20200
H  5.83600 10.12500 26.89200
H  9.17900 4.65000 23.13100
H  9.00800 1.71600 23.34900
H  6.59100 4.13800 23.16400
H  7.11100 2.53100 22.42500
H  7.68300 4.04700 21.78800
H  11.77300 2.90200 23.68100
H  10.91800 3.30200 22.19200
H  12.12300 1.50600 21.44700
H  10.55700 0.76900 21.91100
H  11.85500 0.65900 23.05400
H  12.13200 -1.83100 28.00600
H  13.04800 -0.65500 26.83500
H  11.48600 -1.34600 26.52600
H  12.01800 1.70600 32.07300
H  11.01800 -0.85900 35.48400
H  9.62600 -1.08900 34.46200
H  9.90600 0.42800 35.37200
Mg 0.28300 43.70600 26.06900
C  2.35500 43.66300 28.97000
C  -2.40600 42.82100 28.01900
C  -1.38200 42.81000 23.38000
C  3.22500 44.16000 24.18100
N  0.04700 43.14600 28.27600
C  0.93000 43.43000 29.25800
C  0.20000 43.41900 30.60400
C  -1.21000 42.90900 30.30900
C  -1.21300 42.96200 28.76100
C  -1.52200 41.46600 30.80700
C  0.27100 44.82600 31.29800
C  1.01600 44.87000 32.67900
H  0.87300 43.72400 33.67900
N  -1.71600 43.27800 25.70200
C  -2.67700 42.86700 26.60400
C  -3.95400 42.63500 25.94500
C  -3.57300 42.57700 24.54100
C  -2.16300 42.86700 24.54200
C  -5.29500 42.54500 26.73700
C  -4.46300 42.14000 23.34100
O  -4.01200 42.11100 22.19100
C  -5.97800 41.82700 23.62400
N  0.82200 43.63600 23.98400
C  -0.10300 43.25800 23.16600
C  0.52000 43.07200 21.81200
C  1.95500 43.77600 21.93400
C  2.04500 43.87700 23.41200
C  0.63300 41.53600 21.36600
C  1.97300 45.16800 21.24700
C  1.67300 46.47700 22.03000
N  2.41300 43.88300 26.43400
C  3.43100 44.06000 25.57100
C  4.64300 44.37000 26.35400
C  4.25600 44.13800 27.66400
C  2.90100 43.86700 27.67400
C  5.91600 44.97100 25.84700
C  4.76700 44.10300 29.01700
O  5.89200 44.31800 29.46500
C  3.49500 44.03400 29.99800
C  3.77600 42.89400 30.89400
O  3.55400 41.68600 30.64600
O  4.42800 43.27900 32.08700
C  4.84200 42.14700 33.03200
H  -3.33300 42.53200 28.51800
H  -1.83900 42.41700 22.46900
H  4.17700 44.22400 23.65000
H  0.58000 42.72000 31.34900
H  -2.02400 43.55300 30.64200
H  -2.33500 41.44300 31.53200
H  -0.62100 41.04900 31.25700
H  -1.97700 40.92100 29.98000
H  -0.67800 45.32700 31.48900
H  0.83000 45.45800 30.60700
H  0.78300 45.75400 33.27100
H  2.08500 44.92700 32.47500
H  -6.15400 42.94000 26.19400
H  -5.15400 42.84400 27.77600
H  -5.41300 41.46900 26.86200
H  -6.13300 41.10300 24.42400
H  -6.43000 41.53100 22.67700
H  -6.47400 42.73400 23.96700
H  -0.15200 43.52300 21.08200
H  2.71300 43.08200 21.57200
H  0.23800 40.87100 22.13400
H  1.67400 41.26400 21.19000
H  0.15700 41.25300 20.42800
H  1.23800 45.21600 20.44300
H  3.00400 45.22800 20.90000
H  1.02000 46.39100 22.89900
H  1.32100 47.14900 21.24800
H  2.53000 46.96900 22.49100
H  6.51300 45.51700 26.57700
H  5.71800 45.64900 25.01700
H  6.50300 44.16500 25.40600
H  3.36900 44.92900 30.60800
H  5.92600 42.13000 33.14400
H  4.48400 41.16900 32.70800
H  4.40600 42.39800 33.99900

