158

Mg 1.99900 -1.61600 43.91200
C  5.32500 -1.39100 42.97900
C  1.25300 0.98500 41.71600
C  -1.29600 -2.52500 43.75900
C  2.79600 -4.61400 45.58500
N  3.18400 -0.30600 42.51900
C  4.57500 -0.33000 42.41800
C  5.04200 0.79300 41.53700
C  3.69900 1.59800 41.29700
C  2.62400 0.69100 41.87500
C  3.62300 2.94000 41.99400
C  5.75300 0.40300 40.15800
C  6.88900 1.36700 39.68300
H  6.69000 2.17800 38.35900
N  0.18800 -0.78000 43.01100
C  0.08100 0.25800 42.14700
C  -1.23200 0.65500 42.01100
C  -2.05400 -0.26900 42.68300
C  -1.08800 -1.32100 43.17700
C  -1.64600 1.98000 41.33900
C  -3.59600 -0.18000 42.80800
O  -4.21500 0.68400 42.20700
C  -4.28700 -1.17900 43.86500
N  0.95800 -3.23000 44.59800
C  -0.35900 -3.44900 44.27200
C  -0.79700 -4.90100 44.61200
C  0.40000 -5.53600 45.31200
C  1.45800 -4.40400 45.17300
C  -2.12600 -5.10600 45.28000
C  0.87600 -6.91300 44.77900
C  -0.05100 -8.07100 45.07400
N  3.75100 -2.65600 44.48500
C  3.96000 -3.86400 45.17600
C  5.37200 -4.13100 45.24900
C  5.93500 -3.17200 44.41100
C  4.94500 -2.35200 43.89000
C  6.02600 -5.30200 45.83500
C  7.18500 -2.73400 43.86000
O  8.37000 -2.99100 44.08700
C  6.77700 -1.64000 42.84900
C  7.56000 -0.49200 43.22400
O  7.57200 0.14900 44.25600
O  8.38200 -0.16200 42.20100
C  9.19100 1.03700 42.38500
H  1.06700 1.90400 41.15600
H  -2.33100 -2.86400 43.68200
H  3.08900 -5.58700 45.98600
H  5.73900 1.40400 42.11100
H  3.46400 1.69500 40.23700
H  4.37200 2.84900 42.78000
H  2.63200 3.01700 42.44200
H  3.93600 3.68300 41.26000
H  4.94700 0.36600 39.42500
H  6.29000 -0.54400 40.19600
H  7.85100 0.89200 39.48900
H  7.20800 2.06300 40.45900
H  -2.67100 2.24600 41.59500
H  -1.57100 1.98100 40.25200
H  -1.11300 2.77400 41.86300
H  -5.17800 -0.69600 44.26500
H  -3.59200 -1.32800 44.69200
H  -4.51800 -2.16600 43.46500
H  -0.86800 -5.43200 43.66300
H  0.26600 -5.62100 46.39000
H  -2.84900 -5.47400 44.55300
H  -2.56100 -4.17200 45.63700
H  -2.03100 -5.81100 46.10600
H  1.85700 -7.17400 45.17600
H  1.06700 -6.79000 43.71300
H  -0.96700 -7.87100 45.63000
H  0.45400 -8.77000 45.74000
H  -0.23100 -8.58100 44.12700
H  6.25100 -6.15200 45.19100
H  5.55800 -5.70000 46.73600
H  6.90400 -4.86800 46.31400
H  6.98400 -2.00600 41.84400
H  9.79900 0.85100 43.27000
H  8.55800 1.91300 42.24800
H  9.95900 1.06900 41.61200
Mg 43.41500 3.34200 47.15500
C  41.47800 6.27000 47.12300
C  40.68600 1.45100 47.06300
C  45.46800 0.71400 46.84100
C  46.28200 5.52200 46.39500
N  41.31500 3.90200 47.07200
C  40.70300 5.08800 47.14900
C  39.18700 4.91000 46.99500
C  39.05300 3.37700 47.19700
C  40.44100 2.82000 47.04300
C  38.27400 2.87000 48.49200
C  38.52100 5.39900 45.68500
C  38.99100 4.75400 44.30300
H  39.67700 5.62200 43.24200
N  43.10600 1.27400 47.15800
C  41.85500 0.68900 47.20800
C  42.00600 -0.78700 47.11000
C  43.43200 -1.01900 47.08200
C  44.09200 0.33600 47.03300
C  40.83500 -1.76800 47.23000
C  44.16200 -2.37600 47.07700
O  43.46800 -3.36200 47.10400
C  45.65700 -2.61700 47.05400
N  45.52700 3.20000 46.72600
C  46.14600 1.97800 46.76900
C  47.70900 2.03600 46.74200
C  47.90200 3.56100 46.44600
C  46.45600 4.14900 46.42400
C  48.39700 1.46800 48.00500
C  48.79800 3.86700 45.16900
C  49.90800 4.86200 45.45300
N  43.90800 5.47100 46.76000
C  45.02600 6.18700 46.53300
C  44.75300 7.58900 46.56400
C  43.35900 7.66000 46.75800
C  42.87900 6.32800 46.85200
C  45.64200 8.71700 46.55200
C  42.26000 8.60700 46.86000
O  42.19400 9.82300 46.85000
C  40.92100 7.66700 47.00400
C  40.05600 8.04200 48.16100
O  40.27100 7.77600 49.29100
O  39.10600 8.98300 47.71700
C  38.28900 9.58400 48.81000
H  39.80000 0.82400 46.94500
H  46.08400 -0.18200 46.73900
H  47.11900 6.15900 46.10200
H  38.77600 5.51500 47.80300
H  38.50300 2.96200 46.35200
H  37.94500 3.73700 49.06500
H  38.89200 2.14800 49.02600
H  37.38100 2.34000 48.16100
H  38.61800 6.47800 45.57400
H  37.47500 5.09200 45.72600
H  38.16700 4.31300 43.74200
H  39.66500 3.90400 44.40800
H  39.90900 -1.25600 47.48900
H  40.97200 -2.50100 48.02500
H  40.89500 -2.31200 46.28700
H  46.08300 -2.33200 46.09200
H  45.78700 -3.68500 46.87500
H  46.19800 -2.29100 47.94300
H  48.16700 1.48200 45.92200
H  48.35700 4.01500 47.32700
H  47.59500 1.46200 48.74400
H  49.21700 2.13500 48.27300
H  48.70700 0.44400 47.79800
H  48.19900 4.20900 44.32500
H  49.21300 2.90600 44.86600
H  50.85000 4.41400 45.13600
H  50.09400 5.24900 46.45500
H  49.70900 5.79500 44.92500
H  45.41800 9.36200 45.70300
H  46.66000 8.32700 46.56600
H  45.43000 9.34000 47.42100
H  40.51100 7.94600 46.03300
H  38.72800 10.49100 49.22500
H  38.04500 8.91100 49.63200
H  37.32400 9.71100 48.31900

