158

Mg 47.88200 45.12000 43.37800
C  44.46900 45.46200 42.65400
C  47.76900 41.98900 41.98000
C  51.25500 45.33700 43.14200
C  47.76100 48.42700 44.62800
N  46.34300 43.94300 42.40500
C  45.01800 44.26900 42.24600
C  44.31000 43.11700 41.48400
C  45.24500 41.91400 41.74300
C  46.50900 42.63300 42.06300
C  44.80900 41.01400 42.94600
C  44.16500 43.51100 39.97100
C  42.88100 43.01500 39.25600
H  42.81000 43.33500 37.80900
N  49.34200 43.82900 42.73400
C  49.07400 42.57600 42.18700
C  50.34700 41.87000 42.04900
C  51.42700 42.77100 42.34700
C  50.67500 44.05500 42.68700
C  50.49000 40.37000 41.69700
C  52.88500 42.39400 42.26700
O  53.27600 41.27400 41.91100
C  53.94500 43.35000 42.67300
N  49.28100 46.72800 43.51900
C  50.65900 46.51200 43.58000
C  51.39800 47.80700 44.11900
C  50.19900 48.76600 44.29100
C  48.98000 47.87600 44.23800
C  52.18800 47.58900 45.33800
C  50.19700 49.79200 43.10200
C  49.83800 51.25700 43.54500
N  46.43500 46.66000 43.65800
C  46.50100 47.90100 44.16900
C  45.25300 48.64200 44.15500
C  44.42200 47.71700 43.51400
C  45.18700 46.54900 43.22500
C  44.95800 49.94300 44.77400
C  43.11800 47.54600 43.05100
O  42.18900 48.32900 43.08300
C  43.07200 46.03300 42.43000
C  41.99400 45.26800 43.09900
O  41.30900 44.42700 42.52300
O  41.84700 45.56300 44.46100
C  40.94600 44.66400 45.23600
H  47.72700 40.94000 41.68100
H  52.34300 45.29900 43.05300
H  47.73700 49.42600 45.06800
H  43.33000 42.84100 41.87200
H  45.47300 41.33100 40.85000
H  44.69900 39.99400 42.57900
H  43.82000 41.12400 43.39200
H  45.63500 40.91400 43.65000
H  45.02700 43.31100 39.33500
H  44.05100 44.57100 39.74400
H  42.11200 43.55800 39.80600
H  42.68800 41.94800 39.36300
H  50.80800 40.37800 40.65500
H  49.69300 39.64000 41.83600
H  51.33400 40.02600 42.29400
H  53.91200 44.24400 42.04900
H  54.88700 42.83100 42.49100
H  53.79600 43.44200 43.74800
H  52.14600 48.11600 43.38800
H  50.15800 49.29600 45.24300
H  52.46700 46.53500 45.36300
H  51.58300 47.82200 46.21400
H  53.05700 48.24700 45.32900
H  49.49300 49.52100 42.31500
H  51.15300 49.82500 42.57900
H  50.76100 51.82700 43.65100
H  49.37000 51.26200 44.52900
H  49.20300 51.64500 42.74800
H  45.20700 50.77800 44.11900
H  45.69600 50.04400 45.57000
H  43.97300 49.95200 45.23900
H  42.88300 46.07800 41.35800
H  41.10800 44.96300 46.27200
H  41.22400 43.62100 45.08700
H  39.96100 44.92500 44.85000
Mg 9.34200 48.79800 25.98900
C  7.27100 49.16300 28.85900
C  11.99000 49.85100 27.79800
C  11.06100 48.68100 23.11800
C  6.37000 48.32700 24.12100
N  9.54500 49.33900 28.11000
C  8.58600 49.33400 29.14700
C  9.31200 49.63700 30.42200
C  10.67000 50.31400 29.94000
C  10.78200 49.81600 28.48200
C  10.61300 51.84600 30.12700
C  9.60300 48.37600 31.28000
C  9.87400 48.55400 32.71800
H  9.94400 47.33600 33.61400
N  11.26500 49.14600 25.55700
C  12.26800 49.48200 26.50400
C  13.47800 49.38100 25.78400
C  13.25700 49.15900 24.40200
C  11.81100 48.96000 24.28400
C  14.83400 49.61500 26.50200
C  14.23700 49.11900 23.28100
O  13.92600 48.90900 22.09700
C  15.67200 49.44700 23.58800
N  8.80300 48.61000 23.95200
C  9.69900 48.54200 22.95900
C  9.02700 48.30000 21.53200
C  7.55500 48.44200 21.83900
C  7.57100 48.47500 23.42600
C  9.55100 49.20900 20.38800
C  6.64500 47.35400 21.27600
C  5.66700 47.77500 20.16300
N  7.28000 48.56700 26.34700
C  6.20100 48.35800 25.49000
C  4.97400 48.31500 26.20900
C  5.37500 48.66600 27.56600
C  6.77600 48.86500 27.56800
C  3.65800 48.16700 25.56600
C  4.85300 48.93500 28.87400
O  3.71800 49.09500 29.36100
C  6.11300 49.13600 29.79300
C  6.18000 47.94800 30.74800
O  6.08700 46.76400 30.41600
O  6.46000 48.46300 31.98500
C  6.53600 47.43500 33.02500
H  12.84700 50.27600 28.32500
H  11.68800 48.60300 22.22800
H  5.43600 48.24000 23.56200
H  8.60600 50.24700 30.98700
H  11.49100 49.92800 30.54500
H  9.57700 52.18100 30.08000
H  11.04500 52.34200 29.25700
H  11.06500 52.03500 31.10100
H  10.59700 48.06500 30.95700
H  8.96000 47.53300 31.02600
H  9.04900 49.10600 33.16800
H  10.76400 49.17900 32.80000
H  14.55500 49.82500 27.53500
H  15.38600 50.49500 26.17200
H  15.43800 48.70800 26.50700
H  16.11000 48.85700 24.39200
H  15.66700 50.47800 23.94300
H  16.28100 49.52800 22.68800
H  9.12300 47.26300 21.20900
H  7.07200 49.39100 21.60500
H  8.69300 49.71900 19.95200
H  10.08200 48.55200 19.69900
H  10.30100 49.89200 20.78800
H  5.97000 46.92100 22.01400
H  7.21300 46.52400 20.85400
H  4.67900 47.65200 20.60800
H  5.73000 47.02100 19.37900
H  5.78400 48.78900 19.78000
H  3.57600 47.24600 24.98900
H  3.47500 49.01600 24.90800
H  2.89000 48.22000 26.33700
H  5.92600 50.02200 30.40000
H  5.72400 46.71800 32.90300
H  6.46900 47.85000 34.03100
H  7.47900 46.89200 32.97200

