158

Mg 55.84300 24.69900 44.64200
C  52.93300 26.44600 43.48400
C  54.41800 21.92100 43.30700
C  58.94300 23.28100 44.78700
C  57.09600 27.68500 45.68600
N  54.03400 24.32700 43.28800
C  53.01600 25.17100 42.96200
C  51.99800 24.49700 42.04400
C  52.23000 23.05600 42.57100
C  53.67600 23.05500 43.07400
C  51.15700 22.48900 43.52000
C  52.43000 24.67500 40.48400
C  51.37600 25.21200 39.44500
H  51.12600 24.33600 38.25100
N  56.53300 22.86400 44.25700
C  55.80900 21.81500 43.84800
C  56.59100 20.62500 43.81900
C  57.93100 20.94300 44.33900
C  57.84100 22.41500 44.40800
C  56.03800 19.30100 43.44400
C  59.11400 19.96500 44.67200
O  58.89700 18.80600 44.42200
C  60.47600 20.33400 45.09200
N  57.76600 25.39100 45.10700
C  58.95000 24.65100 45.01700
C  60.19200 25.55700 45.21200
C  59.53200 26.91500 45.68700
C  58.05700 26.69900 45.49900
C  61.32400 24.97300 46.15200
C  60.04100 28.16500 44.96300
C  60.28600 29.44800 45.81700
N  55.19900 26.60300 44.71100
C  55.75000 27.68100 45.38300
C  54.81900 28.78000 45.42600
C  53.71600 28.37600 44.68400
C  54.00600 27.03100 44.28000
C  55.07600 30.09900 46.13500
C  52.36900 28.66200 44.22500
O  51.67800 29.62400 44.48400
C  51.85700 27.42100 43.42800
C  51.62000 27.86000 42.04700
O  52.51500 28.21500 41.24700
O  50.30900 27.70400 41.81400
C  49.87600 28.25500 40.59000
H  53.90900 20.96700 43.15700
H  59.93200 22.82400 44.70600
H  57.45900 28.64600 46.05700
H  50.97500 24.81400 42.24700
H  52.30100 22.42200 41.68800
H  51.67200 22.42400 44.47900
H  50.88200 21.49200 43.17500
H  50.25900 23.10700 43.51900
H  52.97600 23.80100 40.12900
H  53.21500 25.43200 40.47000
H  51.73500 26.21100 39.19500
H  50.44200 25.16400 40.00400
H  56.04300 19.16000 42.36300
H  55.00500 19.40000 43.77600
H  56.54900 18.51900 44.00600
H  61.07700 19.46700 45.36600
H  60.42800 21.04500 45.91700
H  61.00900 20.88200 44.31500
H  60.57100 25.66200 44.19600
H  59.64800 26.98700 46.76800
H  61.68500 25.69500 46.88400
H  62.13200 24.57600 45.53700
H  60.83300 24.18500 46.72200
H  59.35100 28.47700 44.17900
H  60.98400 27.80100 44.55600
H  59.58000 29.65800 46.61900
H  60.39400 30.38800 45.27500
H  61.20600 29.22100 46.35600
H  55.32000 30.80000 45.33600
H  55.93700 29.97700 46.79200
H  54.20600 30.35500 46.74000
H  50.88200 27.18500 43.85400
H  48.84200 27.92800 40.48900
H  50.38500 27.96000 39.67200
H  49.75100 29.33000 40.71800
Mg 50.43900 46.21300 40.81000
C  47.28400 47.38900 39.96800
C  49.56200 43.11900 39.60700
C  53.53800 45.20100 41.34400
C  51.42800 49.57800 41.42000
N  48.66300 45.36400 39.97000
C  47.46500 46.04200 39.60000
C  46.45000 45.07900 38.96000
C  47.08500 43.74000 39.21600
C  48.55000 44.10300 39.60600
C  46.42300 42.88800 40.38700
C  46.15700 45.43100 37.43500
C  45.12700 44.50800 36.79200
H  45.68500 43.77700 35.54800
N  51.46200 44.40100 40.55300
C  50.86200 43.25800 40.11800
C  51.84800 42.17700 40.17300
C  53.00000 42.73800 40.72800
C  52.72800 44.15900 40.90800
C  51.55400 40.77400 39.81500
C  54.26800 41.95000 41.01900
O  54.33500 40.79400 40.67200
C  55.45700 42.52400 41.74400
N  52.29500 47.32500 41.14400
C  53.34400 46.57200 41.56200
C  54.51000 47.51900 41.88800
C  53.89100 48.92000 41.97300
C  52.45100 48.61900 41.49900
C  55.33000 46.99300 43.13400
C  54.54700 49.94000 40.98900
C  54.79800 51.22900 41.67600
N  49.48800 48.13000 40.77700
C  50.06200 49.37100 41.04000
C  49.01200 50.40900 40.86800
C  47.89600 49.62300 40.43000
C  48.25100 48.30700 40.42200
C  49.13400 51.88600 41.02300
C  46.49600 49.68900 40.02700
O  45.74100 50.63900 40.12400
C  46.15500 48.21300 39.55700
C  44.87300 47.69600 40.28800
O  44.79300 47.23100 41.41800
O  43.80100 47.97500 39.56100
C  42.45500 47.61100 40.02300
H  49.27500 42.11100 39.30100
H  54.60100 44.98600 41.46600
H  51.59300 50.61700 41.71200
H  45.54200 45.20800 39.55000
H  47.17400 43.19500 38.27600
H  45.79100 43.51900 41.01100
H  47.24600 42.56900 41.02600
H  45.85800 42.05500 39.96700
H  47.11300 45.56100 36.92700
H  45.61300 46.37200 37.35400
H  44.27800 45.14600 36.54500
H  44.70800 43.66200 37.33700
H  50.72500 40.78000 39.10800
H  51.27500 40.26300 40.73600
H  52.34300 40.18500 39.34700
H  54.95300 42.94200 42.61600
H  55.99200 43.29600 41.19100
H  56.09500 41.69000 42.03700
H  55.17100 47.47500 41.02300
H  53.72700 49.08400 43.03800
H  54.87400 46.13500 43.62700
H  55.58300 47.66700 43.95300
H  56.31800 46.61000 42.87800
H  53.89500 50.10500 40.13200
H  55.47100 49.53700 40.57400
H  54.74600 51.06300 42.75200
H  54.02700 51.91400 41.32200
H  55.76100 51.63300 41.36400
H  48.79400 52.17800 42.01600
H  48.64000 52.47300 40.24900
H  50.19400 52.10500 40.89900
H  46.11000 48.24200 38.46800
H  41.85900 47.45600 39.12300
H  41.92200 48.25400 40.72300
H  42.64200 46.63400 40.46900

