158

Mg 41.08800 8.32600 28.92400
C  42.74100 9.81000 31.53900
C  38.87800 6.90700 31.26600
C  39.33700 7.06100 26.36200
C  43.40700 9.62600 26.76500
N  40.95900 8.34100 31.12100
C  41.69200 9.09400 31.99800
C  41.03700 9.10600 33.39500
C  39.87700 8.06800 33.25900
C  39.85800 7.82100 31.76400
C  40.02300 6.80800 34.15500
C  40.39700 10.44000 33.84600
C  39.72600 10.47700 35.17000
H  40.30200 11.40300 36.21000
N  39.44300 7.06200 28.87300
C  38.66100 6.61700 29.90200
C  37.54400 5.81400 29.35100
C  37.47400 6.09700 27.94500
C  38.80300 6.73900 27.63500
C  36.72300 4.87800 30.13700
C  36.34300 5.80300 26.88800
O  36.43700 6.06200 25.71900
C  35.03200 5.22900 27.40200
N  41.30700 8.41400 26.86600
C  40.46000 7.79400 26.01600
C  41.00400 7.92100 24.56900
C  42.10500 8.96900 24.66700
C  42.31400 9.03100 26.14600
C  41.43900 6.51100 24.04500
C  41.69100 10.39700 24.15500
C  40.50800 11.04400 24.95200
N  42.86000 9.43200 29.02700
C  43.71200 9.88800 28.10100
C  44.76200 10.60400 28.73400
C  44.42400 10.70800 30.06300
C  43.26000 9.92700 30.20700
C  45.97700 11.04400 28.05200
C  44.75500 11.28000 31.32000
O  45.69300 11.98200 31.54900
C  43.61900 10.80300 32.35800
C  44.30200 10.17400 33.59800
O  44.99500 9.21700 33.66100
O  43.75000 10.89900 34.65300
C  43.85000 10.24200 35.92500
H  38.16800 6.54800 32.01400
H  38.78100 6.70100 25.49500
H  44.17300 9.92100 26.04400
H  41.75700 8.71300 34.11300
H  38.96200 8.61900 33.47800
H  39.93400 5.95100 33.48700
H  39.26800 6.77100 34.94000
H  40.93500 6.86600 34.74900
H  39.71800 10.71300 33.03900
H  41.21700 11.15600 33.89800
H  39.56500 9.51100 35.64900
H  38.69700 10.77600 34.96900
H  37.10800 4.83400 31.15500
H  36.62100 3.91300 29.64100
H  35.71700 5.25000 30.32900
H  34.57300 5.88200 28.14400
H  35.15900 4.24600 27.85500
H  34.28300 5.13600 26.61500
H  40.18500 8.25600 23.93300
H  43.05300 8.61400 24.26300
H  40.52300 6.07200 23.65000
H  41.77700 5.86500 24.85600
H  42.12500 6.56800 23.20000
H  41.27100 10.25500 23.16000
H  42.48100 11.14700 24.17200
H  40.83100 11.20000 25.98200
H  39.64000 10.38700 24.99000
H  40.23700 12.00300 24.51000
H  45.87600 11.07300 26.96800
H  46.67600 10.22700 28.23500
H  46.32100 12.03800 28.33700
H  43.26500 11.77400 32.70200
H  43.06900 10.52900 36.62900
H  44.84400 10.29200 36.37000
H  43.55600 9.20000 35.80100
Mg 48.14600 15.45300 27.55600
C  45.80200 15.57000 30.26400
C  50.22800 17.49200 29.42400
C  50.25100 15.34400 25.01700
C  45.54800 13.96800 25.70700
N  47.99600 16.39900 29.60500
C  47.02300 16.30500 30.54500
C  47.37900 16.94300 31.91300
C  48.72000 17.79600 31.57000
C  49.04500 17.22200 30.12500
C  48.57800 19.26300 31.51500
C  47.70800 15.90700 33.05200
C  47.96700 16.57600 34.46900
H  48.95400 16.06100 35.47800
N  50.00800 16.18900 27.29000
C  50.73800 16.98800 28.19300
C  52.04000 17.27600 27.56900
C  52.16000 16.47700 26.37800
C  50.78800 15.98200 26.14100
C  53.05400 18.17100 28.30500
C  53.35400 16.21500 25.47000
O  53.44700 15.44800 24.48600
C  54.64700 16.96200 25.82700
N  47.87700 14.67800 25.69800
C  48.94100 14.87700 24.79900
C  48.56700 14.29000 23.36400
C  47.10500 13.62000 23.68100
C  46.75800 14.18000 25.07900
C  48.56900 15.35700 22.17700
C  47.11900 12.05100 23.67900
C  47.58700 11.27100 22.41300
N  46.07300 14.94700 27.79400
C  45.16400 14.29600 26.95400
C  43.92300 13.98600 27.68600
C  44.17200 14.38000 28.98500
C  45.50200 14.92500 28.99400
C  42.72000 13.31900 27.04400
C  43.55200 14.60000 30.26800
O  42.33600 14.32200 30.55600
C  44.59200 15.31500 31.18400
C  43.94700 16.47900 31.76100
O  43.21300 17.26200 31.17600
O  44.24500 16.50800 33.10000
C  43.70400 17.61300 33.92500
H  50.82400 18.28700 29.87500
H  51.04200 15.25000 24.27100
H  44.83200 13.41900 25.09300
H  46.61700 17.67200 32.19000
H  49.55000 17.51100 32.21700
H  48.30300 19.61400 30.52000
H  49.55600 19.70300 31.70700
H  47.78200 19.54300 32.20500
H  48.65400 15.45500 32.75300
H  46.83400 15.26500 33.15600
H  47.02200 16.67300 35.00400
H  48.29700 17.57200 34.17400
H  53.61400 17.40500 28.84200
H  52.59200 18.88900 28.98200
H  53.61700 18.86100 27.67700
H  54.55600 18.04600 25.76300
H  55.45900 16.67900 25.15700
H  54.97500 16.60800 26.80400
H  49.34400 13.57000 23.10900
H  46.31000 14.00000 23.03900
H  49.49800 15.19700 21.62900
H  48.45600 16.36200 22.58400
H  47.78800 15.15100 21.44400
H  46.09100 11.82400 23.95900
H  47.81800 11.73800 24.45500
H  47.53300 11.91900 21.53800
H  46.96700 10.41600 22.14700
H  48.62200 10.95300 22.53000
H  43.15300 12.40800 26.63200
H  42.29400 13.91100 26.23400
H  41.85100 13.04700 27.64400
H  44.89100 14.69000 32.02600
H  43.49900 18.52800 33.36900
H  44.33400 17.76700 34.80100
H  42.81000 17.11800 34.30400

