158

Mg 36.01700 48.82400 25.85300
C  36.19600 47.06300 28.91600
C  35.07100 51.52600 27.58700
C  35.49000 50.35000 22.85000
C  36.64600 45.80800 24.15900
N  35.51400 49.17700 28.01700
C  35.87300 48.41200 29.09500
C  35.60000 49.10900 30.40400
C  35.02000 50.49100 29.96300
C  35.22400 50.43100 28.41600
C  33.50200 50.57600 30.34800
C  36.82500 49.40800 31.26400
C  36.65900 48.87200 32.73700
H  36.44500 49.93500 33.85000
N  35.52500 50.69100 25.27900
C  35.16900 51.68600 26.13400
C  35.14400 52.96200 25.39300
C  35.41900 52.60200 24.07600
C  35.38000 51.12300 24.04900
C  34.84800 54.29700 26.04000
C  35.48200 53.56300 22.90200
O  35.68000 53.19500 21.75700
C  35.27300 55.09700 23.16400
N  36.04500 48.10900 23.84300
C  35.75600 48.97300 22.75400
C  35.62000 48.22000 21.44500
C  36.47000 46.86500 21.81800
C  36.35400 46.88900 23.33700
C  34.18100 47.94400 20.92700
C  37.92800 46.90400 21.30400
C  38.23600 46.29300 19.93100
N  36.32600 46.82100 26.36200
C  36.56300 45.71700 25.58700
C  36.60800 44.50500 26.43000
C  36.48600 44.98000 27.73900
C  36.36100 46.40000 27.71100
C  36.84600 43.11400 25.96000
C  36.54800 44.56800 29.12200
O  36.70200 43.49200 29.60400
C  36.34400 45.91400 29.93200
C  35.10800 45.71700 30.78000
O  34.01400 45.29400 30.42200
O  35.51500 45.78700 32.09300
C  34.44700 45.71100 33.11800
H  34.84000 52.46500 28.09400
H  35.51800 50.81500 21.86300
H  36.93900 44.90600 23.61700
H  34.94000 48.49800 31.02000
H  35.48700 51.41300 30.31000
H  33.35700 51.42000 31.02300
H  33.16300 49.71700 30.92600
H  32.90100 50.60100 29.43900
H  37.17800 50.43900 31.29700
H  37.67000 48.87300 30.83000
H  37.49800 48.18600 32.85700
H  35.84200 48.18600 32.96200
H  35.74500 54.88200 25.83500
H  34.78700 54.17800 27.12200
H  33.98500 54.90900 25.77900
H  34.24300 55.29200 23.46200
H  35.45800 55.54000 22.18600
H  36.08800 55.41200 23.81600
H  36.17100 48.72100 20.64800
H  35.85700 46.05500 21.42200
H  33.45200 48.49700 21.51800
H  33.92200 46.88800 21.00200
H  34.05700 48.32500 19.91300
H  38.44700 46.31700 22.06100
H  38.34400 47.91200 21.31900
H  38.60800 47.04000 19.23100
H  37.29600 45.95900 19.49200
H  38.89600 45.43100 20.03300
H  36.14100 42.75700 25.20900
H  36.72600 42.52600 26.87000
H  37.88500 42.87200 25.73600
H  37.23800 46.12900 30.51800
H  34.56800 46.55900 33.79200
H  34.42800 44.87700 33.82000
H  33.45800 45.80500 32.67000
Mg -10.35700 38.33900 40.61000
C  -8.21800 35.61600 39.89800
C  -8.01200 40.38600 39.01100
C  -12.47500 40.96200 40.68500
C  -12.79300 36.18200 41.45800
N  -8.41800 37.88200 39.37000
C  -7.68300 36.76400 39.39000
C  -6.42500 36.93400 38.49300
C  -6.25600 38.52700 38.64200
C  -7.67700 38.99500 39.02200
C  -5.03200 39.08100 39.38000
C  -6.63900 36.50100 36.95700
C  -5.64700 35.67200 36.21100
H  -5.32100 36.13400 34.81900
N  -10.19400 40.42100 40.09000
C  -9.14300 41.02500 39.46500
C  -9.36200 42.44500 39.57800
C  -10.63600 42.67800 40.14100
C  -11.17600 41.35900 40.40200
C  -8.49200 43.43000 39.12000
C  -11.37400 44.06700 40.21900
O  -10.78700 45.05300 39.78800
C  -12.70000 44.20400 40.71100
N  -12.32700 38.56000 40.97200
C  -13.00200 39.71500 40.97000
C  -14.49100 39.58100 41.27000
C  -14.56900 38.05300 41.54200
C  -13.16400 37.56500 41.23200
C  -15.00300 40.52400 42.36800
C  -15.67500 37.35600 40.66300
C  -16.78500 36.69900 41.49800
N  -10.54000 36.27400 40.71400
C  -11.54400 35.54500 41.11800
C  -11.09600 34.17400 41.32300
C  -9.79500 34.12700 40.81100
C  -9.51600 35.43300 40.39300
C  -11.82800 33.12300 42.04000
C  -8.62500 33.35800 40.55500
O  -8.48000 32.15700 40.59100
C  -7.62900 34.24700 39.80900
C  -6.25800 34.14000 40.43700
O  -5.34300 33.49600 39.89200
O  -6.12200 35.04300 41.50400
C  -4.97300 34.87100 42.43900
H  -7.19700 40.97000 38.57900
H  -13.17500 41.79400 40.57800
H  -13.63000 35.63700 41.90100
H  -5.54800 36.42400 38.88900
H  -6.16400 38.87400 37.61300
H  -4.31000 39.23100 38.57800
H  -4.63500 38.38400 40.11700
H  -5.21000 40.03000 39.88600
H  -6.94100 37.38900 36.40300
H  -7.51900 35.86000 36.90000
H  -5.99800 34.64000 36.22800
H  -4.64900 35.59500 36.64200
H  -8.76900 43.92700 38.19100
H  -7.46700 43.06900 39.03600
H  -8.26800 44.19700 39.86100
H  -12.84100 45.22900 41.05200
H  -12.76400 43.62200 41.63100
H  -13.48000 44.00800 39.97600
H  -15.11700 39.74800 40.39400
H  -14.87200 37.90100 42.57800
H  -15.71300 41.22500 41.92900
H  -14.16000 40.92500 42.93000
H  -15.50500 39.92900 43.13100
H  -15.22900 36.47200 40.20900
H  -16.14700 38.04800 39.96500
H  -16.57900 35.62900 41.51900
H  -17.77200 36.93200 41.09900
H  -16.80100 36.96600 42.55500
H  -11.86600 32.18700 41.48300
H  -12.84500 33.47900 42.20500
H  -11.39700 33.02000 43.03500
H  -7.62000 33.82100 38.80600
H  -5.29800 34.81500 43.47800
H  -4.34700 35.75200 42.29400
H  -4.31400 34.00300 42.40500

