158

Mg 26.81100 50.13200 26.45600
C  24.72500 51.11900 29.05900
C  29.06600 48.92600 28.49600
C  28.90700 49.73200 23.74900
C  24.30100 51.46400 24.34000
N  26.78300 49.98500 28.51300
C  25.85500 50.34900 29.43900
C  26.24800 49.87600 30.82500
C  27.78100 49.61600 30.63600
C  27.99400 49.51200 29.14800
C  28.75100 50.46800 31.50600
C  25.43900 48.66100 31.36800
C  24.79500 48.85600 32.75000
H  25.49100 49.68600 33.92000
N  28.66300 49.30200 26.11400
C  29.43800 48.84200 27.12700
C  30.70600 48.31400 26.57900
C  30.69500 48.53900 25.18200
C  29.40500 49.23200 24.95900
C  31.70900 47.69800 27.55200
C  31.72300 48.19400 24.13400
O  31.46500 48.43000 22.96400
C  33.04200 47.57100 24.48400
N  26.71900 50.70900 24.38700
C  27.62400 50.30100 23.48700
C  27.15100 50.56700 22.10800
C  25.63100 50.81900 22.29500
C  25.48700 50.95500 23.76300
C  27.93200 51.75100 21.48900
C  24.64500 49.68900 21.71100
C  23.38900 50.21900 20.91700
N  24.99300 51.32500 26.62500
C  24.12000 51.75400 25.71100
C  22.95700 52.40000 26.32600
C  23.11200 52.14000 27.67700
C  24.40100 51.54000 27.77800
C  21.83300 53.02100 25.66100
C  22.52700 52.21000 28.98600
O  21.46500 52.70900 29.33200
C  23.53600 51.59200 29.99900
C  23.88200 52.62400 31.05900
O  24.97000 53.18700 31.18300
O  22.82800 52.72400 31.93200
C  23.21300 53.43400 33.15000
H  29.73200 48.48900 29.24300
H  29.46400 49.56100 22.82600
H  23.39200 51.70300 23.78500
H  26.09900 50.66700 31.55900
H  28.02000 48.62200 31.01200
H  29.18900 49.92100 32.34100
H  28.20300 51.32500 31.89800
H  29.57800 50.71400 30.84000
H  26.20200 47.91700 31.59700
H  24.74400 48.47300 30.55000
H  24.74900 47.82600 33.10400
H  23.76200 49.19600 32.66900
H  31.62800 48.03300 28.58600
H  32.74600 47.83200 27.24200
H  31.56300 46.61900 27.60500
H  33.57200 48.25000 25.15100
H  33.50100 47.35400 23.52000
H  32.65400 46.72400 25.05100
H  27.29400 49.65000 21.53500
H  25.34000 51.75600 21.82200
H  28.72100 52.02800 22.18800
H  27.26900 52.58000 21.24200
H  28.38800 51.32800 20.59400
H  24.29700 49.16200 22.60000
H  25.15300 48.96000 21.07900
H  22.70900 49.39300 21.12800
H  23.50100 50.40200 19.84900
H  22.95500 51.17200 21.22100
H  21.36200 52.45100 24.86000
H  22.17000 54.00100 25.32300
H  21.01100 53.20600 26.35300
H  22.92900 50.76500 30.36800
H  23.38000 54.48600 32.92000
H  24.08600 53.01100 33.64600
H  22.46500 53.32100 33.93600
Mg -2.48800 34.07700 27.29800
C  -4.14500 32.01900 29.53500
C  -0.91900 35.61400 29.87000
C  -1.10700 36.07500 25.00000
C  -4.28400 32.34600 24.69100
N  -2.59900 33.88200 29.46200
C  -3.36200 32.95600 30.17200
C  -3.15800 33.19100 31.70000
C  -2.27900 34.51800 31.86500
C  -1.82500 34.63500 30.34300
C  -2.87000 35.75000 32.46000
C  -2.45600 32.05200 32.43200
C  -3.31900 31.55700 33.63900
H  -2.54300 31.19500 34.91800
N  -1.08000 35.54700 27.41300
C  -0.52800 36.01500 28.53500
C  0.45500 36.99300 28.17200
C  0.35800 37.16200 26.77400
C  -0.68200 36.32000 26.29500
C  1.34500 37.78500 29.09700
C  1.13600 38.12500 25.81400
O  0.87800 38.20200 24.64400
C  2.34400 38.98300 26.41500
N  -2.65200 34.13700 25.11200
C  -2.08300 35.22900 24.46600
C  -2.43500 35.14700 22.96800
C  -3.11700 33.75000 22.81600
C  -3.46000 33.39400 24.29800
C  -3.14500 36.43800 22.55100
C  -2.34600 32.76000 22.02600
C  -1.40000 31.85000 22.70400
N  -3.83900 32.51300 27.05000
C  -4.39600 31.82600 25.98900
C  -5.24600 30.76200 26.49200
C  -5.07200 30.71400 27.89700
C  -4.31800 31.90300 28.16400
C  -6.14800 29.95000 25.68000
C  -5.54600 30.09100 29.15500
O  -6.28900 29.13300 29.35300
C  -4.93700 30.92500 30.31100
C  -6.01400 31.59000 31.13700
O  -6.68000 32.54100 30.81000
O  -6.16500 30.96900 32.33800
C  -7.27700 31.51700 33.11400
H  -0.31300 35.94100 30.71800
H  -0.79200 36.65200 24.12800
H  -4.83100 31.88800 23.86500
H  -4.19700 33.33500 31.99600
H  -1.45500 34.36400 32.56200
H  -3.87900 35.86400 32.06300
H  -2.22000 36.59000 32.21400
H  -2.98200 35.48400 33.51100
H  -1.41100 32.31200 32.60400
H  -2.40800 31.26000 31.68500
H  -3.66700 30.53800 33.47300
H  -4.16800 32.17600 33.92700
H  2.36000 37.44700 28.88900
H  1.09000 37.51000 30.12000
H  1.42900 38.87100 29.09000
H  2.06200 39.73500 27.15200
H  2.82000 39.44900 25.55200
H  3.03700 38.23000 26.79200
H  -1.44800 35.07800 22.51000
H  -4.09600 33.89700 22.36100
H  -2.79600 37.23300 23.21000
H  -4.18300 36.36800 22.22400
H  -2.71900 36.77300 21.60600
H  -1.89300 33.29500 21.19100
H  -3.12400 32.17300 21.53800
H  -1.63000 30.85100 22.33500
H  -1.65700 31.78300 23.76100
H  -0.36900 32.12700 22.48400
H  -5.89500 28.91400 25.45600
H  -6.37200 30.37800 24.70300
H  -7.08300 29.97800 26.23900
H  -4.29700 30.29700 30.93100
H  -7.79800 30.56600 33.22800
H  -7.94800 32.31000 32.78400
H  -6.76500 31.79800 34.03400

