158

Mg 8.46100 4.50500 27.99800
C  9.77000 2.89300 30.74000
C  6.61500 6.45200 30.12700
C  7.05100 5.90700 25.27400
C  10.15600 2.24500 25.92200
N  8.12600 4.55300 30.25000
C  8.87500 3.91500 31.18400
C  8.58900 4.41500 32.61900
C  7.41400 5.51400 32.34100
C  7.37200 5.51900 30.77400
C  6.09400 5.15400 33.08300
C  9.88000 5.07000 33.25800
C  9.54200 5.77000 34.55700
H  10.37400 5.24700 35.81400
N  6.98700 5.94700 27.79100
C  6.40900 6.67300 28.79200
C  5.41800 7.61100 28.20200
C  5.65900 7.56700 26.76500
C  6.61000 6.46200 26.53900
C  4.53800 8.55500 29.06000
C  4.90900 8.27600 25.67300
O  5.12300 8.13900 24.47700
C  3.68600 9.10100 25.98800
N  8.43900 3.99200 25.89400
C  7.85100 4.80900 24.97200
C  8.20700 4.37500 23.52700
C  9.33900 3.35400 23.71700
C  9.31400 3.09500 25.26500
C  7.02000 3.98400 22.64000
C  10.69600 3.82100 23.23400
C  11.66200 2.61400 22.85900
N  9.71100 2.92300 28.24000
C  10.31600 2.06100 27.33800
C  11.08600 1.05400 27.97700
C  10.96700 1.35200 29.40300
C  10.12900 2.55300 29.43300
C  11.85900 -0.01100 27.27100
C  11.33900 0.99500 30.62300
O  12.17800 0.14100 30.96600
C  10.64000 1.95200 31.57300
C  9.88000 1.15800 32.60300
O  8.92300 0.42000 32.41000
O  10.45900 1.48900 33.82800
C  9.82600 0.98800 35.04000
H  6.19500 7.18300 30.82200
H  6.68000 6.37100 24.35700
H  10.74800 1.67600 25.20300
H  8.34300 3.55500 33.24200
H  7.73300 6.53500 32.54800
H  5.34400 4.92800 32.32400
H  5.85400 6.10300 33.56100
H  6.20800 4.31100 33.76500
H  10.37500 5.74600 32.56200
H  10.51100 4.19800 33.43100
H  8.48900 5.67200 34.81900
H  9.58300 6.85800 34.51900
H  4.79000 8.68700 30.11200
H  3.52000 8.17600 28.97000
H  4.60500 9.51000 28.53900
H  2.90200 8.55200 26.51000
H  3.27100 9.57500 25.09900
H  3.94600 9.94200 26.63100
H  8.58900 5.31000 23.11700
H  9.00200 2.41300 23.28200
H  6.17400 4.12800 23.31200
H  7.10700 2.89800 22.68400
H  6.95900 4.27900 21.59300
H  11.26900 4.41000 23.95000
H  10.63500 4.51000 22.39200
H  11.72900 2.74300 21.77900
H  11.27500 1.62400 23.09900
H  12.65900 2.80500 23.25600
H  12.78700 0.45800 26.94600
H  11.26600 -0.38300 26.43500
H  12.11900 -0.79600 27.98100
H  11.40600 2.49600 32.12500
H  10.63400 0.82300 35.75300
H  9.15800 0.12700 34.99400
H  9.21800 1.80800 35.42400
Mg -11.49100 17.32700 41.06500
C  -7.93800 16.88600 41.01700
C  -10.95100 20.77100 40.51100
C  -14.66300 17.72900 40.06600
C  -11.76600 13.82400 40.70900
N  -9.66000 18.64200 40.94200
C  -8.32000 18.24300 40.79500
C  -7.31600 19.45000 40.54900
C  -8.33100 20.65200 40.80000
C  -9.78300 19.99500 40.83500
C  -8.12500 21.46100 42.11300
C  -6.73700 19.36300 39.06800
C  -5.16600 19.03600 38.91200
H  -4.85500 18.00900 37.78200
N  -12.68200 19.00900 40.38600
C  -12.29500 20.32000 40.32900
C  -13.41600 21.17000 39.90900
C  -14.63000 20.29300 39.93400
C  -14.01700 18.98200 40.17100
C  -13.39200 22.56700 39.47100
C  -16.02000 20.72100 39.71400
O  -16.26800 21.91900 39.64000
C  -17.26800 19.84400 39.70200
N  -12.97800 15.92100 40.54100
C  -14.20400 16.37000 40.17300
C  -15.24700 15.26000 39.91700
C  -14.25400 14.08700 39.83600
C  -12.91800 14.63000 40.41600
C  -16.36800 14.96400 40.95200
C  -14.04700 13.51600 38.43100
C  -14.98800 12.35200 37.92000
N  -10.20100 15.66200 41.16100
C  -10.47400 14.33300 41.01900
C  -9.21200 13.55800 41.18800
C  -8.19400 14.56900 41.16600
C  -8.84400 15.84300 41.09200
C  -9.16400 12.07900 41.08400
C  -6.72000 14.76100 41.03500
O  -5.91300 13.89400 40.99800
C  -6.54000 16.29800 40.95500
C  -5.68100 16.69100 42.15800
O  -4.61100 16.09800 42.54300
O  -6.24600 17.65900 42.96400
C  -5.67600 18.04000 44.20000
H  -10.72800 21.82400 40.32600
H  -15.71000 17.75300 39.75700
H  -11.83000 12.75200 40.51400
H  -6.45100 19.41900 41.21100
H  -8.34900 21.38600 39.99500
H  -9.02900 21.23800 42.68000
H  -7.97700 22.52500 41.92800
H  -7.30500 21.00700 42.67000
H  -6.90400 20.40400 38.78800
H  -7.21400 18.56300 38.50300
H  -4.78100 18.70900 39.87800
H  -4.65000 19.97200 38.70200
H  -14.14200 22.71000 38.69300
H  -12.39300 22.80500 39.10500
H  -13.50100 23.22100 40.33600
H  -17.06500 19.01600 39.02400
H  -18.12600 20.36500 39.27800
H  -17.35000 19.55600 40.75000
H  -15.61600 15.49700 38.91900
H  -14.58100 13.27900 40.49000
H  -15.99800 15.48700 41.83400
H  -16.38600 13.89600 41.16800
H  -17.34600 15.27800 40.58600
H  -13.05500 13.06600 38.37700
H  -14.10200 14.34700 37.72700
H  -14.43500 11.56600 37.40600
H  -15.66300 12.79100 37.18400
H  -15.63300 11.99000 38.72100
H  -8.28100 11.79200 41.65500
H  -9.07500 11.77600 40.04100
H  -9.98300 11.49200 41.50000
H  -6.06700 16.66700 40.04500
H  -4.58800 18.04600 44.13300
H  -5.86000 17.34800 45.02100
H  -6.12300 18.98900 44.49900

