158

Mg -1.40900 18.35800 26.84200
C  -1.90000 16.07700 29.40800
C  -1.54700 20.92300 29.03100
C  -1.29300 20.56100 24.09500
C  -1.88400 15.69000 24.61800
N  -1.79600 18.46800 29.00500
C  -1.87400 17.40500 29.87700
C  -1.99900 17.89700 31.30600
C  -1.96300 19.46600 31.08700
C  -1.71600 19.67900 29.61600
C  -3.19600 20.19300 31.54700
C  -0.82100 17.31200 32.13500
C  -1.17900 16.48200 33.36800
H  -0.73200 16.92200 34.78600
N  -1.37800 20.42900 26.59600
C  -1.30100 21.30000 27.67800
C  -0.98100 22.62000 27.20900
C  -0.81200 22.52500 25.80400
C  -1.18700 21.13500 25.38900
C  -0.79200 23.88200 28.14000
C  -0.35300 23.53000 24.74700
O  -0.31000 23.27100 23.54000
C  0.27900 24.83500 25.22400
N  -1.56400 18.19500 24.72500
C  -1.49600 19.17900 23.81300
C  -1.65500 18.64300 22.34800
C  -1.77600 17.12500 22.48600
C  -1.77500 16.99100 24.04500
C  -2.80500 19.25700 21.55500
C  -0.69500 16.36200 21.76300
C  0.60000 15.94800 22.52600
N  -1.65200 16.26500 26.92700
C  -1.90000 15.35700 25.95600
C  -2.15800 14.04200 26.52600
C  -2.13400 14.20900 27.89400
C  -1.90300 15.61500 28.07900
C  -2.32500 12.75500 25.79700
C  -2.31200 13.53500 29.16100
O  -2.53200 12.37000 29.56900
C  -2.19300 14.73300 30.19600
C  -1.05000 14.18700 31.02300
O  0.10400 14.13000 30.76700
O  -1.69100 13.59900 32.08800
C  -0.95000 12.72300 32.99400
H  -1.30800 21.67700 29.78400
H  -1.16300 21.25300 23.26000
H  -2.00200 14.89000 23.88500
H  -2.97100 17.56800 31.67200
H  -1.11800 19.75300 31.71400
H  -3.84000 19.59500 32.19100
H  -3.72600 20.59800 30.68500
H  -2.80700 20.99600 32.17300
H  -0.11400 18.07800 32.45100
H  -0.35700 16.52700 31.53800
H  -0.65800 15.52600 33.31500
H  -2.25400 16.30800 33.32300
H  0.25100 24.18700 28.04800
H  -1.17600 23.59700 29.11900
H  -1.41200 24.67200 27.71500
H  0.86200 25.31700 24.44000
H  1.04300 24.66800 25.98400
H  -0.49600 25.42600 25.71300
H  -0.66900 18.83000 21.92200
H  -2.75100 16.77500 22.14800
H  -2.42000 19.78300 20.68200
H  -3.42200 19.92800 22.15300
H  -3.42900 18.46900 21.13100
H  -0.42800 16.86100 20.83200
H  -1.33000 15.52300 21.47800
H  0.70600 16.43700 23.49400
H  1.44100 16.31200 21.93700
H  0.67100 14.86100 22.56900
H  -2.37100 12.81500 24.71000
H  -3.24600 12.39800 26.25600
H  -1.56200 12.00300 25.99900
H  -3.10100 14.82100 30.79400
H  -0.27100 12.06600 32.45200
H  -1.78700 12.15700 33.40300
H  -0.40000 13.27100 33.75900
Mg 8.27900 3.93900 27.73100
C  9.56000 2.41500 30.61200
C  6.50600 6.05600 29.49200
C  7.09900 5.18800 24.70900
C  10.04600 1.44100 25.82800
N  8.07000 4.12400 29.82900
C  8.72600 3.51200 30.87900
C  8.32900 4.10800 32.22000
C  7.26000 5.14900 31.78200
C  7.26600 5.14700 30.25900
C  5.83300 4.77300 32.35100
C  9.51500 4.76800 32.84900
C  9.44700 5.32700 34.30600
H  10.42600 4.61800 35.32500
N  6.92600 5.38200 27.19200
C  6.42400 6.24000 28.10800
C  5.68600 7.22800 27.46700
C  5.81800 6.97700 26.02700
C  6.60000 5.77700 25.93500
C  5.02700 8.24500 28.20100
C  5.15200 7.78700 24.82900
O  5.23500 7.47400 23.62700
C  4.48200 9.10200 25.17100
N  8.43800 3.28800 25.55300
C  7.88600 4.00200 24.52300
C  8.31200 3.43000 23.17800
C  9.27500 2.23900 23.52200
C  9.25200 2.29300 25.05000
C  7.16300 3.03300 22.22100
C  10.71700 2.43600 22.98000
C  11.42800 1.31300 22.23000
N  9.51500 2.28100 28.04400
C  10.13900 1.35500 27.22200
C  10.85100 0.40700 28.02100
C  10.66300 0.81400 29.36800
C  9.80800 1.92100 29.35200
C  11.52400 -0.86100 27.64600
C  11.04300 0.58200 30.74200
O  11.79500 -0.25700 31.26900
C  10.30700 1.51300 31.60900
C  9.44700 0.68200 32.45900
O  8.41300 0.07600 32.14100
O  9.91900 0.80600 33.79700
C  9.19700 0.15900 34.90100
H  5.82600 6.61300 30.14000
H  6.81500 5.73900 23.81000
H  10.43000 0.59800 25.24900
H  8.02200 3.35900 32.95000
H  7.52400 6.17400 32.04300
H  5.77900 4.16400 33.25300
H  5.14700 4.37300 31.60500
H  5.38100 5.68400 32.74300
H  9.76900 5.62200 32.22100
H  10.37900 4.11200 32.95600
H  8.50400 5.04100 34.77100
H  9.55800 6.41100 34.34300
H  5.24900 8.32300 29.26500
H  3.95100 8.07000 28.19000
H  5.16200 9.24900 27.80000
H  3.82100 9.52000 24.41200
H  5.23800 9.85100 25.40500
H  3.80700 8.99700 26.02100
H  8.73700 4.27400 22.63400
H  8.96200 1.21600 23.31400
H  6.13300 2.99700 22.57400
H  7.44900 2.08200 21.77300
H  7.10400 3.69500 21.35700
H  11.29300 2.67800 23.87400
H  10.68400 3.30200 22.31800
H  11.51800 1.76000 21.24000
H  10.75100 0.46000 22.27400
H  12.32200 1.10600 22.81800
H  12.56700 -0.70700 27.37100
H  11.02500 -1.32300 26.79500
H  11.32500 -1.51900 28.49200
H  11.14600 1.90300 32.18600
H  9.65100 -0.83100 34.93000
H  8.12100 0.00300 34.81500
H  9.34200 0.65100 35.86200

