158

Mg 25.95900 0.12400 28.69900
C  27.71200 -0.36000 31.72300
C  23.04400 0.52700 30.59300
C  24.22500 0.43700 25.77800
C  28.81800 -0.69700 27.02500
N  25.47800 -0.01400 30.86800
C  26.42000 0.02700 31.91600
C  25.77300 0.34700 33.25700
C  24.18400 0.29900 32.87800
C  24.21700 0.25100 31.34200
C  23.30500 -0.85500 33.56000
C  26.34600 1.62100 34.00600
C  26.99200 1.38100 35.37700
H  26.67700 2.30600 36.55200
N  23.98100 0.45300 28.25400
C  22.89900 0.57000 29.19000
C  21.69400 0.86200 28.42200
C  21.98700 0.80000 27.01900
C  23.43800 0.59100 26.95900
C  20.38900 1.17600 29.11900
C  21.09500 1.04300 25.77200
O  21.43900 0.86900 24.58200
C  19.58500 1.40900 25.99300
N  26.45500 -0.15300 26.74000
C  25.53700 -0.07300 25.68400
C  26.22200 -0.55200 24.42900
C  27.78300 -0.60400 24.80200
C  27.69800 -0.41300 26.26600
C  25.76100 -1.87900 23.86000
C  28.69300 0.51000 24.13300
C  29.99300 -0.03200 23.52800
N  27.98000 -0.47600 29.22900
C  29.01900 -0.74200 28.43900
C  30.24100 -0.96800 29.25300
C  29.77300 -0.82400 30.54300
C  28.36800 -0.57200 30.47300
C  31.63400 -1.16900 28.77400
C  30.08700 -0.87200 31.97700
O  31.15200 -1.14100 32.57300
C  28.74700 -0.45800 32.71800
C  28.45800 -1.50200 33.82500
O  27.90400 -2.54400 33.69800
O  29.22200 -1.23300 34.95800
C  29.11300 -2.14500 36.09400
H  22.15900 0.78200 31.18000
H  23.72500 0.56100 24.81500
H  29.70200 -0.91400 26.42200
H  26.01700 -0.58900 33.75800
H  23.74800 1.22100 33.26400
H  22.77700 -1.47700 32.83800
H  22.52400 -0.21300 33.96900
H  23.86800 -1.42800 34.29700
H  25.49700 2.26100 34.24800
H  27.02100 2.13600 33.32200
H  28.06100 1.48500 35.19100
H  26.73200 0.36800 35.68400
H  20.29300 2.26100 29.14600
H  20.46600 0.86400 30.16100
H  19.58400 0.73400 28.53300
H  19.07000 0.64100 26.57100
H  19.15000 1.57900 25.00800
H  19.62100 2.36100 26.52200
H  26.16200 0.21300 23.65400
H  28.28400 -1.56900 24.71800
H  24.80000 -2.22800 24.23900
H  26.53900 -2.63000 23.99400
H  25.63800 -1.85200 22.77700
H  29.05300 1.28400 24.81000
H  28.17500 0.99400 23.30500
H  29.94600 -0.52000 22.55400
H  30.53700 -0.77700 24.10800
H  30.69100 0.80500 23.55500
H  31.87600 -2.15100 29.18000
H  32.42900 -0.48400 29.06900
H  31.73100 -1.25300 27.69200
H  28.92800 0.49600 33.21500
H  30.05000 -2.18400 36.65000
H  28.76900 -3.14300 35.82300
H  28.35300 -1.69600 36.73300
Mg 43.25400 4.25100 46.85000
C  40.73000 6.62800 46.46500
C  40.97000 1.81000 47.09600
C  45.80400 2.04900 46.54200
C  45.55600 7.03800 46.22300
N  41.11300 4.26100 46.78200
C  40.30300 5.30800 46.49900
C  38.92500 4.72200 46.29800
C  38.86900 3.36700 47.10200
C  40.35200 3.10400 46.91300
C  38.49900 3.56600 48.55900
C  38.55200 4.53500 44.71800
C  37.45600 5.53900 44.04100
H  37.85700 6.51400 42.94500
N  43.34500 2.18200 46.78300
C  42.31700 1.37100 46.96700
C  42.72000 0.02300 47.09600
C  44.18600 0.04700 46.89400
C  44.53000 1.42000 46.76400
C  41.88000 -1.20800 47.46400
C  45.10100 -1.14500 46.99700
O  44.70200 -2.23000 47.28800
C  46.58800 -0.91800 46.80800
N  45.31100 4.49500 46.29100
C  46.16500 3.41400 46.33700
C  47.53800 3.84900 45.79500
C  47.49100 5.41600 45.86400
C  46.05300 5.69700 46.12500
C  48.68200 3.23200 46.58000
C  48.15200 6.00200 44.65100
C  47.37100 6.17700 43.39900
N  43.23800 6.47300 46.69100
C  44.23600 7.39200 46.42900
C  43.59700 8.68000 46.39200
C  42.19800 8.50000 46.45700
C  42.06400 7.10500 46.53500
C  44.41500 9.91600 46.19100
C  40.91400 9.14300 46.49400
O  40.60000 10.32400 46.44500
C  39.92600 7.85900 46.44900
C  39.02600 7.78500 47.63100
O  39.36800 7.45100 48.76800
O  37.74100 8.10800 47.27000
C  36.94300 8.63200 48.34500
H  40.17800 1.10300 47.35300
H  46.75100 1.51900 46.42100
H  46.26300 7.85200 46.05000
H  38.17500 5.44300 46.62300
H  38.28300 2.63400 46.54800
H  37.86400 2.78700 48.98200
H  38.04500 4.55600 48.59500
H  39.43000 3.68900 49.11200
H  38.32000 3.50000 44.46900
H  39.46900 4.75800 44.17300
H  36.94500 6.12800 44.80200
H  36.73700 4.98500 43.43700
H  42.08200 -2.04200 46.79200
H  40.86900 -0.81400 47.36000
H  42.00700 -1.50300 48.50600
H  46.89400 -0.17100 47.54000
H  46.59200 -0.51400 45.79500
H  47.20200 -1.81700 46.75000
H  47.55000 3.55100 44.74700
H  47.95300 5.74500 46.79400
H  48.36300 2.55500 47.37300
H  49.25000 3.98100 47.13000
H  49.37900 2.67400 45.95400
H  48.98700 5.30400 44.59100
H  48.54500 6.98500 44.90800
H  47.80200 5.45600 42.70500
H  47.58100 7.14400 42.94300
H  46.29300 6.02200 43.42300
H  43.82300 10.78500 45.90600
H  45.16500 9.70000 45.42900
H  44.86900 10.22500 47.13200
H  39.32500 7.94300 45.54400
H  36.78000 7.74100 48.95100
H  35.97600 9.02500 48.03200
H  37.48800 9.21700 49.08700

