158

Mg 29.21900 58.71700 41.57100
C  26.26200 57.07600 40.84600
C  30.88200 56.07700 39.96800
C  31.79000 60.69800 41.36200
C  27.15300 61.48700 42.61500
N  28.63000 56.79600 40.58000
C  27.39500 56.40300 40.30600
C  27.30700 55.15600 39.53900
C  28.79400 54.67500 39.57600
C  29.51200 55.91600 40.04300
C  28.99800 53.53100 40.60500
C  26.73700 55.43300 38.03400
C  26.28300 54.25100 37.21500
H  25.73000 54.60800 35.79500
N  31.15100 58.37100 40.97400
C  31.68200 57.23000 40.34000
C  33.07400 57.38600 40.13600
C  33.33300 58.74700 40.35000
C  32.04100 59.41500 40.91200
C  34.02500 56.31900 39.68100
C  34.59700 59.45600 40.06600
O  35.57400 58.82100 39.66200
C  34.76200 60.91600 40.07900
N  29.40700 60.89500 41.85800
C  30.65300 61.40200 41.86500
C  30.61300 62.84100 42.35100
C  29.18700 63.06900 42.87600
C  28.47400 61.77500 42.32500
C  31.68800 63.33600 43.28400
C  28.56500 64.47600 42.42600
C  28.07600 65.45900 43.54500
N  27.07500 59.19000 41.84600
C  26.43100 60.30900 42.32300
C  25.01900 60.06800 42.36500
C  24.89300 58.84200 41.75400
C  26.19300 58.36900 41.51800
C  23.97700 60.91700 42.99500
C  23.95700 57.77000 41.45600
O  22.71800 57.75500 41.47500
C  24.83500 56.60600 40.76900
C  24.54100 55.39700 41.52600
O  24.57600 55.27900 42.72600
O  23.94100 54.38100 40.76500
C  23.55100 53.12600 41.54800
H  31.34600 55.21100 39.49200
H  32.65400 61.35800 41.26000
H  26.62400 62.28000 43.14900
H  26.64300 54.42400 39.99900
H  29.13600 54.32400 38.60300
H  28.22300 53.71200 41.35000
H  29.98000 53.66900 41.05700
H  29.09100 52.51500 40.22100
H  27.57700 55.83000 37.46400
H  25.97200 56.20900 38.06600
H  25.43900 53.87100 37.79000
H  27.06800 53.49800 37.15100
H  33.39100 55.43200 39.68100
H  34.68800 56.18800 40.53600
H  34.45400 56.46900 38.69000
H  34.04700 61.39300 39.40800
H  35.70800 61.34400 39.74600
H  34.73700 61.32900 41.08800
H  30.81700 63.47000 41.48500
H  29.22600 63.09400 43.96500
H  32.56300 62.68700 43.31500
H  31.43600 63.33200 44.34400
H  32.02400 64.32000 42.95500
H  27.77000 64.37800 41.68700
H  29.33400 64.96300 41.82700
H  27.01400 65.65600 43.39400
H  28.62100 66.40200 43.54100
H  28.17000 64.93800 44.49800
H  24.13300 61.99300 42.92100
H  23.98100 60.82300 44.08100
H  23.03900 60.57500 42.55900
H  24.55700 56.49600 39.72100
H  24.08700 53.01400 42.49100
H  23.71900 52.26800 40.89700
H  22.48400 53.27600 41.70900
Mg -2.69500 34.98300 27.08500
C  -3.76500 33.02900 29.74300
C  -0.95700 37.02000 29.23900
C  -2.25200 37.05800 24.57100
C  -4.45200 32.88600 24.86400
N  -2.48200 34.93300 29.19000
C  -2.96000 34.10900 30.11900
C  -2.39300 34.38300 31.52300
C  -1.50900 35.65000 31.24600
C  -1.67400 35.94800 29.82200
C  -1.85200 36.84900 32.10100
C  -1.50000 33.30000 32.11300
C  -1.92700 32.54300 33.39200
H  -1.06800 32.51900 34.69400
N  -1.55600 36.66000 26.93200
C  -0.93000 37.42100 27.87300
C  -0.16600 38.44900 27.28500
C  -0.51000 38.44300 25.89100
C  -1.57600 37.37900 25.72000
C  0.94400 39.25600 28.12200
C  0.15500 39.21700 24.67800
O  -0.15500 39.10600 23.45900
C  1.29000 40.16400 24.93800
N  -3.26300 34.96100 25.04700
C  -3.06800 35.99100 24.28300
C  -3.47400 35.70400 22.83600
C  -3.82600 34.26000 22.91300
C  -3.79400 33.97000 24.32000
C  -4.62600 36.69100 22.52400
C  -3.11400 33.14500 21.92600
C  -1.73700 32.59600 22.41300
N  -3.97100 33.36900 27.24800
C  -4.45900 32.55100 26.23600
C  -5.21100 31.42400 26.85300
C  -4.91400 31.57800 28.24800
C  -4.12300 32.69900 28.41500
C  -6.04500 30.45100 26.15300
C  -5.12400 30.97800 29.57400
O  -5.73600 29.99600 29.98600
C  -4.41400 31.95600 30.50300
C  -5.37900 32.53700 31.38700
O  -6.25900 33.34200 31.16400
O  -5.16000 32.00800 32.61100
C  -6.28300 32.09700 33.53600
H  -0.34100 37.67100 29.86300
H  -2.07400 37.73100 23.73000
H  -4.91900 32.19100 24.16400
H  -3.17800 34.61700 32.24200
H  -0.44400 35.44600 31.35300
H  -2.40900 37.60300 31.54500
H  -0.94300 37.38300 32.37500
H  -2.26600 36.55500 33.06600
H  -0.45700 33.59500 32.23600
H  -1.46100 32.44300 31.44100
H  -2.08900 31.49600 33.13600
H  -2.91500 32.88700 33.69900
H  0.71700 40.32100 28.16800
H  1.77100 39.05400 27.44100
H  1.18200 38.92600 29.13300
H  2.20200 39.62200 25.18700
H  0.95700 40.89300 25.67800
H  1.50500 40.74800 24.04300
H  -2.66300 35.90500 22.13500
H  -4.91200 34.33200 22.85000
H  -4.99800 37.04800 23.48500
H  -5.51100 36.27300 22.04500
H  -4.20000 37.39800 21.81300
H  -2.97800 33.56100 20.92700
H  -3.89400 32.39100 21.82300
H  -1.31000 32.14800 21.51600
H  -1.84300 31.69400 23.01500
H  -1.02800 33.20700 22.97200
H  -5.55100 30.04100 25.27100
H  -6.94100 30.95300 25.78800
H  -6.19200 29.61300 26.83500
H  -3.70300 31.34000 31.05300
H  -6.27700 33.09700 33.96900
H  -6.36500 31.32000 34.29600
H  -7.18400 32.08600 32.92400

