158

Mg 41.87300 40.87800 26.66300
C  40.99400 43.34900 28.88900
C  42.84100 38.92600 29.27800
C  43.14700 38.68600 24.34700
C  41.62200 43.23800 24.02700
N  42.00600 41.16200 28.89200
C  41.47700 42.21900 29.57300
C  41.32600 41.86100 31.09000
C  42.20300 40.54400 31.18200
C  42.32800 40.14200 29.70500
C  43.52500 40.69300 31.87600
C  39.90100 41.72700 31.53300
C  39.68700 42.53800 32.84700
H  39.22600 41.80200 34.13100
N  42.88000 38.96900 26.76400
C  43.14300 38.34400 27.95300
C  43.74500 37.02600 27.64600
C  43.79600 36.95800 26.24600
C  43.31700 38.21100 25.68900
C  44.23000 36.12900 28.74600
C  44.20800 35.82400 25.42500
O  44.17900 35.79900 24.18500
C  44.66000 34.61300 26.12500
N  42.33900 41.01500 24.50500
C  42.78700 39.92100 23.76200
C  42.77500 40.18400 22.22900
C  42.35000 41.66700 22.18900
C  41.99800 41.96900 23.69400
C  44.16400 39.91900 21.48900
C  41.16600 41.95100 21.27800
C  41.47500 42.80300 20.03300
N  41.34400 42.82300 26.49700
C  41.22900 43.67000 25.34200
C  40.63600 44.94500 25.77800
C  40.52800 44.84300 27.19600
C  41.04700 43.60200 27.55400
C  40.39200 46.10600 24.84700
C  40.17400 45.58400 28.38900
O  39.68200 46.70700 28.44800
C  40.40900 44.60000 29.54500
C  41.41500 45.22200 30.49900
O  42.60900 45.49100 30.29500
O  40.88000 45.42600 31.67600
C  41.73000 45.90300 32.77500
H  42.99700 38.18800 30.06800
H  43.47200 37.89500 23.66700
H  41.40800 43.95000 23.22800
H  41.80900 42.67400 31.63100
H  41.73200 39.69800 31.68400
H  43.29700 41.15900 32.83400
H  44.26100 41.28100 31.32600
H  44.05000 39.74700 32.00700
H  39.52000 40.71500 31.66900
H  39.41500 42.16000 30.65900
H  38.74300 43.07000 32.72500
H  40.52400 43.14800 33.18600
H  43.83500 35.11500 28.68500
H  43.98600 36.44300 29.76100
H  45.30500 35.95300 28.71200
H  43.77800 34.24100 26.64700
H  45.52300 35.04500 26.63100
H  45.10800 33.91500 25.41800
H  42.04300 39.51300 21.77800
H  43.27700 42.17600 21.92600
H  43.98400 39.07700 20.82000
H  44.91400 39.52100 22.17100
H  44.48300 40.81800 20.96100
H  40.30700 42.42700 21.75200
H  40.75500 41.04500 20.83100
H  42.53000 43.06100 19.94200
H  40.87200 43.71000 19.99100
H  41.24200 42.19400 19.16000
H  39.33600 46.06600 24.58100
H  41.04200 46.02700 23.97500
H  40.66500 47.06500 25.28700
H  39.49500 44.36900 30.09200
H  41.26200 45.51900 33.68100
H  41.79600 46.98700 32.87400
H  42.73900 45.49800 32.69000
Mg -5.03300 25.23900 26.22300
C  -3.58600 26.55900 29.12800
C  -6.83400 23.02500 28.21100
C  -6.00400 23.61100 23.40000
C  -2.72500 27.15900 24.42300
N  -5.18700 24.95100 28.41100
C  -4.52000 25.58100 29.41700
C  -5.14400 25.22700 30.77300
C  -5.97700 23.92600 30.48300
C  -5.97000 23.95000 28.94400
C  -5.26400 22.66800 31.08800
C  -5.92300 26.36200 31.42000
C  -5.51100 26.81100 32.89100
H  -5.12800 25.71000 33.88000
N  -6.32300 23.67700 25.84000
C  -7.03900 22.94600 26.80300
C  -7.90000 21.93700 26.08500
C  -7.74100 22.13400 24.66500
C  -6.63600 23.17300 24.55100
C  -8.86000 20.97900 26.83000
C  -8.53900 21.55200 23.46600
O  -8.30000 21.87100 22.34000
C  -9.73500 20.63600 23.74700
N  -4.47600 25.34600 24.21600
C  -5.04700 24.60800 23.22600
C  -4.37800 24.77600 21.89400
C  -3.54200 26.08600 22.13800
C  -3.54400 26.21100 23.68800
C  -3.54600 23.55200 21.36600
C  -4.04900 27.40800 21.48900
C  -3.22800 28.01300 20.32200
N  -3.46600 26.65400 26.61600
C  -2.63800 27.36000 25.81400
C  -1.73600 28.20400 26.58200
C  -2.04500 27.93800 27.83700
C  -3.08400 26.95000 27.83200
C  -0.89400 29.22000 25.95100
C  -1.70000 28.26900 29.24200
O  -0.84900 29.04200 29.70600
C  -2.73700 27.35200 30.09500
C  -1.87100 26.45300 31.01600
O  -1.35600 25.35000 30.77000
O  -1.86900 27.11900 32.25800
C  -1.15100 26.47500 33.38600
H  -7.27700 22.22300 28.80500
H  -6.27900 23.13700 22.45500
H  -2.06400 27.80700 23.84300
H  -4.31600 25.06500 31.46200
H  -7.04200 23.91000 30.71600
H  -6.15000 22.07700 31.31900
H  -4.64900 22.83700 31.97200
H  -4.58700 22.23600 30.35200
H  -6.98500 26.11400 31.40100
H  -5.91400 27.29300 30.85200
H  -6.41100 27.19400 33.37200
H  -4.76800 27.60900 32.89000
H  -8.73000 19.97000 26.43900
H  -9.90900 21.26900 26.78300
H  -8.51700 20.91600 27.86300
H  -10.45500 21.04900 24.45300
H  -9.32600 19.68300 24.08400
H  -10.17500 20.52800 22.75500
H  -5.11900 25.00600 21.12900
H  -2.55700 25.94300 21.69400
H  -3.61400 22.66300 21.99300
H  -2.52100 23.91100 21.27100
H  -4.02100 23.21800 20.44300
H  -4.29500 28.14800 22.25000
H  -5.06400 27.16400 21.17700
H  -2.45300 27.29100 20.06700
H  -2.96300 29.02900 20.61800
H  -3.77300 28.16900 19.39200
H  -0.23400 28.68100 25.27100
H  -0.42800 29.75700 26.77700
H  -1.57300 29.79900 25.32500
H  -3.40800 27.91400 30.74500
H  -0.12000 26.46600 33.03300
H  -1.42000 25.44700 33.63300
H  -1.33400 27.13300 34.23500

