158

Mg 0.46000 7.55900 25.32500
C  1.07200 9.48800 28.12400
C  0.93300 4.83600 27.31700
C  0.09300 5.63600 22.59900
C  0.10400 10.35800 23.41900
N  1.01300 7.23800 27.50700
C  1.09200 8.14800 28.49100
C  1.30700 7.42400 29.89000
C  1.36900 5.93900 29.52800
C  1.07600 5.99700 28.04800
C  2.79600 5.36100 29.77400
C  0.22600 7.75100 30.93100
C  0.83300 8.16000 32.31100
H  2.01300 7.33600 32.78900
N  0.52800 5.48000 25.00800
C  0.68400 4.52000 25.98800
C  0.50600 3.25700 25.37500
C  0.35200 3.47700 23.97700
C  0.29500 4.90500 23.80900
C  0.78500 1.99100 25.99900
C  0.26600 2.49300 22.85600
O  0.04600 2.91200 21.71500
C  0.49400 1.05200 23.11700
N  0.11400 7.98300 23.31000
C  -0.05700 7.02000 22.36000
C  -0.53900 7.62300 21.02100
C  -0.61600 9.11600 21.38300
C  -0.10400 9.14900 22.82100
C  0.50600 7.28100 19.89300
C  -2.03500 9.73400 21.17600
C  -2.09200 11.02400 20.34200
N  0.74400 9.46800 25.58900
C  0.62900 10.50500 24.73500
C  0.72600 11.74800 25.41700
C  1.01300 11.40600 26.74800
C  0.94100 10.00800 26.81000
C  0.64300 13.11400 24.79100
C  1.09400 11.94200 28.12700
O  1.09900 13.09400 28.50800
C  1.03200 10.71700 29.00600
C  2.09200 10.91100 29.92500
O  3.17500 10.37300 29.87800
O  1.59300 11.70300 30.98000
C  2.60500 12.10400 32.01400
H  1.05100 3.95200 27.94700
H  -0.09900 5.05300 21.69600
H  -0.21300 11.32200 23.01500
H  2.26200 7.87200 30.16200
H  0.59200 5.26700 29.89300
H  2.95800 4.28300 29.78000
H  3.21400 5.68800 30.72600
H  3.46300 5.60700 28.94800
H  -0.44900 6.91400 31.11000
H  -0.37200 8.55800 30.50800
H  -0.00700 8.07400 32.99900
H  1.14500 9.19600 32.17600
H  1.75000 1.64400 25.62900
H  0.08500 1.18200 25.79200
H  0.69300 2.08800 27.08100
H  1.35400 0.77200 23.72500
H  0.63700 0.47000 22.20600
H  -0.43300 0.71600 23.58100
H  -1.51500 7.22700 20.73800
H  0.11700 9.58900 20.73000
H  1.33200 6.67000 20.25700
H  0.98600 8.09200 19.34400
H  -0.09200 6.67700 19.21100
H  -2.44700 9.90300 22.17100
H  -2.67000 9.01400 20.66100
H  -2.79100 10.92400 19.51200
H  -1.13300 11.41100 19.99800
H  -2.57400 11.78200 20.95900
H  -0.41400 13.14900 24.53000
H  1.23800 13.21700 23.88400
H  0.85200 13.95000 25.46000
H  0.07700 10.72500 29.53200
H  2.14200 12.38400 32.96000
H  3.37000 12.80600 31.68000
H  3.07300 11.21000 32.42600
Mg 17.06900 52.79300 26.43400
C  18.67300 51.10000 29.10700
C  14.48100 53.67500 28.56700
C  15.50900 54.29800 23.83800
C  19.41300 51.44400 24.36200
N  16.54200 52.25500 28.55200
C  17.36300 51.63900 29.48300
C  16.93200 51.90800 30.92600
C  15.45900 52.45900 30.63500
C  15.47500 52.91000 29.18700
C  14.32700 51.44100 30.96500
C  17.83700 52.96500 31.66600
C  18.31500 52.60200 33.06500
H  17.43800 53.13500 34.27400
N  15.24300 53.93400 26.23500
C  14.35300 54.18500 27.25300
C  13.30100 54.92700 26.69600
C  13.53000 55.11000 25.29600
C  14.80200 54.40200 25.03400
C  12.09200 55.50100 27.50200
C  12.81300 56.02600 24.33200
O  13.19400 56.03000 23.20300
C  11.68000 56.88500 24.71400
N  17.36000 52.82100 24.32300
C  16.64500 53.55500 23.42500
C  17.22200 53.45400 21.98000
C  18.42100 52.52900 22.23700
C  18.41400 52.28000 23.74600
C  16.16000 53.01800 21.01200
C  19.85700 53.15900 21.76000
C  20.10400 53.20400 20.21600
N  18.76900 51.56200 26.61200
C  19.59100 51.08700 25.68100
C  20.65800 50.33400 26.24100
C  20.45500 50.42700 27.64400
C  19.22700 51.12600 27.79300
C  21.81300 49.76400 25.46800
C  20.92700 50.12100 28.96900
O  21.95900 49.59400 29.42300
C  19.75300 50.44400 29.95000
C  19.11200 49.22800 30.58800
O  18.17500 48.51800 30.20600
O  19.66800 49.19900 31.81100
C  19.22600 48.16800 32.71600
H  13.68400 53.92200 29.27100
H  15.03400 54.76800 22.97400
H  20.00200 51.07900 23.51900
H  16.79000 51.04800 31.58000
H  15.22900 53.33100 31.24800
H  14.38100 50.58400 30.29400
H  13.30800 51.82600 30.93500
H  14.54800 51.16200 31.99500
H  17.43300 53.96200 31.84000
H  18.71900 52.98500 31.02500
H  19.38000 52.82000 33.14100
H  18.37900 51.51900 33.17400
H  12.11000 56.58100 27.35700
H  12.19400 55.28600 28.56500
H  11.18800 55.04500 27.10000
H  12.07300 57.55100 25.48200
H  10.85500 56.22500 24.98300
H  11.38700 57.52500 23.88100
H  17.65000 54.42900 21.74300
H  18.28200 51.60600 21.67400
H  16.06400 51.93600 21.10400
H  16.38100 53.35700 20.00000
H  15.14600 53.37200 21.19600
H  20.61100 52.55900 22.27000
H  19.87200 54.20100 22.07900
H  20.40700 54.21900 19.96000
H  19.19300 52.83800 19.74100
H  20.94300 52.54900 19.98400
H  22.21500 50.67800 25.03000
H  21.41300 49.06200 24.73600
H  22.65300 49.40500 26.06200
H  20.07700 51.13300 30.73100
H  18.16000 48.08300 32.50100
H  19.35500 48.69900 33.65900
H  19.86700 47.28700 32.70600

