158

Mg 8.50500 3.15400 27.79900
C  9.82200 1.59300 30.68100
C  6.34300 4.89500 29.85500
C  7.18900 4.58500 25.04200
C  10.21500 0.92500 25.85300
N  8.06500 3.16800 30.00600
C  8.82300 2.58100 30.95900
C  8.45100 3.12100 32.39600
C  7.22600 3.97300 32.08800
C  7.21100 4.06200 30.54900
C  5.94500 3.51000 32.79800
C  9.59400 3.73600 33.17400
C  9.12500 4.39000 34.47300
H  10.03500 4.00500 35.61600
N  7.02700 4.58300 27.45900
C  6.24300 5.18500 28.46600
C  5.34600 6.11400 27.86900
C  5.45700 5.95600 26.44900
C  6.61200 5.03100 26.25900
C  4.35500 6.94700 28.73400
C  4.61000 6.64500 25.37800
O  4.78900 6.32500 24.21400
C  3.43400 7.63600 25.72400
N  8.81900 2.92600 25.68300
C  8.13800 3.50800 24.69900
C  8.57100 3.08500 23.31000
C  9.56600 1.96100 23.61000
C  9.58300 1.93500 25.12900
C  7.33700 2.64400 22.47900
C  10.96400 2.09300 23.06300
C  11.85200 3.28000 23.63500
N  9.60000 1.52100 28.14400
C  10.28000 0.74000 27.20400
C  11.13700 -0.15600 27.93500
C  10.97300 0.15900 29.31300
C  10.05500 1.14400 29.39400
C  12.02900 -1.29800 27.35900
C  11.43300 -0.18500 30.67000
O  12.23400 -1.09300 30.98400
C  10.79200 0.87200 31.63200
C  10.11700 0.00300 32.61000
O  9.06000 -0.58500 32.45300
O  10.83000 0.02900 33.70000
C  10.25500 -0.20200 35.03900
H  5.58100 5.33700 30.50100
H  6.80500 5.03300 24.12300
H  10.73300 0.15200 25.28200
H  8.02700 2.23900 32.87500
H  7.44600 5.01400 32.32600
H  6.22400 2.75900 33.53700
H  5.29200 3.04700 32.05900
H  5.47900 4.29900 33.38800
H  10.00800 4.55700 32.58900
H  10.43500 3.07700 33.39100
H  8.07900 4.12300 34.62300
H  9.19800 5.47400 34.37700
H  4.38400 7.98600 28.40700
H  4.49900 7.08500 29.80600
H  3.44500 6.38100 28.53500
H  2.90700 7.83300 24.79100
H  3.72100 8.61500 26.10900
H  2.71500 7.00400 26.24500
H  9.01000 3.92100 22.76500
H  9.09000 1.02400 23.32300
H  6.45100 2.61100 23.11400
H  7.40200 1.66500 22.00400
H  7.23300 3.45500 21.75900
H  10.89700 2.19500 21.98000
H  11.46100 1.14000 23.24000
H  12.22000 3.85000 22.78200
H  12.74600 2.83000 24.06600
H  11.39100 3.75500 24.50000
H  12.01900 -1.34900 26.27000
H  11.79500 -2.19300 27.93500
H  13.05100 -0.97200 27.55300
H  11.70000 1.30900 32.04700
H  9.18900 -0.42700 35.09200
H  10.39700 0.68000 35.66400
H  10.83500 -0.97500 35.54200
Mg 44.83900 4.30200 46.35400
C  43.06200 7.25700 46.27000
C  41.90000 2.55100 45.72600
C  46.69500 1.53000 45.76900
C  47.86600 6.15300 46.52900
N  42.78500 4.84900 45.84900
C  42.24700 6.17000 45.83600
C  40.73100 6.13500 45.74200
C  40.32300 4.61800 45.76000
C  41.71300 3.98200 45.78900
C  39.31100 4.17500 46.89800
C  40.19900 6.80300 44.39800
C  40.93400 6.60800 43.06600
H  40.08700 6.46900 41.78300
N  44.34800 2.31700 45.79000
C  43.09700 1.76700 45.71900
C  43.19100 0.36200 45.54700
C  44.55600 0.02800 45.62600
C  45.29700 1.32800 45.72200
C  41.96100 -0.53200 45.35300
C  45.12000 -1.38700 45.65200
O  44.32100 -2.29100 45.65800
C  46.52900 -1.80800 45.84500
N  46.91600 3.89300 46.00500
C  47.46600 2.66400 45.88200
C  49.00700 2.62100 46.10000
C  49.25400 4.06600 46.52800
C  47.91800 4.76800 46.25600
C  49.60900 1.59200 47.08300
C  50.49600 4.71700 45.87400
C  51.60300 4.97500 46.90700
N  45.41700 6.36800 46.62000
C  46.65500 6.94400 46.63800
C  46.42900 8.38000 46.70900
C  45.01100 8.55000 46.69500
C  44.46200 7.28100 46.51500
C  47.52600 9.35800 46.70900
C  43.99200 9.51800 46.76800
O  44.01200 10.72900 47.00500
C  42.61600 8.73600 46.49100
C  41.74000 8.91200 47.67300
O  41.65000 8.09800 48.56900
O  40.82100 9.94200 47.52600
C  39.68900 9.98600 48.45400
H  40.97300 1.98400 45.62300
H  47.38400 0.68300 45.79000
H  48.82700 6.63200 46.72900
H  40.31800 6.73900 46.55000
H  39.83600 4.42700 44.80300
H  39.54600 3.25800 47.43700
H  38.40400 3.97100 46.32900
H  39.20800 5.01800 47.58100
H  40.26700 7.87200 44.60200
H  39.13300 6.60000 44.29800
H  41.55000 5.72600 43.24400
H  41.59400 7.47300 43.00800
H  42.10800 -1.08100 44.42300
H  40.95400 -0.12200 45.26800
H  42.05000 -1.40200 46.00200
H  47.17600 -1.49100 45.02600
H  46.59100 -2.89200 45.75600
H  46.77400 -1.31600 46.78600
H  49.53100 2.53800 45.14900
H  49.26800 3.99600 47.61600
H  50.13700 0.83200 46.50700
H  48.82600 1.13900 47.69100
H  50.38200 2.01200 47.72800
H  50.34600 5.66100 45.35100
H  50.93300 4.05100 45.13000
H  52.58700 4.79000 46.47500
H  51.41900 4.47000 47.85600
H  51.50600 6.02500 47.18100
H  48.30700 9.27600 47.46600
H  47.17600 10.36400 46.94100
H  47.99800 9.38400 45.72700
H  42.02500 9.22700 45.71800
H  40.01900 10.05200 49.49000
H  39.17700 9.02400 48.42200
H  38.96700 10.75900 48.19200

