158

Mg 35.00700 48.53200 25.63500
C  35.50100 46.82500 28.76800
C  33.89300 51.15500 27.41500
C  34.09700 49.91000 22.70200
C  35.72200 45.53500 24.07400
N  34.86400 48.93700 27.82400
C  34.99900 48.09500 28.91000
C  34.71000 48.73300 30.27300
C  34.05400 50.10600 29.77700
C  34.24000 50.07800 28.25800
C  32.60900 50.30300 30.26800
C  35.96500 49.03700 31.19600
C  35.90200 48.52200 32.58300
H  35.83800 49.56700 33.69100
N  34.25100 50.36800 25.18100
C  33.92100 51.34500 26.00900
C  33.56900 52.54900 25.24700
C  33.68400 52.23600 23.85600
C  33.99800 50.72500 23.89000
C  33.14400 53.86000 25.94600
C  33.47500 53.07200 22.66000
O  33.82000 52.62700 21.58100
C  32.93500 54.48400 22.84400
N  34.86700 47.82800 23.63600
C  34.50400 48.59000 22.56000
C  34.48100 47.86500 21.24300
C  35.09100 46.52800 21.68900
C  35.24600 46.57100 23.20600
C  33.20700 47.75900 20.39700
C  36.43300 46.16100 21.05200
C  36.38500 45.24400 19.79600
N  35.55600 46.58900 26.26400
C  35.93800 45.54000 25.48000
C  36.45100 44.41300 26.28700
C  36.26700 44.88800 27.61000
C  35.75000 46.17200 27.53800
C  36.99900 43.12000 25.87400
C  36.39000 44.56800 28.98100
O  36.86000 43.55300 29.54700
C  35.82200 45.79400 29.80500
C  34.66900 45.33100 30.64100
O  33.50400 45.10500 30.33700
O  35.06700 45.24400 31.98600
C  34.10300 44.86100 33.05700
H  33.58700 52.04800 27.96500
H  34.01600 50.36400 21.71200
H  36.02200 44.62400 23.55200
H  33.95100 48.16100 30.80700
H  34.67000 50.95700 30.06700
H  32.59600 50.81100 31.23200
H  31.97200 49.41900 30.28100
H  32.02000 50.85800 29.53700
H  36.18500 50.10300 31.25700
H  36.82800 48.55300 30.74000
H  36.86800 48.02400 32.67000
H  35.13700 47.75900 32.72400
H  33.88500 54.61100 25.67400
H  33.12400 53.75400 27.03100
H  32.16400 54.07800 25.52200
H  32.88200 54.96400 21.86700
H  33.75100 55.01000 23.33900
H  32.01100 54.46400 23.42300
H  35.30200 48.29600 20.66900
H  34.37800 45.77800 21.34700
H  32.44400 48.21300 21.02900
H  32.88800 46.74900 20.14000
H  33.29700 48.30200 19.45600
H  37.10200 45.64800 21.74300
H  36.98400 47.08700 20.88800
H  36.69200 45.73300 18.87200
H  35.33600 44.99200 19.64200
H  37.07600 44.44000 20.04900
H  37.77200 43.28400 25.12300
H  36.22500 42.52400 25.39100
H  37.39400 42.55700 26.71900
H  36.59700 46.14300 30.48900
H  33.14100 44.53100 32.66400
H  33.88600 45.67500 33.75000
H  34.55600 44.05300 33.63100
Mg 16.39300 52.88300 26.51200
C  18.42400 51.34000 29.15300
C  14.12200 53.68300 28.98800
C  14.56400 54.02000 24.18000
C  18.69700 51.53900 24.23600
N  16.24300 52.45700 28.83200
C  17.25800 51.96700 29.61400
C  16.89500 52.31100 31.03100
C  15.36300 52.59200 30.90800
C  15.26200 52.98700 29.50200
C  14.44400 51.32400 31.25500
C  17.79900 53.44300 31.48400
C  17.87600 53.77300 33.01700
H  16.96100 53.01400 34.02800
N  14.63300 53.85300 26.59700
C  13.84700 54.11200 27.67800
C  12.66700 54.83500 27.26300
C  12.74900 54.92800 25.85600
C  13.99900 54.28600 25.43900
C  11.49200 55.19800 28.16800
C  11.68000 55.42000 24.81900
O  11.94000 55.46200 23.60900
C  10.25500 55.92000 25.30000
N  16.54700 52.68900 24.51000
C  15.63900 53.30300 23.76300
C  15.80100 53.01600 22.28900
C  17.28800 52.37700 22.29900
C  17.62300 52.25500 23.75000
C  14.72000 52.20700 21.69700
C  18.40200 53.16700 21.52900
C  19.29600 52.24200 20.73700
N  18.22000 51.71700 26.60400
C  19.04200 51.23100 25.59100
C  20.21300 50.62100 26.09700
C  20.00700 50.64400 27.48800
C  18.78400 51.30400 27.75300
C  21.36600 49.96300 25.36600
C  20.67500 50.26000 28.70900
O  21.78800 49.78000 28.85900
C  19.71800 50.80300 29.91000
C  19.35400 49.68100 30.84000
O  19.07700 48.53300 30.53400
O  19.49600 50.03000 32.16400
C  19.55300 48.92500 33.17600
H  13.32100 53.79300 29.72200
H  13.95200 54.42600 23.37100
H  19.51300 51.28300 23.55600
H  17.16900 51.51500 31.72400
H  15.02800 53.35700 31.60800
H  14.29900 51.22700 32.33100
H  15.03400 50.53500 30.78800
H  13.50800 51.42500 30.70500
H  17.53300 54.37200 30.97700
H  18.81800 53.35500 31.10900
H  17.49400 54.79400 33.01700
H  18.87900 53.84000 33.43800
H  10.76000 54.39200 28.22100
H  10.90600 56.05700 27.84100
H  11.98800 55.45100 29.10500
H  10.35300 56.88000 25.80700
H  9.95300 55.13000 25.98700
H  9.63800 56.12200 24.42400
H  15.85300 54.01100 21.84800
H  17.25200 51.34600 21.94700
H  15.23400 51.54300 21.00300
H  13.91500 52.74900 21.20000
H  14.21700 51.61600 22.46300
H  19.03700 53.80500 22.14500
H  17.91400 53.87700 20.86100
H  19.27000 51.20700 21.07700
H  20.34300 52.43700 20.96700
H  19.14500 52.37700 19.66600
H  22.30300 49.96300 25.92400
H  21.60200 50.49700 24.44600
H  21.18400 48.88800 25.33600
H  20.17600 51.59600 30.50000
H  19.54200 49.45300 34.13000
H  20.42600 48.28100 33.07500
H  18.62300 48.36800 33.06200

