158

Mg 26.88800 49.91300 26.23900
C  24.91200 51.10900 28.82900
C  28.99500 48.52600 28.56900
C  28.89500 48.85200 23.64900
C  24.83900 51.57700 23.93000
N  26.93800 49.96800 28.44800
C  25.95200 50.37600 29.31900
C  26.30200 50.03700 30.75100
C  27.76000 49.42000 30.63500
C  27.89400 49.22500 29.08800
C  28.93500 50.27400 31.24100
C  25.18000 49.23000 31.44100
C  24.35200 49.73200 32.59600
H  24.41300 48.94000 33.88000
N  28.68500 48.88800 26.15400
C  29.36300 48.32500 27.25400
C  30.59400 47.70300 26.76800
C  30.47400 47.71600 25.35400
C  29.30300 48.54100 24.97800
C  31.63100 47.22300 27.67700
C  31.50600 47.17200 24.33300
O  31.37900 47.25500 23.11100
C  32.66500 46.49100 24.82800
N  26.81500 50.13800 24.08000
C  27.75800 49.62400 23.26400
C  27.38800 49.89300 21.75300
C  26.07300 50.69700 21.90000
C  25.87400 50.84700 23.39200
C  28.54800 50.55400 20.97700
C  24.85300 49.96500 21.26600
C  23.75100 50.86100 20.68400
N  25.26600 51.18100 26.23700
C  24.56300 51.84400 25.28400
C  23.46800 52.52100 25.88800
C  23.53400 52.22200 27.24700
C  24.66600 51.47200 27.43600
C  22.47300 53.35300 25.06500
C  22.93900 52.50500 28.54400
O  21.89200 53.11200 28.88600
C  23.75300 51.76900 29.63800
C  24.06300 52.65200 30.78300
O  25.12500 53.26100 31.02100
O  22.94400 52.75900 31.60000
C  23.27500 53.35600 32.93300
H  29.76100 48.28600 29.31000
H  29.49300 48.61600 22.76700
H  24.20400 52.10300 23.21300
H  26.42500 51.00000 31.24800
H  27.68900 48.43900 31.10300
H  28.45800 51.21400 31.51900
H  29.65300 50.33000 30.42300
H  29.43400 49.90700 32.13700
H  25.58500 48.32100 31.88600
H  24.42600 48.91700 30.71900
H  23.30100 49.80700 32.31700
H  24.68000 50.74300 32.83600
H  32.62500 47.51500 27.33900
H  31.58000 46.13500 27.61700
H  31.53900 47.41400 28.74600
H  33.18700 46.07000 23.96900
H  32.32000 45.72500 25.52300
H  33.37200 47.19300 25.26900
H  27.18100 48.88700 21.38800
H  26.11300 51.71300 21.50800
H  29.28100 50.64500 21.77900
H  28.27100 51.50400 20.52100
H  28.82900 49.91400 20.14100
H  24.40300 49.43200 22.10400
H  25.19900 49.21700 20.55300
H  22.99200 51.09400 21.43000
H  23.18200 50.43700 19.85700
H  24.27500 51.74600 20.32100
H  21.43100 53.37900 25.38400
H  22.44800 53.00500 24.03200
H  22.79600 54.39200 24.99300
H  23.15200 51.04600 30.18900
H  23.51000 52.67500 33.75200
H  22.33300 53.78600 33.27300
H  23.85200 54.26400 33.10900
Mg 9.45200 47.92600 25.43900
C  7.14400 48.33500 28.10200
C  11.81300 49.29600 27.64000
C  11.69800 47.80800 22.94300
C  6.84500 47.01800 23.28000
N  9.49700 48.44700 27.70800
C  8.46100 48.65500 28.50900
C  8.96900 49.04000 29.92400
C  10.29000 49.74500 29.60800
C  10.59100 49.09900 28.26600
C  10.20000 51.21600 29.51900
C  9.09100 47.77300 30.75300
C  8.62900 47.92200 32.17600
H  8.87700 46.79500 33.19800
N  11.47800 48.43500 25.32200
C  12.28100 48.95000 26.34700
C  13.63000 49.19200 25.84100
C  13.62300 48.73900 24.47600
C  12.20600 48.34700 24.19300
C  14.78900 49.65500 26.58000
C  14.72900 48.42700 23.53000
O  14.54900 48.05300 22.39400
C  16.14600 48.72700 23.96900
N  9.27600 47.61900 23.39900
C  10.36600 47.49500 22.53300
C  9.95300 47.18400 21.09400
C  8.41900 46.80400 21.24900
C  8.18200 47.16800 22.74700
C  10.17100 48.30400 20.08800
C  8.07900 45.32200 20.93700
C  8.57500 44.33100 21.99800
N  7.40900 47.76400 25.57600
C  6.51800 47.42400 24.61200
C  5.14100 47.44000 25.19200
C  5.39200 47.65200 26.55200
C  6.78800 47.91800 26.72700
C  3.87900 47.19300 24.51200
C  4.74200 47.84600 27.87500
O  3.57400 47.80700 28.30300
C  5.86100 48.21500 28.88800
C  5.87100 47.18200 29.94600
O  6.31600 46.04900 29.73800
O  5.37900 47.61300 31.15700
C  5.37600 46.65500 32.24600
H  12.56800 49.66000 28.34100
H  12.32100 47.69300 22.05300
H  5.96700 46.73800 22.69400
H  8.28100 49.78500 30.32300
H  11.11800 49.45600 30.25500
H  9.16900 51.56700 29.46900
H  10.56500 51.61100 28.57100
H  10.68200 51.63700 30.40000
H  10.14900 47.65900 30.98900
H  8.64500 46.89900 30.27700
H  7.61600 48.31300 32.26700
H  9.19900 48.71400 32.66300
H  15.39800 50.30600 25.95300
H  15.32000 48.75100 26.87700
H  14.33600 50.07600 27.47800
H  16.41200 49.78400 23.99900
H  16.75000 48.14700 23.27100
H  16.31100 48.27100 24.94500
H  10.50200 46.29500 20.78500
H  7.66800 47.40500 20.73800
H  9.78400 49.28100 20.37900
H  9.62000 48.11000 19.16800
H  11.20000 48.41500 19.74800
H  8.41200 45.06700 19.93200
H  6.98900 45.30700 20.92900
H  9.28100 44.67100 22.75600
H  9.04100 43.46700 21.52400
H  7.73900 43.95900 22.59000
H  3.99100 46.90000 23.46800
H  3.34800 48.14400 24.52300
H  3.22100 46.46600 24.98900
H  5.67200 49.19700 29.32100
H  5.90300 47.18900 33.03600
H  5.71500 45.67900 31.89700
H  4.31200 46.48700 32.41400

