158

Mg 47.94000 34.71500 26.75600
C  46.09000 33.49400 29.39800
C  48.62800 37.51300 28.69600
C  49.57200 36.04200 24.13800
C  47.03300 31.92600 24.82300
N  47.29500 35.39900 28.79700
C  46.70500 34.64100 29.73100
C  46.87600 35.20900 31.18200
C  47.38600 36.62700 30.86300
C  47.79300 36.55500 29.32400
C  46.45600 37.79200 31.15200
C  47.96600 34.37000 31.86500
C  48.23200 34.61000 33.31300
H  47.35600 35.56000 34.12600
N  49.00900 36.54200 26.42500
C  49.23800 37.53200 27.35000
C  50.11500 38.57600 26.77900
C  50.28500 38.12900 25.41200
C  49.62000 36.84300 25.24800
C  50.52400 39.74400 27.62400
C  51.09000 38.74500 24.38200
O  51.33500 38.30500 23.24900
C  51.66300 40.10400 24.69600
N  48.23200 34.13100 24.76500
C  48.99000 34.78500 23.89500
C  49.18500 34.09700 22.49800
C  48.66200 32.62300 22.89700
C  47.95500 32.89700 24.30300
C  48.34100 34.84900 21.33900
C  49.78500 31.56900 23.07800
C  49.95900 30.49900 22.04100
N  46.81200 33.03500 26.96100
C  46.41100 32.04500 26.10400
C  45.51100 31.12600 26.69700
C  45.34900 31.63400 27.98200
C  46.22100 32.77400 28.13100
C  44.97300 29.88400 26.10800
C  44.71300 31.41400 29.17600
O  44.01400 30.47000 29.59400
C  45.13000 32.55600 30.19800
C  45.58500 31.82900 31.49500
O  46.41700 30.97200 31.66500
O  44.73900 32.27100 32.52700
C  44.97900 31.85600 33.97000
H  48.80700 38.39300 29.31800
H  50.22700 36.29600 23.30200
H  46.88500 31.06000 24.17500
H  45.98000 35.19000 31.80200
H  48.29800 36.86400 31.41100
H  45.99100 38.10000 30.21600
H  46.90400 38.66700 31.62300
H  45.68000 37.40500 31.81200
H  48.86400 34.52400 31.26700
H  47.77100 33.31100 31.69700
H  49.21900 35.06300 33.41500
H  48.22700 33.61800 33.76500
H  49.86000 40.54200 27.29300
H  51.49000 40.16400 27.34400
H  50.58500 39.59500 28.70200
H  51.95500 40.59300 23.76700
H  52.44900 40.05100 25.45000
H  50.78200 40.66700 25.00600
H  50.22600 34.08800 22.17200
H  47.92000 32.32600 22.15600
H  47.35100 34.46600 21.58600
H  48.69900 34.49100 20.37400
H  48.57500 35.89200 21.55700
H  49.58700 30.93300 23.94100
H  50.74300 32.05300 23.26700
H  49.81200 29.56400 22.58200
H  50.96700 30.47700 21.62600
H  49.25600 30.63600 21.22000
H  45.63900 29.02200 26.13800
H  44.76000 30.09500 25.06000
H  44.05100 29.60500 26.61700
H  44.26500 33.15600 30.48000
H  45.96300 31.43500 34.17600
H  44.15200 31.26600 34.36600
H  45.00200 32.85700 34.40000
Mg 42.19500 41.53800 27.37400
C  41.40700 43.95100 29.84300
C  42.86100 39.23900 29.91200
C  42.94100 39.31200 25.06100
C  41.80300 44.09300 25.00500
N  42.26100 41.66700 29.57400
C  41.70900 42.66200 30.35400
C  41.74300 42.26900 31.78900
C  42.43800 40.93300 31.82700
C  42.50100 40.56200 30.35100
C  43.85000 40.85400 32.48300
C  40.27900 42.24800 32.33800
C  40.03100 43.04400 33.61400
H  39.48500 42.37000 34.95600
N  42.76100 39.54300 27.48700
C  42.98700 38.79100 28.58900
C  43.31800 37.44400 28.15900
C  43.29900 37.38000 26.74700
C  42.95800 38.74700 26.37800
C  43.59400 36.31500 29.13000
C  43.51100 36.24900 25.87300
O  43.58700 36.43100 24.70600
C  43.82100 34.87200 26.35800
N  42.32400 41.72200 25.43900
C  42.68100 40.62600 24.62600
C  42.66500 40.96000 23.12900
C  42.08800 42.41600 23.05700
C  42.14200 42.81800 24.60000
C  43.96500 40.67200 22.30600
C  40.67700 42.61300 22.55100
C  39.54800 41.90300 23.36400
N  41.66400 43.64500 27.38900
C  41.55000 44.49200 26.31900
C  41.05600 45.77000 26.80000
C  40.92400 45.60700 28.23800
C  41.37400 44.31300 28.45600
C  40.77300 46.95800 25.88700
C  40.53300 46.24000 29.48600
O  40.15700 47.35900 29.82600
C  40.87600 45.15900 30.61900
C  41.98200 45.66500 31.54500
O  43.18400 45.43900 31.43300
O  41.40200 46.31100 32.56100
C  42.29400 46.77800 33.69400
H  43.16700 38.55300 30.70400
H  43.19200 38.66100 24.22100
H  41.48600 44.80600 24.24000
H  42.30000 42.96300 32.41800
H  41.77400 40.19700 32.28100
H  43.70200 39.90000 32.98900
H  43.89700 41.73400 33.12400
H  44.63300 40.69200 31.74100
H  40.07900 41.22700 32.66500
H  39.54100 42.46400 31.56600
H  39.22700 43.75100 33.40900
H  40.82700 43.76300 33.81300
H  44.65000 36.16900 29.35600
H  43.13400 35.34200 28.95400
H  43.07200 36.58900 30.04700
H  43.81300 34.16900 25.52400
H  42.91300 34.61900 26.90600
H  44.71300 34.93000 26.98200
H  41.97000 40.30700 22.59900
H  42.81200 43.04300 22.53600
H  44.37200 41.59400 21.89200
H  43.68800 40.01700 21.47900
H  44.70600 40.21000 22.95800
H  40.64600 42.11300 21.58300
H  40.43300 43.67300 22.62400
H  39.82100 41.78300 24.41200
H  39.23800 40.95700 22.91900
H  38.65000 42.51100 23.25800
H  40.41700 46.57100 24.93200
H  41.75400 47.40400 25.72800
H  39.97200 47.60800 26.23700
H  40.00600 44.98700 31.25300
H  42.62200 45.95300 34.32600
H  41.77600 47.46500 34.36300
H  43.10100 47.36300 33.25300

