158

Mg 25.81500 0.68800 28.75000
C  27.98300 0.51300 31.50400
C  23.19200 1.30900 30.89800
C  23.86600 0.38500 26.23000
C  28.58900 -0.14300 26.73800
N  25.60500 0.95200 30.97500
C  26.65000 0.86000 31.90000
C  26.10800 1.13400 33.25800
C  24.49700 1.03900 33.05300
C  24.41600 1.16100 31.56800
C  23.89300 -0.25900 33.64300
C  26.67500 2.43900 33.92100
C  25.93500 3.20500 34.96900
H  26.42200 2.78200 36.39600
N  23.77800 0.97000 28.56700
C  22.85400 1.33800 29.54500
C  21.53000 1.47900 28.90400
C  21.70100 1.15900 27.54500
C  23.17200 0.80000 27.35100
C  20.31200 1.79100 29.69100
C  20.67400 1.16400 26.43300
O  20.87400 0.65600 25.33300
C  19.31500 1.70600 26.72900
N  26.14800 0.03600 26.80800
C  25.20200 0.14300 25.85800
C  25.72200 -0.04700 24.45200
C  27.32600 0.13200 24.70500
C  27.37300 0.02000 26.20000
C  25.34500 -1.45200 23.83000
C  27.77900 1.62200 24.35400
C  29.21900 1.76200 23.71400
N  27.85300 0.23500 29.04900
C  28.88700 -0.02700 28.19200
C  30.20200 -0.16200 28.83200
C  29.86700 -0.00600 30.20800
C  28.43900 0.28300 30.22800
C  31.35100 -0.73800 28.16100
C  30.36400 -0.03600 31.56200
O  31.50600 -0.20100 32.02400
C  29.14900 0.30500 32.49200
C  29.00600 -0.85400 33.44000
O  28.81200 -2.03400 33.22600
O  29.10300 -0.29300 34.66100
C  29.16200 -1.14300 35.82500
H  22.48200 1.55600 31.69000
H  23.25000 0.20400 25.34600
H  29.45600 -0.13700 26.07400
H  26.53800 0.34800 33.87800
H  23.81300 1.82400 33.37500
H  23.35700 -0.12500 34.58300
H  24.80700 -0.85200 33.66700
H  23.26700 -0.89200 33.01500
H  26.85300 3.16700 33.13000
H  27.65800 2.26000 34.35700
H  24.90100 2.86700 34.89600
H  25.99700 4.25900 34.69800
H  20.42800 2.01700 30.75100
H  19.79100 0.83400 29.71200
H  19.80800 2.66000 29.26700
H  18.69200 1.12200 27.40600
H  18.74100 1.84600 25.81300
H  19.42500 2.67700 27.21400
H  25.24200 0.77800 23.92500
H  27.91200 -0.59100 24.13700
H  24.86300 -2.04400 24.60800
H  26.23500 -1.98600 23.49800
H  24.56600 -1.39500 23.07000
H  27.90900 2.24400 25.24000
H  27.04200 2.10300 23.71100
H  29.12900 2.09500 22.68000
H  29.74700 0.80900 23.71500
H  29.87200 2.39200 24.31800
H  31.16600 -1.14500 27.16700
H  31.87900 -1.51600 28.71300
H  32.12400 0.03100 28.16300
H  29.37200 1.30200 32.87200
H  30.11500 -0.90700 36.29900
H  28.92700 -2.18400 35.60200
H  28.35700 -1.03600 36.55100
Mg 17.26000 52.12400 26.33700
C  19.17200 50.77300 28.99000
C  14.84500 52.82800 28.70700
C  15.11500 52.92700 23.83900
C  19.42100 50.75000 24.07500
N  17.09800 51.80200 28.59200
C  17.97900 51.34500 29.45100
C  17.52000 51.56600 30.97200
C  16.07400 51.98500 30.75200
C  16.00400 52.28900 29.22600
C  15.04600 50.92700 31.19400
C  18.45900 52.56200 31.78500
C  18.72900 52.23800 33.31200
H  17.62300 51.63300 34.03600
N  15.33000 52.94100 26.30700
C  14.49300 53.14400 27.34000
C  13.28800 53.73700 26.85300
C  13.33500 53.80400 25.43100
C  14.63800 53.18900 25.13400
C  12.18600 54.11600 27.86100
C  12.34000 54.35200 24.44100
O  12.53200 54.51800 23.20900
C  10.99800 54.89200 24.90900
N  17.26700 52.02200 24.27800
C  16.26900 52.26000 23.42800
C  16.61000 51.88400 21.99500
C  18.08700 51.45400 22.09600
C  18.30600 51.44800 23.56700
C  15.77800 50.99000 21.11700
C  18.94200 52.48800 21.36400
C  19.24000 53.91000 21.91500
N  19.01100 51.14700 26.43200
C  19.81300 50.62200 25.40700
C  20.91300 49.92800 25.90800
C  20.73200 49.96800 27.32000
C  19.56100 50.74400 27.60800
C  22.09600 49.39800 25.09800
C  21.31000 49.54800 28.55000
O  22.26900 48.87200 28.81800
C  20.41700 50.18600 29.68000
C  20.12300 49.04200 30.76700
O  19.51000 48.00300 30.64300
O  20.56900 49.43300 31.96800
C  20.51100 48.49500 33.06900
H  14.09700 53.00200 29.48300
H  14.55900 53.29000 22.97300
H  20.07000 50.35800 23.28900
H  17.48400 50.60500 31.48700
H  15.83200 52.90700 31.28000
H  15.52100 50.13500 31.77300
H  14.66300 50.38000 30.33300
H  14.23600 51.34800 31.78900
H  18.06200 53.57100 31.67400
H  19.40800 52.51000 31.25100
H  18.99200 53.22600 33.69000
H  19.55200 51.54400 33.48000
H  12.37300 55.18300 27.97900
H  12.32700 53.51200 28.75800
H  11.17200 53.93500 27.50700
H  11.14300 55.70200 25.62400
H  10.48400 54.03400 25.34300
H  10.45200 55.35800 24.09000
H  16.60700 52.88200 21.55800
H  18.33300 50.47200 21.69200
H  16.22400 50.10300 20.66600
H  15.26500 51.61500 20.38600
H  14.99300 50.59100 21.75900
H  18.46900 52.65500 20.39600
H  19.92600 52.03300 21.24900
H  20.23800 54.08900 22.31500
H  18.43600 54.29100 22.54500
H  19.13100 54.58800 21.06900
H  22.10500 49.99400 24.18600
H  21.79600 48.35900 24.96200
H  23.02700 49.37900 25.66500
H  21.07100 50.96400 30.07200
H  21.22700 48.91300 33.77700
H  20.66300 47.41700 33.03300
H  19.55300 48.46300 33.58700

