158

Mg 48.07600 25.50000 28.69400
C  48.63400 27.82900 31.18900
C  47.12900 23.20600 31.03300
C  47.27600 23.31300 26.15700
C  49.60600 27.57400 26.42500
N  47.86000 25.54200 30.86000
C  48.12500 26.58900 31.68600
C  47.72100 26.32500 33.11900
C  47.30000 24.76600 33.11600
C  47.46500 24.47300 31.62100
C  48.08600 23.83400 34.01500
C  46.60300 27.30700 33.72800
C  45.74200 26.89300 34.94900
H  45.64400 27.83700 36.16400
N  47.35400 23.48800 28.60800
C  47.06400 22.69200 29.66100
C  46.65200 21.36700 29.28100
C  46.58700 21.49100 27.88600
C  47.05300 22.83200 27.45900
C  46.33300 20.17700 30.21600
C  46.21300 20.45100 26.85800
O  46.12200 20.68200 25.68200
C  46.04500 19.00800 27.33200
N  48.57300 25.40100 26.59400
C  48.01400 24.45700 25.82000
C  48.31100 24.79700 24.34100
C  48.97300 26.18600 24.38500
C  49.09300 26.38300 25.90200
C  49.15600 23.83800 23.57600
C  48.02300 27.32000 23.78000
C  48.12500 27.56000 22.24000
N  48.97200 27.35600 28.73700
C  49.57800 28.03400 27.72600
C  50.01300 29.26700 28.22500
C  49.69400 29.30200 29.59700
C  49.06200 28.07700 29.85100
C  50.66200 30.34200 27.44700
C  49.79600 30.07200 30.78800
O  50.11900 31.19500 31.04600
C  49.09700 29.17100 31.91100
C  50.06500 28.97100 33.01700
O  51.17400 28.35900 32.91100
O  49.63800 29.47300 34.17200
C  50.40300 29.23000 35.42000
H  46.86700 22.46900 31.79600
H  46.87400 22.73400 25.32300
H  50.03200 28.34700 25.78200
H  48.66900 26.34800 33.65700
H  46.22100 24.76800 33.27500
H  47.44000 23.18900 34.61100
H  48.87000 24.30000 34.61200
H  48.73600 23.17600 33.43800
H  45.97400 27.61600 32.89300
H  47.05600 28.24300 34.05500
H  46.30800 26.04000 35.32300
H  44.74000 26.62100 34.61500
H  45.91400 20.42800 31.19000
H  47.23900 19.61300 30.44000
H  45.54000 19.65400 29.68200
H  45.05900 18.88400 27.78000
H  46.82600 18.62100 27.98700
H  46.08300 18.32600 26.48300
H  47.34600 24.78700 23.83600
H  49.97700 26.24300 23.96500
H  48.69000 23.56100 22.63100
H  49.23400 22.87600 24.08200
H  50.13400 24.25100 23.33000
H  48.12200 28.31100 24.22200
H  47.01300 27.01800 24.05700
H  49.04700 27.07200 21.92300
H  48.14600 28.61800 21.98100
H  47.31000 27.11700 21.66700
H  50.07000 30.52300 26.55000
H  51.63400 29.94700 27.15300
H  50.75800 31.25600 28.03400
H  48.20300 29.58400 32.37800
H  50.45200 30.18700 35.93900
H  51.41200 28.82000 35.36100
H  49.77900 28.66600 36.11300
Mg -5.30000 25.13300 26.04000
C  -4.03600 26.31000 28.93300
C  -7.35600 23.07400 27.69000
C  -6.34500 23.97500 23.09500
C  -3.00700 27.34800 24.32500
N  -5.71900 24.80800 28.10600
C  -5.10800 25.45600 29.17000
C  -5.63900 24.85600 30.53500
C  -6.49000 23.67200 30.06800
C  -6.55000 23.82800 28.50900
C  -6.13100 22.21400 30.44400
C  -6.46600 26.01100 31.23000
C  -6.31500 26.06000 32.79300
H  -5.72200 24.86900 33.59700
N  -6.66500 23.63300 25.43900
C  -7.46500 23.02100 26.26300
C  -8.41500 22.24700 25.51000
C  -8.13800 22.48100 24.14300
C  -6.97100 23.35600 24.16800
C  -9.39700 21.37800 26.17700
C  -8.85300 22.05400 22.90600
O  -8.48600 22.38300 21.76900
C  -10.08300 21.22500 23.06600
N  -4.74400 25.60500 23.95500
C  -5.32200 24.92600 22.91800
C  -4.60100 25.21200 21.64500
C  -3.72700 26.45000 21.98200
C  -3.77300 26.45000 23.52000
C  -3.81400 23.87400 21.07000
C  -4.24300 27.82000 21.36400
C  -3.11300 28.89500 21.06600
N  -3.78400 26.51200 26.45600
C  -2.93600 27.35700 25.73900
C  -2.05300 28.09000 26.59900
C  -2.48100 27.70600 27.86300
C  -3.50300 26.78300 27.72900
C  -0.98400 29.09200 26.30300
C  -2.20700 28.04800 29.28600
O  -1.40100 28.82200 29.85000
C  -3.29900 27.17700 29.99500
C  -2.55500 26.41700 30.96500
O  -2.04400 25.32300 30.76600
O  -2.61800 27.05400 32.18200
C  -1.85600 26.31400 33.16800
H  -7.94000 22.39500 28.31500
H  -6.62300 23.64000 22.09400
H  -2.45600 28.07000 23.71900
H  -4.88300 24.52800 31.24800
H  -7.53300 23.85600 30.32600
H  -5.51500 21.69000 29.71200
H  -7.10900 21.73400 30.48700
H  -5.73000 22.06600 31.44700
H  -7.52100 26.00500 30.95300
H  -5.99000 26.93100 30.89100
H  -7.29700 26.28100 33.21300
H  -5.59800 26.85200 33.00900
H  -9.73800 20.51400 25.60600
H  -10.19500 22.06900 26.44700
H  -8.99900 21.06200 27.14200
H  -9.69600 20.30800 23.51100
H  -10.45800 20.92800 22.08600
H  -10.69600 21.73600 23.80700
H  -5.28900 25.52100 20.85800
H  -2.68600 26.32300 21.68200
H  -2.96600 23.60500 21.70000
H  -3.36400 24.01600 20.08800
H  -4.39200 22.96300 21.22800
H  -4.96300 28.19500 22.09200
H  -4.86800 27.61700 20.49500
H  -3.48100 29.82300 21.50600
H  -2.98300 29.10800 20.00500
H  -2.14700 28.68600 21.52400
H  -0.57600 29.10100 25.29200
H  -0.11700 29.06000 26.96300
H  -1.49500 30.03400 26.50600
H  -3.90400 27.92000 30.51400
H  -2.34600 25.39200 33.48300
H  -1.71100 26.99400 34.00700
H  -0.84000 26.15300 32.80700

