158

Mg 1.29900 8.31200 25.52700
C  2.18200 10.17300 28.28100
C  1.04800 5.45700 27.59600
C  0.53700 6.39500 22.85200
C  1.71000 11.09000 23.58500
N  1.74300 7.88400 27.68200
C  1.84600 8.89500 28.67600
C  1.75700 8.25000 30.07500
C  1.78800 6.71100 29.76500
C  1.46900 6.64000 28.25400
C  3.15900 6.05500 30.22200
C  0.49400 8.71300 30.72100
C  0.46900 8.65800 32.28900
H  1.53500 7.97400 33.04900
N  0.76800 6.22400 25.26800
C  0.73500 5.22800 26.28200
C  0.19200 4.00300 25.71300
C  0.05000 4.23200 24.30000
C  0.40800 5.68400 24.07600
C  0.12200 2.71900 26.63100
C  -0.25800 3.22100 23.16900
O  -0.35500 3.53800 21.98900
C  -0.67200 1.86900 23.54000
N  1.14900 8.65100 23.57600
C  0.83200 7.73500 22.65600
C  0.69400 8.32500 21.27800
C  0.70800 9.86000 21.55600
C  1.18400 9.90700 23.00100
C  1.79200 7.81900 20.20800
C  -0.65700 10.66800 21.48900
C  -0.64700 11.94300 20.62000
N  1.81000 10.30100 25.77100
C  2.00600 11.33300 24.89200
C  2.52800 12.49500 25.50200
C  2.47200 12.19200 26.90300
C  2.17800 10.75300 26.91900
C  2.94500 13.79000 24.90600
C  2.82300 12.62200 28.24400
O  3.24600 13.64500 28.70000
C  2.47500 11.40200 29.17800
C  3.61400 11.26000 30.13100
O  4.74100 10.82200 29.89100
O  3.26900 11.90100 31.35600
C  4.30700 11.93200 32.43500
H  0.89500 4.64400 28.30800
H  0.19500 5.97700 21.90300
H  1.70100 11.99900 22.98100
H  2.62500 8.66500 30.58700
H  1.02200 6.18800 30.33700
H  3.65200 6.56000 31.05300
H  3.77400 5.99200 29.32400
H  2.91200 5.06600 30.60600
H  -0.31400 8.11600 30.29900
H  0.23300 9.72200 30.40100
H  -0.42100 8.08400 32.54900
H  0.26300 9.70000 32.53700
H  0.99100 2.52700 27.26000
H  -0.05300 1.85400 25.99100
H  -0.74300 2.91700 27.26400
H  -0.93400 1.37200 22.60600
H  -1.54700 1.94200 24.18600
H  0.18300 1.40800 24.03500
H  -0.25300 8.01300 20.83900
H  1.43100 10.28100 20.85800
H  2.18500 6.81500 20.36600
H  2.63500 8.48600 20.02700
H  1.33000 7.69300 19.22900
H  -1.00100 11.00200 22.46800
H  -1.36000 9.88200 21.21500
H  -1.62200 12.05600 20.14500
H  0.18400 12.08300 19.92800
H  -0.67700 12.72400 21.37900
H  3.72700 14.23600 25.52000
H  2.18500 14.56800 24.83100
H  3.25300 13.55800 23.88700
H  1.60000 11.65600 29.77500
H  3.90100 11.45600 33.32800
H  4.49400 12.96000 32.74500
H  5.31400 11.53600 32.30400
Mg 17.18200 -1.65700 27.84000
C  16.22300 0.57200 30.34900
C  19.07900 -3.25500 30.01600
C  18.63800 -3.21500 25.19800
C  15.61400 0.55900 25.53500
N  17.73900 -1.19600 29.93800
C  17.08200 -0.41600 30.79000
C  17.40800 -0.70900 32.23900
C  18.56300 -1.74300 32.15100
C  18.42200 -2.19500 30.61600
C  20.00200 -1.09700 32.37800
C  16.10500 -1.24600 32.87200
C  15.97400 -0.89600 34.39300
H  17.15900 -0.30200 35.17600
N  18.57900 -3.14600 27.66100
C  19.16700 -3.74000 28.65600
C  19.89100 -4.89400 28.12000
C  19.68500 -4.90700 26.73200
C  18.87500 -3.71200 26.48000
C  20.31400 -5.97200 29.05800
C  20.16200 -5.91100 25.71200
O  19.92100 -5.73700 24.52100
C  20.88100 -7.14400 26.08100
N  17.09300 -1.40100 25.64500
C  17.84700 -2.18200 24.77200
C  17.64200 -1.72400 23.33000
C  16.47900 -0.62600 23.44200
C  16.33200 -0.49400 24.99000
C  18.97100 -1.47200 22.59100
C  15.14400 -0.89600 22.67900
C  13.86300 -1.39000 23.51600
N  15.98200 0.10400 27.93800
C  15.40300 0.85400 26.94700
C  14.63400 1.91500 27.49700
C  14.93800 1.85700 28.86100
C  15.86500 0.83900 29.02600
C  13.78800 2.91400 26.77200
C  14.59100 2.38000 30.14200
O  13.86300 3.30400 30.46800
C  15.43800 1.56900 31.20500
C  16.28800 2.56700 31.89500
O  17.50100 2.76200 31.77700
O  15.54600 3.07000 32.86500
C  16.15500 3.98800 33.85300
H  19.58000 -3.77400 30.83700
H  19.14800 -3.62900 24.32500
H  15.02500 1.18900 24.86500
H  17.70900 0.24900 32.66400
H  18.35800 -2.66200 32.70000
H  19.88100 -0.09600 32.79200
H  20.53100 -0.96500 31.43500
H  20.59300 -1.65900 33.10200
H  16.12300 -2.30400 32.60800
H  15.24100 -0.77700 32.40300
H  15.63800 -1.78900 34.92100
H  15.20300 -0.13400 34.50400
H  21.37700 -6.15600 28.90400
H  19.70500 -6.85500 28.86100
H  20.35200 -5.68000 30.10800
H  21.77700 -6.93600 26.66500
H  21.20200 -7.52400 25.11100
H  20.18600 -7.89900 26.44900
H  17.14400 -2.55300 22.82700
H  16.89400 0.32400 23.10500
H  18.80300 -0.48100 22.16700
H  19.34900 -2.28600 21.97300
H  19.73800 -1.45000 23.36500
H  15.32300 -1.68500 21.94800
H  14.88800 0.02800 22.16100
H  13.28500 -1.97800 22.80400
H  13.22600 -0.53500 23.74400
H  14.17500 -1.94100 24.40300
H  14.25300 3.36100 25.89300
H  13.57400 3.69900 27.49700
H  12.84700 2.47900 26.43300
H  14.72200 1.11200 31.88800
H  17.09700 4.41300 33.50600
H  16.20600 3.51800 34.83500
H  15.55700 4.89600 33.94200

