158

Mg 36.32200 49.54200 24.36700
C  36.68300 47.73500 27.25200
C  35.28200 52.24600 26.05900
C  35.55200 50.95000 21.42100
C  37.43300 46.66100 22.57200
N  35.80800 49.83500 26.47300
C  36.08900 48.96000 27.50200
C  35.68200 49.68300 28.76700
C  35.05500 51.05900 28.30800
C  35.41600 51.07900 26.84900
C  33.55300 51.18100 28.68800
C  36.90500 49.84200 29.78500
C  36.59300 50.18300 31.26900
H  35.41800 49.58600 32.15600
N  35.74200 51.44900 23.86200
C  35.36200 52.48600 24.68000
C  35.04700 53.65800 23.93900
C  34.91100 53.21300 22.58900
C  35.41400 51.78500 22.56100
C  34.86900 54.97400 24.56300
C  34.47500 53.90100 21.35400
O  34.43000 53.39400 20.26600
C  34.05500 55.40400 21.49100
N  36.40700 48.85300 22.26400
C  36.03200 49.65400 21.25600
C  36.19400 48.86800 19.92200
C  36.92400 47.58600 20.26900
C  37.01000 47.73100 21.80200
C  34.90600 48.57300 19.06500
C  38.31800 47.54400 19.55800
C  39.44900 48.46800 20.01400
N  37.00700 47.56300 24.78600
C  37.45600 46.56600 23.96200
C  37.92300 45.43700 24.77600
C  37.62600 45.84600 26.07400
C  37.11200 47.16000 26.01900
C  38.34400 44.11700 24.24600
C  37.57600 45.42200 27.44000
O  37.95500 44.33400 27.97500
C  36.91400 46.56000 28.23200
C  35.70200 46.24900 28.95800
O  34.53200 46.35200 28.54500
O  36.11200 45.83200 30.19800
C  35.04500 45.45100 31.13000
H  34.97300 53.19600 26.50100
H  35.22800 51.27300 20.43000
H  37.87100 45.74500 22.17000
H  35.01500 48.98200 29.26900
H  35.59800 51.88800 28.76300
H  33.15100 50.27900 29.14900
H  33.06300 51.49400 27.76600
H  33.47600 51.97700 29.42800
H  37.36500 50.74000 29.37200
H  37.58500 48.99300 29.72400
H  36.53400 51.25200 31.47300
H  37.45300 49.83600 31.84100
H  35.35800 55.73500 23.95400
H  35.31300 54.97300 25.55800
H  33.83900 55.30200 24.70100
H  33.51800 55.51000 20.54900
H  34.93300 56.03600 21.62700
H  33.30400 55.40400 22.28100
H  36.77300 49.40400 19.17000
H  36.37800 46.64500 20.20500
H  34.69400 47.51400 18.92200
H  35.06200 48.93500 18.04800
H  34.03700 49.11100 19.44400
H  38.12500 47.51900 18.48500
H  38.72200 46.56000 19.79900
H  39.83800 48.93200 19.10700
H  40.26100 47.83300 20.36800
H  39.15300 49.17500 20.78800
H  37.94000 44.02600 23.23800
H  37.84300 43.34500 24.83100
H  39.40500 43.86800 24.26000
H  37.66700 46.87800 28.95300
H  34.09200 45.87800 30.81700
H  35.32100 45.69000 32.15700
H  34.98400 44.36400 31.08300
Mg 16.63600 52.07400 26.71000
C  18.61500 50.55400 28.99800
C  14.46300 53.10600 29.23700
C  14.63300 53.61400 24.39200
C  18.70900 51.04600 24.13900
N  16.57300 51.79100 28.89200
C  17.55600 51.15400 29.57800
C  17.24100 51.27900 31.04500
C  15.74300 51.85000 31.09400
C  15.57700 52.28400 29.63400
C  14.64000 50.83100 31.44100
C  18.40200 51.99900 31.73400
C  18.11000 52.53400 33.13600
H  17.35100 51.61200 34.10500
N  14.77700 53.17600 26.83800
C  14.08900 53.44700 27.93100
C  12.94900 54.34700 27.54900
C  12.94700 54.43600 26.16500
C  14.16400 53.73000 25.72500
C  12.09900 54.93300 28.70800
C  11.89700 55.22200 25.28800
O  11.97100 55.35600 24.04900
C  10.82600 56.05700 25.90100
N  16.62000 52.25600 24.59200
C  15.80700 53.09900 23.86200
C  16.07600 53.10700 22.34200
C  17.48100 52.42400 22.28200
C  17.61900 51.81000 23.70900
C  15.11300 52.46900 21.36100
C  18.65300 53.45300 22.10900
C  19.59800 53.21400 20.95800
N  18.35400 50.93700 26.53900
C  19.07100 50.62300 25.41500
C  20.24900 49.87200 25.86300
C  20.07100 49.75200 27.26200
C  18.95200 50.52300 27.65200
C  21.36900 49.30100 24.90900
C  20.58500 49.14800 28.51100
O  21.52500 48.40000 28.74200
C  19.69500 49.74600 29.68300
C  19.17600 48.70200 30.68200
O  18.29200 47.93800 30.49100
O  20.09500 48.74700 31.70600
C  19.71500 47.84600 32.76600
H  13.95900 53.36200 30.17100
H  14.00600 54.12300 23.65700
H  19.52900 50.80600 23.45800
H  17.22900 50.24900 31.40200
H  15.59000 52.83700 31.53000
H  15.02900 50.02300 32.06000
H  14.22500 50.38800 30.53600
H  13.81200 51.33600 31.93900
H  18.80000 52.83900 31.16300
H  19.19800 51.27000 31.88700
H  17.60500 53.49100 33.00100
H  19.04600 52.66800 33.67700
H  11.16400 54.38100 28.80100
H  11.85600 55.97100 28.47900
H  12.64900 54.90800 29.64900
H  10.09600 56.48400 25.21300
H  11.39500 56.83800 26.40500
H  10.38300 55.37300 26.62500
H  16.09000 54.15500 22.04300
H  17.37400 51.59800 21.57900
H  14.43000 51.81500 21.90200
H  15.61800 51.85800 20.61300
H  14.70200 53.34100 20.85200
H  19.25000 53.34800 23.01500
H  18.41600 54.51000 21.98700
H  19.46800 53.98300 20.19700
H  19.34400 52.31900 20.39000
H  20.61900 53.18200 21.33900
H  22.18900 49.87900 25.33300
H  21.34200 49.65400 23.87800
H  21.55300 48.22700 24.94800
H  20.35900 50.46100 30.16800
H  18.65300 47.95800 32.98600
H  20.25000 48.20200 33.64700
H  19.77800 46.79100 32.49800

