158

Mg 9.12200 4.13900 27.72500
C  10.28800 2.51700 30.56600
C  7.37700 6.31200 29.72200
C  7.70800 5.60100 24.95900
C  10.67500 1.84400 25.69000
N  8.92600 4.38200 29.91200
C  9.47100 3.63000 30.93000
C  9.11900 4.11800 32.32400
C  8.07700 5.23100 31.99800
C  8.09300 5.31100 30.43600
C  6.65100 5.06300 32.41900
C  10.40300 4.63100 33.23000
C  10.38600 4.20200 34.69800
H  10.65700 5.35900 35.71400
N  7.67800 5.78500 27.38000
C  7.17400 6.60200 28.36200
C  6.33100 7.62200 27.77100
C  6.49700 7.43400 26.36300
C  7.26900 6.24300 26.15700
C  5.47700 8.64600 28.50000
C  6.04400 8.30900 25.29600
O  6.19300 8.09100 24.11300
C  5.47400 9.65400 25.57500
N  9.12500 3.66300 25.62000
C  8.56400 4.49500 24.71700
C  8.88000 4.07600 23.31200
C  9.98800 3.02900 23.51800
C  9.87100 2.76300 24.98200
C  7.57500 3.61600 22.50800
C  11.45700 3.38500 23.11200
C  12.24500 2.19500 22.63200
N  10.23500 2.56100 28.04500
C  10.82600 1.62200 27.06100
C  11.57500 0.63600 27.79400
C  11.36400 0.95600 29.12800
C  10.54200 2.08800 29.26100
C  12.45800 -0.40300 27.28400
C  11.79300 0.52700 30.41400
O  12.46200 -0.42700 30.76600
C  11.21400 1.59900 31.42900
C  10.50100 0.79600 32.50400
O  9.57300 0.04900 32.38100
O  10.95500 1.20800 33.74000
C  10.30300 0.52700 34.86800
H  6.77600 6.92400 30.39800
H  7.36400 6.15000 24.08000
H  11.21600 1.11900 25.07900
H  8.59900 3.28300 32.79300
H  8.30100 6.19600 32.45400
H  6.49300 5.93400 33.05400
H  6.55300 4.19100 33.06500
H  5.90400 5.12600 31.62800
H  10.28500 5.70700 33.36000
H  11.39100 4.39900 32.83100
H  11.16000 3.44000 34.79100
H  9.38500 3.88000 34.98600
H  5.69000 8.54500 29.56500
H  4.41600 8.48400 28.31000
H  5.78500 9.65200 28.21500
H  4.49800 9.63400 26.06200
H  5.42800 10.06500 24.56700
H  6.18800 10.19600 26.19500
H  9.16100 4.98600 22.78200
H  9.56900 2.21900 22.92100
H  7.19700 4.46400 21.93700
H  6.86300 3.37400 23.29700
H  7.62900 2.75300 21.84400
H  11.88500 3.93100 23.95300
H  11.41600 4.06100 22.25800
H  12.88000 2.41100 21.77300
H  11.62100 1.33800 22.37700
H  12.91700 1.99500 23.46700
H  13.52900 -0.20400 27.31200
H  12.15800 -0.47700 26.23900
H  12.26400 -1.35500 27.77700
H  12.04800 2.17500 31.83200
H  10.28800 1.15700 35.75700
H  10.80300 -0.41300 35.10200
H  9.25700 0.33000 34.63600
Mg 24.33000 -4.96500 45.22100
C  26.85600 -3.02100 43.84100
C  22.12400 -3.54600 43.12100
C  22.29000 -7.57000 45.83300
C  26.91500 -6.76200 46.96300
N  24.47600 -3.39500 43.88000
C  25.56000 -2.72700 43.39100
C  25.22500 -1.59500 42.31700
C  23.66600 -1.65800 42.43400
C  23.35200 -2.90700 43.23000
C  22.93900 -0.34900 43.01100
C  25.66800 -2.09900 40.91700
C  26.23800 -0.94900 40.07700
H  26.02000 -0.94200 38.53600
N  22.43600 -5.50600 44.53000
C  21.68300 -4.78900 43.63300
C  20.45100 -5.47500 43.42600
C  20.49300 -6.64500 44.24500
C  21.72400 -6.57600 44.98700
C  19.35800 -4.99200 42.49200
C  19.41500 -7.67900 44.33200
O  18.37800 -7.57700 43.61400
C  19.37000 -8.79500 45.31800
N  24.69600 -7.00100 46.11600
C  23.54400 -7.72500 46.44100
C  23.89100 -8.96500 47.31100
C  25.30200 -8.58100 47.83500
C  25.68600 -7.39900 46.93000
C  22.86400 -9.23700 48.51300
C  26.28700 -9.79100 47.93700
C  26.81100 -10.40900 46.60800
N  26.42800 -4.85700 45.53400
C  27.31800 -5.63000 46.22500
C  28.68800 -5.11900 46.04800
C  28.54300 -4.09300 45.10300
C  27.17900 -3.99700 44.81900
C  29.93400 -5.69200 46.63700
C  29.25700 -3.12500 44.35100
O  30.48600 -2.89600 44.37000
C  28.20400 -2.45000 43.37800
C  28.36200 -1.03300 43.57200
O  27.87700 -0.25300 44.36600
O  29.07000 -0.60500 42.43800
C  28.99100 0.85000 42.06900
H  21.49400 -3.05800 42.37400
H  21.61300 -8.38800 46.08800
H  27.69700 -7.32300 47.47800
H  25.60800 -0.65700 42.72000
H  23.01600 -1.83700 41.57800
H  22.43600 0.21500 42.22600
H  23.62800 0.44000 43.31500
H  22.32600 -0.58500 43.88100
H  24.90300 -2.71000 40.43700
H  26.49700 -2.80600 40.95500
H  27.30800 -0.94600 40.28300
H  25.84300 0.00400 40.43000
H  19.87600 -5.03700 41.53400
H  19.14000 -3.95100 42.72900
H  18.42700 -5.55900 42.46300
H  19.61600 -8.47100 46.33000
H  19.98900 -9.61400 44.95300
H  18.34500 -9.16400 45.33700
H  23.82700 -9.86400 46.69900
H  25.16200 -8.07200 48.78900
H  22.08000 -8.48600 48.61000
H  23.25300 -9.50700 49.49400
H  22.30000 -10.10300 48.16500
H  25.70700 -10.59300 48.39300
H  27.06600 -9.70100 48.69500
H  27.88900 -10.53900 46.69900
H  26.71900 -9.67500 45.80700
H  26.38100 -11.35200 46.27100
H  30.51200 -6.09200 45.80400
H  29.64700 -6.54300 47.25600
H  30.55400 -4.96400 47.16000
H  28.55000 -2.82300 42.41400
H  28.83300 1.44700 42.96800
H  28.27800 0.99200 41.25800
H  29.92700 1.16800 41.61000

