158

Mg -2.12300 16.97400 26.25700
C  -2.32200 14.72600 28.95700
C  -2.14200 19.51500 28.47300
C  -2.65000 19.02300 23.59200
C  -2.56500 14.20000 24.01800
N  -2.61900 17.06300 28.52900
C  -2.55800 16.04200 29.41900
C  -2.83000 16.58100 30.83000
C  -2.73400 18.11600 30.50200
C  -2.41100 18.27400 29.05300
C  -4.02100 18.89100 30.93500
C  -2.00700 16.01300 32.02100
C  -1.80600 17.02400 33.19500
H  -1.45800 16.48800 34.59700
N  -2.32400 18.97800 26.07600
C  -2.22500 19.91900 27.11100
C  -2.15300 21.25100 26.47400
C  -2.25600 21.09100 25.07400
C  -2.45600 19.63000 24.85300
C  -1.93900 22.42100 27.26500
C  -2.07200 22.11500 24.01500
O  -2.26100 21.84100 22.80000
C  -1.44900 23.36600 24.33300
N  -2.71900 16.65400 24.11000
C  -2.82600 17.70200 23.24000
C  -3.34000 17.18300 21.85500
C  -2.88200 15.66700 21.91600
C  -2.69400 15.47200 23.42200
C  -4.82800 17.38500 21.79400
C  -1.67600 15.18400 20.99700
C  -0.35200 15.20500 21.77000
N  -2.28300 14.86300 26.40500
C  -2.52400 13.92200 25.40000
C  -2.49100 12.56600 26.03400
C  -2.36900 12.91200 27.46700
C  -2.34300 14.28500 27.64100
C  -2.54400 11.25500 25.33400
C  -2.31300 12.33800 28.79000
O  -2.37300 11.16300 29.16700
C  -2.26500 13.51000 29.80000
C  -1.00900 13.41300 30.58900
O  0.10400 13.80500 30.26900
O  -1.19300 12.66600 31.73000
C  -0.12000 12.62100 32.71200
H  -2.12000 20.34400 29.18500
H  -3.00500 19.69500 22.80800
H  -2.67100 13.36400 23.32400
H  -3.87100 16.37000 31.07200
H  -1.85600 18.48100 31.03500
H  -4.71300 18.21200 31.43300
H  -4.56500 19.42200 30.15400
H  -3.80600 19.70300 31.63000
H  -0.97200 15.82700 31.73300
H  -2.41200 15.07900 32.41000
H  -2.64600 17.69500 33.37300
H  -0.96300 17.66600 32.93900
H  -2.48300 23.28100 26.87500
H  -0.86100 22.53600 27.14900
H  -2.04000 22.33200 28.34700
H  -0.53100 23.19300 24.89500
H  -2.11900 24.05500 24.84800
H  -1.33400 23.78200 23.33200
H  -2.85800 17.74200 21.05200
H  -3.74200 15.07000 21.61500
H  -5.25800 17.34600 22.79500
H  -5.38300 16.66300 21.19500
H  -5.03100 18.34200 21.31400
H  -1.61300 15.86800 20.15100
H  -2.00700 14.16500 20.79700
H  0.44400 14.91600 21.08400
H  -0.37000 14.44600 22.55200
H  -0.15500 16.22300 22.10400
H  -3.57300 10.90200 25.40800
H  -1.94700 10.48700 25.82600
H  -2.23900 11.37900 24.29500
H  -3.08400 13.52600 30.51900
H  0.77700 13.21400 32.53800
H  0.26600 11.60200 32.72500
H  -0.44400 13.02800 33.67000
Mg 30.07300 59.48400 39.34400
C  27.09400 58.00000 38.15800
C  31.82000 56.82800 37.99400
C  32.97000 61.13200 39.65300
C  28.18500 62.45900 39.76900
N  29.53000 57.67200 38.16300
C  28.25400 57.26400 37.85100
C  28.21800 55.91900 37.07900
C  29.74400 55.47900 37.34900
C  30.42000 56.74000 37.88600
C  29.96900 54.23600 38.09700
C  27.88500 56.08700 35.48800
C  26.82900 55.14100 34.96800
H  25.89100 55.76900 33.95700
N  32.19500 58.91600 39.03000
C  32.69200 57.84400 38.47700
C  34.16300 57.82200 38.56400
C  34.55500 59.11600 39.18100
C  33.21100 59.79800 39.35000
C  35.00200 56.73900 38.02200
C  35.85900 59.58100 39.46400
O  36.79400 58.79000 39.49200
C  36.19600 61.05300 39.81800
N  30.43000 61.47000 39.71300
C  31.73500 61.92800 39.73700
C  31.84800 63.47400 39.71200
C  30.34800 63.88800 39.98200
C  29.56300 62.56900 39.73800
C  32.85800 63.96500 40.76500
C  29.80800 65.07800 39.17900
C  29.34900 66.32600 39.96100
N  28.01000 60.10900 39.29800
C  27.40000 61.34100 39.45000
C  25.99400 61.21300 39.26200
C  25.81400 59.88500 38.78500
C  27.12600 59.26100 38.71800
C  24.92200 62.31700 39.34000
C  24.78600 58.91900 38.31200
O  23.59300 59.01100 38.08600
C  25.64100 57.56600 37.95100
C  25.34500 56.33200 38.78700
O  25.69200 56.24800 39.97200
O  24.59600 55.38400 38.13600
C  24.21800 54.11400 38.88100
H  32.34900 55.93500 37.65600
H  33.84100 61.79000 39.63200
H  27.55900 63.34400 39.63900
H  27.50400 55.26400 37.57800
H  30.29800 55.46100 36.41000
H  29.04600 53.67000 37.97100
H  30.05500 54.40000 39.17200
H  30.86300 53.72800 37.73500
H  28.85700 55.85100 35.05700
H  27.59400 57.10800 35.23800
H  26.24900 54.70800 35.78200
H  27.25800 54.24400 34.52000
H  34.53800 56.44900 37.07900
H  34.88600 55.87900 38.68200
H  36.03800 57.00100 37.80700
H  37.22100 61.06500 40.18700
H  35.52300 61.16400 40.66800
H  36.00400 61.74100 38.99400
H  32.19200 63.81000 38.73400
H  30.35200 64.12800 41.04500
H  33.26300 63.11300 41.31100
H  32.42500 64.64500 41.50000
H  33.58000 64.62900 40.29100
H  29.00300 64.70200 38.54700
H  30.61000 65.33900 38.48900
H  29.97500 67.19700 39.77000
H  29.40900 66.15000 41.03500
H  28.36100 66.64700 39.62900
H  24.66900 62.49900 38.29600
H  25.32300 63.23400 39.77200
H  24.03500 62.11200 39.94000
H  25.50100 57.31800 36.89900
H  25.05900 53.74100 39.46600
H  23.74900 53.40600 38.19800
H  23.45000 54.36400 39.61200

