158

Mg 40.50900 10.07600 29.44300
C  42.57700 11.37200 31.93900
C  38.51100 8.58500 31.93200
C  38.70400 8.59900 27.03600
C  42.90300 11.12200 27.08200
N  40.64100 9.89400 31.68000
C  41.43300 10.67600 32.45100
C  40.93400 10.66000 33.96000
C  39.78800 9.62800 33.91900
C  39.62200 9.33800 32.37200
C  39.99800 8.33100 34.68300
C  40.49700 12.03400 34.49500
C  39.72900 12.15100 35.87600
H  40.34600 13.11200 36.91100
N  38.82800 8.76000 29.54000
C  38.11200 8.33300 30.63000
C  36.91300 7.57700 30.13400
C  37.00600 7.49900 28.70300
C  38.20700 8.31900 28.33600
C  36.01600 6.91200 31.14300
C  36.02800 6.79600 27.76100
O  36.27500 6.66300 26.54000
C  34.73300 6.15900 28.36400
N  40.78800 9.86000 27.32400
C  39.79000 9.35700 26.56300
C  40.23900 9.43900 25.07900
C  41.46900 10.51100 25.11700
C  41.76800 10.49200 26.63000
C  40.68500 8.02500 24.62800
C  41.15500 11.86000 24.37900
C  40.49700 12.97000 25.24100
N  42.32600 11.10900 29.44300
C  43.21000 11.42700 28.39900
C  44.40800 11.98200 28.93200
C  44.08100 12.18900 30.34300
C  42.88100 11.53300 30.55800
C  45.61900 12.44100 28.25100
C  44.63400 12.68300 31.59200
O  45.66700 13.26600 31.86800
C  43.51500 12.35500 32.63800
C  44.17000 11.82800 33.90800
O  44.78700 10.79900 33.93800
O  43.73100 12.57000 35.00500
C  44.25500 12.04500 36.34700
H  37.84700 8.36300 32.77000
H  38.09500 8.16200 26.24100
H  43.43000 11.66800 26.29700
H  41.62100 10.41300 34.76900
H  38.86100 10.13500 34.18500
H  39.11000 8.00600 35.22500
H  40.82800 8.17800 35.37300
H  40.10300 7.54800 33.93300
H  39.87700 12.50900 33.73400
H  41.41000 12.62900 34.52900
H  39.64000 11.15800 36.31700
H  38.70500 12.49700 35.74300
H  35.09500 7.48200 31.26600
H  36.46600 6.89700 32.13500
H  35.77900 5.89800 30.82300
H  34.03400 5.98400 27.54600
H  34.39500 6.93200 29.05400
H  35.02400 5.28800 28.95200
H  39.37400 9.76500 24.50200
H  42.34800 10.26400 24.52200
H  40.72000 7.29300 25.43500
H  41.69400 8.07100 24.21900
H  40.01300 7.51900 23.93500
H  40.55200 11.65000 23.49500
H  42.14400 12.21400 24.08900
H  40.78100 13.08900 26.28700
H  39.40900 12.92000 25.28800
H  40.61900 13.81300 24.56100
H  46.53600 12.45900 28.84000
H  45.43000 13.46000 27.91200
H  45.76500 11.77700 27.39900
H  42.97200 13.28200 32.82200
H  43.88100 11.04000 36.54400
H  44.01100 12.67300 37.20300
H  45.34300 12.08100 36.30100
Mg 49.76500 35.33800 25.73700
C  47.55500 34.43500 28.20800
C  50.26200 38.41200 27.41100
C  51.75400 36.39400 23.14700
C  49.38500 32.24500 24.36200
N  48.79600 36.42700 27.47900
C  48.08400 35.68300 28.44000
C  48.04200 36.43800 29.78000
C  48.49100 37.88300 29.34400
C  49.22700 37.59600 27.99400
C  47.45000 39.02300 29.07000
C  48.94600 35.80300 31.00000
C  48.35300 35.63200 32.39500
H  47.09600 36.40800 32.86100
N  50.79200 37.15800 25.30000
C  50.99500 38.15900 26.17400
C  52.08100 39.05800 25.67300
C  52.33100 38.63300 24.37400
C  51.62100 37.37900 24.20300
C  52.67400 40.20800 26.46500
C  53.16300 39.32100 23.32000
O  53.26700 38.85400 22.19900
C  54.01400 40.41500 23.75800
N  50.52200 34.43500 24.06800
C  51.15200 35.08100 23.00000
C  51.21900 34.21900 21.70600
C  50.69400 32.84400 22.21400
C  50.19300 33.15100 23.68300
C  50.55200 34.83400 20.48700
C  51.61400 31.56800 22.15800
C  51.70500 30.80300 20.81600
N  48.60500 33.67100 26.07800
C  48.61200 32.44500 25.45700
C  47.59800 31.63200 26.04500
C  47.09400 32.32800 27.12600
C  47.80700 33.59800 27.08200
C  46.99800 30.44200 25.40500
C  46.27100 32.34500 28.25900
O  45.49500 31.50300 28.64500
C  46.59200 33.66500 29.04100
C  47.09300 33.10000 30.33500
O  48.15100 32.57300 30.47100
O  46.09700 33.10200 31.31800
C  46.37500 32.23700 32.48800
H  50.29000 39.32500 28.01000
H  52.50000 36.61500 22.38100
H  49.27300 31.29600 23.83500
H  47.01200 36.52700 30.12500
H  49.27500 38.16700 30.04600
H  47.62100 39.86200 29.74500
H  46.44400 38.60800 29.13100
H  47.53100 39.44000 28.06600
H  49.91200 36.26300 31.21100
H  49.25500 34.78900 30.74600
H  49.08200 35.83400 33.17900
H  48.30500 34.55500 32.55500
H  53.67000 39.97100 26.84000
H  52.13400 40.29000 27.40900
H  52.70900 41.19000 25.99300
H  54.70100 40.68800 22.95700
H  54.62900 40.06600 24.58700
H  53.44700 41.31700 23.98800
H  52.27100 34.13100 21.43500
H  49.84200 32.64500 21.56300
H  49.80600 35.54200 20.84900
H  49.95100 34.15300 19.88400
H  51.27600 35.34500 19.85300
H  51.31900 30.81800 22.89100
H  52.58000 32.00500 22.41200
H  52.74600 31.00500 20.56400
H  51.09000 31.12000 19.97300
H  51.54600 29.74600 21.03000
H  46.69700 29.64000 26.07900
H  47.72700 29.94600 24.76400
H  46.20000 30.79700 24.75200
H  45.70500 34.28500 29.16800
H  45.47600 32.13400 33.09600
H  47.16600 32.70800 33.07300
H  46.62000 31.22100 32.18000

