158

Mg 8.35400 3.99900 28.18400
C  9.73700 2.37300 31.09400
C  6.58600 6.01000 30.34700
C  6.79900 5.13200 25.53700
C  9.90500 1.43400 26.25000
N  8.15200 4.05900 30.49100
C  8.77100 3.34800 31.44600
C  8.62100 4.02100 32.80600
C  7.48800 5.06800 32.52400
C  7.36500 4.97900 31.00100
C  6.12000 4.94900 33.30800
C  9.94400 4.56200 33.33600
C  10.58100 3.97600 34.65100
H  10.66300 4.87600 35.90200
N  6.92000 5.47300 27.96200
C  6.33200 6.28100 28.95700
C  5.49700 7.26500 28.31500
C  5.63800 7.08900 26.90600
C  6.38700 5.83400 26.71200
C  4.72500 8.39000 29.06200
C  5.12100 7.92100 25.84800
O  4.99000 7.42600 24.67500
C  4.72600 9.38200 26.01800
N  8.13100 3.23900 26.26100
C  7.62600 4.01000 25.28000
C  8.05100 3.63000 23.86100
C  9.15400 2.61400 24.04500
C  9.06100 2.37600 25.59900
C  6.94300 3.24800 22.82500
C  10.57300 3.00200 23.51700
C  11.44700 3.88800 24.45400
N  9.58400 2.17800 28.51000
C  10.10800 1.25300 27.62500
C  11.03000 0.42500 28.30500
C  10.86200 0.84100 29.65400
C  9.92700 1.81200 29.73600
C  11.92400 -0.55900 27.69200
C  11.30300 0.56200 30.95900
O  12.08500 -0.25900 31.31000
C  10.62400 1.48300 31.94400
C  9.92300 0.76700 32.93500
O  8.79600 0.28300 32.78500
O  10.61900 0.70500 34.14300
C  9.69700 0.32000 35.22200
H  6.26900 6.76300 31.07100
H  6.46000 5.50800 24.56900
H  10.30700 0.69900 25.54900
H  8.20400 3.28700 33.49500
H  7.75800 6.10700 32.71400
H  5.57000 5.88800 33.37200
H  6.47900 4.62700 34.28500
H  5.58100 4.06400 32.97100
H  9.71200 5.61200 33.51300
H  10.68700 4.57800 32.53800
H  11.60200 3.68100 34.40800
H  9.98300 3.12100 34.96700
H  5.05000 9.39200 28.78400
H  4.95800 8.21000 30.11100
H  3.64200 8.31500 28.95800
H  3.83100 9.32200 26.63800
H  4.48500 9.77700 25.03100
H  5.51600 9.95100 26.50900
H  8.56800 4.49200 23.44000
H  8.81900 1.68200 23.59200
H  5.98300 3.07500 23.31100
H  7.21300 2.37500 22.23100
H  6.82800 4.07700 22.12700
H  10.47700 3.57300 22.59300
H  11.07900 2.05100 23.35300
H  10.96100 4.28800 25.34300
H  11.76500 4.72600 23.83200
H  12.34100 3.34100 24.75500
H  12.10300 -0.23400 26.66700
H  11.63900 -1.61000 27.73600
H  12.85400 -0.41900 28.24300
H  11.31500 2.05700 32.56300
H  9.37100 -0.71800 35.16000
H  8.89200 1.05300 35.16300
H  10.17900 0.38900 36.19700
Mg 29.30900 57.18000 40.89100
C  26.38900 55.27800 40.18000
C  31.10100 54.80200 39.33500
C  31.97400 59.33100 41.08000
C  27.18400 59.74600 41.93100
N  28.73800 55.29100 39.79700
C  27.57200 54.63200 39.67500
C  27.61100 53.30700 38.90300
C  29.16300 53.04100 39.12600
C  29.75100 54.45600 39.47600
C  29.58700 52.09500 40.23400
C  26.91200 53.05300 37.48800
C  26.44200 54.24700 36.73900
H  26.66100 54.17600 35.22900
N  31.29800 57.02000 40.33400
C  31.88800 55.92000 39.75300
C  33.29500 56.18000 39.41800
C  33.47600 57.52400 39.84800
C  32.25800 58.02800 40.55000
C  34.17100 55.22900 38.62400
C  34.76800 58.37200 39.51000
O  35.75300 57.93900 38.97800
C  34.98000 59.90300 39.73700
N  29.56700 59.23500 41.58400
C  30.76800 59.90300 41.55100
C  30.55500 61.40000 41.80800
C  29.08600 61.53300 42.07200
C  28.54300 60.10700 41.90300
C  31.44300 62.02500 42.95200
C  28.23200 62.49400 41.18300
C  27.20400 63.35300 41.87800
N  27.30300 57.46400 41.07200
C  26.53400 58.55200 41.51000
C  25.08700 58.30800 41.45100
C  25.02000 56.98300 41.02000
C  26.38500 56.53700 40.72900
C  23.96300 59.33700 41.70500
C  24.07000 55.99000 40.66100
O  22.88800 55.86400 40.77600
C  24.95900 54.78700 40.18000
C  24.69800 53.52700 40.99700
O  23.59700 52.97500 41.03800
O  25.79600 53.20200 41.76000
C  25.65600 51.92200 42.48000
H  31.66400 53.89800 39.09200
H  32.78200 60.06400 41.09600
H  26.49100 60.51600 42.27700
H  27.12700 52.61700 39.59500
H  29.65900 52.68700 38.22200
H  30.56500 52.38600 40.61800
H  29.85600 51.16700 39.73000
H  28.87600 52.05600 41.05900
H  26.03700 52.43400 37.68700
H  27.54500 52.45600 36.83100
H  27.10100 54.98700 37.19200
H  25.40200 54.50000 36.94300
H  34.59400 55.68500 37.72900
H  33.60900 54.31900 38.40900
H  34.96100 54.84100 39.26600
H  34.81300 60.09700 40.79600
H  34.21700 60.51700 39.25800
H  36.00100 60.20600 39.50600
H  30.71200 61.96600 40.89000
H  28.93600 61.70300 43.13800
H  32.09700 61.33100 43.48000
H  30.78200 62.52700 43.65900
H  32.09700 62.80300 42.55800
H  27.67900 62.01100 40.37700
H  29.00000 63.19100 40.84800
H  27.53400 64.38600 41.77200
H  27.05300 63.12300 42.93300
H  26.24500 63.29200 41.36400
H  23.02900 58.93100 41.31900
H  24.20400 60.30100 41.25800
H  23.89100 59.35600 42.79300
H  24.67600 54.50200 39.16700
H  26.66600 51.51400 42.43800
H  24.94200 51.27400 41.97200
H  25.27000 51.95700 43.49900

