158

Mg 49.80200 45.24300 43.28700
C  46.48400 45.57800 42.32400
C  49.64900 42.00000 42.26000
C  53.04900 45.12500 44.01200
C  49.79600 48.77800 43.81700
N  48.16800 43.93000 42.50000
C  46.89200 44.24700 42.19200
C  46.09400 43.02700 41.62700
C  47.11600 41.91300 41.89400
C  48.40400 42.62600 42.20500
C  46.64000 40.92900 42.95100
C  45.73500 43.28900 40.09100
C  47.06300 43.52000 39.23800
H  47.17900 42.87100 37.87300
N  51.21700 43.78800 43.13800
C  50.95700 42.51700 42.68400
C  52.20700 41.77600 42.61500
C  53.21600 42.67900 43.11400
C  52.53700 43.96700 43.49900
C  52.24300 40.21500 42.32400
C  54.67000 42.30800 43.23200
O  55.06500 41.24100 42.79900
C  55.65500 43.23100 43.82200
N  51.23300 46.76200 43.76000
C  52.51500 46.37800 44.17200
C  53.35400 47.63300 44.36000
C  52.32000 48.85300 44.31400
C  51.00600 48.08300 43.95000
C  54.33900 47.71400 45.54700
C  52.69400 49.86300 43.18500
C  52.69900 51.32000 43.55700
N  48.42000 46.85100 43.35500
C  48.56200 48.25200 43.50500
C  47.35000 48.95400 43.25900
C  46.50200 47.91400 42.83500
C  47.24100 46.68500 42.83000
C  47.12700 50.45000 43.36700
C  45.19200 47.73700 42.23300
O  44.32900 48.51000 41.95200
C  45.13300 46.24100 41.88200
C  43.91500 45.67700 42.46700
O  42.75600 45.74400 42.06600
O  44.28500 45.00100 43.61800
C  43.22000 44.29900 44.36400
H  49.79400 40.96700 41.93500
H  54.11500 45.20000 44.23800
H  49.84200 49.86000 43.95500
H  45.15600 42.92900 42.17300
H  47.20000 41.31600 40.98600
H  47.30700 40.94300 43.81300
H  46.59600 39.93800 42.50000
H  45.67400 41.22800 43.35900
H  45.05900 44.14400 40.12400
H  45.39700 42.34300 39.66700
H  47.98200 43.32500 39.79100
H  46.95500 44.58600 39.03900
H  51.70200 39.96900 41.41000
H  51.82200 39.72300 43.20100
H  53.20300 39.70900 42.22100
H  55.76900 44.10600 43.18000
H  56.59800 42.68600 43.77100
H  55.32700 43.41400 44.84500
H  53.88800 47.60000 43.41000
H  52.22700 49.39100 45.25700
H  54.34300 46.93000 46.30400
H  54.31200 48.57200 46.21800
H  55.31700 47.58200 45.08300
H  52.13700 49.75100 42.25500
H  53.73400 49.69000 42.91000
H  53.62500 51.78900 43.22600
H  52.41800 51.49600 44.59600
H  51.87300 51.77200 43.00900
H  46.16000 50.70500 42.93500
H  47.92500 51.08200 42.97800
H  46.98200 50.69000 44.42000
H  44.91100 46.31300 40.81800
H  42.46300 43.83700 43.72900
H  42.72900 45.11900 44.88800
H  43.61700 43.60600 45.10500
Mg -2.57300 34.16000 26.43900
C  -3.91700 32.35800 29.18600
C  -1.08600 36.20500 28.71400
C  -1.57900 35.77000 23.76400
C  -4.58900 32.21400 24.32400
N  -2.65000 34.33400 28.66000
C  -3.09900 33.41900 29.60600
C  -2.75500 33.84700 31.08500
C  -1.90600 35.16500 30.81800
C  -1.94300 35.25500 29.29200
C  -2.39100 36.45500 31.46200
C  -1.87900 32.94700 32.00400
C  -2.56000 32.47000 33.25900
H  -1.74100 32.15400 34.53800
N  -1.50600 35.70100 26.27900
C  -0.90800 36.44000 27.30100
C  0.05800 37.29600 26.68800
C  -0.00800 37.07700 25.29100
C  -1.13300 36.16300 25.03000
C  0.94400 38.13600 27.51500
C  0.94800 37.60700 24.19300
O  0.72400 37.54200 23.02900
C  2.19800 38.40500 24.55200
N  -3.29000 34.26700 24.39000
C  -2.61000 34.88500 23.48000
C  -3.08400 34.57600 22.03800
C  -3.95900 33.38000 22.27600
C  -3.98200 33.26300 23.74600
C  -3.71200 35.77000 21.19500
C  -3.53200 32.04900 21.54100
C  -2.63200 30.88600 22.19200
N  -3.92700 32.58400 26.61200
C  -4.63200 31.81700 25.70500
C  -5.32800 30.73300 26.32900
C  -5.17000 31.01400 27.65700
C  -4.26500 32.08200 27.82700
C  -6.18600 29.76400 25.65700
C  -5.48900 30.50700 28.96700
O  -6.25600 29.60100 29.29900
C  -4.64400 31.28600 29.97600
C  -5.53400 31.92000 31.05500
O  -6.21200 32.91700 31.03200
O  -5.53700 31.02300 32.16700
C  -6.50900 31.39700 33.15600
H  -0.63200 36.88400 29.43800
H  -1.15600 36.25700 22.88300
H  -5.12800 31.62600 23.57800
H  -3.63300 34.00200 31.71300
H  -0.85400 35.01500 31.05900
H  -1.72800 36.69500 32.29300
H  -3.32600 36.33200 32.00900
H  -2.33900 37.32700 30.81000
H  -0.87600 33.33900 32.17100
H  -1.63300 32.08400 31.38600
H  -2.80900 31.44200 32.99600
H  -3.45100 33.06500 33.46200
H  1.11100 39.05500 26.95100
H  1.97000 37.77000 27.48100
H  0.55500 38.34500 28.51100
H  2.73200 38.14700 25.46700
H  1.90300 39.44300 24.70500
H  2.84500 38.17800 23.70500
H  -2.19500 34.23200 21.50900
H  -5.00600 33.50300 21.99900
H  -2.89600 36.35600 20.77200
H  -4.14800 36.55200 21.81700
H  -4.37200 35.43400 20.39500
H  -2.96400 32.39300 20.67700
H  -4.46200 31.53200 21.30300
H  -1.98900 31.29100 22.97300
H  -1.91800 30.47100 21.48000
H  -3.28100 30.08500 22.54600
H  -6.46300 29.94200 24.61800
H  -7.05900 29.61900 26.29300
H  -5.62000 28.83400 25.69200
H  -3.87600 30.68300 30.46100
H  -6.07700 32.12900 33.83900
H  -6.63900 30.50600 33.77000
H  -7.48500 31.67400 32.75700

