158

Mg 36.48400 0.41700 29.64300
C  34.26700 1.60500 32.01700
C  38.89300 0.43800 32.05600
C  38.74800 0.00400 27.15400
C  34.00900 1.11700 27.15500
N  36.50700 0.94200 31.77200
C  35.51700 1.41000 32.57000
C  35.93300 1.49300 34.01400
C  37.50700 1.38300 33.90800
C  37.66800 0.89900 32.47500
C  38.32500 2.70400 34.08100
C  35.20900 0.43500 34.85600
C  35.61800 0.25400 36.37200
H  36.41400 1.39600 37.09300
N  38.48600 0.14300 29.63000
C  39.31400 0.15100 30.75400
C  40.62000 -0.10400 30.32300
C  40.65200 -0.35300 28.93300
C  39.26200 -0.07500 28.48000
C  41.70700 -0.24500 31.33300
C  41.82300 -0.67000 27.94200
O  41.63500 -0.79800 26.69700
C  43.26200 -0.74800 28.45700
N  36.36400 0.45200 27.51000
C  37.45200 0.21300 26.75900
C  37.08000 0.19000 25.21500
C  35.62900 0.47400 25.23600
C  35.31100 0.71000 26.71000
C  37.93800 1.06000 24.22800
C  34.62500 -0.56400 24.52100
C  34.16800 -1.77900 25.38000
N  34.47900 1.07100 29.60300
C  33.65500 1.37100 28.51800
C  32.39800 1.91700 29.01300
C  32.58400 2.01600 30.41300
C  33.83900 1.46400 30.69200
C  31.34100 2.38500 28.12000
C  32.04000 2.50700 31.57400
O  31.00500 3.10000 31.78000
C  33.04000 2.21000 32.70500
C  33.25900 3.43500 33.48200
O  33.96600 4.39500 33.16900
O  32.73300 3.31900 34.76200
C  32.89900 4.53900 35.60000
H  39.64800 0.47100 32.84400
H  39.36100 -0.27500 26.29500
H  33.27000 1.31100 26.37500
H  35.77000 2.51400 34.35800
H  37.99600 0.70100 34.60400
H  37.72800 3.60800 34.20600
H  38.98700 2.84400 33.22600
H  39.10300 2.58300 34.83500
H  35.50900 -0.46900 34.32600
H  34.12400 0.53100 34.87800
H  36.32700 -0.55600 36.19800
H  34.89500 -0.18000 37.06300
H  42.23500 0.67400 31.58700
H  42.44400 -0.93800 30.92600
H  41.40200 -0.82000 32.20700
H  43.46100 0.03500 29.18800
H  43.88800 -0.63400 27.57100
H  43.45100 -1.72700 28.89700
H  37.19200 -0.82600 24.83800
H  35.38400 1.37400 24.67100
H  38.85700 1.37700 24.71900
H  37.34000 1.91300 23.90600
H  38.21100 0.37200 23.42800
H  34.93900 -1.00500 23.57600
H  33.71600 0.01000 24.33800
H  34.27500 -2.71100 24.82600
H  33.11400 -1.70000 25.64600
H  34.88700 -1.85700 26.19600
H  31.14600 1.63000 27.35900
H  31.72600 3.23700 27.55900
H  30.35600 2.55900 28.55500
H  32.62500 1.45900 33.37700
H  32.38500 5.38500 35.14200
H  33.97100 4.73300 35.62700
H  32.51000 4.32600 36.59600
Mg -0.68500 43.30600 24.84100
C  1.52400 43.18100 27.69100
C  -3.15800 42.20900 26.92400
C  -2.61400 43.41000 22.13700
C  2.04700 44.30900 22.87500
N  -0.76600 42.82900 27.03300
C  0.18400 42.89500 27.99500
C  -0.36800 42.64400 29.36600
C  -1.80600 42.18100 29.05900
C  -1.94800 42.37700 27.58100
C  -2.23700 40.79700 29.57000
C  -0.13900 43.93100 30.24400
C  0.46600 43.85700 31.68100
H  0.05700 42.67700 32.58600
N  -2.66400 42.74100 24.53300
C  -3.46400 42.29000 25.53700
C  -4.79500 41.96600 24.88800
C  -4.64700 42.30200 23.47800
C  -3.23400 42.84200 23.29100
C  -5.90700 41.31300 25.62500
C  -5.68600 42.18700 22.24600
O  -5.36000 42.48200 21.09400
C  -7.05000 41.70200 22.52500
N  -0.29900 43.56000 22.74100
C  -1.33200 43.73400 21.82100
C  -0.88200 44.45300 20.49700
C  0.56000 44.96600 20.91500
C  0.75200 44.25700 22.24200
C  -0.92100 43.42800 19.27900
C  0.56000 46.55300 21.14800
C  0.72300 47.38100 19.90100
N  1.31600 43.64200 25.19800
C  2.32200 43.90000 24.21100
C  3.62000 43.83400 24.90700
C  3.33800 43.54300 26.25900
C  1.99400 43.47800 26.40100
C  4.96500 44.26700 24.37300
C  3.99600 43.26600 27.52900
O  5.20100 43.19900 27.80400
C  2.74000 43.02900 28.54700
C  2.96700 41.79200 29.29500
O  2.95200 40.65400 28.82600
O  3.31800 42.12500 30.63500
C  3.52500 40.96500 31.55900
H  -3.99800 42.08200 27.61000
H  -3.21600 43.64100 21.25600
H  2.79300 44.83800 22.27900
H  0.12900 41.80000 29.84500
H  -2.55500 42.85500 29.47500
H  -3.19900 40.88700 30.07300
H  -1.56100 40.35700 30.30300
H  -2.42600 40.08100 28.77000
H  -1.03400 44.55300 30.27900
H  0.63700 44.56900 29.82000
H  0.18600 44.84900 32.03600
H  1.55300 43.88200 31.60300
H  -5.91200 41.35800 26.71400
H  -5.93600 40.27100 25.30600
H  -6.87500 41.73100 25.34800
H  -7.15100 40.68800 22.91200
H  -7.43100 41.70600 21.50400
H  -7.57200 42.41800 23.16000
H  -1.47500 45.34900 20.31600
H  1.26600 44.66400 20.14200
H  -1.58200 42.58600 19.48300
H  0.12700 43.13700 19.20900
H  -1.18700 43.91100 18.33900
H  1.38300 46.84400 21.80100
H  -0.41800 46.77600 21.57500
H  1.00000 46.74900 19.05700
H  1.49100 48.07900 20.23300
H  -0.21400 47.90000 19.69600
H  4.76700 45.02100 23.61200
H  5.53100 43.45500 23.91400
H  5.56000 44.55500 25.24000
H  2.89100 43.85700 29.24000
H  3.09000 40.04800 31.16300
H  3.07000 41.32800 32.48100
H  4.56400 40.79800 31.84300

