158

Mg 47.34100 25.08600 29.20200
C  48.27000 27.24900 31.82900
C  46.02200 22.93900 31.64300
C  46.71900 22.88400 26.66900
C  48.82500 27.16600 26.92300
N  47.26800 25.05200 31.58400
C  47.63000 26.09800 32.36600
C  47.23200 25.87800 33.83900
C  46.73600 24.38900 33.74900
C  46.52200 24.13200 32.22100
C  47.62800 23.37600 34.36400
C  46.07300 26.80500 34.24500
C  46.30100 27.64700 35.49300
H  46.85600 26.93600 36.71300
N  46.48400 23.22800 29.11400
C  46.03700 22.49900 30.28100
C  45.47400 21.18600 29.76600
C  45.62000 21.20200 28.35100
C  46.36700 22.50000 28.02800
C  44.96300 20.19600 30.75200
C  45.09400 20.13300 27.29500
O  45.23300 20.29600 26.11000
C  44.37400 18.99600 27.87400
N  48.02200 24.86600 27.14100
C  47.50700 23.96800 26.34000
C  47.99400 24.15900 24.91700
C  48.30700 25.65200 24.85100
C  48.42500 25.92900 26.36900
C  49.20800 23.25700 24.50300
C  47.14400 26.46100 24.26900
C  47.63000 27.83600 23.75100
N  48.26600 26.82300 29.33300
C  48.84100 27.63300 28.29500
C  49.32700 28.81100 28.85100
C  49.11300 28.67400 30.24300
C  48.49800 27.43800 30.51200
C  50.16300 29.78600 28.10300
C  49.32500 29.37500 31.52000
O  49.83600 30.43000 31.71800
C  48.80000 28.46300 32.59700
C  49.84700 28.10700 33.50700
O  50.75900 27.25800 33.35100
O  49.70500 28.81400 34.69500
C  50.87300 28.93300 35.63100
H  45.51900 22.37400 32.43100
H  46.42000 22.21600 25.85800
H  49.00600 28.00800 26.25100
H  48.09300 25.98900 34.49900
H  45.78000 24.29800 34.26600
H  48.66800 23.60200 34.12700
H  47.45400 22.39700 33.91900
H  47.52000 23.38800 35.44900
H  45.14900 26.22800 34.28400
H  45.91400 27.44500 33.37700
H  45.39700 28.23200 35.66400
H  46.94900 28.49800 35.28300
H  43.92300 20.48500 30.89900
H  45.41600 20.28900 31.74000
H  45.05100 19.14600 30.47200
H  45.13200 18.45800 28.44400
H  44.11800 18.36900 27.02000
H  43.43200 19.31100 28.32300
H  47.18500 23.86600 24.24800
H  49.29300 25.87900 24.44600
H  50.10000 23.88100 24.46100
H  49.13200 22.80700 23.51300
H  49.30600 22.49200 25.27300
H  46.35200 26.58900 25.00700
H  46.80400 25.96400 23.36000
H  48.71600 27.86400 23.67000
H  47.23400 28.75200 24.19000
H  47.23900 27.86000 22.73400
H  49.57200 30.45800 27.48100
H  50.93800 29.31800 27.49700
H  50.58700 30.38700 28.90700
H  48.00300 29.05500 33.04800
H  51.68900 28.25000 35.39600
H  50.54200 28.55600 36.59800
H  51.18800 29.96400 35.79600
Mg 49.47000 44.72600 42.93500
C  46.07800 45.44500 41.81100
C  49.03900 41.65700 41.94100
C  52.78000 44.58600 43.10600
C  49.66200 48.27600 43.60100
N  47.78800 43.78000 41.86600
C  46.52500 44.14600 41.53500
C  45.64500 43.05100 40.93800
C  46.59000 41.79000 41.13100
C  47.89100 42.41200 41.70600
C  45.95600 40.73400 42.05300
C  45.32400 43.37600 39.41400
C  44.44100 42.35800 38.63700
H  44.93600 41.71500 37.28400
N  50.71100 43.27300 42.65900
C  50.38100 42.00900 42.30300
C  51.50900 41.21600 42.30300
C  52.65100 42.02500 42.62900
C  52.11600 43.37100 42.80100
C  51.45700 39.79800 41.94500
C  54.03500 41.57600 42.70900
O  54.41400 40.38800 42.52300
C  55.24900 42.54500 43.18100
N  51.05300 46.22300 43.51400
C  52.33100 45.89400 43.43000
C  53.26500 47.09500 43.58200
C  52.24700 48.26200 43.96600
C  50.86900 47.56000 43.66100
C  54.73500 47.04100 44.30300
C  52.31900 49.54800 43.06200
C  51.90800 50.87900 43.63500
N  48.16800 46.49800 42.87200
C  48.38600 47.82300 43.26800
C  47.17800 48.60200 43.11400
C  46.33000 47.70600 42.50000
C  46.90300 46.44300 42.41500
C  47.02900 50.08800 43.48000
C  45.00000 47.59800 41.87500
O  44.19600 48.50300 41.72200
C  44.77700 46.09300 41.54700
C  43.69200 45.58500 42.31300
O  42.69300 45.07500 41.82000
O  43.86200 45.58800 43.65800
C  42.60400 45.20400 44.28800
H  48.91800 40.60200 41.69000
H  53.86100 44.45000 43.02900
H  49.69900 49.32300 43.91000
H  44.70100 42.94200 41.47100
H  46.94600 41.37500 40.18800
H  44.93500 40.98300 42.34000
H  46.56400 40.57900 42.94500
H  46.06900 39.84900 41.42700
H  46.26700 43.45600 38.87300
H  44.81600 44.34000 39.43100
H  43.44800 42.80200 38.56100
H  44.38700 41.48200 39.28400
H  51.09000 39.27500 42.82800
H  52.42800 39.40200 41.64700
H  50.76600 39.46100 41.17300
H  56.05900 41.83400 43.34100
H  55.11000 42.91800 44.19500
H  55.51400 43.26600 42.40700
H  53.65000 47.27200 42.57800
H  52.20300 48.56800 45.01100
H  55.00000 46.08800 44.76100
H  54.84500 47.88600 44.98300
H  55.57900 47.23200 43.64000
H  51.71900 49.43000 42.16000
H  53.33900 49.64900 42.69200
H  52.76500 51.53200 43.46800
H  51.62200 50.88300 44.68700
H  50.97400 51.09500 43.11600
H  47.23500 50.62800 42.55600
H  47.75000 50.30400 44.26900
H  45.99700 50.26200 43.78600
H  44.55900 46.15400 40.48100
H  41.86900 45.80400 43.75100
H  42.54000 45.36300 45.36400
H  42.53300 44.12200 44.18100

