158

Mg 40.78600 40.59700 26.71000
C  40.29000 43.13800 29.12200
C  41.99200 38.63000 28.99500
C  41.24400 38.40100 24.10900
C  40.06600 43.10400 24.28600
N  41.04200 40.89300 28.90800
C  40.80600 41.93800 29.68700
C  41.12700 41.62100 31.14500
C  41.51900 40.05400 31.13700
C  41.55000 39.81000 29.58200
C  42.81800 39.63200 31.92600
C  40.01400 42.04400 32.09200
C  39.62100 41.06200 33.27000
H  39.48400 41.56800 34.68900
N  41.46300 38.71900 26.58300
C  41.93100 38.05300 27.67800
C  42.28600 36.69900 27.24000
C  42.20700 36.67200 25.82200
C  41.65000 37.90900 25.45400
C  42.74600 35.58000 28.24000
C  42.59400 35.60700 24.80100
O  42.47800 35.71700 23.55800
C  43.29800 34.36500 25.33900
N  40.79300 40.83000 24.57000
C  40.87700 39.64700 23.73800
C  40.71700 40.03000 22.18900
C  39.86700 41.29900 22.43000
C  40.27300 41.82600 23.82400
C  42.11400 40.30500 21.50300
C  38.26200 41.03800 22.46700
C  37.70600 39.53600 22.64000
N  40.24900 42.63000 26.64000
C  40.08400 43.51500 25.59400
C  39.75800 44.78100 26.10900
C  39.74500 44.70400 27.51200
C  40.09600 43.33700 27.75500
C  39.48600 45.98600 25.35000
C  39.60500 45.44400 28.75800
O  39.22600 46.57600 28.97800
C  40.04000 44.41500 29.83900
C  41.24500 45.02100 30.46200
O  42.41700 44.87900 30.09400
O  40.94800 45.80000 31.60100
C  42.08600 46.28100 32.37900
H  42.33000 37.99300 29.81400
H  41.45400 37.68200 23.31400
H  39.83700 43.87300 23.54500
H  41.97400 42.25100 31.41600
H  40.72800 39.37500 31.45500
H  42.64600 38.88500 32.70000
H  43.39400 40.48400 32.28800
H  43.53600 39.27700 31.18700
H  39.09200 42.00200 31.51300
H  40.00100 43.07800 32.43700
H  40.43700 40.36900 33.47200
H  38.70900 40.50700 33.05100
H  42.15400 34.71500 27.94300
H  42.37800 35.89700 29.21500
H  43.82100 35.41700 28.32800
H  42.74300 33.72800 26.02800
H  44.22900 34.70300 25.79500
H  43.37200 33.65300 24.51700
H  40.26500 39.19900 21.64800
H  39.99500 42.15500 21.76800
H  42.98000 40.26800 22.16400
H  42.00000 41.28700 21.04300
H  42.34400 39.58900 20.71400
H  37.75200 41.54000 21.64500
H  37.95700 41.58600 23.35900
H  36.76100 39.51700 22.09900
H  37.34800 39.37900 23.65700
H  38.41300 38.76700 22.32900
H  40.24100 46.04200 24.56500
H  39.51100 46.90200 25.93900
H  38.48400 45.90000 24.92900
H  39.17400 44.35800 30.49900
H  42.00600 47.24900 32.87300
H  42.81700 46.61500 31.64300
H  42.47600 45.52700 33.06300
Mg 0.75100 43.92700 26.43400
C  2.89500 44.10800 29.35700
C  -1.82700 43.07200 28.68900
C  -1.24400 43.16800 23.80800
C  3.47400 44.34300 24.40900
N  0.66600 43.54200 28.80200
C  1.57100 43.90000 29.72900
C  0.95000 43.83800 31.15900
C  -0.45700 43.03100 30.94400
C  -0.56000 43.19900 29.36500
C  -0.44900 41.57100 31.38000
C  0.84200 45.21300 31.94700
C  1.01500 45.18100 33.45500
H  0.61700 43.84800 34.09600
N  -1.25800 43.46200 26.18000
C  -2.17900 43.22700 27.30500
C  -3.49300 43.20700 26.76600
C  -3.32400 43.14100 25.34600
C  -1.92300 43.27300 25.05400
C  -4.80200 43.10500 27.57500
C  -4.43700 43.00400 24.24500
O  -4.26300 43.14600 23.01400
C  -5.84300 42.83800 24.64300
N  1.07300 43.72400 24.45100
C  0.14300 43.35000 23.58500
C  0.69800 43.50400 22.14400
C  2.06700 44.22300 22.34400
C  2.21700 44.06400 23.82400
C  0.83500 42.15000 21.35600
C  2.05700 45.73600 21.95300
C  3.48200 46.17600 21.35600
N  2.77800 44.14600 26.77000
C  3.72800 44.32600 25.78800
C  5.04100 44.32400 26.41100
C  4.72500 44.26500 27.78300
C  3.34100 44.21100 27.99200
C  6.37900 44.29500 25.78400
C  5.30000 44.10200 29.11800
O  6.47300 44.11500 29.42300
C  4.11200 44.15500 30.25400
C  4.32300 43.01800 31.16800
O  4.62900 41.88300 30.88100
O  4.27600 43.46200 32.44300
C  4.63500 42.47000 33.48200
H  -2.62900 42.81500 29.38300
H  -1.86300 42.93000 22.94100
H  4.24400 44.59000 23.67500
H  1.67400 43.21400 31.68400
H  -1.17800 43.61200 31.51800
H  -0.93800 40.90100 30.67300
H  -1.09600 41.38200 32.23600
H  0.58700 41.37200 31.65400
H  -0.06900 45.68700 31.58200
H  1.61600 45.83100 31.49200
H  0.47900 45.96600 33.98700
H  2.08200 45.37900 33.55400
H  -4.51400 43.27900 28.61200
H  -5.53000 42.31700 27.38300
H  -5.48400 43.91500 27.31500
H  -6.11500 43.77900 25.12200
H  -6.03700 42.04500 25.36600
H  -6.51100 42.77700 23.78400
H  0.03900 44.15500 21.56900
H  2.91800 43.68500 21.92500
H  0.16500 41.41000 21.79300
H  1.88000 41.87100 21.22400
H  0.49100 42.25800 20.32800
H  1.86100 46.32500 22.84900
H  1.34400 45.94400 21.15500
H  3.91700 47.11800 21.69000
H  3.37800 46.28900 20.27700
H  4.21800 45.38100 21.47800
H  6.27600 43.60900 24.94300
H  7.14500 44.06200 26.52400
H  6.71700 45.22100 25.32000
H  4.16300 45.11600 30.76700
H  5.30000 41.69500 33.10000
H  3.72000 42.04700 33.89500
H  5.15600 42.99100 34.28500

