158

Mg 34.90000 3.91300 30.02800
C  32.41900 5.06700 32.26100
C  37.04300 3.67300 32.51800
C  37.24100 3.45000 27.83700
C  32.61100 4.73800 27.49600
N  34.71900 4.30600 32.17600
C  33.60100 4.69800 32.89800
C  33.95900 4.62800 34.37100
C  35.55800 4.50500 34.44500
C  35.79100 4.13000 32.96600
C  36.32500 5.77000 34.83500
C  33.16000 3.38400 34.89100
C  32.43300 3.55300 36.22500
H  33.01700 4.53300 37.16500
N  36.81600 3.44700 30.17400
C  37.52400 3.29200 31.25000
C  38.84800 2.86200 30.89500
C  38.90000 2.72900 29.50800
C  37.60900 3.21000 29.11200
C  39.89800 2.70500 32.04200
C  40.01300 2.26000 28.64300
O  39.90500 1.85300 27.50800
C  41.41500 2.09700 29.28000
N  34.92800 4.09700 27.95400
C  36.09000 3.90100 27.25400
C  35.90900 4.31400 25.75400
C  34.40100 4.77700 25.74200
C  33.95100 4.47100 27.14500
C  36.93500 5.42500 25.35400
C  33.49400 4.06700 24.62500
C  32.70300 2.80600 24.91300
N  32.81500 4.51600 29.82300
C  32.03800 4.81400 28.74900
C  30.72600 5.14400 29.16400
C  30.83700 5.21900 30.55700
C  32.15100 4.92600 30.88900
C  29.48900 5.41900 28.29100
C  30.06600 5.78600 31.71000
O  29.01000 6.41300 31.85400
C  31.05900 5.46400 32.88200
C  31.16900 6.66700 33.70700
O  32.06300 7.48300 33.64200
O  30.22900 6.75500 34.70100
C  30.45800 7.70700 35.83900
H  37.74400 3.64600 33.35500
H  38.01800 3.29700 27.08600
H  32.10500 5.19700 26.64400
H  33.51600 5.53500 34.78200
H  35.90800 3.64800 35.02200
H  36.92400 6.17300 34.01900
H  37.09800 5.60000 35.58500
H  35.73400 6.61700 35.18200
H  33.80400 2.55500 35.18400
H  32.46600 2.91700 34.19200
H  32.49600 2.64900 36.83100
H  31.41800 3.86200 35.97700
H  40.63300 1.93900 31.79500
H  39.50300 2.40400 33.01300
H  40.30700 3.62600 32.45900
H  42.08000 2.22900 28.42700
H  41.58600 1.08700 29.65400
H  41.73500 2.87700 29.97100
H  35.96100 3.40800 25.15100
H  34.36100 5.85000 25.55300
H  36.37300 6.34000 25.16500
H  37.34100 5.09300 24.39900
H  37.70900 5.62900 26.09400
H  34.13800 3.85800 23.77100
H  32.83500 4.80800 24.17100
H  31.64500 2.98800 24.72200
H  32.90100 2.54400 25.95300
H  33.00500 1.94200 24.32100
H  28.72900 4.65300 28.44600
H  29.76300 5.35800 27.23700
H  29.07200 6.42300 28.36000
H  30.68400 4.64600 33.49600
H  29.71100 7.41400 36.57600
H  30.30800 8.66600 35.34200
H  31.46300 7.59400 36.24700
Mg 6.76200 52.82100 40.98700
C  6.05100 49.31900 41.03300
C  9.79900 52.24600 39.58600
C  7.14200 56.06200 40.53200
C  3.46900 53.32000 42.10000
N  7.70100 50.98500 40.31500
C  7.28500 49.66100 40.50400
C  8.41800 48.68900 39.91300
C  9.62200 49.60600 39.75800
C  9.03700 51.06100 39.91300
C  10.79700 49.46500 40.82000
C  7.99600 47.97300 38.63600
C  7.16200 48.73600 37.58400
H  7.83000 49.35600 36.32200
N  8.29500 53.97400 40.21300
C  9.48800 53.56600 39.72200
C  10.39800 54.67500 39.45600
C  9.70700 55.87200 39.73400
C  8.28100 55.38700 40.13500
C  11.85500 54.48600 39.01300
C  10.23700 57.24200 39.50500
O  11.40700 57.50600 39.06100
C  9.34200 58.46400 39.76700
N  5.45100 54.33600 40.97700
C  5.88400 55.65400 40.83400
C  4.85800 56.68100 41.24500
C  3.68500 55.77200 41.73000
C  4.20900 54.34300 41.50400
C  5.27300 57.75100 42.29300
C  2.39000 56.10900 40.99800
C  1.07600 55.69300 41.68600
N  5.03600 51.64600 41.45500
C  3.84700 52.01000 42.10000
C  3.12300 50.85900 42.63600
C  3.94700 49.77600 42.16200
C  5.04500 50.36500 41.43100
C  1.79400 50.85100 43.38600
C  4.08700 48.32600 42.15000
O  3.28800 47.48900 42.54600
C  5.42900 48.01700 41.47600
C  5.06400 47.18400 40.31000
O  4.59100 47.53700 39.19700
O  5.44500 45.91200 40.57100
C  5.32800 44.98000 39.41500
H  10.78100 51.92300 39.23300
H  7.27200 57.13700 40.39200
H  2.51200 53.42900 42.61500
H  8.58800 48.02700 40.76200
H  10.18600 49.54400 38.82800
H  10.92100 50.34800 41.44600
H  11.75100 49.22500 40.35100
H  10.60100 48.70700 41.57900
H  7.58900 46.99200 38.88200
H  8.98000 47.79000 38.20400
H  6.56800 49.54700 38.00600
H  6.55400 47.91700 37.20000
H  12.05700 55.06900 38.11400
H  12.21500 53.47400 38.82800
H  12.36600 54.86200 39.89900
H  9.84800 59.39000 39.49500
H  9.03900 58.38200 40.81100
H  8.51700 58.28600 39.07700
H  4.54400 57.33400 40.43000
H  3.55800 55.82500 42.81100
H  6.30200 57.61800 42.62700
H  4.66100 57.77800 43.19400
H  5.25700 58.70400 41.76400
H  2.27100 55.77200 39.96900
H  2.23600 57.16500 40.77900
H  1.13200 55.63900 42.77300
H  0.89900 54.69700 41.28000
H  0.28700 56.42100 41.49800
H  1.02200 50.63000 42.64900
H  1.69600 51.84600 43.81900
H  1.92500 50.19700 44.24800
H  6.10200 47.54300 42.19000
H  6.14800 45.03800 38.70000
H  4.43100 45.13400 38.81600
H  5.29300 43.97500 39.83400

