158

Mg 2.48400 -0.48000 43.89800
C  5.86000 0.58000 43.91300
C  1.45700 2.60000 42.85800
C  -0.61400 -1.73100 43.65700
C  3.67600 -3.72400 44.80800
N  3.62700 1.40200 43.45000
C  4.97400 1.62900 43.54200
C  5.30800 3.06600 43.18500
C  3.84500 3.70000 43.01500
C  2.89800 2.49200 43.10700
C  3.54100 4.92000 43.97200
C  6.19500 3.29100 41.90700
C  5.65200 2.76200 40.56800
H  5.65400 3.72000 39.42000
N  0.66000 0.30000 43.21400
C  0.44100 1.62700 42.87400
C  -0.97100 1.74000 42.40800
C  -1.58900 0.48900 42.65700
C  -0.51900 -0.41200 43.25600
C  -1.52700 3.03500 41.86100
C  -3.04700 0.22400 42.46400
O  -3.77300 1.10600 42.07000
C  -3.61600 -1.08900 42.87700
N  1.68000 -2.64000 43.66200
C  0.32100 -2.75800 43.83000
C  0.05000 -4.05200 44.63200
C  1.38700 -4.64400 44.98800
C  2.34500 -3.66800 44.31100
C  -0.98200 -4.09400 45.71800
C  1.72100 -6.17300 44.66800
C  1.75400 -7.13400 45.85500
N  4.30500 -1.42000 44.31000
C  4.66800 -2.69600 44.70600
C  6.10100 -2.81100 44.94400
C  6.62600 -1.55200 44.59800
C  5.46800 -0.75900 44.26400
C  6.85500 -4.10500 45.42900
C  7.77700 -0.83100 44.51100
O  8.96100 -1.12400 44.73700
C  7.40700 0.57000 43.96900
C  8.05100 1.65700 44.74900
O  8.90700 2.44900 44.35100
O  7.46200 1.75700 45.92700
C  7.63300 3.07900 46.59700
H  1.10700 3.63400 42.83600
H  -1.61400 -2.03100 43.97800
H  4.00600 -4.62200 45.33500
H  5.74100 3.47300 44.09900
H  3.62900 4.03600 42.00100
H  3.38900 5.88300 43.48400
H  4.31100 5.02100 44.73700
H  2.62200 4.69500 44.51400
H  7.16000 2.80500 42.05200
H  6.20500 4.37300 41.77500
H  4.62500 2.41900 40.68900
H  6.26400 1.88900 40.34700
H  -0.69900 3.56700 41.39200
H  -1.95600 3.64100 42.65900
H  -2.34400 2.90200 41.15200
H  -3.53600 -1.18600 43.95900
H  -3.02300 -1.83900 42.35300
H  -4.65800 -1.01400 42.56700
H  -0.35000 -4.81000 43.95900
H  1.44900 -4.53200 46.07000
H  -1.10200 -3.01700 45.83900
H  -0.63100 -4.53000 46.65300
H  -1.86900 -4.62100 45.36700
H  2.61100 -6.15700 44.04000
H  0.91300 -6.60800 44.08000
H  1.08400 -7.98600 45.73900
H  1.54500 -6.56700 46.76200
H  2.75300 -7.57100 45.84600
H  7.24800 -4.67200 44.58500
H  6.36000 -4.80300 46.10400
H  7.69700 -3.67400 45.97100
H  7.88200 0.57000 42.98700
H  7.43900 3.99200 46.03400
H  8.68800 3.22000 46.83000
H  7.18200 3.14400 47.58700
Mg -2.43000 33.93900 26.74700
C  -3.83100 32.22200 29.59700
C  -0.60100 35.72100 29.01000
C  -1.38100 35.73800 24.26800
C  -4.24500 31.99500 24.67300
N  -2.41200 34.12100 29.11000
C  -2.94300 33.26000 30.02500
C  -2.33500 33.46100 31.45400
C  -1.32700 34.59100 31.18900
C  -1.42200 34.75000 29.63500
C  -1.66800 35.85700 31.94400
C  -1.57800 32.22100 32.05000
C  -2.14600 31.66600 33.32600
H  -1.19600 31.67200 34.56800
N  -1.18000 35.51400 26.67400
C  -0.47600 36.08100 27.72100
C  0.34500 37.11600 27.16900
C  0.15300 37.17400 25.74400
C  -0.86200 36.15200 25.48800
C  1.20500 38.08000 28.06500
C  0.76000 38.04100 24.71700
O  0.36600 38.04600 23.58500
C  1.95500 38.95900 25.07300
N  -2.95900 34.01200 24.74600
C  -2.26200 34.75900 23.90700
C  -2.64100 34.42500 22.40900
C  -3.34000 33.00900 22.55900
C  -3.42100 32.95200 24.05800
C  -3.57300 35.48800 21.68400
C  -2.52200 31.78400 21.93900
C  -1.05100 31.62500 22.31600
N  -3.91500 32.57800 26.99500
C  -4.57100 31.79600 26.07200
C  -5.38300 30.73000 26.70500
C  -5.13600 30.87200 28.10400
C  -4.23200 32.00100 28.18700
C  -6.14400 29.64000 26.06300
C  -5.41800 30.34300 29.40400
O  -6.14300 29.40400 29.76400
C  -4.60300 31.19200 30.35400
C  -5.51000 31.76600 31.40800
O  -6.18300 32.72900 31.22200
O  -5.31000 31.15600 32.65400
C  -6.01100 31.65000 33.83700
H  0.13400 36.15500 29.69200
H  -0.86300 36.27200 23.46800
H  -4.64900 31.21900 24.01800
H  -3.16700 33.70200 32.11600
H  -0.28700 34.31500 31.35800
H  -2.16500 36.52100 31.23700
H  -0.81300 36.46400 32.24200
H  -2.34300 35.77100 32.79600
H  -0.53700 32.48100 32.24100
H  -1.55900 31.38800 31.34700
H  -2.46200 30.65400 33.07300
H  -3.03200 32.23200 33.61400
H  0.76700 39.01900 28.40100
H  2.17200 38.14400 27.56400
H  1.50300 37.51900 28.95100
H  2.79400 38.33000 25.36900
H  1.73500 39.59500 25.93100
H  2.35200 39.53500 24.23700
H  -1.74200 34.35600 21.79700
H  -4.36700 33.00700 22.19300
H  -3.98500 35.03300 20.78300
H  -2.98400 36.31400 21.28400
H  -4.34400 35.87800 22.34800
H  -2.53300 31.97400 20.86600
H  -3.08000 30.85700 22.06900
H  -0.51100 31.60800 21.36900
H  -0.73900 30.76200 22.90400
H  -0.73200 32.51700 22.85400
H  -5.97300 28.76800 26.69500
H  -5.69200 29.52200 25.07800
H  -7.18500 29.96200 26.04200
H  -3.82000 30.54900 30.75800
H  -6.58000 32.56100 33.65100
H  -5.22900 31.87400 34.56200
H  -6.61900 30.82700 34.21400

