158

Mg 2.07600 8.33500 24.85800
C  2.60500 10.06100 27.81800
C  2.14600 5.37600 26.70500
C  1.69300 6.56500 22.03400
C  2.52900 11.28300 22.96100
N  2.42200 7.83400 27.00100
C  2.50200 8.70600 28.05000
C  2.58000 7.97600 29.45000
C  2.55600 6.44100 29.03600
C  2.32200 6.51100 27.49400
C  3.83300 5.59400 29.44300
C  1.32100 8.45300 30.32300
C  1.54300 8.65900 31.88200
H  2.73700 8.00600 32.53900
N  1.78300 6.28000 24.41100
C  1.87600 5.25500 25.34600
C  1.77700 3.97800 24.71200
C  1.71600 4.25200 23.28100
C  1.69700 5.75100 23.18300
C  1.83100 2.65100 25.46200
C  1.74200 3.19700 22.11100
O  1.59500 3.55400 20.95200
C  1.96100 1.73800 22.36700
N  2.24500 8.85000 22.77400
C  1.91800 7.96500 21.78000
C  1.82700 8.57000 20.41100
C  2.31300 10.06500 20.74400
C  2.40500 10.07600 22.23600
C  2.47900 7.83500 19.21400
C  1.33200 11.17900 20.20900
C  -0.12300 11.30300 20.78600
N  2.40700 10.29000 25.25100
C  2.54300 11.41700 24.42400
C  2.87700 12.59800 25.21300
C  2.87000 12.09900 26.55200
C  2.50700 10.73600 26.50300
C  3.04400 14.01400 24.61900
C  3.00100 12.47800 27.93500
O  3.21200 13.61700 28.37600
C  2.73600 11.23400 28.81000
C  3.77100 11.15500 29.80100
O  4.83200 10.81000 29.46500
O  3.42400 11.65500 31.03500
C  4.52400 11.82200 31.93700
H  2.13600 4.43200 27.25400
H  1.46600 6.01500 21.11800
H  2.74900 12.18800 22.39200
H  3.51600 8.19700 29.96300
H  1.69900 5.98400 29.53000
H  3.45200 4.75800 30.02900
H  4.55300 6.10900 30.07900
H  4.28500 5.15900 28.55200
H  0.46000 7.83800 30.06300
H  0.91400 9.34500 29.84600
H  0.63100 8.20300 32.26800
H  1.60000 9.71600 32.14300
H  2.85100 2.46400 25.79600
H  1.52200 1.82700 24.81800
H  1.19700 2.54700 26.34300
H  2.77100 1.58200 23.08000
H  2.02400 1.16700 21.44100
H  0.95800 1.51500 22.73100
H  0.79700 8.54600 20.05400
H  3.27400 10.11800 20.23200
H  1.71300 7.60400 18.47400
H  3.00700 6.97200 19.61900
H  3.19200 8.48600 18.70700
H  1.34100 10.98600 19.13600
H  1.84100 12.12500 20.39500
H  -0.79700 11.07100 19.96100
H  -0.21800 12.31500 21.17900
H  -0.28500 10.61000 21.61100
H  2.79400 13.97400 23.55800
H  4.00100 14.49400 24.82300
H  2.29400 14.70900 24.99600
H  1.75500 11.28900 29.28100
H  4.08300 12.31600 32.80300
H  5.28000 12.47100 31.49500
H  5.03200 10.90200 32.22800
Mg 30.73900 57.64400 40.48400
C  27.61500 56.11500 39.68000
C  32.32400 54.92900 39.19200
C  33.40200 59.41200 40.53000
C  28.69100 60.62100 40.97900
N  30.06300 55.69500 39.79100
C  28.78700 55.36100 39.44300
C  28.70200 54.04200 38.69400
C  30.18200 53.42900 39.01500
C  30.91000 54.75400 39.36000
C  30.36700 52.57900 40.24000
C  28.53400 54.29300 37.15500
C  28.22600 53.07100 36.28400
H  27.54100 53.27700 34.90900
N  32.69300 57.18800 39.92500
C  33.20100 56.07400 39.37900
C  34.63900 56.27800 39.15900
C  34.98700 57.55300 39.66100
C  33.68100 58.10300 39.97800
C  35.47900 55.19000 38.59700
C  36.41600 58.06500 39.82400
O  37.35300 57.32400 39.64400
C  36.70400 59.50100 40.27700
N  31.03200 59.74500 40.76400
C  32.28000 60.15800 40.77600
C  32.33900 61.59600 41.14800
C  30.85600 62.04300 41.23700
C  30.12200 60.75800 40.99200
C  33.20000 61.93700 42.32800
C  30.58700 63.13100 40.19000
C  30.81900 64.64200 40.68900
N  28.51700 58.18600 40.58600
C  27.94000 59.44300 40.73200
C  26.47600 59.36800 40.42200
C  26.29100 58.04700 39.99400
C  27.57500 57.38800 40.11300
C  25.42100 60.46800 40.52100
C  25.34200 57.02700 39.44900
O  24.18000 57.10700 39.23000
C  26.17500 55.76300 39.38800
C  25.67200 54.71300 40.30600
O  25.73200 54.77500 41.48100
O  25.23400 53.58800 39.56300
C  24.60900 52.54100 40.40400
H  32.89800 54.05100 38.88800
H  34.33100 59.97500 40.64000
H  28.12800 61.53000 41.20500
H  27.84300 53.44900 39.00600
H  30.67700 52.88200 38.21300
H  31.17000 52.76900 40.95200
H  30.63400 51.57300 39.91800
H  29.44300 52.52900 40.81600
H  29.55600 54.48100 36.82500
H  27.86400 55.13400 36.97700
H  27.55600 52.39200 36.81200
H  29.10300 52.46500 36.05900
H  36.22800 55.50000 37.86900
H  34.85900 54.46400 38.07100
H  35.94900 54.70900 39.45500
H  36.10900 60.23500 39.73300
H  37.76900 59.64400 40.09100
H  36.47800 59.52400 41.34300
H  32.80300 62.04600 40.26900
H  30.71300 62.28700 42.29000
H  33.78900 61.11100 42.72700
H  32.55500 62.35700 43.10000
H  33.96500 62.68800 42.13200
H  29.51200 62.98900 40.07500
H  31.02400 62.91000 39.21600
H  31.33900 64.79000 41.63600
H  29.78600 64.98000 40.77400
H  31.35500 65.26500 39.97300
H  25.06800 60.73800 41.51600
H  24.59300 60.21500 39.85800
H  25.93300 61.35200 40.14200
H  26.11700 55.31100 38.39800
H  25.47500 52.05900 40.85800
H  24.12000 51.79000 39.78300
H  23.86100 52.85300 41.13200

