158

Mg 0.62600 7.21300 25.66800
C  1.64000 9.13800 28.51300
C  0.65600 4.51600 27.65500
C  0.30300 5.45600 22.85100
C  1.27700 10.21300 23.71500
N  1.19000 6.92000 27.80900
C  1.40400 7.80700 28.82100
C  1.41300 7.16200 30.19000
C  1.15500 5.63000 29.91400
C  1.03600 5.71200 28.34600
C  2.10100 4.61500 30.50700
C  0.35200 7.71000 31.23600
C  0.87600 7.91600 32.70200
H  2.03700 7.16500 33.13500
N  0.41800 5.32000 25.28400
C  0.32100 4.32300 26.30100
C  0.01700 3.08200 25.62600
C  0.03800 3.34200 24.21800
C  0.24500 4.75100 24.07400
C  -0.11800 1.78900 26.34000
C  0.04000 2.41100 23.05200
O  0.00300 2.72300 21.88400
C  0.02500 0.94500 23.30300
N  0.77500 7.75800 23.56400
C  0.53700 6.80800 22.59800
C  0.58300 7.45900 21.25500
C  0.74000 8.98800 21.53500
C  0.99200 9.00000 23.01400
C  1.71100 6.84100 20.40200
C  -0.46600 9.88400 21.18300
C  -0.13200 11.00000 20.23000
N  1.23200 9.28300 26.00200
C  1.39000 10.32200 25.17000
C  1.73800 11.51600 25.90900
C  1.96600 11.13400 27.19400
C  1.53600 9.80600 27.22300
C  2.00900 12.90300 25.29100
C  2.29200 11.54400 28.51400
O  2.71200 12.58000 28.92900
C  2.02300 10.34600 29.45100
C  3.18400 10.18000 30.48200
O  4.23000 9.55000 30.32300
O  2.75300 10.83800 31.63900
C  3.81600 11.17400 32.59500
H  0.63300 3.64500 28.31300
H  0.12900 5.01000 21.86900
H  1.49600 11.14800 23.19600
H  2.42600 7.35500 30.54300
H  0.14100 5.36500 30.21300
H  2.83600 5.13900 31.11700
H  2.52900 3.96300 29.74600
H  1.56800 3.95800 31.19500
H  -0.47300 7.01300 31.38300
H  0.00500 8.66900 30.85200
H  0.03700 7.60600 33.32600
H  1.03100 8.98500 32.84900
H  -0.86600 1.27300 25.73900
H  -0.45800 1.86700 27.37200
H  0.82000 1.23500 26.33800
H  -0.87100 0.65700 23.85200
H  0.84200 0.72300 23.99000
H  0.23900 0.32700 22.43000
H  -0.39300 7.10300 20.92600
H  1.70700 9.27600 21.12300
H  2.20500 7.64200 19.85200
H  1.24900 6.27000 19.59600
H  2.36900 6.21300 21.00200
H  -0.90500 10.41700 22.02600
H  -1.35500 9.35700 20.83800
H  -1.11700 11.37700 19.95200
H  0.50900 10.90000 19.35400
H  0.27300 11.77900 20.87600
H  2.81800 13.40700 25.81900
H  1.15300 13.57100 25.38400
H  2.16100 12.81100 24.21600
H  1.11500 10.57800 30.00700
H  3.24400 11.58900 33.42400
H  4.57000 11.88900 32.26500
H  4.43200 10.39100 33.03700
Mg 30.20400 60.20900 41.03100
C  27.18300 58.66900 39.92300
C  31.82700 57.38800 40.30600
C  33.07300 62.02700 41.22700
C  28.38600 63.27200 41.24700
N  29.60700 58.35300 39.91700
C  28.31000 57.88200 39.66500
C  28.32200 56.46700 39.23600
C  29.80000 55.97600 39.56100
C  30.48200 57.29000 39.99700
C  30.01200 54.79600 40.55900
C  27.90200 56.44700 37.75500
C  26.94600 55.32500 37.31200
H  27.02500 54.70200 35.90800
N  32.20200 59.70300 40.76000
C  32.71000 58.51300 40.51100
C  34.14300 58.51900 40.63900
C  34.52100 59.91500 40.92400
C  33.24400 60.62500 40.98300
C  34.98500 57.37600 40.59300
C  36.01300 60.37900 41.03900
O  36.96200 59.63000 40.86900
C  36.32600 61.79000 41.47900
N  30.68100 62.33000 41.14300
C  31.91800 62.77900 41.37600
C  31.93600 64.30600 41.67800
C  30.45300 64.70300 41.69700
C  29.77700 63.35200 41.26700
C  32.71700 64.57700 43.05400
C  30.06300 65.95300 40.84600
C  29.58600 67.18200 41.61700
N  28.22900 60.81100 40.87800
C  27.66500 62.05600 41.00100
C  26.21700 62.00400 40.77600
C  26.00500 60.61500 40.48800
C  27.24200 59.98500 40.45000
C  25.13600 63.11100 40.78100
C  24.96700 59.64500 40.12900
O  23.68300 59.66800 40.05300
C  25.72300 58.32300 39.69600
C  25.21100 57.26100 40.65300
O  25.37100 57.25900 41.87500
O  24.33700 56.44800 39.94900
C  23.41200 55.68600 40.79300
H  32.33100 56.42000 40.25700
H  33.97600 62.63100 41.34100
H  27.86000 64.19300 41.50300
H  27.60000 55.86000 39.78400
H  30.27800 55.65500 38.63500
H  29.26100 54.01900 40.69800
H  30.23800 55.27000 41.51500
H  30.85300 54.15100 40.30400
H  28.76000 56.36600 37.08700
H  27.33600 57.33700 37.47900
H  25.89700 55.57500 37.46800
H  27.17200 54.53500 38.02800
H  35.45500 57.44300 39.61200
H  34.42600 56.44000 40.60600
H  35.64400 57.46700 41.45600
H  36.20600 62.38900 40.57700
H  37.32400 61.84000 41.91300
H  35.69600 62.09600 42.31500
H  32.47400 64.71700 40.82400
H  30.09300 64.86800 42.71200
H  33.42700 65.37000 42.81900
H  33.21600 63.72300 43.51100
H  32.10900 65.03200 43.83600
H  29.32000 65.79900 40.06400
H  30.92700 66.27400 40.26500
H  28.56900 67.43300 41.31600
H  30.11000 68.13800 41.58000
H  29.84800 66.96000 42.65200
H  24.98300 63.50100 41.78700
H  24.27300 62.58300 40.37300
H  25.43500 63.91000 40.10300
H  25.55400 57.96700 38.67900
H  22.61200 56.32200 41.17200
H  23.90000 55.16000 41.61300
H  22.89200 54.89200 40.25700

