158

Mg 30.61100 58.15400 40.10000
C  28.07900 56.17400 38.70000
C  32.76300 55.84300 39.01100
C  33.07300 60.47200 40.61800
C  28.21400 60.73500 40.43700
N  30.40100 56.30500 38.82800
C  29.27200 55.56600 38.62400
C  29.60700 54.16800 38.12800
C  31.05700 53.97100 38.73300
C  31.44900 55.45300 38.86100
C  31.10700 53.19700 40.14100
C  29.63700 54.11100 36.51200
C  28.44800 53.37600 35.83900
H  27.59600 54.18700 34.83700
N  32.62000 58.16200 39.86200
C  33.30600 57.07700 39.28900
C  34.70700 57.38300 39.38800
C  34.88400 58.70000 39.88900
C  33.51000 59.22200 40.11400
C  35.77500 56.42800 38.87200
C  36.21200 59.42700 40.19100
O  37.25800 58.83800 39.96300
C  36.31100 60.80400 40.73800
N  30.64800 60.32400 40.61200
C  31.78400 60.93800 40.92600
C  31.50800 62.41100 41.32600
C  29.96800 62.40000 41.45700
C  29.58100 61.12000 40.69900
C  32.20300 62.89900 42.56000
C  29.17200 63.64100 40.92800
C  28.67700 64.59300 41.90100
N  28.52400 58.41300 39.83000
C  27.72400 59.56300 39.97100
C  26.38200 59.17900 39.53900
C  26.49600 57.87500 39.00000
C  27.82400 57.48200 39.16200
C  25.11800 59.96400 39.57800
C  25.71300 56.75500 38.42500
O  24.51700 56.62800 38.23000
C  26.69000 55.65500 38.21600
C  26.24900 54.45600 38.88000
O  26.81600 53.93400 39.82200
O  25.11900 53.90900 38.32900
C  24.40300 52.78200 38.90900
H  33.45000 55.02100 38.80000
H  33.82900 61.25000 40.74300
H  27.49600 61.52000 40.68300
H  28.98500 53.36300 38.52000
H  31.75100 53.56100 38.00000
H  31.59500 52.22600 40.05300
H  30.09200 52.82500 40.28500
H  31.43300 53.76400 41.01300
H  30.50100 53.50800 36.23300
H  29.69600 55.14700 36.17800
H  27.84000 52.96800 36.64700
H  28.80200 52.44000 35.40600
H  35.39200 55.62300 38.24500
H  36.20200 55.89400 39.72100
H  36.57900 56.93700 38.34100
H  37.33300 61.04300 41.03100
H  35.71300 60.92900 41.64100
H  36.05200 61.59100 40.03000
H  31.82000 62.95300 40.43400
H  29.55900 62.08800 42.41800
H  32.74500 63.79500 42.25600
H  32.82600 62.12900 43.01500
H  31.47900 63.19600 43.31800
H  28.24000 63.41200 40.41100
H  29.77600 64.22500 40.23300
H  28.68500 65.59700 41.47400
H  29.18600 64.55600 42.86400
H  27.62000 64.44800 42.12400
H  25.45000 60.92900 39.19600
H  24.77200 60.10800 40.60100
H  24.38900 59.55800 38.87700
H  26.72200 55.40300 37.15600
H  23.40500 53.12400 39.18100
H  24.88800 52.52000 39.84900
H  24.53000 51.91200 38.26500
Mg -11.02200 38.27400 42.58000
C  -8.73900 35.56800 41.68400
C  -8.77000 40.32300 40.93200
C  -13.29200 40.68200 42.68800
C  -13.26600 35.82800 43.43900
N  -8.95500 37.98700 41.58200
C  -8.27600 36.81700 41.25200
C  -7.11600 37.05500 40.40300
C  -6.89300 38.60900 40.48700
C  -8.27000 39.06700 41.08300
C  -5.64800 39.09900 41.23100
C  -7.13600 36.40600 39.02900
C  -6.02900 35.36900 38.68100
H  -5.03900 35.71100 37.58200
N  -11.01300 40.20600 41.97200
C  -9.98300 40.89200 41.40000
C  -10.39700 42.25000 41.17300
C  -11.70300 42.42100 41.64100
C  -12.04200 41.13100 42.20600
C  -9.47500 43.34800 40.66000
C  -12.56400 43.64800 41.42300
O  -12.07500 44.67700 40.97300
C  -13.99700 43.70400 41.74300
N  -13.12100 38.21600 42.78600
C  -13.74300 39.34300 42.98500
C  -15.11100 39.09700 43.58100
C  -15.23800 37.50300 43.64400
C  -13.82500 37.14200 43.33100
C  -15.35000 39.79400 44.96500
C  -16.39800 36.78200 42.79200
C  -17.29300 35.81900 43.43800
N  -11.00700 36.15100 42.73800
C  -11.94300 35.34000 43.26700
C  -11.42900 33.98700 43.32100
C  -10.15900 34.05000 42.64000
C  -9.96000 35.35600 42.29200
C  -12.06600 32.72000 43.80000
C  -9.04300 33.26800 42.17200
O  -8.82200 32.08000 42.34700
C  -8.15300 34.17600 41.46200
C  -6.79400 34.06700 42.09800
O  -5.82000 33.55000 41.64400
O  -6.79500 34.64800 43.30400
C  -5.46000 34.75800 43.96400
H  -8.00700 40.98300 40.51400
H  -14.06300 41.41600 42.93300
H  -14.08000 35.13400 43.65600
H  -6.38800 36.53800 41.02700
H  -6.74400 38.89600 39.44600
H  -5.14900 38.30700 41.78800
H  -5.91000 39.92900 41.88700
H  -4.89100 39.46400 40.53600
H  -7.07700 37.07000 38.16600
H  -8.05600 35.82400 38.97600
H  -6.44300 34.39600 38.41700
H  -5.40600 35.19500 39.55800
H  -9.24200 43.93400 41.54900
H  -9.93600 43.98700 39.90700
H  -8.61000 42.90600 40.16500
H  -14.01700 43.49300 42.81200
H  -14.41400 42.84000 41.22500
H  -14.41800 44.64800 41.39700
H  -15.82800 39.41100 42.82200
H  -15.51300 37.13700 44.63300
H  -14.57100 40.54800 45.08400
H  -15.19600 38.97800 45.67200
H  -16.30600 40.29500 45.11400
H  -15.86700 36.16000 42.07100
H  -17.16000 37.43600 42.36700
H  -17.41300 36.22300 44.44300
H  -16.87500 34.81200 43.41600
H  -18.21300 35.80200 42.85400
H  -11.25900 32.03000 44.04400
H  -12.75400 32.27600 43.08200
H  -12.67000 32.90900 44.68800
H  -8.09200 33.96800 40.39400
H  -4.68700 35.27100 43.39100
H  -4.97700 33.81100 44.20500
H  -5.64500 35.15800 44.96100

