158

Mg 16.41100 -2.19700 27.96200
C  15.57500 -0.27800 30.71100
C  18.46000 -4.07700 29.93800
C  17.56200 -3.74400 25.24600
C  14.42800 -0.13800 26.01700
N  16.96600 -2.20500 30.08000
C  16.60400 -1.19300 30.96800
C  17.18300 -1.54400 32.33600
C  18.32500 -2.61300 31.98800
C  17.84200 -3.04800 30.62200
C  19.80900 -2.06900 32.18800
C  16.14800 -2.17000 33.33100
C  16.42800 -1.93500 34.82300
H  17.50500 -1.00000 35.31100
N  17.75800 -3.84100 27.62800
C  18.49100 -4.46500 28.53500
C  19.29700 -5.48200 27.91400
C  18.84500 -5.53200 26.50200
C  18.06900 -4.34500 26.40600
C  20.34500 -6.34500 28.72600
C  19.29800 -6.46000 25.32900
O  18.87500 -6.27200 24.21200
C  20.29900 -7.54400 25.61900
N  16.12200 -1.85400 25.90400
C  16.79700 -2.61600 25.00800
C  16.39300 -2.13800 23.61300
C  15.37900 -0.96000 23.83000
C  15.31200 -0.90300 25.29000
C  17.78600 -1.68600 22.92100
C  14.04900 -1.25500 23.07300
C  13.72100 -0.45700 21.81600
N  15.19600 -0.55000 28.20400
C  14.30900 0.10400 27.35000
C  13.59700 1.14800 28.06100
C  14.02900 1.01400 29.37000
C  15.01500 0.00400 29.40500
C  12.58600 2.12700 27.53800
C  13.91700 1.49200 30.69900
O  13.13200 2.35500 31.10800
C  14.81600 0.63300 31.64200
C  15.66700 1.57000 32.29300
O  16.70700 2.02900 31.88500
O  14.98200 2.02900 33.42100
C  15.57100 3.23700 33.99000
H  19.12500 -4.62100 30.61200
H  18.03400 -4.17000 24.35900
H  13.65200 0.38900 25.45700
H  17.51800 -0.60200 32.76900
H  18.20500 -3.44900 32.67700
H  20.19800 -1.98100 31.17400
H  20.44500 -2.70000 32.80900
H  19.81600 -1.10600 32.69900
H  16.16000 -3.25200 33.19900
H  15.13200 -1.95300 33.00200
H  16.49800 -2.93700 35.24700
H  15.53800 -1.41000 35.17000
H  19.98100 -7.35500 28.91300
H  20.65900 -5.87900 29.66100
H  21.26600 -6.45600 28.15400
H  20.17800 -8.06500 26.56800
H  21.31000 -7.13700 25.66400
H  20.30800 -8.27000 24.80600
H  15.99800 -3.01000 23.09000
H  15.85100 -0.02200 23.53700
H  18.53800 -1.62700 23.70700
H  17.76700 -0.63000 22.65200
H  18.27100 -2.23200 22.11200
H  13.34800 -1.16000 23.90200
H  14.01000 -2.32100 22.85100
H  12.81900 0.07800 22.11300
H  13.76300 -1.05600 20.90700
H  14.57400 0.20300 21.65900
H  12.12900 2.63400 28.38800
H  11.83700 1.63600 26.91800
H  13.04200 2.79600 26.80800
H  14.08300 0.17300 32.30600
H  15.28200 4.05300 33.32800
H  16.65800 3.14900 34.00100
H  15.24600 3.38500 35.02000
Mg 17.61500 52.22000 26.27000
C  19.49100 50.42800 28.69800
C  15.57400 53.10900 28.92200
C  15.95200 53.83500 24.06900
C  19.91000 50.94100 23.88300
N  17.44700 51.69200 28.58500
C  18.32800 50.93800 29.28400
C  17.92700 51.03800 30.80400
C  16.49500 51.65300 30.73500
C  16.47200 52.20700 29.28300
C  15.25300 50.64500 30.98700
C  18.90400 51.93000 31.58100
C  19.19400 51.56500 33.02900
H  17.91000 51.17400 33.77500
N  15.93000 53.31700 26.49400
C  15.36900 53.73500 27.65300
C  14.48000 54.89700 27.38200
C  14.54700 55.13000 25.99100
C  15.53200 54.10900 25.45000
C  13.61100 55.52500 28.49700
C  13.87200 56.21800 25.15500
O  13.98100 56.26000 23.96500
C  12.92800 57.28500 25.81700
N  17.80700 52.27000 24.29600
C  16.94900 52.94700 23.57800
C  17.28600 52.89900 22.06300
C  18.59200 51.97600 21.89600
C  18.81300 51.70500 23.42300
C  16.13800 52.46100 21.16000
C  19.86600 52.66400 21.25000
C  20.71300 53.66000 22.09100
N  19.31700 50.94900 26.21100
C  20.18200 50.61600 25.14300
C  21.27600 49.89300 25.67400
C  21.12300 49.85300 27.09000
C  19.83900 50.43700 27.35600
C  22.46000 49.37400 24.86900
C  21.69000 49.42500 28.31800
O  22.73100 48.83300 28.53200
C  20.66800 49.86200 29.42300
C  20.32600 48.69500 30.34600
O  19.48500 47.89200 30.13300
O  21.01900 48.82600 31.61100
C  20.47900 48.02800 32.77100
H  14.92300 53.48400 29.71500
H  15.47100 54.39100 23.26200
H  20.48100 50.53100 23.04700
H  17.94900 50.04800 31.25900
H  16.33300 52.48900 31.41500
H  14.25100 51.02800 31.18000
H  15.62500 50.07700 31.84000
H  15.12300 49.88700 30.21500
H  18.56000 52.96400 31.56000
H  19.85600 51.87900 31.05200
H  19.72200 52.35300 33.56600
H  19.73600 50.61900 33.06200
H  12.73200 56.13500 28.28900
H  14.32500 56.08000 29.10500
H  13.27300 54.75900 29.19500
H  12.05200 56.87500 26.32100
H  12.58300 57.94000 25.01800
H  13.62100 57.84600 26.44400
H  17.55500 53.92900 21.82800
H  18.31700 51.06800 21.35900
H  16.14700 51.47400 20.69800
H  15.95900 53.12100 20.31100
H  15.32200 52.52900 21.87900
H  19.52600 53.15200 20.33600
H  20.57600 51.89500 20.94500
H  21.77500 53.41700 22.05700
H  20.51200 53.39900 23.13000
H  20.44900 54.71400 22.00900
H  22.58700 50.14700 24.11100
H  22.26500 48.44800 24.32800
H  23.24800 49.31000 25.62000
H  21.31600 50.55600 29.95800
H  20.85600 47.00900 32.69400
H  19.39500 47.92000 32.74400
H  20.86700 48.40700 33.71700

