158

Mg -1.90200 34.96600 26.86800
C  -3.74600 33.10900 29.11700
C  -1.30500 37.19300 29.51100
C  -0.08300 36.86300 24.78100
C  -3.05100 33.03600 24.23500
N  -2.48900 35.14100 29.08600
C  -3.08400 34.12600 29.72100
C  -3.17100 34.44700 31.19800
C  -2.56400 35.90400 31.41100
C  -2.11500 36.13700 29.97600
C  -3.54200 37.05000 31.81300
C  -2.36000 33.32600 31.99600
C  -3.10300 32.75700 33.16800
H  -2.32200 32.62600 34.48500
N  -0.93500 36.86500 27.13000
C  -0.69400 37.53700 28.30200
C  0.31600 38.61400 28.09000
C  0.62400 38.64900 26.67500
C  -0.14900 37.45900 26.14200
C  0.86200 39.62100 29.18700
C  1.59200 39.49200 25.97600
O  1.86100 39.30200 24.82700
C  2.11000 40.71000 26.59500
N  -1.77800 35.08900 24.70900
C  -0.79500 35.85700 24.14300
C  -0.48000 35.53600 22.65100
C  -1.39900 34.23300 22.53700
C  -2.26800 34.16800 23.84700
C  -0.84000 36.73800 21.73200
C  -0.60300 32.96900 22.34500
C  0.16400 32.31300 23.51200
N  -3.19800 33.37400 26.66700
C  -3.54500 32.68900 25.51600
C  -4.51500 31.68800 25.82100
C  -4.61700 31.82900 27.19900
C  -3.70900 32.81500 27.67600
C  -5.26100 30.75500 24.86100
C  -5.28400 31.27800 28.36700
O  -6.20200 30.48300 28.48200
C  -4.64600 31.95600 29.69600
C  -5.79600 32.49600 30.53800
O  -6.71700 33.18800 30.10600
O  -5.64700 32.02100 31.79500
C  -6.75500 32.35500 32.72200
H  -0.88600 37.87500 30.25300
H  0.70600 37.45000 24.30500
H  -3.28700 32.49200 23.31800
H  -4.23900 34.44900 31.41800
H  -1.73000 35.89400 32.11300
H  -4.45000 36.58300 32.19400
H  -3.79000 37.78100 31.04400
H  -2.99300 37.50600 32.63700
H  -1.37300 33.74700 32.18800
H  -2.03300 32.56100 31.29200
H  -3.30300 31.75100 32.79800
H  -3.97100 33.38400 33.37300
H  1.94900 39.55500 29.21800
H  0.54200 39.36400 30.19700
H  0.51000 40.63700 29.01100
H  2.88900 40.47500 27.32000
H  1.28100 41.27500 27.02100
H  2.60300 41.33100 25.84700
H  0.56500 35.25500 22.52300
H  -2.16800 34.24600 21.76500
H  -0.86200 37.64800 22.33300
H  -1.74100 36.57300 21.14000
H  -0.03800 36.92300 21.01800
H  0.14600 33.11200 21.56600
H  -1.14100 32.16800 21.83800
H  -0.27600 32.66100 24.44600
H  1.21000 32.61400 23.45200
H  0.14500 31.22400 23.55900
H  -4.79000 30.66100 23.88300
H  -6.23400 31.22100 24.70600
H  -5.31900 29.79100 25.36600
H  -4.02000 31.25000 30.24200
H  -7.05600 33.39900 32.63200
H  -6.42100 32.30500 33.75800
H  -7.57100 31.65000 32.56000
Mg -5.41500 25.45000 25.52800
C  -4.09900 26.81200 28.42700
C  -7.36100 23.42100 27.25200
C  -6.29800 24.10200 22.54500
C  -3.00300 27.43100 23.76900
N  -5.48200 24.94300 27.66800
C  -5.01400 25.78700 28.68100
C  -5.60000 25.39800 30.00600
C  -6.62800 24.24100 29.60600
C  -6.47800 24.14700 28.07000
C  -6.48900 22.93000 30.42400
C  -6.35700 26.52400 30.79900
C  -6.09700 26.55900 32.33400
H  -5.65900 25.29200 32.99800
N  -6.62300 23.90900 24.99600
C  -7.41500 23.21300 25.86600
C  -8.34400 22.29500 25.17900
C  -8.06500 22.54600 23.72900
C  -6.93200 23.55600 23.70500
C  -9.24400 21.39300 25.93800
C  -8.66800 21.81100 22.52300
O  -8.31500 22.09700 21.34500
C  -9.80900 20.87900 22.73100
N  -4.71700 25.69800 23.44200
C  -5.33700 25.07000 22.46400
C  -4.66100 25.33700 21.11000
C  -3.98200 26.65700 21.48800
C  -3.85000 26.59200 22.99800
C  -3.59900 24.26400 20.73800
C  -4.77400 27.84300 20.88400
C  -3.96900 28.82400 19.91400
N  -3.91300 26.95400 25.98200
C  -3.02400 27.63500 25.17000
C  -2.17300 28.49800 25.94100
C  -2.56400 28.19500 27.28300
C  -3.57900 27.23700 27.24100
C  -1.05300 29.41700 25.50000
C  -2.28400 28.49900 28.57200
O  -1.51600 29.28700 29.01500
C  -3.36900 27.69500 29.44900
C  -2.67500 26.99600 30.56900
O  -1.90800 26.08600 30.39400
O  -2.74800 27.64000 31.78700
C  -2.06700 27.01000 32.93400
H  -8.23500 23.05600 27.79600
H  -6.58600 23.72200 21.56200
H  -2.24700 27.84600 23.09900
H  -4.75900 24.99700 30.57100
H  -7.66600 24.53200 29.77200
H  -5.99400 22.25200 29.72800
H  -7.50700 22.65100 30.69600
H  -5.89900 23.06700 31.33000
H  -7.42500 26.49200 30.58500
H  -6.00800 27.46200 30.36700
H  -6.93100 26.95000 32.91600
H  -5.28400 27.23800 32.59000
H  -8.89300 21.23200 26.95700
H  -9.35000 20.40200 25.49500
H  -10.19800 21.90700 26.05600
H  -10.62400 21.44800 23.17700
H  -9.42800 20.09500 23.38600
H  -10.23300 20.41300 21.84200
H  -5.44900 25.43900 20.36300
H  -2.97000 26.66700 21.08200
H  -3.43700 23.98000 19.69800
H  -3.83300 23.32100 21.23300
H  -2.61400 24.57400 21.08600
H  -5.15000 28.27600 21.81000
H  -5.60700 27.55800 20.24100
H  -3.09500 28.26400 19.58300
H  -3.44700 29.55700 20.52900
H  -4.63200 29.18900 19.12900
H  -1.48600 29.92700 24.64000
H  -0.14500 28.82300 25.39400
H  -0.87900 30.10200 26.33000
H  -3.97400 28.45500 29.94400
H  -1.04300 26.70000 32.72200
H  -2.58100 26.25000 33.52200
H  -1.94900 27.86000 33.60500

