158

Mg 47.62700 25.38300 27.97100
C  48.19500 27.75100 30.32400
C  46.47000 23.24900 30.29500
C  46.66700 23.50700 25.43800
C  49.03500 27.62200 25.48200
N  47.40700 25.51700 30.06600
C  47.62900 26.59900 30.89000
C  47.26300 26.32500 32.32700
C  46.73300 24.88000 32.31600
C  46.85100 24.52200 30.78700
C  47.26100 23.87300 33.31300
C  46.19600 27.29300 32.79700
C  45.46800 27.11100 34.13700
H  45.34000 28.34200 35.07100
N  46.82100 23.60700 27.85900
C  46.46700 22.82500 28.91700
C  45.97000 21.58100 28.38900
C  45.72800 21.78400 27.00900
C  46.40200 23.00100 26.74900
C  45.56200 20.42200 29.25300
C  44.85800 21.02900 26.06700
O  44.80400 21.30600 24.86100
C  44.07700 19.77500 26.38100
N  47.95600 25.55500 25.73400
C  47.36600 24.60200 24.94600
C  47.84700 24.81800 23.48000
C  48.43600 26.17200 23.48000
C  48.42500 26.51800 24.94700
C  48.89400 23.75200 23.03200
C  47.79800 27.33900 22.66000
C  48.75200 28.11900 21.67400
N  48.42900 27.25300 27.83500
C  49.01000 28.02700 26.81200
C  49.45800 29.27800 27.42500
C  49.17300 29.15400 28.78400
C  48.53200 27.96100 28.96000
C  50.11900 30.37100 26.75500
C  49.30800 29.89800 29.99900
O  49.84500 30.96900 30.28300
C  48.55400 29.00200 31.01500
C  49.60900 28.69600 32.08500
O  50.46500 27.82000 32.07200
O  49.50700 29.61700 33.04200
C  50.26500 29.24100 34.28600
H  46.10400 22.52000 31.02100
H  46.44100 22.88900 24.56700
H  49.46700 28.42000 24.87500
H  48.16700 26.32300 32.93700
H  45.65900 24.89900 32.50300
H  47.78500 23.11100 32.73500
H  46.41200 23.38700 33.79300
H  47.76600 24.42000 34.10900
H  45.39500 27.43600 32.07300
H  46.62800 28.29200 32.85500
H  45.96200 26.37500 34.77100
H  44.55200 26.63400 33.78700
H  44.47400 20.39700 29.30100
H  45.96200 20.56200 30.25800
H  46.00700 19.63200 28.64800
H  43.42500 19.95500 27.23700
H  44.70600 18.89300 26.50200
H  43.30200 19.57300 25.64200
H  46.98000 24.72200 22.82800
H  49.48800 26.13400 23.20000
H  49.87700 23.92900 23.46900
H  48.82500 23.50700 21.97200
H  48.51800 22.86100 23.53500
H  47.32600 28.00300 23.38400
H  47.02900 26.92500 22.00800
H  48.45700 29.16300 21.77800
H  48.64800 27.80500 20.63600
H  49.80000 27.90100 21.88000
H  51.17600 30.11300 26.68000
H  49.97700 31.32000 27.27100
H  49.74100 30.48500 25.73900
H  47.76700 29.59900 31.47500
H  51.28000 28.86100 34.17000
H  49.58200 28.52300 34.74000
H  50.32300 30.09100 34.96600
Mg 35.99900 49.57800 25.12200
C  36.47400 47.99300 28.24600
C  35.33700 52.45700 26.84200
C  35.70300 51.11400 22.19800
C  37.22300 46.86000 23.59600
N  35.88200 50.09900 27.20800
C  36.13000 49.37200 28.35200
C  35.75000 50.08800 29.64500
C  35.23400 51.49300 29.14700
C  35.49400 51.35200 27.62900
C  33.68900 51.73900 29.56000
C  36.95900 50.19500 30.64000
C  36.70200 49.57100 32.01500
H  35.28500 49.74400 32.68900
N  35.57700 51.52200 24.53500
C  35.36900 52.59100 25.46000
C  35.18600 53.74100 24.63600
C  35.24800 53.35000 23.30300
C  35.50000 51.96100 23.28600
C  34.73800 55.13400 25.22600
C  34.89700 54.20000 21.97000
O  34.86100 53.78000 20.81900
C  34.68400 55.67000 22.08200
N  36.31000 49.05700 23.25000
C  36.14900 49.87800 22.16200
C  36.41800 49.12200 20.89000
C  37.25800 47.88700 21.33700
C  36.73400 47.84200 22.79500
C  35.07300 48.77900 20.15300
C  38.79800 47.96100 21.24800
C  39.36400 46.84200 20.32000
N  36.43000 47.68400 25.70100
C  36.96900 46.67400 24.95100
C  37.26500 45.56000 25.78500
C  37.11400 46.07700 27.07400
C  36.60400 47.31200 26.98900
C  37.84200 44.24600 25.31500
C  37.26000 45.77500 28.48900
O  37.53500 44.70200 29.05100
C  36.75800 46.95800 29.25500
C  35.58700 46.46000 30.03800
O  34.47800 46.28400 29.55300
O  36.01300 46.11600 31.30200
C  34.92100 45.50200 32.12900
H  34.92100 53.35000 27.31500
H  35.72800 51.58000 21.21100
H  37.72800 46.07300 23.03200
H  34.89900 49.56200 30.07600
H  35.82500 52.26700 29.63800
H  32.95300 51.34800 28.85800
H  33.38600 52.77800 29.68600
H  33.63900 51.21600 30.51500
H  37.36400 51.18800 30.83700
H  37.77700 49.61000 30.21900
H  37.44400 50.00700 32.68300
H  36.97200 48.51900 31.92000
H  35.43600 55.79100 24.70600
H  34.72500 55.09100 26.31500
H  33.73700 55.35900 24.85900
H  33.69200 55.99700 22.39600
H  34.74700 56.09100 21.07900
H  35.47000 56.23400 22.58400
H  36.93900 49.73400 20.15400
H  36.90200 47.04100 20.74900
H  34.24800 49.26000 20.67700
H  34.86400 47.70900 20.17700
H  35.19700 49.14000 19.13200
H  39.22100 47.67300 22.21100
H  39.11400 48.95600 20.93700
H  39.75600 47.16400 19.35500
H  38.71800 45.96900 20.22800
H  40.14200 46.37300 20.92200
H  37.33500 43.50300 25.93100
H  38.90600 44.18400 25.54400
H  37.57200 44.11900 24.26700
H  37.58700 47.30600 29.87200
H  33.92200 45.80000 31.81400
H  34.96900 45.92400 33.13300
H  35.02400 44.41700 32.13200

