158

Mg 10.27400 47.67900 26.66100
C  8.11300 47.95900 29.49300
C  12.89700 48.61300 28.47900
C  12.01900 47.43600 23.88300
C  7.21900 47.19900 24.79500
N  10.40800 48.31600 28.66800
C  9.48000 48.31100 29.69200
C  10.14600 48.55300 31.03700
C  11.50300 49.22100 30.60900
C  11.62800 48.70800 29.17000
C  11.70700 50.76500 30.72400
C  10.32200 47.26800 31.85600
C  10.27000 47.47800 33.36700
H  10.20700 46.22500 34.31500
N  12.24500 47.96400 26.24600
C  13.22600 48.26100 27.16800
C  14.50900 48.08300 26.46800
C  14.22200 47.78200 25.13900
C  12.76300 47.72900 25.02200
C  15.77100 48.27500 27.10700
C  15.14600 47.55400 24.05400
O  14.73300 47.40700 22.88300
C  16.65600 47.63100 24.18200
N  9.64400 47.55700 24.55200
C  10.61000 47.32500 23.62500
C  9.95000 47.03100 22.32000
C  8.44300 46.86500 22.60600
C  8.37100 47.14000 24.09500
C  10.29100 48.01600 21.16000
C  7.81100 45.52300 22.26700
C  6.30800 45.64100 21.92400
N  8.05400 47.58300 26.98800
C  6.99900 47.33800 26.19100
C  5.71700 47.32600 26.97500
C  6.13300 47.59800 28.23700
C  7.57000 47.62100 28.22000
C  4.30900 47.02500 26.39500
C  5.67600 47.87600 29.62800
O  4.56900 47.92900 30.17700
C  6.99700 47.82900 30.44000
C  7.15000 46.50800 31.10800
O  7.59300 45.48800 30.58700
O  6.72300 46.63500 32.38700
C  6.63700 45.39400 32.97700
H  13.76500 48.87600 29.08700
H  12.60800 47.18000 23.00000
H  6.32000 47.25500 24.17700
H  9.63300 49.24800 31.70300
H  12.30500 48.92900 31.28700
H  11.58800 51.22100 29.74100
H  12.65400 50.91700 31.24400
H  10.88300 51.17100 31.31100
H  11.32800 46.88600 31.68100
H  9.63100 46.48300 31.54800
H  9.31600 47.97500 33.54700
H  11.15100 48.07200 33.60900
H  15.81800 48.24400 28.19600
H  15.98500 49.33000 26.93800
H  16.59100 47.61800 26.81700
H  17.07100 47.66500 23.17400
H  16.84400 46.70800 24.73100
H  16.86300 48.55600 24.71800
H  10.36500 46.05700 22.06100
H  7.99700 47.77100 22.19700
H  10.75400 48.92600 21.53900
H  9.36900 48.32500 20.66600
H  10.91300 47.43300 20.48100
H  7.84300 44.74700 23.03100
H  8.32900 45.08500 21.41400
H  6.00900 46.66300 22.15700
H  5.70300 44.92900 22.48500
H  6.15500 45.54500 20.84900
H  3.87200 47.95700 26.03500
H  3.73300 46.49000 27.15000
H  4.47400 46.34700 25.55800
H  6.85000 48.51400 31.27500
H  6.27600 45.57700 33.98800
H  7.58800 44.86100 32.98300
H  5.82300 44.88200 32.46300
Mg 0.77500 43.02600 26.64100
C  3.34000 42.99900 29.09100
C  -1.54300 42.48600 28.97200
C  -1.28700 42.70600 24.02900
C  3.44700 43.40300 24.37900
N  0.96000 42.93900 28.76600
C  2.06900 42.93500 29.63100
C  1.62400 42.97600 31.08100
C  0.12500 42.59400 31.02100
C  -0.20000 42.54000 29.48700
C  -0.33600 41.24300 31.81800
C  1.94600 44.39600 31.67200
C  2.11100 44.54200 33.16900
H  1.63300 43.44400 34.09600
N  -1.11900 42.56600 26.49600
C  -1.93000 42.32900 27.58100
C  -3.27800 42.06100 27.02100
C  -3.28700 42.18600 25.61100
C  -1.86200 42.52300 25.32200
C  -4.48400 41.65900 27.85600
C  -4.44100 42.03500 24.57600
O  -4.24000 41.88700 23.36300
C  -5.75800 41.62400 25.15300
N  0.98000 43.11300 24.52600
C  -0.00500 42.85600 23.64100
C  0.41500 42.87400 22.16100
C  1.94100 43.23200 22.32500
C  2.12300 43.32800 23.83100
C  0.15800 41.60400 21.39400
C  2.31100 44.62700 21.70700
C  2.11300 45.96700 22.59100
N  2.96200 43.30000 26.64600
C  3.88700 43.35700 25.64300
C  5.25800 43.35700 26.17400
C  5.09400 43.09300 27.50800
C  3.70700 43.21700 27.74900
C  6.40500 43.59200 25.40200
C  5.73800 42.77700 28.80400
O  6.94800 42.52900 29.02500
C  4.66900 42.92200 29.86800
C  4.95500 41.83400 30.84000
O  4.74200 40.61200 30.66800
O  5.43000 42.35900 32.02800
C  5.81500 41.40600 33.08900
H  -2.31200 42.14300 29.66800
H  -1.93800 42.57600 23.16300
H  4.24600 43.53700 23.64700
H  2.30700 42.24100 31.50800
H  -0.49600 43.38200 31.44900
H  -1.07200 41.57000 32.55200
H  0.52500 40.84400 32.35400
H  -0.81400 40.54200 31.13200
H  1.01400 44.87800 31.37700
H  2.75600 44.90100 31.14600
H  1.62000 45.41800 33.59300
H  3.19000 44.61600 33.31000
H  -5.17200 42.47100 28.09000
H  -4.15200 41.21600 28.79500
H  -5.10900 40.86000 27.45600
H  -5.71300 40.57500 25.44500
H  -6.41800 41.60700 24.28600
H  -6.11500 42.25000 25.97000
H  -0.03300 43.71200 21.62600
H  2.63400 42.47200 21.96600
H  -0.45200 41.04400 22.10400
H  1.06200 41.04600 21.15100
H  -0.45000 41.83800 20.52000
H  1.85500 44.93100 20.76500
H  3.38300 44.64400 21.51100
H  1.47800 46.62400 21.99700
H  3.09200 46.39100 22.81600
H  1.60500 45.88900 23.55200
H  7.33700 43.49400 25.95700
H  6.34500 44.45300 24.73500
H  6.45100 42.69300 24.78800
H  4.91100 43.88900 30.30900
H  6.75500 40.89100 32.88900
H  5.00400 40.72400 33.34300
H  5.94400 41.96600 34.01500

