158

Mg 25.68200 0.53400 29.67500
C  27.85900 0.25800 32.30900
C  23.06600 0.84500 31.91100
C  23.61900 0.66900 27.05000
C  28.29500 -0.49700 27.40100
N  25.53100 0.53700 31.86800
C  26.55400 0.53500 32.75100
C  26.02500 0.76100 34.17800
C  24.51100 0.91400 33.99200
C  24.36800 0.81500 32.48500
C  23.72800 -0.14700 34.87100
C  26.66000 1.99300 34.88000
C  27.07200 1.85200 36.32700
H  26.61100 2.96500 37.24600
N  23.63300 0.60500 29.53400
C  22.72100 0.78500 30.55600
C  21.39400 0.79600 30.00400
C  21.51200 0.76000 28.53700
C  23.00600 0.67500 28.36400
C  20.17900 0.80100 30.86000
C  20.38800 0.63700 27.40800
O  20.75800 0.54600 26.24100
C  18.97500 0.74100 27.74600
N  25.92300 0.19200 27.51400
C  24.93300 0.45600 26.64400
C  25.40800 0.21800 25.23800
C  26.88700 -0.12200 25.37800
C  27.00100 -0.23000 26.88600
C  24.56000 -0.82000 24.43000
C  27.78900 0.91000 24.71700
C  28.77900 0.35300 23.67500
N  27.62700 0.05000 29.70300
C  28.54500 -0.40900 28.76800
C  29.86300 -0.55800 29.37600
C  29.64800 -0.25600 30.78200
C  28.22500 -0.00400 30.93800
C  31.13700 -0.86000 28.68200
C  30.30500 -0.14800 32.07100
O  31.46400 -0.12800 32.41900
C  29.18900 0.21300 33.11800
C  29.13200 -0.88900 34.15100
O  28.93500 -2.05900 33.88100
O  29.52200 -0.32800 35.41600
C  29.33800 -1.19500 36.57500
H  22.19800 0.99300 32.55700
H  23.04100 0.87500 26.14700
H  29.06600 -0.81900 26.69800
H  26.33700 -0.14500 34.69600
H  24.23700 1.90600 34.35100
H  22.87000 0.36100 35.31100
H  24.41100 -0.58300 35.59900
H  23.52300 -1.00000 34.22400
H  26.08100 2.90900 34.76600
H  27.52800 2.31500 34.30500
H  28.15600 1.96200 36.37200
H  26.76800 0.85900 36.66000
H  19.85900 1.83600 30.97900
H  20.11300 0.40300 31.87200
H  19.29200 0.34000 30.42400
H  18.52200 -0.24600 27.82800
H  18.43500 1.36500 27.03400
H  18.75000 1.27900 28.66700
H  25.22100 1.24900 24.93700
H  27.02800 -1.14700 25.03400
H  25.18400 -1.64000 24.07500
H  24.16700 -0.31000 23.55100
H  23.70900 -1.13400 25.03400
H  28.32700 1.58700 25.38100
H  27.16900 1.54300 24.08400
H  28.43100 0.53200 22.65800
H  28.90800 -0.71600 23.84800
H  29.72200 0.89900 23.66600
H  31.06300 -0.82700 27.59500
H  31.24100 -1.90100 28.98600
H  31.97400 -0.27200 29.05900
H  29.31100 1.21300 33.53300
H  28.78700 -2.09300 36.29400
H  28.95300 -0.61800 37.41600
H  30.34300 -1.53600 36.82400
Mg 54.00600 24.32500 44.82500
C  51.48600 26.39800 43.59400
C  52.70100 21.61400 42.92000
C  56.89100 22.49500 45.11200
C  55.46900 27.09800 46.27000
N  52.41200 24.03400 43.25400
C  51.53100 25.11900 42.91800
C  50.47100 24.52700 41.81600
C  50.65900 22.97000 41.98000
C  52.04000 22.81100 42.72300
C  49.52300 22.25800 42.74300
C  50.63000 25.23600 40.40700
C  50.67500 24.46400 39.08000
H  52.03700 24.44200 38.26700
N  54.62500 22.24900 44.38400
C  53.91900 21.31000 43.59800
C  54.66200 20.06300 43.62600
C  55.87900 20.26600 44.37500
C  55.84000 21.67700 44.66700
C  54.09400 18.76700 42.98400
C  56.88900 19.21000 44.81800
O  56.79300 18.02700 44.45000
C  57.95000 19.67600 45.74700
N  55.88100 24.67600 45.76300
C  56.96700 23.83600 45.57800
C  58.23400 24.45000 46.17100
C  57.75200 25.95500 46.41200
C  56.27600 25.92900 46.15500
C  58.93600 23.73900 47.38100
C  58.56600 26.98200 45.53800
C  58.14800 27.11500 43.98700
N  53.53900 26.28100 45.03300
C  54.13800 27.27600 45.80400
C  53.29100 28.41500 46.00900
C  52.19900 28.13400 45.15700
C  52.49100 26.86000 44.50600
C  53.45000 29.60600 46.85000
C  50.98300 28.64500 44.64800
O  50.40400 29.69300 44.78200
C  50.45000 27.55200 43.58000
C  50.18100 28.14400 42.22800
O  51.04700 28.65200 41.48800
O  48.85800 28.06100 41.93000
C  48.33100 28.65400 40.73700
H  52.20300 20.73500 42.50500
H  57.92200 22.13800 45.09700
H  55.78300 27.84900 46.99700
H  49.48300 24.74800 42.22100
H  50.64300 22.50000 40.99700
H  48.73600 22.92300 43.10000
H  49.96200 21.68400 43.55900
H  49.06800 21.47900 42.13200
H  51.48400 25.90500 40.50900
H  49.75100 25.87200 40.30400
H  49.86300 24.88900 38.49000
H  50.32400 23.43600 39.17100
H  54.48800 18.48000 42.00900
H  53.01000 18.83700 42.89700
H  54.07600 17.93400 43.68600
H  57.57700 20.39100 46.48100
H  58.86700 20.10500 45.34400
H  58.34900 18.83100 46.30800
H  59.01400 24.55000 45.41600
H  57.90900 26.24700 47.45100
H  59.01800 24.43600 48.21500
H  59.92400 23.38200 47.09100
H  58.26600 22.99400 47.81000
H  59.58800 26.62700 45.67200
H  58.52000 27.99300 45.94300
H  59.08700 27.02100 43.44200
H  57.62300 28.02900 43.70900
H  57.55500 26.26800 43.64200
H  53.87800 29.14700 47.74100
H  52.50700 30.08700 47.11300
H  54.21700 30.18200 46.33300
H  49.54100 27.11400 43.99200
H  49.00800 28.73700 39.88700
H  47.84200 29.61700 40.88800
H  47.52500 28.09300 40.26600

