158

Mg -2.12800 17.14900 26.93900
C  -2.69000 15.06600 29.72100
C  -2.28400 19.86900 29.09300
C  -1.90800 19.19800 24.13600
C  -2.63100 14.39200 24.80500
N  -2.54800 17.33200 29.19000
C  -2.52400 16.38900 30.18600
C  -2.63800 17.00000 31.54300
C  -2.52700 18.51300 31.20400
C  -2.43000 18.59900 29.73500
C  -3.75000 19.21300 31.81000
C  -1.59600 16.39600 32.60500
C  -1.20500 17.21900 33.85100
H  -0.95400 16.53800 35.21000
N  -1.88400 19.20700 26.70300
C  -1.97800 20.19300 27.70300
C  -1.74700 21.45400 27.07400
C  -1.55200 21.25100 25.68300
C  -1.66600 19.83900 25.41600
C  -1.78600 22.71600 27.87000
C  -1.25000 22.31300 24.56400
O  -1.13100 21.96300 23.40600
C  -1.21500 23.82900 24.87000
N  -2.34700 16.84100 24.78600
C  -2.25400 17.85700 23.84800
C  -2.62500 17.36200 22.48200
C  -2.61500 15.77400 22.62600
C  -2.56000 15.62900 24.14200
C  -3.85300 18.14800 21.85100
C  -1.46900 15.05400 21.79300
C  -0.11900 15.16400 22.37600
N  -2.43700 15.11500 27.17200
C  -2.65900 14.14700 26.20000
C  -3.01900 12.98000 26.85800
C  -3.08500 13.25300 28.24100
C  -2.66900 14.58800 28.38900
C  -3.29300 11.69900 26.20500
C  -3.28800 12.61200 29.52600
O  -3.56200 11.43800 29.81800
C  -2.92900 13.85400 30.55500
C  -1.73100 13.35800 31.31700
O  -0.57400 13.61800 31.02200
O  -2.01400 12.57900 32.39700
C  -0.85900 12.15500 33.20200
H  -2.23100 20.62500 29.88000
H  -1.96200 19.84200 23.25600
H  -2.84100 13.53100 24.16800
H  -3.66600 16.75100 31.80500
H  -1.67300 18.95600 31.71600
H  -4.66900 18.73100 31.47700
H  -3.72300 20.25200 31.47900
H  -3.59500 19.13200 32.88600
H  -0.71700 16.07700 32.04500
H  -1.86100 15.38700 32.92100
H  -2.13900 17.76200 33.99600
H  -0.34900 17.79400 33.49800
H  -1.87200 22.65600 28.95500
H  -2.70700 23.21600 27.57000
H  -0.98200 23.38100 27.55300
H  -0.21200 24.24300 24.96900
H  -1.87500 24.08600 25.69800
H  -1.62600 24.28300 23.96800
H  -1.72900 17.59300 21.90700
H  -3.59500 15.33200 22.44400
H  -4.14200 19.00900 22.45300
H  -4.73000 17.51700 21.71000
H  -3.62800 18.53900 20.85900
H  -1.44600 15.56000 20.82800
H  -1.80000 14.03400 21.59700
H  -0.04700 15.75400 23.29000
H  0.60400 15.59500 21.68300
H  0.27800 14.17700 22.61200
H  -2.30800 11.23100 26.20200
H  -3.64900 11.78800 25.17800
H  -4.06600 11.24000 26.82000
H  -3.74500 13.79500 31.27400
H  -0.60800 13.03900 33.78900
H  0.05700 11.77700 32.74800
H  -1.28800 11.52000 33.97700
Mg 1.45000 -1.86200 45.40800
C  4.87300 -0.86000 44.88400
C  0.50000 0.76200 43.45500
C  -1.55600 -3.16300 45.48500
C  2.76300 -4.84800 46.74200
N  2.63700 -0.11900 44.36800
C  3.99300 -0.00200 44.21800
C  4.30000 1.25700 43.36100
C  2.85300 1.92000 43.21800
C  1.93800 0.77600 43.59500
C  2.72900 3.21700 44.07700
C  4.96500 0.81500 41.97400
C  6.45200 1.17200 41.66400
H  6.60100 1.61400 40.21400
N  -0.27500 -1.29100 44.54500
C  -0.49300 -0.13100 43.89000
C  -1.88600 0.01000 43.57000
C  -2.54000 -1.02000 44.28800
C  -1.47200 -1.87800 44.87000
C  -2.36400 1.26100 42.90500
C  -3.99200 -1.17800 44.32600
O  -4.76800 -0.45300 43.67600
C  -4.67800 -2.06400 45.24400
N  0.78700 -3.89200 45.63200
C  -0.56300 -4.08800 45.83000
C  -0.90200 -5.43200 46.52900
C  0.48300 -6.05900 46.71000
C  1.43100 -4.84100 46.29900
C  -1.73300 -5.31000 47.84800
C  0.81200 -7.30000 45.82100
C  1.51600 -8.45200 46.59600
N  3.42400 -2.69300 45.94400
C  3.72300 -3.92000 46.48400
C  5.19800 -3.96700 46.77600
C  5.67200 -2.77800 46.09300
C  4.55000 -2.03400 45.60000
C  6.03300 -5.07500 47.44400
C  6.81300 -2.15100 45.61800
O  8.02400 -2.45600 45.64400
C  6.41200 -0.84100 44.88600
C  6.83600 0.38600 45.67300
O  6.86400 0.52100 46.83100
O  7.22400 1.35300 44.75000
C  7.70500 2.62100 45.23900
H  0.25200 1.64900 42.86700
H  -2.55900 -3.55300 45.67000
H  3.10100 -5.74400 47.26800
H  4.97200 1.88800 43.94200
H  2.67200 2.28700 42.20700
H  3.72700 3.57200 44.33400
H  2.03700 3.18200 44.91900
H  2.21100 3.90500 43.40800
H  4.42700 1.16500 41.09200
H  4.88600 -0.26900 41.90200
H  6.96500 0.22000 41.80000
H  6.97400 1.94500 42.22900
H  -2.56300 1.96100 43.71700
H  -3.28700 1.08600 42.35400
H  -1.61500 1.59200 42.18500
H  -3.99700 -1.99400 46.09300
H  -4.74700 -3.06400 44.81600
H  -5.64400 -1.61600 45.47300
H  -1.46300 -6.01400 45.79800
H  0.56700 -6.26100 47.77800
H  -2.79300 -5.23000 47.60500
H  -1.45200 -4.44800 48.45400
H  -1.70800 -6.23200 48.42900
H  1.47400 -6.90900 45.04800
H  -0.11500 -7.65700 45.37000
H  0.98500 -9.38800 46.41900
H  1.55600 -8.36900 47.68200
H  2.51600 -8.45900 46.16400
H  6.19400 -5.90400 46.75500
H  5.56200 -5.49400 48.33300
H  7.08000 -4.85900 47.65400
H  6.87100 -0.90800 43.89900
H  8.15200 2.61700 46.23300
H  6.80900 3.24200 45.23600
H  8.29800 3.00500 44.40900

