158

Mg 36.86500 50.17200 25.27400
C  37.00100 47.89700 27.89000
C  35.67600 52.60800 27.55000
C  35.96800 52.04000 22.77200
C  37.59700 47.57600 23.07700
N  36.31300 50.16500 27.42200
C  36.55600 49.20900 28.26300
C  36.37200 49.72200 29.67300
C  35.65600 51.09800 29.50500
C  35.80300 51.29700 28.08400
C  34.18100 51.24600 30.10600
C  37.75700 49.70400 30.54100
C  37.61500 48.91800 31.84100
H  36.29900 49.03000 32.58800
N  36.03500 52.12500 25.17700
C  35.57900 52.95100 26.18100
C  35.18100 54.18300 25.56900
C  35.24500 54.02500 24.13800
C  35.78800 52.75200 23.99000
C  34.77900 55.37300 26.37600
C  34.79700 55.03600 23.05600
O  34.69600 54.71400 21.88900
C  34.47200 56.49800 23.46500
N  36.71700 49.77500 23.15500
C  36.40500 50.76800 22.41000
C  36.76400 50.48000 20.91700
C  37.47900 49.03100 21.04100
C  37.22500 48.75300 22.52900
C  35.49000 50.55800 20.02900
C  38.94800 48.90900 20.53700
C  39.12900 47.65300 19.61000
N  37.24100 48.10600 25.38100
C  37.54000 47.22100 24.47000
C  37.65100 45.94600 25.06300
C  37.47500 46.18100 26.41600
C  37.18200 47.49600 26.57600
C  38.14900 44.73100 24.36300
C  37.46300 45.55500 27.66400
O  37.65600 44.42100 28.06000
C  37.23100 46.69200 28.76800
C  35.99900 46.45600 29.59000
O  34.85300 46.89200 29.34300
O  36.38700 45.61400 30.62200
C  35.35600 45.04300 31.39500
H  35.39400 53.33000 28.32000
H  36.01900 52.64000 21.86100
H  37.92800 46.83900 22.34300
H  35.67600 49.03700 30.15700
H  36.15100 51.86000 30.10700
H  34.05800 52.29200 30.38500
H  33.97100 50.80800 31.08100
H  33.38700 50.96900 29.41300
H  38.18100 50.67100 30.81000
H  38.53600 49.11800 30.05500
H  38.33000 49.36900 32.52900
H  37.79000 47.85700 31.66100
H  35.21300 56.30000 26.00300
H  34.98800 55.20900 27.43300
H  33.69000 55.38800 26.32400
H  33.68600 56.56800 24.21700
H  34.16600 56.90800 22.50200
H  35.31100 57.09800 23.81600
H  37.54800 51.14600 20.55800
H  36.71900 48.37200 20.62100
H  35.28200 51.62100 19.90800
H  34.72300 50.06500 20.62700
H  35.83100 50.12600 19.08900
H  39.71300 49.00200 21.30700
H  39.15600 49.73000 19.85200
H  40.05300 47.10900 19.80100
H  39.06800 48.01600 18.58400
H  38.36100 46.90100 19.79200
H  37.45000 44.32100 23.63400
H  38.44300 44.00400 25.12000
H  39.03100 44.97400 23.77000
H  38.10300 46.71600 29.42100
H  34.51700 45.71000 31.59400
H  35.67900 44.74800 32.39300
H  34.83700 44.18400 30.97000
Mg 9.65200 47.20800 26.74700
C  7.83100 47.03000 29.67400
C  12.34300 48.45200 28.60100
C  11.40600 47.59400 23.91300
C  6.73700 46.80700 24.85300
N  10.05000 47.55700 28.86300
C  9.21500 47.32600 29.90300
C  9.75300 47.72900 31.24400
C  11.09100 48.55200 30.89500
C  11.15800 48.29100 29.33900
C  11.02900 50.10600 31.05100
C  10.00800 46.60200 32.23400
C  9.75500 46.96300 33.74600
H  10.03900 45.77900 34.70900
N  11.59000 47.65900 26.38200
C  12.55700 48.18700 27.20500
C  13.79000 48.28700 26.49500
C  13.56100 47.94200 25.18700
C  12.14500 47.68800 25.10500
C  15.08300 48.70500 27.17600
C  14.49600 47.83000 24.08800
O  14.02100 47.47100 23.03100
C  15.98700 48.11500 24.22400
N  9.14200 47.24500 24.61400
C  10.04700 47.45200 23.66400
C  9.47300 47.33500 22.27700
C  7.89500 47.16500 22.59600
C  7.89500 47.06500 24.13500
C  9.87300 48.57600 21.43900
C  7.11700 45.97800 21.83900
C  7.14900 44.62200 22.59400
N  7.62100 46.82500 27.16800
C  6.53200 46.73700 26.27400
C  5.34100 46.59700 27.08700
C  5.78000 46.79000 28.39500
C  7.23600 46.84300 28.43300
C  3.92800 46.39200 26.57400
C  5.33400 46.76400 29.82600
O  4.20700 46.50200 30.26500
C  6.68900 46.87200 30.65800
C  6.86400 45.62900 31.53400
O  6.90100 44.45700 31.13500
O  6.66400 45.86800 32.85300
C  6.34900 44.68700 33.71500
H  13.13900 49.11400 28.94800
H  11.86800 47.89400 22.97000
H  5.83400 46.68900 24.25000
H  9.12200 48.47500 31.72800
H  11.94400 48.08600 31.38900
H  11.16600 50.48400 30.03800
H  11.86000 50.39300 31.69600
H  10.06600 50.52200 31.34600
H  11.02400 46.21100 32.27500
H  9.26200 45.83500 32.02400
H  8.71200 47.27800 33.77900
H  10.27200 47.84500 34.12200
H  15.09900 48.54300 28.25400
H  15.39300 49.73900 27.02800
H  15.93300 48.08300 26.89600
H  16.44000 48.36900 23.26500
H  16.56700 47.30500 24.66500
H  16.03000 49.00300 24.85400
H  9.94200 46.51000 21.74100
H  7.36700 48.05600 22.25600
H  10.61800 49.23600 21.88300
H  9.04200 49.25100 21.23300
H  10.29800 48.24100 20.49300
H  7.65300 45.82000 20.90300
H  6.09500 46.27600 21.60200
H  6.20600 44.49800 23.12700
H  7.93500 44.54400 23.34400
H  7.31300 43.79400 21.90300
H  3.93600 46.62000 25.50900
H  3.23500 47.10800 27.01700
H  3.59400 45.38800 26.83700
H  6.63900 47.65700 31.41300
H  7.28100 44.12400 33.73900
H  5.57800 44.10900 33.20500
H  6.10400 44.99700 34.73100

