158

Mg 17.60900 -1.32700 27.88900
C  16.53800 0.33600 30.74500
C  19.60700 -3.33700 29.82300
C  18.78500 -2.69800 25.11200
C  15.90500 0.98000 25.92700
N  18.10700 -1.34500 30.02900
C  17.44700 -0.67000 31.06000
C  17.88200 -1.15600 32.37700
C  19.08700 -2.01700 32.00900
C  18.90200 -2.37300 30.56500
C  20.50400 -1.33400 32.33300
C  16.79100 -1.88700 33.22400
C  16.66400 -1.34500 34.64000
H  17.98100 -1.24100 35.48200
N  18.87600 -2.86600 27.54400
C  19.56100 -3.63400 28.45600
C  20.18000 -4.78600 27.82400
C  19.94900 -4.67300 26.43000
C  19.15500 -3.37500 26.29400
C  20.99500 -5.80000 28.54500
C  20.30400 -5.53100 25.28600
O  20.08100 -5.30700 24.12700
C  20.93400 -6.94200 25.55700
N  17.36300 -0.89400 25.73900
C  18.01000 -1.54300 24.81000
C  17.81900 -1.03600 23.35200
C  16.87200 0.24700 23.64300
C  16.74000 0.15700 25.20200
C  19.13100 -0.63900 22.64900
C  15.51400 0.18200 22.89700
C  15.60600 0.54600 21.42400
N  16.42000 0.39600 28.21200
C  15.82400 1.26100 27.36100
C  15.15000 2.29700 28.13600
C  15.35700 1.98700 29.45700
C  16.18200 0.87200 29.45400
C  14.37700 3.49100 27.63900
C  15.05100 2.24100 30.76800
O  14.38700 3.15600 31.26500
C  15.83000 1.28000 31.68300
C  16.68600 2.10900 32.61400
O  17.81600 2.50400 32.35100
O  15.95800 2.50600 33.71000
C  16.35800 3.82100 34.20100
H  20.34100 -3.84800 30.45000
H  19.10600 -3.26100 24.23300
H  15.29100 1.67200 25.34800
H  18.21600 -0.35900 33.04200
H  19.12400 -3.00500 32.46900
H  21.15000 -1.06400 31.49800
H  21.12500 -2.06800 32.84700
H  20.48000 -0.40700 32.90600
H  16.97400 -2.95800 33.31600
H  15.81200 -1.87600 32.74600
H  15.97200 -1.97800 35.19600
H  16.24300 -0.34000 34.59400
H  20.72600 -6.80800 28.23000
H  20.80600 -5.74200 29.61700
H  22.08300 -5.75000 28.48500
H  21.74300 -6.61400 26.20900
H  21.25400 -7.33700 24.59300
H  20.22400 -7.62100 26.03100
H  17.16700 -1.67500 22.75600
H  17.19900 1.26500 23.43100
H  19.88700 -0.22200 23.31500
H  18.91700 0.02800 21.81400
H  19.47100 -1.53800 22.13400
H  14.85500 0.94300 23.31500
H  15.10600 -0.82300 23.00800
H  15.28200 -0.28900 20.80200
H  16.58800 0.87700 21.08700
H  14.92500 1.35300 21.15600
H  13.96000 3.96700 28.52600
H  13.52500 3.09900 27.08300
H  15.06100 4.06200 27.01100
H  15.03300 0.76200 32.21500
H  15.56700 4.25700 34.81200
H  16.46300 4.60200 33.44800
H  17.15500 3.70100 34.93400
Mg 47.00100 25.47300 27.99200
C  47.76200 27.66800 30.46900
C  46.42700 23.01600 30.31400
C  46.10600 23.41800 25.51600
C  47.74600 27.87400 25.66500
N  47.03400 25.39200 30.17900
C  47.27900 26.40800 31.02800
C  47.24000 25.95600 32.47800
C  46.73800 24.50600 32.46300
C  46.73400 24.26000 30.86600
C  47.58300 23.53700 33.32500
C  46.53300 27.04500 33.40500
C  45.72700 26.57700 34.60000
H  45.51600 27.53800 35.83800
N  46.45100 23.48200 27.92800
C  46.27900 22.60800 29.00200
C  45.80400 21.32900 28.54000
C  45.54800 21.48400 27.17200
C  46.12500 22.82200 26.78300
C  45.49400 20.19300 29.57300
C  44.85500 20.61600 26.21200
O  44.46700 20.99100 25.10900
C  44.43300 19.33200 26.64700
N  47.03300 25.61900 25.85000
C  46.51500 24.65500 25.06600
C  46.53400 25.01500 23.58700
C  47.02300 26.49200 23.64500
C  47.24400 26.74100 25.14800
C  47.47200 24.18500 22.67800
C  45.95300 27.52800 23.05300
C  46.38800 28.43300 21.91200
N  47.75200 27.30900 28.00700
C  48.07600 28.18700 26.97900
C  48.45500 29.43800 27.50200
C  48.45100 29.21000 28.88300
C  48.00600 27.96100 29.13600
C  48.76700 30.66800 26.76200
C  48.75800 29.88500 30.15200
O  49.20900 31.00700 30.27500
C  48.19500 28.91900 31.24100
C  49.26300 28.64100 32.15100
O  50.24700 27.90500 31.93000
O  49.12400 29.35100 33.29200
C  50.34500 29.39800 34.16400
H  46.23800 22.30900 31.12500
H  45.88200 22.77300 24.66400
H  47.95800 28.59500 24.87300
H  48.28300 26.04000 32.78400
H  45.69600 24.45400 32.77800
H  48.13900 24.04100 34.11500
H  48.28400 23.07400 32.63100
H  47.01600 22.74700 33.81900
H  45.78100 27.49500 32.75800
H  47.33400 27.71300 33.72300
H  46.16000 25.63100 34.92400
H  44.75900 26.20700 34.26200
H  44.89200 19.35000 29.23500
H  45.13600 20.68500 30.47700
H  46.39800 19.66300 29.87500
H  44.03400 18.75800 25.81100
H  43.69500 19.38400 27.44600
H  45.38200 18.82600 26.82000
H  45.53700 25.02000 23.14700
H  47.94700 26.62000 23.08100
H  48.18300 23.60700 23.26900
H  47.95700 24.79600 21.91700
H  46.92900 23.48400 22.04300
H  45.42700 28.19600 23.73500
H  45.14700 26.95000 22.60000
H  45.70000 28.23800 21.08900
H  47.43100 28.26600 21.64400
H  46.25700 29.48300 22.17400
H  49.16200 31.42200 27.44300
H  47.86900 31.13800 26.36200
H  49.52300 30.40200 26.02300
H  47.27800 29.37700 31.61200
H  49.99700 29.05800 35.13900
H  50.66000 30.43500 34.27900
H  51.21800 28.79200 33.92100

