158

Mg 29.24500 57.89200 42.02700
C  26.45500 56.16600 40.60300
C  31.31800 55.99900 40.11700
C  31.76900 59.92200 42.95100
C  26.93400 60.11900 43.31500
N  28.92600 56.36900 40.46300
C  27.69800 55.80300 40.08200
C  27.95200 54.88200 38.86500
C  29.51100 54.55000 38.95800
C  29.95500 55.72900 39.88500
C  29.87800 53.24400 39.78000
C  27.52200 55.67500 37.55200
C  26.53100 54.85800 36.67100
H  27.01500 54.67300 35.21000
N  31.36300 57.87200 41.65800
C  31.99400 56.94600 40.90300
C  33.41100 57.18400 40.91500
C  33.59800 58.40000 41.68800
C  32.24400 58.82300 42.17900
C  34.45600 56.29400 40.27000
C  34.92700 59.05600 41.98600
O  35.92000 58.67800 41.41800
C  35.02700 60.19000 42.88800
N  29.28800 59.81600 42.89700
C  30.48800 60.34500 43.28700
C  30.19100 61.70600 44.08500
C  28.67400 61.56800 44.45100
C  28.26200 60.41300 43.46800
C  31.03400 61.98900 45.38300
C  27.84200 62.93600 44.38800
C  27.33300 63.48200 45.73400
N  27.08700 58.11000 42.09500
C  26.31000 59.04600 42.68800
C  24.89100 58.76000 42.44900
C  24.87800 57.64000 41.62300
C  26.26000 57.24000 41.51200
C  23.62600 59.37800 42.94300
C  24.10900 56.71500 40.76500
O  22.93600 56.71800 40.38800
C  25.09000 55.62900 40.25800
C  24.70800 54.32700 40.85500
O  24.42100 54.25100 42.05700
O  24.90300 53.28200 39.99800
C  24.71300 51.96300 40.57800
H  31.91100 55.27100 39.55900
H  32.54700 60.60000 43.31200
H  26.21800 60.76100 43.83200
H  27.33300 54.00300 39.04500
H  29.96100 54.65100 37.97000
H  29.79400 52.42400 39.06600
H  29.12900 52.98500 40.52900
H  30.89800 53.39300 40.13200
H  28.39500 55.95100 36.96000
H  26.95600 56.58800 37.73700
H  25.57900 55.38300 36.59200
H  26.17100 53.98200 37.21000
H  35.21400 56.18000 41.04500
H  34.92200 56.88100 39.47900
H  34.06800 55.29400 40.07600
H  34.39000 60.92900 42.40100
H  36.06400 60.52500 42.87600
H  34.64300 59.98900 43.88800
H  30.40800 62.53800 43.41500
H  28.47000 61.02500 45.37400
H  31.71300 61.16800 45.61300
H  30.27700 61.99800 46.16700
H  31.44500 62.99600 45.31500
H  26.99100 62.83400 43.71400
H  28.44300 63.77000 44.02700
H  26.45000 64.11300 45.63400
H  28.16900 63.95100 46.25300
H  27.12100 62.67100 46.43000
H  22.68000 59.23500 42.42100
H  23.91900 60.42800 42.94500
H  23.45600 58.99100 43.94800
H  24.97800 55.52500 39.17900
H  25.08600 51.82200 41.59200
H  25.03300 51.18700 39.88300
H  23.63500 51.81900 40.65200
Mg -5.13000 25.17900 25.96300
C  -3.72000 26.78900 28.92400
C  -7.04300 23.26800 28.15900
C  -5.99700 23.31800 23.30400
C  -2.75600 27.01600 24.09900
N  -5.14900 24.90500 28.23800
C  -4.61100 25.67700 29.27300
C  -5.24900 25.36400 30.67700
C  -6.09400 24.11700 30.33500
C  -6.13300 24.06200 28.76600
C  -5.49900 22.76800 30.95300
C  -6.09300 26.56900 31.22000
C  -5.56600 27.04600 32.63100
H  -5.08000 25.98100 33.68300
N  -6.45200 23.76200 25.73800
C  -7.17200 23.14700 26.75000
C  -8.18000 22.28900 26.13800
C  -8.02000 22.44200 24.76700
C  -6.70400 23.16800 24.53200
C  -9.08400 21.31700 26.84900
C  -8.88400 21.83100 23.61000
O  -8.66700 22.07800 22.44200
C  -10.09000 20.97800 23.88900
N  -4.50400 25.23300 23.91500
C  -4.93100 24.25700 23.03700
C  -4.12800 24.35400 21.68700
C  -3.15400 25.61300 22.01200
C  -3.40300 25.93800 23.48400
C  -3.32900 23.06700 21.33200
C  -3.46300 26.84200 21.09600
C  -2.18400 27.61600 20.63200
N  -3.65400 26.67400 26.38500
C  -2.84700 27.38300 25.44300
C  -2.13100 28.41500 26.15700
C  -2.45500 28.20400 27.53800
C  -3.33100 27.11100 27.59700
C  -1.27500 29.47700 25.49900
C  -2.26200 28.73500 28.85100
O  -1.61800 29.67800 29.19600
C  -3.01000 27.81000 29.87200
C  -1.90700 27.07700 30.65500
O  -1.17700 26.26600 30.14300
O  -1.77400 27.51600 31.92200
C  -0.77000 26.74800 32.70700
H  -7.63200 22.58500 28.77500
H  -6.22200 22.64000 22.47800
H  -2.01500 27.48300 23.44700
H  -4.40400 25.19400 31.34400
H  -7.05700 24.22000 30.83700
H  -5.17000 22.13100 30.13200
H  -6.21600 22.25200 31.59200
H  -4.53600 22.97500 31.41900
H  -7.16900 26.40500 31.26800
H  -5.98100 27.41100 30.53700
H  -6.46600 27.40400 33.13100
H  -4.86600 27.86800 32.48100
H  -10.15000 21.47000 26.68100
H  -8.94600 21.42000 27.92500
H  -8.79100 20.31700 26.53100
H  -9.82400 20.26800 24.67100
H  -10.43600 20.54400 22.95100
H  -10.91000 21.58200 24.27900
H  -4.75500 24.61100 20.83400
H  -2.12500 25.26700 21.92200
H  -2.24400 23.04300 21.43600
H  -3.64200 22.83600 20.31400
H  -3.77800 22.30200 21.96500
H  -4.00700 27.54900 21.72300
H  -4.12300 26.59100 20.26500
H  -2.05400 27.45100 19.56300
H  -1.30700 27.30000 21.19800
H  -2.32000 28.65500 20.93100
H  -0.26500 29.39300 25.90100
H  -1.75400 30.41400 25.78300
H  -1.28000 29.33300 24.41900
H  -3.66800 28.43400 30.47600
H  0.14000 26.53000 32.14700
H  -1.30400 25.88700 33.10900
H  -0.48100 27.35100 33.56800

