158

Mg 24.23200 -4.68900 45.62300
C  26.64000 -2.53100 43.89400
C  21.94800 -3.66900 43.25400
C  22.46400 -7.22800 46.53700
C  27.04600 -5.89900 47.56600
N  24.39500 -3.31700 43.72200
C  25.37700 -2.46000 43.36600
C  24.94900 -1.58300 42.15500
C  23.40900 -1.67600 42.16300
C  23.19700 -2.90800 43.10400
C  22.69800 -0.51100 42.74700
C  25.59200 -2.16000 40.77600
C  26.29400 -1.06300 39.94700
H  26.04800 -1.19500 38.37000
N  22.41300 -5.35600 45.03700
C  21.61600 -4.79100 44.04100
C  20.38900 -5.60300 43.84800
C  20.54400 -6.63200 44.84400
C  21.81400 -6.45100 45.53100
C  19.27300 -5.21100 42.82500
C  19.54300 -7.80400 44.98800
O  18.60000 -7.77400 44.27000
C  19.71800 -8.91000 46.05500
N  24.67100 -6.27600 47.07100
C  23.75400 -7.23200 47.15400
C  24.22400 -8.38300 48.10400
C  25.64500 -7.91900 48.52500
C  25.85700 -6.64200 47.59500
C  23.21700 -8.72500 49.27300
C  26.79500 -8.98300 48.48200
C  27.76400 -9.09200 49.67000
N  26.32700 -4.21900 45.79700
C  27.25200 -4.79500 46.67700
C  28.49800 -4.13800 46.41500
C  28.35900 -3.21900 45.30900
C  27.01600 -3.32200 44.96500
C  29.80700 -4.35400 47.21600
C  29.01000 -2.23900 44.43500
O  30.15000 -1.77200 44.41000
C  27.88500 -1.76800 43.44700
C  27.81900 -0.32500 43.66100
O  27.68300 0.26100 44.75200
O  28.10200 0.27100 42.50200
C  27.83600 1.75400 42.41300
H  21.21100 -3.46200 42.47500
H  21.95400 -8.15500 46.80300
H  27.88400 -6.33100 48.11600
H  25.26100 -0.55100 42.31000
H  23.05200 -1.85600 41.14900
H  21.62300 -0.58400 42.58000
H  23.12300 0.35000 42.23200
H  22.73300 -0.53100 43.83600
H  24.75000 -2.43500 40.14100
H  26.25000 -2.99300 41.02000
H  27.35600 -1.08600 40.18900
H  26.08200 -0.06900 40.33900
H  19.67500 -5.37000 41.82400
H  18.98100 -4.17000 42.95600
H  18.42800 -5.89900 42.85300
H  19.77500 -8.43600 47.03500
H  20.66200 -9.36200 45.74900
H  18.82700 -9.53800 46.07900
H  24.41100 -9.25700 47.47900
H  25.58100 -7.47800 49.52000
H  23.72400 -8.54800 50.22100
H  22.93600 -9.77800 49.23200
H  22.29600 -8.14300 49.23500
H  27.37400 -8.69400 47.60500
H  26.24700 -9.91300 48.33300
H  28.73000 -8.97700 49.17800
H  27.60900 -10.02800 50.20600
H  27.60000 -8.31700 50.41900
H  30.49300 -3.54600 46.96000
H  30.32000 -5.27400 46.93200
H  29.67500 -4.34300 48.29700
H  28.14000 -1.94100 42.40200
H  26.84000 1.96400 42.80400
H  27.80100 2.01300 41.35500
H  28.61800 2.19100 43.03400
Mg 25.80300 1.53900 29.38100
C  27.98700 1.17500 32.12400
C  23.17100 2.05700 31.45500
C  23.95500 1.80400 26.67500
C  28.60300 0.46900 27.39500
N  25.63500 1.59200 31.58800
C  26.63700 1.45200 32.50800
C  26.11700 1.81700 33.90000
C  24.51400 1.94300 33.63300
C  24.40400 1.86100 32.11300
C  23.55200 0.90600 34.36200
C  26.90100 2.99000 34.55600
C  27.52000 2.88800 35.98300
H  26.88500 3.72200 37.03500
N  23.85600 1.79500 29.13300
C  22.92400 1.96200 30.07100
C  21.57500 2.09300 29.45300
C  21.78400 2.11100 28.02500
C  23.21100 1.88500 27.86500
C  20.32000 2.32000 30.33400
C  20.69700 2.30700 26.99000
O  20.91100 2.02900 25.84000
C  19.28400 2.81100 27.33700
N  26.16800 1.04600 27.32300
C  25.28500 1.46700 26.40300
C  25.89100 1.59400 24.98100
C  27.29000 0.88200 25.26600
C  27.38900 0.78200 26.74900
C  25.12200 0.95300 23.80900
C  28.51200 1.67900 24.59900
C  29.77000 0.86500 24.09900
N  27.87200 0.94500 29.63900
C  28.83700 0.50000 28.79200
C  30.03600 0.20100 29.47300
C  29.75900 0.54900 30.84700
C  28.43300 0.91000 30.83800
C  31.31000 -0.26200 28.82500
C  30.28500 0.67000 32.17600
O  31.46600 0.45400 32.49300
C  29.19200 1.14100 33.11100
C  29.02100 -0.03800 34.09200
O  28.19700 -0.92600 33.85300
O  29.85700 0.02800 35.22300
C  29.45600 -0.88000 36.23400
H  22.37500 2.33300 32.14900
H  23.46400 2.07400 25.73700
H  29.38000 0.19400 26.67900
H  26.35500 0.93900 34.50100
H  23.99900 2.87100 33.88200
H  22.78500 1.53700 34.81300
H  24.13600 0.33400 35.08300
H  23.09200 0.25300 33.62100
H  26.11400 3.73100 34.70100
H  27.50800 3.53400 33.83300
H  28.57700 3.12300 35.86400
H  27.42100 1.83000 36.22700
H  19.44800 1.89000 29.84000
H  20.08800 3.38500 30.36900
H  20.42300 1.85700 31.31500
H  18.67900 1.94000 27.59000
H  18.85800 3.41200 26.53300
H  19.29300 3.36000 28.27800
H  26.09400 2.62900 24.70700
H  27.30900 -0.16200 24.95500
H  25.81700 0.30500 23.27400
H  24.76900 1.72800 23.12800
H  24.29900 0.31500 24.13000
H  28.70500 2.43400 25.36200
H  28.13100 2.19800 23.72000
H  29.50800 -0.19200 24.05300
H  30.74900 1.06100 24.53500
H  29.85700 1.04600 23.02800
H  32.18300 -0.39500 29.46300
H  31.67000 0.22700 27.91900
H  31.02900 -1.25700 28.48100
H  29.25900 2.11300 33.59900
H  30.31400 -1.04600 36.88600
H  29.23400 -1.89500 35.90600
H  28.67000 -0.47500 36.87100

