158

Mg 53.32600 23.96100 44.37300
C  51.07500 26.35700 43.29500
C  51.38500 21.54100 42.94800
C  55.92500 21.85000 44.46000
C  55.39600 26.52200 45.43600
N  51.50000 23.96500 43.21500
C  50.75900 25.05100 42.83100
C  49.55700 24.55200 41.90900
C  49.43800 23.11500 42.38000
C  50.88400 22.79400 42.85400
C  48.32000 22.78400 43.40900
C  49.71600 24.85900 40.37400
C  51.16300 25.26000 39.88600
H  51.37100 25.83100 38.50200
N  53.57500 21.99500 43.92800
C  52.65200 21.15400 43.40800
C  53.06800 19.77100 43.43100
C  54.37100 19.78500 43.93900
C  54.69200 21.25500 44.11600
C  52.29800 18.56300 42.83800
C  55.24500 18.54800 44.19800
O  54.76200 17.41900 43.91600
C  56.51500 18.66100 44.97400
N  55.38600 24.21500 44.64800
C  56.22500 23.17300 44.79500
C  57.63500 23.58800 45.05200
C  57.49800 25.04800 45.50500
C  55.96200 25.29900 45.18700
C  58.52100 22.69700 46.07100
C  58.52600 26.10700 44.98000
C  58.35700 26.73500 43.65400
N  53.18000 25.99000 44.60900
C  54.09400 26.93500 45.15000
C  53.47400 28.22100 45.15900
C  52.24600 28.03700 44.55600
C  52.15400 26.70000 44.15700
C  54.02400 29.47600 45.80200
C  51.01500 28.61900 44.13100
O  50.54400 29.77700 44.36700
C  50.19800 27.52400 43.22800
C  49.95300 28.02000 41.85400
O  50.83700 28.57700 41.16900
O  48.59600 27.88800 41.53600
C  48.20400 28.39600 40.20900
H  50.74500 20.77000 42.51300
H  56.80500 21.20300 44.47200
H  56.12200 27.22000 45.85900
H  48.80800 25.26400 42.25700
H  49.22700 22.46600 41.53000
H  47.30400 22.83400 43.01800
H  48.32600 23.64300 44.08000
H  48.68000 21.94500 44.00500
H  48.87900 25.49500 40.08500
H  49.57400 23.90300 39.87100
H  51.83500 24.42900 40.09900
H  51.51800 26.04300 40.55600
H  51.91300 18.13900 43.76600
H  52.94100 17.82900 42.35200
H  51.53100 18.89600 42.13900
H  56.50500 17.78000 45.61600
H  56.61800 19.52200 45.63400
H  57.39800 18.67900 44.33500
H  57.94700 23.53800 44.00900
H  57.29500 25.13500 46.57200
H  58.80200 23.39200 46.86300
H  59.48800 22.35900 45.69900
H  57.95400 21.85200 46.46300
H  59.54300 25.90600 45.31600
H  58.18700 26.87000 45.68200
H  59.33100 26.83900 43.17700
H  57.66900 27.58000 43.65200
H  57.80700 26.04500 43.01400
H  54.15100 30.13000 44.94000
H  55.02000 29.49100 46.24400
H  53.27400 29.80300 46.52200
H  49.25400 27.40100 43.75800
H  48.22600 29.48600 40.20600
H  47.17300 28.05000 40.14500
H  48.76100 27.93500 39.39300
Mg 49.31900 44.55800 42.77400
C  45.72300 44.95800 41.91700
C  48.93000 41.27400 41.96400
C  52.57600 44.44400 42.95400
C  49.38900 48.00300 43.29300
N  47.47800 43.39300 41.89300
C  46.14700 43.65400 41.84500
C  45.33900 42.45400 41.28900
C  46.39300 41.33200 41.34200
C  47.72600 42.00500 41.82800
C  46.03800 40.21900 42.37800
C  44.72200 42.66900 39.87100
C  45.60100 43.07500 38.64600
H  45.51300 42.14300 37.47500
N  50.58000 43.04700 42.61600
C  50.28500 41.73500 42.31800
C  51.52300 40.92800 42.29800
C  52.55700 41.79700 42.64500
C  51.92100 43.13900 42.78000
C  51.55500 39.48700 42.10800
C  54.01900 41.39800 42.86600
O  54.37300 40.28300 42.44800
C  55.07900 42.30800 43.42700
N  50.76700 45.99300 42.93500
C  52.02500 45.69900 43.02300
C  52.98200 46.96000 43.13500
C  51.87800 48.07300 43.49400
C  50.54800 47.33700 43.25800
C  54.23000 46.81900 44.05500
C  52.10300 49.40300 42.68300
C  53.42500 50.17200 42.85200
N  47.94100 46.18800 42.66900
C  48.11700 47.57600 42.96000
C  46.80300 48.24600 42.79300
C  45.96100 47.24600 42.28100
C  46.64500 46.03200 42.29700
C  46.53600 49.71200 43.01200
C  44.60600 47.08700 41.78400
O  43.74000 47.91300 41.54100
C  44.37800 45.65500 41.62600
C  43.27200 45.17800 42.43500
O  42.46700 44.36000 42.01200
O  43.32600 45.65300 43.72300
C  42.34000 44.92600 44.55500
H  48.74900 40.22000 41.74400
H  53.66800 44.42900 42.93200
H  49.52900 49.02900 43.64000
H  44.54800 42.21100 41.99800
H  46.40300 40.89500 40.34300
H  46.37400 40.46000 43.38700
H  46.61000 39.31700 42.16100
H  44.99000 39.93200 42.46000
H  43.86200 43.33800 39.84000
H  44.28100 41.68700 39.70000
H  46.64700 43.21700 38.91700
H  45.32500 44.05000 38.24700
H  52.20300 39.01600 42.84700
H  51.91100 39.13100 41.14100
H  50.51700 39.16700 42.19500
H  55.68800 41.60600 43.99600
H  54.64300 43.02900 44.11800
H  55.62400 42.88400 42.67900
H  53.41700 47.10000 42.14600
H  51.78500 48.23600 44.56800
H  55.20200 47.03400 43.61000
H  54.21900 45.82800 44.50700
H  54.02300 47.52600 44.85900
H  51.32900 50.02000 43.14000
H  51.93000 49.13400 41.64200
H  53.61600 50.26900 43.92000
H  53.19900 51.06600 42.27000
H  54.26600 49.65900 42.38700
H  45.50300 50.01600 42.84300
H  47.16000 50.36000 42.39600
H  46.86800 49.86900 44.03800
H  44.13400 45.57800 40.56700
H  41.35700 45.09900 44.11700
H  42.24300 45.41500 45.52400
H  42.49300 43.85400 44.68500

