158

Mg 25.57200 -7.59900 47.40000
C  27.84800 -5.27900 46.39000
C  23.19200 -6.34900 45.12500
C  23.57100 -10.14500 48.05600
C  28.20600 -9.13700 49.18300
N  25.61400 -6.04300 45.80200
C  26.64600 -5.14500 45.60700
C  26.37800 -4.25800 44.43300
C  24.83600 -4.48400 44.18000
C  24.47500 -5.69200 45.10500
C  23.82700 -3.31700 44.39100
C  27.22700 -4.47200 43.20200
C  28.00100 -3.25700 42.62400
H  27.62300 -2.80800 41.20100
N  23.54600 -8.17300 46.72000
C  22.75800 -7.51300 45.81400
C  21.51600 -8.17900 45.60600
C  21.58000 -9.36000 46.49300
C  22.89600 -9.20600 47.18600
C  20.37400 -7.69400 44.67600
C  20.47600 -10.41200 46.65400
O  19.47400 -10.39100 46.02000
C  20.69100 -11.54700 47.56500
N  25.92800 -9.36600 48.25300
C  24.88500 -10.26000 48.49500
C  25.28900 -11.34100 49.44000
C  26.84700 -11.21700 49.55500
C  27.01000 -9.79100 48.97500
C  24.53800 -11.26900 50.80800
C  27.59400 -12.24100 48.78800
C  28.48800 -13.25700 49.57500
N  27.61700 -7.25500 47.89500
C  28.53200 -7.90300 48.69500
C  29.75800 -7.12600 48.74600
C  29.52000 -6.10600 47.91200
C  28.24100 -6.22200 47.39800
C  31.06200 -7.46400 49.44400
C  30.08800 -4.85300 47.40600
O  31.15200 -4.26400 47.66900
C  29.02500 -4.23800 46.32200
C  28.56200 -2.87500 46.60800
O  27.75900 -2.58700 47.49700
O  28.92100 -1.99200 45.60600
C  28.18400 -0.68400 45.72500
H  22.53200 -5.88300 44.39000
H  22.92900 -10.93200 48.45900
H  28.95800 -9.58500 49.83600
H  26.52700 -3.25800 44.84100
H  24.71600 -4.78400 43.13900
H  23.25300 -3.40500 45.31300
H  23.17200 -3.31500 43.51900
H  24.22900 -2.30700 44.30800
H  26.63400 -4.84100 42.36500
H  27.85000 -5.34700 43.38800
H  29.06900 -3.42300 42.76400
H  27.93000 -2.41600 43.31300
H  20.31900 -6.60600 44.70700
H  19.46800 -8.01300 45.19100
H  20.41600 -8.08800 43.66100
H  20.73300 -11.31600 48.63000
H  21.60100 -12.05900 47.25400
H  19.92200 -12.31200 47.45600
H  24.88800 -12.15300 48.83300
H  27.21800 -11.05900 50.56700
H  23.80900 -10.45900 50.82500
H  25.23800 -11.04300 51.61200
H  24.11200 -12.19600 51.19200
H  28.09200 -11.75300 47.95000
H  26.90700 -12.88300 48.23600
H  29.54200 -13.10000 49.34500
H  28.41100 -14.30100 49.27000
H  28.41900 -13.02600 50.63800
H  31.74700 -7.89700 48.71500
H  30.78400 -8.26300 50.13200
H  31.54400 -6.61200 49.92400
H  29.63000 -4.21300 45.41600
H  27.12500 -0.93600 45.78300
H  28.42200 -0.17600 44.79000
H  28.53000 -0.10800 46.58300
Mg 40.93600 7.95700 29.07800
C  42.53000 9.53500 31.88700
C  38.60600 6.74600 31.28900
C  39.49500 6.47000 26.57500
C  43.49100 9.20900 27.05600
N  40.67300 8.05300 31.43200
C  41.29700 8.96200 32.30600
C  40.70700 8.81500 33.68600
C  39.54700 7.81900 33.42200
C  39.63800 7.43500 31.96400
C  39.60400 6.45700 34.20600
C  40.33000 10.19600 34.22200
C  39.40400 10.18000 35.48400
H  40.01200 11.00400 36.66800
N  39.20900 6.81400 28.96400
C  38.35000 6.44300 29.98500
C  37.30700 5.71600 29.45100
C  37.50100 5.75800 28.03500
C  38.79200 6.33400 27.79300
C  36.13600 5.25900 30.29500
C  36.54300 5.27600 26.98500
O  36.87900 5.46100 25.81100
C  35.19900 4.64400 27.21600
N  41.40500 7.83400 27.01100
C  40.65300 7.10300 26.20800
C  41.28700 7.09300 24.81400
C  42.58600 8.03200 24.91300
C  42.50500 8.41000 26.41600
C  41.59100 5.66600 24.21000
C  42.57800 9.25400 24.02600
C  41.48500 10.37200 24.22300
N  42.74300 8.93400 29.36300
C  43.60900 9.45900 28.44100
C  44.57400 10.31000 29.02100
C  44.18800 10.27500 30.34500
C  43.00100 9.51300 30.51100
C  45.56800 11.09600 28.35700
C  44.57500 10.83800 31.60500
O  45.46000 11.61100 31.97400
C  43.51300 10.35600 32.58200
C  44.05300 9.64700 33.84500
O  44.51100 8.53500 33.87800
O  43.86900 10.43000 34.92600
C  43.97400 9.69000 36.17700
H  37.81100 6.45900 31.98000
H  39.06700 5.98400 25.69600
H  44.21600 9.43800 26.27100
H  41.49300 8.29700 34.23600
H  38.55800 8.26100 33.54400
H  39.31900 5.58700 33.61400
H  38.89000 6.57900 35.02100
H  40.64000 6.20700 34.43700
H  39.82800 10.76700 33.44100
H  41.26000 10.69600 34.49200
H  39.34300 9.15700 35.85500
H  38.34500 10.31800 35.26800
H  36.45700 5.22400 31.33600
H  35.85000 4.23900 30.03600
H  35.22500 5.85400 30.22900
H  34.49600 5.45000 27.42700
H  35.24900 3.98300 28.08100
H  34.99100 4.05800 26.32100
H  40.60000 7.57100 24.11600
H  43.33300 7.27900 24.66000
H  41.54900 5.02100 25.08700
H  42.56000 5.77700 23.72400
H  40.85200 5.32900 23.48200
H  42.45400 8.80400 23.04200
H  43.54700 9.75100 24.04900
H  41.87600 11.23200 24.76700
H  40.71500 9.88700 24.82200
H  40.89600 10.64800 23.34800
H  46.47300 10.49200 28.29300
H  45.65700 12.00800 28.94600
H  45.19700 11.44000 27.39200
H  42.97300 11.19400 33.02200
H  43.65600 10.32400 37.00400
H  45.02700 9.43500 36.29400
H  43.32400 8.81600 36.22200

