158

Mg 54.35800 23.99700 44.08300
C  51.37700 25.99300 43.81200
C  52.32200 21.22100 43.80400
C  57.07400 22.03200 44.12800
C  56.10300 26.76000 44.81500
N  52.13200 23.68700 43.78800
C  51.07200 24.60400 43.69400
C  49.73600 23.94900 43.73800
C  50.08600 22.49100 44.15200
C  51.63200 22.43900 43.90200
C  49.75100 22.07700 45.61000
C  48.94100 24.05400 42.38500
C  49.62300 23.77700 41.06700
H  49.49500 24.58200 39.78100
N  54.66500 21.85900 43.73900
C  53.69400 20.88300 43.73400
C  54.32100 19.56500 43.63800
C  55.73600 19.79800 43.87300
C  55.93600 21.24600 43.90800
C  53.58900 18.23600 43.50900
C  56.83000 18.68700 44.10100
O  56.49900 17.52900 44.00900
C  58.26300 19.00900 44.42400
N  56.32300 24.39400 44.16300
C  57.23300 23.41800 44.34400
C  58.62400 23.93500 44.72500
C  58.32500 25.45100 45.01400
C  56.81400 25.54300 44.69800
C  59.44100 23.24500 45.84200
C  59.18900 26.39700 44.10800
C  59.44900 27.77900 44.73400
N  53.94400 26.03800 44.24800
C  54.77400 27.03300 44.49800
C  53.96700 28.25400 44.65400
C  52.68600 27.96600 44.37300
C  52.72400 26.57200 44.08100
C  54.50900 29.55800 45.09300
C  51.36700 28.44200 44.23200
O  50.94900 29.53500 44.46100
C  50.43400 27.23000 43.81900
C  49.95700 27.47300 42.41800
O  50.45700 27.04500 41.39900
O  48.81700 28.21500 42.60700
C  48.07900 28.51300 41.38700
H  51.64100 20.36800 43.78400
H  57.92000 21.34700 44.03100
H  56.54200 27.69400 45.17300
H  49.17200 24.50100 44.49000
H  49.59400 21.76900 43.50000
H  50.63900 22.27500 46.21000
H  49.52000 21.01100 45.61900
H  48.92800 22.64800 46.03900
H  48.47500 25.03900 42.36300
H  48.22000 23.24800 42.52600
H  49.38500 22.72700 40.89700
H  50.67500 23.62600 41.31000
H  52.53300 18.46400 43.36900
H  53.77200 17.67900 44.42800
H  54.03700 17.70900 42.66600
H  58.83400 18.16300 44.80700
H  58.19200 19.79500 45.17500
H  58.73200 19.35700 43.50400
H  59.14000 23.75200 43.78200
H  58.49700 25.70900 46.05900
H  59.23100 23.90600 46.68300
H  60.47400 23.34800 45.51100
H  59.07600 22.21800 45.86700
H  58.50000 26.53100 43.27400
H  60.05300 25.87300 43.70000
H  59.16000 28.57700 44.05100
H  60.48700 27.85700 45.05800
H  58.87400 27.96300 45.64100
H  53.68700 30.17400 45.45800
H  55.01500 30.00100 44.23500
H  55.23000 29.38400 45.89200
H  49.63100 27.12800 44.55000
H  47.16700 29.04100 41.66300
H  47.73500 27.60600 40.89000
H  48.65600 29.22600 40.79900
Mg 50.12500 45.79400 42.67700
C  46.85300 46.72900 41.52700
C  49.73200 42.85800 40.99100
C  53.41700 45.40600 42.94000
C  50.63100 49.34200 43.33500
N  48.34900 44.93800 41.43400
C  47.15300 45.46300 41.08800
C  46.44200 44.57900 40.03100
C  47.34500 43.29300 40.02200
C  48.57900 43.67600 40.89700
C  46.63500 41.95300 40.40800
C  46.17200 45.19900 38.68700
C  44.67900 45.32300 38.31700
H  44.12500 44.70900 37.04400
N  51.30100 44.23700 42.31400
C  51.04100 43.10500 41.59400
C  52.10700 42.25300 41.73400
C  53.17300 42.90900 42.43500
C  52.64900 44.29000 42.57200
C  52.04700 40.85100 41.15700
C  54.54200 42.38300 42.67200
O  54.86000 41.24300 42.31200
C  55.45200 43.09400 43.54900
N  51.80000 47.16100 43.02600
C  53.06600 46.68800 43.12500
C  54.08600 47.80200 43.38200
C  53.19000 49.03000 43.49500
C  51.74200 48.51500 43.31400
C  55.19500 47.59200 44.51300
C  53.58300 50.22500 42.51400
C  53.75400 51.61100 43.22700
N  48.95000 47.66600 42.71200
C  49.24700 48.97200 43.05200
C  48.07200 49.80200 42.99000
C  47.11300 48.93500 42.39300
C  47.69500 47.69900 42.19300
C  47.91300 51.32900 43.23900
C  45.75700 48.88800 41.87700
O  44.84000 49.73300 41.91800
C  45.54100 47.38100 41.28100
C  44.43200 46.78600 42.04700
O  44.47100 46.33600 43.21900
O  43.31500 46.75600 41.32200
C  42.09600 46.17300 41.94700
H  49.61900 41.87800 40.52200
H  54.50100 45.29800 42.86500
H  50.96500 50.37700 43.43300
H  45.46700 44.26800 40.40700
H  47.68900 43.18300 38.99400
H  46.73500 41.85300 41.48900
H  47.10800 41.05100 40.02000
H  45.61600 41.99600 40.02300
H  46.69600 44.68500 37.88100
H  46.57600 46.20900 38.74500
H  44.60700 46.40700 38.23100
H  44.07700 45.04800 39.18300
H  51.19300 40.67700 40.50200
H  52.07200 40.08900 41.93600
H  52.98300 40.74200 40.60900
H  54.92000 43.77600 44.21200
H  56.18200 43.66700 42.97800
H  55.97600 42.31700 44.10500
H  54.63500 47.92000 42.44800
H  53.30200 49.34900 44.53100
H  55.20500 46.57100 44.89400
H  55.02500 48.15200 45.43300
H  56.21600 47.70600 44.14700
H  52.72500 50.33700 41.85100
H  54.54800 50.13300 42.01400
H  53.54400 51.42900 44.28100
H  52.99300 52.30700 42.87500
H  54.75400 52.03200 43.12700
H  48.37300 51.80100 42.37100
H  48.61400 51.53000 44.05000
H  46.89200 51.70300 43.31600
H  45.22300 47.55600 40.25300
H  41.82600 46.79200 42.80200
H  42.28400 45.14600 42.26000
H  41.37300 46.21800 41.13200

