158

Mg 16.87100 -1.36600 27.81500
C  15.80900 0.46700 30.64000
C  18.67100 -3.32200 29.76300
C  18.19000 -2.70700 24.99200
C  14.94800 0.85100 25.79400
N  17.20300 -1.38300 29.94900
C  16.66100 -0.62000 30.95500
C  17.11200 -1.07600 32.31800
C  18.21100 -2.26600 31.95400
C  18.04400 -2.34800 30.45000
C  19.63600 -1.91300 32.41400
C  15.82400 -1.50200 33.15600
C  15.66600 -0.96300 34.60000
H  16.92600 -0.37400 35.30500
N  18.25500 -2.84200 27.46600
C  18.90700 -3.54400 28.42200
C  19.77000 -4.51600 27.80700
C  19.70900 -4.31500 26.36000
C  18.68000 -3.23900 26.19000
C  20.58600 -5.51600 28.52300
C  20.48200 -4.97400 25.24900
O  20.52900 -4.56000 24.07900
C  21.33900 -6.23500 25.40500
N  16.46100 -1.14900 25.73300
C  17.18600 -1.79400 24.74400
C  16.81300 -1.34800 23.30500
C  15.67800 -0.34600 23.61800
C  15.67600 -0.18200 25.17300
C  17.98700 -0.88600 22.48200
C  14.31000 -0.67000 23.09600
C  13.98900 -0.15900 21.69600
N  15.53000 0.28900 28.13100
C  14.86700 1.06000 27.21000
C  14.11300 2.15400 27.92900
C  14.46200 1.94900 29.26800
C  15.32900 0.82800 29.34700
C  13.09200 3.11600 27.22400
C  14.24200 2.42300 30.60100
O  13.57600 3.35300 31.01600
C  15.11300 1.56200 31.58800
C  16.01500 2.50700 32.25600
O  16.99000 3.09200 31.72800
O  15.55000 2.87900 33.49200
C  16.27600 3.92400 34.26100
H  19.24900 -4.03700 30.35200
H  18.75900 -2.98500 24.10200
H  14.52400 1.72200 25.29000
H  17.50900 -0.24600 32.90200
H  17.95300 -3.21700 32.42100
H  20.03700 -1.25400 31.64300
H  20.21500 -2.82200 32.57800
H  19.61600 -1.35000 33.34700
H  15.77600 -2.58900 33.21400
H  14.93400 -1.16600 32.62300
H  15.18700 -1.67200 35.27500
H  14.92800 -0.16700 34.49300
H  21.64400 -5.26400 28.45800
H  20.52700 -6.47700 28.01200
H  20.22200 -5.68000 29.53700
H  21.92600 -6.22900 24.48700
H  20.74900 -7.12300 25.63600
H  22.09600 -6.00400 26.15500
H  16.44200 -2.11200 22.62100
H  16.05300 0.61100 23.25500
H  17.91200 0.18700 22.30500
H  18.09900 -1.47300 21.57100
H  18.89300 -0.95600 23.08400
H  13.47200 -0.36200 23.72200
H  14.23800 -1.75500 23.16500
H  13.86000 -1.08900 21.14200
H  14.81100 0.44200 21.30900
H  13.06800 0.40000 21.53300
H  12.17700 3.15900 27.81500
H  12.88400 2.73000 26.22600
H  13.43500 4.14900 27.28300
H  14.54800 1.13800 32.41900
H  17.36200 3.88500 34.18600
H  16.03700 3.74100 35.30900
H  15.93900 4.91800 33.96800
Mg 5.36400 55.25800 40.52700
C  4.35900 51.85300 40.50500
C  8.31100 54.07200 39.00200
C  6.34100 58.36300 40.08400
C  2.44800 56.10500 41.94200
N  6.06300 53.18600 39.58600
C  5.53400 51.97500 39.73700
C  6.28900 50.90500 38.82900
C  7.69000 51.56100 38.76400
C  7.38100 53.01200 39.14300
C  8.81700 50.82900 39.59200
C  5.68900 50.71700 37.35600
C  5.23800 49.36300 36.79900
H  5.81500 48.79900 35.55600
N  7.14000 56.10700 39.63800
C  8.17100 55.47500 39.10100
C  9.19700 56.44800 38.73000
C  8.71500 57.73900 39.08000
C  7.31800 57.45000 39.62400
C  10.60500 56.11900 38.09100
C  9.41600 59.05500 38.90900
O  10.59500 59.14800 38.48600
C  8.83600 60.30600 39.16500
N  4.53700 57.00000 40.89800
C  5.13100 58.19600 40.73000
C  4.12500 59.29700 41.20900
C  2.91400 58.59500 41.69600
C  3.30100 57.11300 41.59600
C  4.80100 60.14300 42.42900
C  1.65800 58.95400 40.94100
C  1.36000 60.37600 40.32100
N  3.69500 54.20400 41.13800
C  2.59600 54.73000 41.74100
C  1.77100 53.63500 42.15400
C  2.45700 52.46000 41.75800
C  3.64000 52.88400 41.13200
C  0.45300 53.58400 42.77200
C  2.43100 50.98500 41.69900
O  1.65800 50.20700 42.23500
C  3.69500 50.50600 40.91900
C  3.48300 49.44900 39.93100
O  2.88400 49.50700 38.90600
O  3.98000 48.20800 40.37400
C  3.70300 47.09100 39.51800
H  9.27800 53.68100 38.68000
H  6.55400 59.42200 39.92300
H  1.45900 56.44800 42.25500
H  6.38200 49.91800 39.28300
H  8.03800 51.58000 37.73100
H  9.34600 51.61800 40.12600
H  9.52300 50.44100 38.85700
H  8.44900 50.00900 40.20800
H  6.28900 51.10500 36.53200
H  4.80400 51.34700 37.44700
H  4.17200 49.36200 36.57200
H  5.52800 48.64800 37.56800
H  11.29000 56.67200 38.73300
H  10.71900 56.44400 37.05700
H  10.89200 55.07200 38.19100
H  8.00200 60.46100 38.48100
H  9.52400 61.14100 39.03600
H  8.50700 60.49900 40.18600
H  3.91800 59.97800 40.38400
H  2.68400 58.67100 42.75900
H  4.81600 61.19800 42.15700
H  5.81000 59.78100 42.63000
H  4.23500 60.11900 43.36000
H  0.93600 58.92200 41.75700
H  1.51200 58.16300 40.20500
H  1.36500 60.31500 39.23200
H  2.07900 61.03400 40.80800
H  0.32500 60.55700 40.61300
H  -0.21400 53.49400 41.91500
H  0.21900 54.43300 43.41500
H  0.38500 52.69400 43.39800
H  4.39900 50.12300 41.65800
H  2.80900 46.53000 39.78900
H  4.53600 46.40300 39.66600
H  3.71800 47.24600 38.43900

