158

Mg 30.32900 58.58000 40.27400
C  27.55200 56.91400 39.32700
C  32.29600 56.06400 38.83000
C  33.12500 60.45000 40.55400
C  28.36600 61.47300 40.93900
N  29.95700 56.72000 39.28300
C  28.70600 56.22500 38.97800
C  28.80100 54.96300 38.14600
C  30.21200 54.48200 38.52400
C  30.89800 55.80700 38.86200
C  30.28100 53.49400 39.78700
C  28.52800 55.24100 36.62100
C  27.50000 54.24900 35.90900
H  26.56200 54.82300 34.95300
N  32.49000 58.28400 39.94200
C  33.09000 57.18600 39.28400
C  34.55000 57.37600 39.24700
C  34.84200 58.66700 39.74200
C  33.50000 59.17700 40.08300
C  35.47400 56.33200 38.71200
C  36.18200 59.30400 39.91600
O  37.20800 58.69100 39.57900
C  36.36600 60.68300 40.59200
N  30.67300 60.66700 40.68800
C  31.92000 61.12600 40.89300
C  31.96700 62.63000 41.31000
C  30.43100 62.99400 41.31000
C  29.78200 61.64900 40.94500
C  32.60100 62.82100 42.80000
C  30.11000 64.05300 40.23500
C  29.96500 65.54800 40.70100
N  28.33900 59.05600 40.25700
C  27.69800 60.25700 40.56000
C  26.27500 60.03400 40.49300
C  26.17900 58.75800 39.91800
C  27.46400 58.19700 39.83800
C  25.10300 60.95300 40.89200
C  25.29300 57.73300 39.47800
O  24.06900 57.70200 39.40900
C  26.14200 56.55600 39.02000
C  25.61900 55.36900 39.71400
O  25.99100 55.04300 40.83400
O  24.74700 54.65700 38.97300
C  24.14000 53.39600 39.48300
H  32.98600 55.28500 38.50200
H  33.97700 61.12300 40.67400
H  27.71700 62.30000 41.23500
H  28.15400 54.20200 38.58400
H  30.66600 53.92700 37.70300
H  30.75100 54.02700 40.61400
H  30.84000 52.61800 39.45600
H  29.27900 53.13300 40.01800
H  29.40500 55.16600 35.97900
H  28.01100 56.18700 36.46500
H  26.97500 53.74100 36.71800
H  28.01600 53.51900 35.28600
H  36.45500 56.72800 38.45300
H  35.09000 55.88300 37.79600
H  35.65200 55.59900 39.49900
H  37.42800 60.71600 40.83600
H  35.64600 60.74600 41.40800
H  36.05400 61.41800 39.85000
H  32.63700 63.20500 40.67100
H  30.12600 63.40000 42.27400
H  32.75800 63.89100 42.93500
H  33.46100 62.25000 43.15300
H  31.84900 62.41900 43.47800
H  29.23100 63.73900 39.67100
H  30.95700 63.92200 39.56100
H  29.07400 66.05000 40.32400
H  30.84000 66.11100 40.37800
H  29.87700 65.54800 41.78800
H  25.47200 61.72500 41.56700
H  24.28500 60.42800 41.38600
H  24.70400 61.56400 40.08200
H  25.90900 56.45800 37.96000
H  24.41900 53.27600 40.53000
H  24.51700 52.52800 38.94100
H  23.05200 53.45100 39.51000
Mg -11.59600 17.44400 42.63700
C  -8.15700 17.57900 42.77300
C  -11.92100 20.73400 42.35200
C  -14.91700 16.93800 42.18600
C  -11.26300 13.78700 42.34800
N  -10.17600 18.99500 42.47600
C  -8.81500 18.86200 42.53300
C  -8.20900 20.27000 42.65600
C  -9.49500 21.20200 42.82400
C  -10.60400 20.27600 42.52700
C  -9.76300 22.04100 44.15400
C  -7.25200 20.61000 41.45000
C  -5.66100 20.64700 41.53000
H  -4.80600 19.88800 40.51100
N  -13.20700 18.69500 42.32900
C  -13.14900 20.05500 42.26400
C  -14.45200 20.66300 42.22400
C  -15.36100 19.57700 42.16700
C  -14.55200 18.36000 42.11300
C  -14.66500 22.17000 42.12700
C  -16.88000 19.69500 42.09900
O  -17.46600 20.77400 42.25900
C  -17.67600 18.46700 41.96400
N  -12.80200 15.64200 42.15800
C  -14.16200 15.77700 42.07700
C  -14.76500 14.44800 42.01200
C  -13.64600 13.44300 41.70300
C  -12.46900 14.33000 42.09300
C  -15.42400 14.18300 43.42100
C  -13.59900 13.12600 40.19600
C  -14.05600 11.73100 39.88800
N  -10.11200 15.96400 42.73400
C  -10.11900 14.55600 42.68500
C  -8.76500 14.05300 42.81000
C  -7.98500 15.17800 42.96700
C  -8.80200 16.28500 42.80300
C  -8.33800 12.56600 42.80600
C  -6.61700 15.66800 43.06900
O  -5.61100 15.01100 43.11900
C  -6.67800 17.32300 42.94900
C  -6.27200 17.64500 44.42000
O  -7.14400 17.87600 45.25700
O  -4.90900 17.63700 44.61600
C  -4.54400 17.63700 46.04800
H  -11.95100 21.82600 42.34000
H  -15.96100 16.61900 42.22300
H  -11.30000 12.71400 42.14400
H  -7.60200 20.27300 43.56100
H  -9.37300 22.03800 42.13400
H  -9.79200 23.10900 43.94100
H  -8.98700 21.90000 44.90600
H  -10.72000 21.71900 44.56500
H  -7.56800 21.57500 41.05500
H  -7.47300 19.86700 40.68400
H  -5.38700 20.33800 42.53900
H  -5.32700 21.65900 41.30400
H  -14.81600 22.53700 41.11200
H  -13.83400 22.77300 42.49400
H  -15.49100 22.33100 42.82100
H  -18.70400 18.77500 41.77500
H  -17.72800 17.93400 42.91400
H  -17.39900 17.84700 41.11100
H  -15.54900 14.48600 41.25500
H  -13.64800 12.55500 42.33500
H  -16.50000 14.08100 43.28000
H  -15.32400 14.92000 44.21700
H  -15.17300 13.21500 43.85500
H  -12.55700 13.02900 39.89000
H  -14.13800 13.88300 39.62600
H  -14.74900 11.45400 40.68300
H  -13.24600 11.00400 39.83300
H  -14.64400 11.73600 38.96900
H  -8.51200 12.06700 43.75900
H  -7.26100 12.56200 42.63800
H  -8.83900 12.02800 42.00100
H  -5.93800 17.75500 42.27500
H  -3.51800 17.27400 46.10200
H  -5.21500 16.95000 46.56300
H  -4.68600 18.64200 46.44400

