158

Mg 24.44200 -6.29500 45.62400
C  26.46100 -3.62300 44.68100
C  21.90100 -4.90600 43.82600
C  22.67300 -9.10600 46.07500
C  27.08100 -7.55100 47.41300
N  24.26900 -4.47300 44.41500
C  25.24600 -3.60100 44.06900
C  24.62700 -2.43000 43.24800
C  23.09500 -2.81200 43.20400
C  23.07600 -4.18400 43.79400
C  22.16600 -1.81200 43.91800
C  25.34100 -2.11400 41.83000
C  24.78900 -0.97200 40.99000
H  24.10600 -1.27500 39.67200
N  22.56600 -6.89800 45.06200
C  21.66300 -6.16900 44.42300
C  20.44300 -6.95200 44.39600
C  20.66200 -8.17900 44.96700
C  22.05900 -8.08800 45.41900
C  19.28400 -6.42500 43.68400
C  19.52200 -9.27800 45.01000
O  18.40000 -9.08900 44.55300
C  19.92600 -10.70600 45.54300
N  24.97400 -8.17900 46.39600
C  24.01800 -9.14800 46.57600
C  24.59000 -10.38300 47.22400
C  25.83000 -9.79500 47.93700
C  25.96000 -8.41400 47.18500
C  23.59300 -11.13100 48.13000
C  27.08100 -10.57000 47.76400
C  28.10400 -10.36700 48.93800
N  26.39800 -5.74100 45.98700
C  27.36700 -6.32000 46.79600
C  28.52600 -5.41700 46.89500
C  28.28300 -4.37200 46.02000
C  26.93900 -4.64000 45.52400
C  29.74200 -5.65200 47.72900
C  28.74800 -3.05100 45.41300
O  29.79900 -2.45300 45.54500
C  27.60000 -2.64600 44.49000
C  27.20500 -1.17300 44.76900
O  26.34300 -0.80400 45.53100
O  27.91600 -0.41500 43.89200
C  27.49100 1.00400 43.79200
H  21.06900 -4.36200 43.37300
H  22.16700 -10.07000 46.15900
H  27.74300 -7.93900 48.18900
H  24.69600 -1.53500 43.86500
H  22.75900 -3.02000 42.18800
H  21.65400 -2.31300 44.73900
H  21.50500 -1.40600 43.15200
H  22.58900 -0.91000 44.36100
H  25.41300 -2.97000 41.15800
H  26.39600 -1.90800 42.00800
H  25.66300 -0.36900 40.74100
H  24.04700 -0.41900 41.56600
H  19.20900 -5.35300 43.50100
H  18.35300 -6.56900 44.23200
H  19.04300 -6.93800 42.75300
H  19.06100 -11.36500 45.46500
H  20.19000 -10.65200 46.60000
H  20.78000 -11.12700 45.01200
H  24.93900 -10.92900 46.34800
H  25.58900 -9.53100 48.96700
H  23.46900 -12.16200 47.79800
H  22.70400 -10.52100 48.28600
H  24.08800 -11.35100 49.07600
H  27.55300 -10.21200 46.84900
H  26.89700 -11.64100 47.68500
H  29.13000 -10.16400 48.62900
H  28.27800 -11.28300 49.50300
H  27.79600 -9.65900 49.70700
H  29.42700 -5.60700 48.77100
H  30.57400 -4.98000 47.51600
H  29.99800 -6.70700 47.63200
H  27.91700 -2.73500 43.45100
H  26.50200 1.09500 43.34200
H  28.17600 1.56900 43.16000
H  27.59200 1.33600 44.82600
Mg 30.29300 59.18800 38.58000
C  27.45200 57.31900 38.06200
C  32.21500 56.50500 37.86200
C  32.95000 61.25100 38.39000
C  28.25600 62.03900 39.11400
N  29.85600 57.17000 38.01500
C  28.62900 56.59200 37.93200
C  28.79100 55.12200 37.51300
C  30.28100 54.82100 37.96200
C  30.85000 56.27500 37.97100
C  30.31300 54.17900 39.38900
C  28.56500 54.89700 35.97300
C  29.18300 55.86900 34.94600
H  28.19900 56.77100 34.15400
N  32.20900 58.95500 38.05800
C  32.91300 57.73700 37.95400
C  34.29400 57.89900 37.68600
C  34.47500 59.36700 37.67800
C  33.18600 59.96500 37.99200
C  35.29800 56.75500 37.42100
C  35.86400 60.02000 37.22600
O  36.80900 59.23700 36.99900
C  36.03700 61.53400 36.99400
N  30.53700 61.42400 38.75000
C  31.79300 61.90900 38.73600
C  31.69100 63.43700 38.96200
C  30.19300 63.65700 39.48100
C  29.61500 62.28900 39.22600
C  32.85400 64.02200 39.95000
C  29.45000 64.90800 38.92800
C  28.64900 65.78200 39.82100
N  28.23300 59.62600 38.69700
C  27.53000 60.78600 38.91100
C  26.05700 60.57400 38.79400
C  25.98900 59.19700 38.52300
C  27.32200 58.68800 38.38000
C  24.96100 61.63800 38.99200
C  25.08300 58.08300 38.30500
O  23.88000 58.05600 38.24000
C  26.03300 56.80800 37.97200
C  25.60300 55.58700 38.79600
O  25.48100 55.53800 40.00700
O  25.18200 54.62000 37.97800
C  24.17600 53.64900 38.55300
H  32.87900 55.63900 37.88600
H  33.77100 61.96600 38.46900
H  27.66000 62.93200 39.31200
H  28.09600 54.44300 38.00600
H  30.83900 54.22800 37.23700
H  29.32400 54.10200 39.84100
H  30.74800 54.90900 40.07100
H  30.75600 53.18300 39.38400
H  27.47800 54.94400 35.90300
H  28.96700 53.92000 35.70300
H  29.64600 55.24300 34.18300
H  29.96500 56.52000 35.33700
H  35.53800 56.61800 36.36600
H  34.87500 55.82500 37.80100
H  36.21000 56.76300 38.01800
H  37.06000 61.80400 36.72900
H  35.83600 61.94100 37.98400
H  35.29600 61.69700 36.21200
H  31.75700 63.88500 37.97100
H  30.30500 63.78400 40.55800
H  33.60700 64.36600 39.24100
H  33.31200 63.19300 40.48900
H  32.40900 64.73900 40.64100
H  28.85700 64.64600 38.05200
H  30.16400 65.50400 38.35900
H  29.04600 66.79500 39.75500
H  28.58500 65.36100 40.82400
H  27.58100 65.74200 39.60600
H  25.33800 62.57600 39.40000
H  24.18400 61.30700 39.68000
H  24.43900 62.00800 38.10900
H  25.85700 56.56000 36.92500
H  24.63100 52.97700 39.28100
H  23.89400 53.06600 37.67600
H  23.36300 54.14800 39.08100

