158

Mg 17.05000 -0.63800 28.13500
C  16.01900 1.35200 30.83000
C  19.15700 -2.49100 30.15000
C  18.40000 -2.05800 25.40000
C  15.30300 1.62600 25.99800
N  17.48300 -0.62500 30.20000
C  16.95700 0.32200 31.13900
C  17.47400 -0.08500 32.56500
C  18.48300 -1.22300 32.29200
C  18.39200 -1.47100 30.78000
C  19.90000 -0.99300 32.82800
C  16.25900 -0.54500 33.42300
C  16.14500 -0.07100 34.86400
H  17.44300 0.43900 35.54800
N  18.37300 -2.21100 27.85900
C  19.20400 -2.86600 28.80300
C  19.92700 -3.98300 28.17500
C  19.74100 -3.87200 26.81400
C  18.80900 -2.65600 26.64300
C  20.69900 -4.99200 28.94000
C  20.32900 -4.70600 25.79900
O  19.96600 -4.57800 24.59100
C  21.28200 -5.88300 26.05300
N  16.87400 -0.29900 25.96700
C  17.63800 -0.97500 25.09900
C  17.26900 -0.67400 23.65000
C  16.18600 0.44100 23.83400
C  16.08900 0.61100 25.32500
C  18.43200 -0.18600 22.82600
C  14.76400 0.20100 23.15000
C  13.62500 -0.44800 23.92900
N  15.77700 1.02100 28.29200
C  15.23100 1.91500 27.39800
C  14.52100 2.94800 28.04100
C  14.78700 2.74900 29.41100
C  15.60800 1.63100 29.47600
C  13.84700 4.15800 27.37100
C  14.57500 3.34300 30.77900
O  13.96400 4.38400 31.10400
C  15.38000 2.43400 31.74600
C  16.37900 3.27200 32.35900
O  17.48900 3.49200 31.90900
O  15.98300 3.58700 33.66100
C  17.04800 4.22300 34.54000
H  19.90800 -2.91700 30.81800
H  18.84400 -2.58400 24.55200
H  14.83300 2.28400 25.26400
H  17.95500 0.81300 32.95200
H  18.09500 -2.12100 32.77200
H  20.73600 -1.19700 32.16000
H  20.09100 -1.75700 33.58100
H  20.03400 -0.04700 33.35300
H  16.17200 -1.63000 33.36700
H  15.38900 -0.14900 32.89900
H  15.77300 -0.78200 35.60100
H  15.42300 0.74600 34.88700
H  20.64400 -4.79600 30.01100
H  21.72200 -5.10400 28.58300
H  20.24900 -5.97000 28.77000
H  20.79800 -6.55300 26.76300
H  22.15500 -5.46900 26.55700
H  21.54900 -6.41900 25.14300
H  16.86400 -1.57300 23.18600
H  16.62300 1.41100 23.59800
H  18.11500 0.72800 22.32400
H  18.67300 -1.00600 22.14900
H  19.34200 0.08500 23.36100
H  15.04300 -0.31700 22.23300
H  14.43800 1.22100 22.94600
H  13.85100 -1.40500 24.40000
H  12.79100 -0.62000 23.24900
H  13.25400 0.22600 24.70100
H  14.31000 4.34900 26.40200
H  13.92300 4.99700 28.06300
H  12.79800 4.00400 27.12100
H  14.70400 1.93800 32.44100
H  16.65100 4.03400 35.53700
H  17.06700 5.29700 34.35200
H  18.02700 3.75800 34.42200
Mg 44.75700 4.06700 48.10000
C  42.63100 6.75500 47.76400
C  41.98200 1.91900 47.76400
C  46.81000 1.62800 47.63800
C  47.43800 6.45800 47.78300
N  42.58100 4.28300 47.81700
C  41.98500 5.51000 47.65000
C  40.50000 5.30700 47.26100
C  40.28800 3.80500 47.65900
C  41.67000 3.29800 47.76300
C  39.49500 3.59300 49.01300
C  40.25700 5.53300 45.76900
C  39.08700 6.39200 45.26200
H  39.42500 7.30800 43.95900
N  44.45500 2.03100 47.88000
C  43.24700 1.33300 47.82300
C  43.55700 -0.05500 47.72300
C  44.96700 -0.14400 47.61700
C  45.50300 1.19900 47.68300
C  42.57900 -1.18900 47.49900
C  45.72100 -1.48300 47.35600
O  45.11500 -2.55500 47.47000
C  47.17600 -1.61400 47.19100
N  46.79500 4.09000 47.76400
C  47.43400 2.88400 47.75300
C  48.95000 3.00600 47.65700
C  49.14400 4.55100 47.67600
C  47.72600 5.09700 47.79200
C  49.84200 2.28400 48.69400
C  49.90100 5.01300 46.40500
C  49.25700 5.24900 45.03800
N  45.06500 6.23000 47.95200
C  46.16100 7.03800 47.84600
C  45.72200 8.45900 47.64600
C  44.33600 8.33400 47.72200
C  43.98700 7.03800 47.91700
C  46.56600 9.66500 47.47100
C  43.10600 9.12600 47.74000
O  42.94800 10.33300 47.71800
C  41.93600 8.12600 47.61100
C  40.99000 8.47600 48.67000
O  40.95300 7.94800 49.78800
O  40.04400 9.35200 48.22200
C  39.01700 9.94900 49.14300
H  41.20100 1.16100 47.67200
H  47.54700 0.83700 47.48700
H  48.27300 7.15900 47.71800
H  39.89900 6.02000 47.82600
H  39.76200 3.32300 46.83500
H  40.19800 3.32800 49.80200
H  38.85800 2.70900 48.99700
H  38.92100 4.50400 49.18500
H  40.06000 4.57000 45.29800
H  41.11800 5.89100 45.20400
H  38.58800 6.89800 46.08900
H  38.23900 5.82100 44.88300
H  42.80100 -1.53300 46.48800
H  41.55900 -0.86000 47.69300
H  42.99100 -2.02300 48.06800
H  47.80100 -1.45400 48.06900
H  47.44200 -0.87200 46.43800
H  47.46600 -2.59900 46.82500
H  49.22000 2.54300 46.70800
H  49.75100 5.03200 48.44300
H  50.68500 2.91100 48.98500
H  50.25600 1.32700 48.37400
H  49.14900 2.06000 49.50500
H  50.54600 4.18600 46.10800
H  50.52900 5.85900 46.68400
H  49.86300 4.77200 44.26800
H  49.08200 6.30800 44.85200
H  48.31800 4.69600 45.08300
H  47.09300 9.83400 48.41100
H  46.13700 10.63300 47.21400
H  47.41600 9.54100 46.79900
H  41.44100 8.48500 46.70800
H  38.64300 10.88300 48.72400
H  39.43100 10.13700 50.13400
H  38.22000 9.21700 49.27500

