158

Mg 35.84400 49.60500 24.33100
C  36.01800 47.72300 27.23500
C  34.50300 52.21700 26.04500
C  35.04400 51.02800 21.33600
C  36.69300 46.61300 22.51900
N  35.37500 49.92100 26.42300
C  35.57600 49.03300 27.44300
C  35.46600 49.78200 28.76200
C  34.79600 51.08000 28.36100
C  34.81500 51.08700 26.84200
C  33.37000 51.29900 28.97000
C  36.88100 49.96000 29.44100
C  36.87500 49.74900 30.96500
H  35.57000 49.69200 31.71700
N  34.89200 51.39700 23.74400
C  34.56500 52.36800 24.66800
C  34.21900 53.59400 23.91400
C  34.24700 53.27600 22.58500
C  34.79800 51.87900 22.52000
C  33.89500 54.92800 24.56600
C  33.79100 54.06200 21.34300
O  34.10500 53.73300 20.19300
C  33.03900 55.38200 21.51900
N  35.72000 48.91900 22.26000
C  35.46500 49.66000 21.24400
C  35.56700 48.97700 19.95700
C  36.16600 47.58300 20.27700
C  36.26200 47.70400 21.79800
C  34.30900 48.90600 19.16800
C  37.49900 47.18900 19.57800
C  37.43700 46.36100 18.24200
N  36.42700 47.60700 24.71300
C  36.74400 46.50100 23.88300
C  37.11100 45.41600 24.75400
C  36.87400 45.87300 26.04200
C  36.34300 47.13100 25.95600
C  37.63100 44.08000 24.32300
C  36.88600 45.46200 27.42400
O  37.18100 44.36300 27.88900
C  36.36500 46.67600 28.21200
C  35.20800 46.19200 29.13400
O  34.08500 46.01100 28.67800
O  35.65900 45.99100 30.42400
C  34.63600 45.42400 31.32800
H  34.16400 53.12100 26.55600
H  35.02700 51.53900 20.37100
H  37.07700 45.69700 22.06300
H  34.89700 49.09400 29.38600
H  35.39700 51.88900 28.77700
H  33.29500 52.22100 29.54600
H  33.04300 50.43100 29.54400
H  32.64200 51.28900 28.15900
H  37.19100 50.99100 29.26900
H  37.62300 49.29800 28.99600
H  37.44100 50.56500 31.41500
H  37.42500 48.82500 31.14300
H  34.60500 55.03100 25.38700
H  32.84600 55.12500 24.78900
H  34.09900 55.63300 23.76000
H  33.72600 56.20200 21.72600
H  32.35400 55.38700 22.36700
H  32.47800 55.63900 20.62100
H  36.21700 49.53500 19.28300
H  35.42200 46.83100 20.01500
H  34.09400 47.90500 18.79500
H  34.43900 49.63200 18.36500
H  33.48300 49.33800 19.73300
H  38.14200 46.63600 20.26300
H  37.95500 48.15500 19.35600
H  37.83800 45.38000 18.49700
H  38.13600 46.75900 17.50700
H  36.43800 46.30900 17.81100
H  36.95100 43.24600 24.49600
H  38.54800 43.89600 24.88200
H  37.83700 44.04400 23.25400
H  37.22400 46.97700 28.81200
H  33.60400 45.55000 31.00200
H  34.71700 45.71700 32.37500
H  34.87900 44.36100 31.30600
Mg 27.15200 51.05800 26.10600
C  25.11600 52.19000 28.84000
C  29.48100 49.96300 28.40800
C  29.09400 50.22500 23.61400
C  24.87400 52.49600 23.96000
N  27.09800 50.89000 28.28600
C  26.15900 51.37600 29.27500
C  26.51000 50.94800 30.62900
C  28.02800 50.55100 30.51100
C  28.22300 50.48200 28.94600
C  29.07200 51.43600 31.29300
C  25.61300 49.77800 31.06300
C  25.18000 49.58600 32.58500
H  25.82900 50.38100 33.72300
N  28.99500 50.08200 25.99800
C  29.77000 49.63700 27.03900
C  30.98300 48.97800 26.56800
C  30.91000 49.09800 25.14600
C  29.65700 49.87700 24.85100
C  31.95100 48.26500 27.43700
C  31.82200 48.57600 24.04500
O  31.70100 48.86800 22.85000
C  32.88900 47.63100 24.45700
N  26.89700 51.20200 24.07500
C  27.88200 50.86200 23.23500
C  27.50800 50.93800 21.77200
C  26.12800 51.78000 21.84800
C  25.87600 51.76500 23.34800
C  28.72400 51.54800 21.04800
C  25.06300 51.12900 21.05000
C  24.26300 52.12100 20.14700
N  25.45200 52.19800 26.29200
C  24.55100 52.70300 25.33000
C  23.50100 53.46100 25.91500
C  23.69900 53.32600 27.29000
C  24.87500 52.53100 27.50200
C  22.46900 54.18900 25.22700
C  23.26500 53.78800 28.61600
O  22.37700 54.55000 28.90500
C  24.06500 52.90600 29.68300
C  24.71000 53.85600 30.67200
O  25.69100 54.44100 30.37400
O  24.04000 53.83900 31.87200
C  24.34000 54.94000 32.88000
H  30.24900 49.58000 29.08400
H  29.73200 49.93300 22.77700
H  24.26600 53.05900 23.24800
H  26.64500 51.81000 31.28300
H  28.11600 49.56100 30.95800
H  28.57500 52.39000 31.46600
H  29.86400 51.59800 30.56200
H  29.52000 51.02900 32.19900
H  26.04200 48.82600 30.75100
H  24.66600 49.92600 30.54300
H  25.30900 48.56900 32.95500
H  24.12900 49.86700 32.65100
H  31.89100 47.19800 27.22600
H  31.95300 48.41900 28.51600
H  32.91700 48.65500 27.11600
H  33.42600 47.47300 23.52200
H  32.38200 46.76300 24.87900
H  33.52200 48.04700 25.24100
H  27.45800 49.90200 21.43600
H  26.21800 52.85500 21.69700
H  28.36400 52.46700 20.58700
H  29.12300 50.81800 20.34400
H  29.50300 51.94300 21.70000
H  24.26500 50.64900 21.61500
H  25.38300 50.36900 20.33700
H  24.30500 51.80100 19.10600
H  24.76600 53.08700 20.17400
H  23.26800 52.15400 20.59100
H  21.65000 54.47600 25.88500
H  22.09400 53.60100 24.38900
H  22.91000 55.07300 24.76500
H  23.52100 52.14800 30.24600
H  24.70800 55.79100 32.30700
H  25.14400 54.65200 33.55600
H  23.48200 55.32100 33.43300

