158

Mg 55.61300 23.86000 45.23300
C  53.31400 26.28500 44.37800
C  53.32300 21.41000 44.37300
C  58.08100 21.52600 45.40400
C  58.04000 26.27000 45.82500
N  53.58700 23.90900 44.49500
C  52.80900 24.98000 44.19700
C  51.43500 24.53300 43.75200
C  51.43100 23.04000 44.14000
C  52.87700 22.73800 44.43000
C  50.61600 22.56800 45.34500
C  51.21800 24.82500 42.25400
C  49.81000 25.11300 41.74500
H  49.18800 24.33100 40.63400
N  55.66100 21.75400 44.91500
C  54.61400 20.95300 44.60600
C  55.05700 19.60200 44.52000
C  56.37600 19.53200 44.97400
C  56.79400 21.01100 45.11900
C  54.10800 18.46200 44.20800
C  57.22600 18.31400 45.03100
O  56.77000 17.15900 44.96200
C  58.69200 18.38700 44.91400
N  57.79100 23.88900 45.44100
C  58.57000 22.82200 45.59500
C  59.90500 23.21900 46.31000
C  59.99500 24.74700 46.09800
C  58.52100 25.02500 45.80900
C  59.83800 22.73300 47.75800
C  60.96000 25.09200 44.91300
C  62.45500 25.46000 45.31400
N  55.67000 25.90000 45.23100
C  56.66800 26.75000 45.58100
C  56.10900 28.12700 45.60000
C  54.75100 27.94900 45.15700
C  54.60900 26.63700 44.89600
C  56.74700 29.33800 46.09100
C  53.49600 28.66400 44.92400
O  53.18700 29.85600 44.97700
C  52.59500 27.60100 44.17400
C  52.48400 28.02900 42.72700
O  53.36300 28.18400 41.90500
O  51.14600 28.33200 42.49800
C  50.75100 28.87400 41.17200
H  52.63800 20.67800 43.94000
H  58.83400 20.86600 45.84100
H  58.76000 27.05100 46.07900
H  50.67400 25.07100 44.31800
H  51.14400 22.54200 43.21400
H  49.89900 23.36100 45.55900
H  51.24800 22.30100 46.19200
H  50.13900 21.66800 44.95800
H  51.59600 23.96400 41.70200
H  51.85200 25.66300 41.96700
H  49.89800 26.13700 41.38100
H  49.13000 25.17000 42.59500
H  54.66000 17.58700 43.86300
H  53.41300 18.92400 43.50800
H  53.36600 18.26400 44.98100
H  59.08200 17.44100 44.53900
H  59.13400 18.80100 45.82100
H  58.77000 19.12400 44.11500
H  60.71700 22.63900 45.87100
H  60.34700 25.27600 46.98400
H  60.40500 21.82700 47.97000
H  58.79700 22.49300 47.97800
H  60.16400 23.53500 48.42100
H  60.61900 25.99000 44.39600
H  60.95900 24.33300 44.13100
H  62.52500 25.43900 46.40200
H  62.75500 26.42300 44.90200
H  63.09800 24.66200 44.94200
H  57.63800 29.65800 45.55000
H  56.88200 29.13800 47.15400
H  56.07200 30.19400 46.09000
H  51.62400 27.60300 44.66900
H  50.75000 28.08100 40.42400
H  51.44100 29.62200 40.78100
H  49.76400 29.33700 41.15300
Mg 9.04300 48.16200 25.56700
C  6.87000 48.79000 28.19800
C  11.67600 48.64800 27.65100
C  10.94200 47.64100 23.02000
C  6.13700 47.97900 23.54900
N  9.23000 48.77200 27.66100
C  8.24100 48.88700 28.59900
C  8.82500 48.99900 30.03900
C  10.31800 49.33800 29.72300
C  10.43300 48.94500 28.24900
C  10.72300 50.82000 29.97600
C  8.66100 47.70100 30.92200
C  9.46300 47.58200 32.20300
H  8.71700 46.75100 33.33800
N  11.04800 48.20000 25.31600
C  12.01400 48.33000 26.34700
C  13.34000 48.18600 25.80400
C  13.11900 47.71400 24.47800
C  11.68800 47.93800 24.17000
C  14.60500 48.35200 26.57800
C  14.12400 47.13200 23.48800
O  13.72900 46.63400 22.43400
C  15.60700 47.00200 23.67000
N  8.60400 48.09700 23.51900
C  9.63100 47.81100 22.65000
C  9.01200 47.39500 21.34000
C  7.46900 47.81600 21.47200
C  7.35100 47.94400 22.94000
C  9.73700 47.99500 20.11500
C  6.46200 46.86700 20.84900
C  5.35800 47.49300 20.06700
N  6.93800 48.27700 25.84600
C  5.93000 48.13100 24.92800
C  4.59900 48.38200 25.57900
C  4.98000 48.52100 26.90900
C  6.35900 48.52800 26.96100
C  3.21000 48.15600 24.93500
C  4.40900 48.73000 28.21900
O  3.24500 48.73500 28.59300
C  5.65400 48.75500 29.13000
C  5.52000 47.48900 29.88700
O  5.70000 46.34500 29.46800
O  5.13900 47.79600 31.18900
C  4.91500 46.68500 32.18800
H  12.41500 48.79100 28.44200
H  11.53100 47.17400 22.22800
H  5.15500 47.92900 23.07300
H  8.32100 49.82300 30.54400
H  11.00200 48.83300 30.40600
H  10.24500 51.41400 29.19700
H  11.79700 51.00400 29.93300
H  10.32500 51.20400 30.91500
H  8.69200 46.83400 30.26200
H  7.62400 47.68100 31.25900
H  9.69100 48.56100 32.62400
H  10.41100 47.09300 31.97600
H  15.23700 47.47200 26.69500
H  14.30700 48.58900 27.59900
H  15.18200 49.23900 26.31600
H  16.05000 47.28700 22.71600
H  15.91100 46.02600 24.04700
H  15.89500 47.79300 24.36300
H  9.08600 46.30800 21.35200
H  7.36500 48.80100 21.01700
H  10.40300 48.76700 20.50000
H  9.09200 48.38200 19.32600
H  10.34200 47.19800 19.68400
H  5.94500 46.26400 21.59500
H  7.01400 46.16600 20.22300
H  5.29900 48.56300 20.26500
H  4.39300 47.00200 20.18800
H  5.59500 47.36300 19.01100
H  2.90500 47.14600 25.20800
H  3.23400 48.05300 23.85000
H  2.45300 48.91800 25.11900
H  5.60800 49.58000 29.84100
H  3.83500 46.55000 32.24900
H  5.26900 46.98100 33.17600
H  5.36500 45.73600 31.89800

