158

Mg 47.14600 35.19100 28.51700
C  45.40100 33.37400 31.19600
C  47.46200 37.82300 30.68000
C  48.17800 36.92300 25.92300
C  46.82800 32.31700 26.51800
N  46.57100 35.47500 30.69200
C  45.97800 34.64000 31.55100
C  46.04100 35.20800 32.97700
C  46.17700 36.73600 32.69400
C  46.79000 36.71300 31.23600
C  44.94100 37.55500 32.96000
C  47.25300 34.62300 33.76900
C  47.06800 34.34700 35.35000
H  46.23800 35.35600 36.19000
N  47.83900 37.06800 28.28600
C  47.97500 38.01700 29.34900
C  48.57300 39.22300 28.81400
C  48.82400 39.03500 27.44800
C  48.33100 37.57800 27.13500
C  48.48400 40.50800 29.58000
C  49.35400 40.02200 26.47200
O  49.38200 39.74900 25.27100
C  49.83900 41.37400 26.85600
N  47.34300 34.71700 26.46100
C  47.85800 35.61600 25.65400
C  48.14900 34.99200 24.28000
C  47.73300 33.49200 24.39600
C  47.40100 33.41900 25.94700
C  47.48700 35.62100 23.02000
C  48.85000 32.46200 24.00400
C  48.27000 31.21800 23.20700
N  46.32200 33.21500 28.77800
C  46.25400 32.16600 27.83700
C  45.49000 31.06500 28.41700
C  45.08900 31.53700 29.64100
C  45.64400 32.79200 29.87800
C  45.07700 29.78000 27.83200
C  44.37200 31.14600 30.83700
O  43.81700 30.06900 31.01100
C  44.40700 32.40700 31.84800
C  44.93200 31.84800 33.07500
O  46.11600 31.71000 33.46100
O  43.82100 31.53700 33.79800
C  44.11900 30.81500 35.08200
H  47.42100 38.75100 31.25500
H  48.55700 37.50500 25.08000
H  46.61500 31.49000 25.83700
H  45.10700 34.81900 33.38500
H  46.94200 37.09000 33.38500
H  44.75300 38.14500 32.06300
H  44.96600 38.18800 33.84700
H  44.06300 36.91300 33.02100
H  48.06900 35.34300 33.71200
H  47.66000 33.76400 33.23600
H  47.97900 34.14300 35.91200
H  46.57600 33.39500 35.54900
H  47.84400 41.22300 29.06300
H  49.49500 40.91400 29.53000
H  48.21500 40.60600 30.63100
H  49.05300 42.12400 26.76700
H  50.51600 41.47900 26.00800
H  50.46600 41.40800 27.74800
H  49.22100 35.01800 24.08900
H  46.73700 33.27600 24.00800
H  46.76000 34.93400 22.58600
H  48.28200 35.88500 22.32200
H  46.88200 36.49200 23.27200
H  49.41600 32.09700 24.86100
H  49.54100 32.94800 23.31500
H  47.21300 31.18300 23.47300
H  48.76900 30.30500 23.53100
H  48.26800 31.43200 22.13800
H  45.96700 29.17000 27.67500
H  44.57000 29.94100 26.88100
H  44.47600 29.19100 28.52500
H  43.44000 32.89100 31.98000
H  44.87300 30.02900 35.07500
H  43.22300 30.24600 35.33100
H  44.48300 31.48800 35.85900
Mg 41.43900 42.29900 27.20200
C  40.31600 44.23100 29.81800
C  42.50300 39.93900 29.57500
C  42.77500 40.29700 24.76300
C  40.50200 44.63200 24.92800
N  41.31000 42.07300 29.46300
C  40.79800 43.00700 30.29600
C  40.83700 42.52900 31.79900
C  41.62400 41.18500 31.60500
C  41.85100 41.02600 30.11600
C  42.86500 40.97300 32.47800
C  39.44100 42.46800 32.48400
C  39.39500 41.81400 33.85700
H  39.30200 42.76100 35.06900
N  42.47700 40.41300 27.12100
C  42.74500 39.58100 28.21500
C  43.52900 38.46300 27.75800
C  43.52400 38.53000 26.34900
C  42.91000 39.79600 26.02600
C  43.94900 37.29500 28.70700
C  43.95800 37.39700 25.30900
O  43.83500 37.46500 24.08600
C  44.39900 36.14500 25.94300
N  41.58800 42.37400 25.09800
C  42.20700 41.48000 24.30300
C  42.18200 41.96500 22.85200
C  41.36700 43.32100 22.91700
C  41.09800 43.47700 24.41300
C  43.50600 42.05300 22.03100
C  40.11200 43.29800 21.95600
C  38.93700 42.55700 22.44200
N  40.58500 44.13600 27.25600
C  40.22900 44.99400 26.27100
C  39.64900 46.17400 26.82900
C  39.60500 45.95400 28.21300
C  40.22200 44.67600 28.43000
C  39.10800 47.34100 26.13300
C  39.19800 46.46800 29.51500
O  38.56200 47.44300 29.79600
C  39.60700 45.32600 30.51800
C  40.20800 45.94100 31.70700
O  41.42200 46.11300 31.80900
O  39.22800 46.26200 32.63900
C  39.71000 47.03500 33.80600
H  42.89800 39.18400 30.25700
H  43.46800 39.78600 24.09200
H  40.10900 45.37800 24.23300
H  41.48000 43.23200 32.32800
H  40.92400 40.38800 31.85500
H  43.69500 41.05800 31.77700
H  42.85300 39.99200 32.95200
H  42.96800 41.82800 33.14600
H  38.76300 41.91400 31.83500
H  39.10000 43.49800 32.58800
H  40.21000 41.11000 34.02400
H  38.50100 41.19600 33.92500
H  44.02900 37.66400 29.73000
H  44.96500 36.96100 28.49400
H  43.31900 36.40800 28.77100
H  43.51600 35.78300 26.47000
H  45.28400 36.41600 26.51900
H  44.70200 35.35800 25.25300
H  41.65000 41.15700 22.34900
H  41.99500 44.16900 22.64400
H  43.60300 41.37600 21.18200
H  44.28700 41.76000 22.73400
H  43.70100 43.04700 21.62900
H  40.24400 42.99400 20.91700
H  39.93100 44.36500 21.82300
H  38.18000 43.25700 22.79400
H  39.09900 41.90600 23.30200
H  38.51100 42.00600 21.60400
H  39.98500 47.82700 25.70500
H  38.62800 48.05500 26.80200
H  38.43700 47.17700 25.28900
H  38.60300 45.01400 30.80600
H  38.94100 47.69700 34.20300
H  40.52900 47.66600 33.46000
H  40.02400 46.45800 34.67500

