158

Mg 35.91800 1.43400 29.71600
C  33.88300 2.66800 32.18000
C  38.62700 1.42600 31.96300
C  37.88800 0.76100 27.17100
C  33.27600 2.05700 27.38500
N  36.20600 2.07800 31.74500
C  35.21500 2.42300 32.62600
C  35.79700 2.60700 34.04000
C  37.33300 2.31100 33.89800
C  37.39800 1.88600 32.41500
C  38.29500 3.56800 34.07700
C  35.02300 1.99900 35.25100
C  35.83000 1.45000 36.47700
H  36.15100 2.44700 37.58400
N  38.02100 0.96700 29.62100
C  38.92500 1.06000 30.66100
C  40.17200 0.63500 30.12900
C  40.03500 0.45200 28.75100
C  38.59300 0.72700 28.44400
C  41.47400 0.44100 30.95500
C  41.05300 0.01600 27.59500
O  40.68700 -0.06100 26.43200
C  42.42100 -0.35100 27.91200
N  35.62300 1.41100 27.60900
C  36.63900 1.03100 26.77600
C  36.14400 0.92700 25.26500
C  34.57000 1.22000 25.43900
C  34.49500 1.53200 26.91900
C  36.89600 1.90600 24.29600
C  33.61500 0.17600 24.97100
C  33.21000 -0.96000 25.93100
N  33.94600 2.09300 29.72900
C  33.06100 2.37800 28.72800
C  31.73200 2.78800 29.33500
C  32.06700 2.93500 30.68900
C  33.40100 2.49800 30.85800
C  30.49000 2.99700 28.54800
C  31.51800 3.30500 31.97700
O  30.35300 3.61200 32.23400
C  32.66800 3.12500 32.99000
C  32.83300 4.51800 33.60900
O  33.65000 5.35600 33.20100
O  32.05400 4.49600 34.74100
C  32.21700 5.72600 35.52500
H  39.39700 1.56400 32.72400
H  38.55400 0.54200 26.33400
H  32.46300 2.18300 26.66700
H  35.63900 3.65900 34.27900
H  37.65200 1.44600 34.48000
H  37.80000 4.34600 34.65800
H  38.79100 3.96500 33.19200
H  39.11000 3.25000 34.72700
H  34.64500 1.08100 34.80000
H  34.19900 2.60600 35.62500
H  36.78600 1.03400 36.16000
H  35.30900 0.63100 36.97300
H  42.15500 1.24600 30.67700
H  42.01100 -0.47400 30.70700
H  41.08000 0.59700 31.95900
H  43.03700 -0.53300 27.03100
H  42.37400 -1.32300 28.40300
H  42.85100 0.51700 28.41300
H  36.22700 -0.07300 24.83900
H  34.23300 2.09700 24.88700
H  36.12700 2.53000 23.84000
H  37.48300 1.33400 23.57800
H  37.61200 2.47100 24.89200
H  34.04100 -0.25500 24.06600
H  32.71300 0.71900 24.69000
H  32.13000 -1.07800 25.84800
H  33.43500 -0.95100 26.99800
H  33.46800 -1.87400 25.39700
H  30.56100 2.34200 27.68000
H  30.16500 4.00900 28.31000
H  29.74800 2.48700 29.16300
H  32.33300 2.39100 33.72200
H  31.72900 6.47400 34.90100
H  33.25800 6.01700 35.66600
H  31.72800 5.40700 36.44600
Mg 41.26300 8.01000 30.01900
C  42.94800 9.56000 32.84600
C  38.96500 6.91200 32.25400
C  39.87400 6.55900 27.35100
C  43.96500 8.91600 28.15300
N  40.96800 8.33600 32.27700
C  41.71500 9.05500 33.17600
C  41.05100 9.10900 34.58700
C  39.90000 8.06900 34.44300
C  39.89000 7.73100 32.87400
C  40.03100 6.79800 35.25000
C  40.61400 10.46600 35.20000
C  40.35000 10.39800 36.70600
H  41.10900 11.40500 37.57600
N  39.66800 6.79600 29.82100
C  38.79400 6.53000 30.90100
C  37.65100 5.82700 30.29000
C  37.93800 5.64800 28.88400
C  39.19300 6.27600 28.57900
C  36.42100 5.50200 31.16900
C  37.08000 5.16400 27.79700
O  37.52800 4.89800 26.72000
C  35.59200 5.15100 28.03000
N  41.80300 7.82200 27.96000
C  41.04300 7.21800 27.04100
C  41.56500 7.35800 25.63500
C  42.92600 8.16200 25.91000
C  42.90600 8.32600 27.39700
C  41.80200 6.01700 24.88500
C  43.00000 9.57700 25.11600
C  41.93300 10.67900 25.44600
N  43.19500 8.96800 30.39100
C  44.24000 9.22600 29.50000
C  45.29500 9.81400 30.13100
C  44.85300 10.01800 31.46600
C  43.57200 9.47200 31.55300
C  46.66200 10.06300 29.58400
C  45.21200 10.55700 32.73100
O  46.21700 11.15600 33.08100
C  43.98700 10.28200 33.70400
C  44.36900 9.34200 34.79700
O  44.65800 8.17500 34.60300
O  44.22800 9.97100 35.96200
C  44.32700 9.14200 37.09800
H  38.20800 6.66400 33.00000
H  39.35300 6.23100 26.44900
H  44.75900 9.15700 27.44300
H  41.81100 8.62600 35.20100
H  38.96600 8.51800 34.78000
H  40.20200 6.04200 34.48400
H  39.09000 6.45900 35.68300
H  40.83300 6.69700 35.98200
H  39.79900 10.98400 34.69500
H  41.48900 11.05800 34.93100
H  40.61100 9.39100 37.03100
H  39.28800 10.63900 36.76600
H  36.82700 5.40500 32.17600
H  35.90400 4.59800 30.84900
H  35.64600 6.24700 31.35500
H  35.03400 5.10200 27.09500
H  35.31800 6.08900 28.51300
H  35.20700 4.35100 28.66300
H  40.87500 8.02300 25.11500
H  43.76600 7.50200 25.69400
H  41.59600 6.12100 23.81900
H  41.07000 5.29500 25.24600
H  42.82300 5.67200 25.04600
H  42.89200 9.22700 24.09000
H  43.99200 10.00100 25.27100
H  42.38800 11.29000 26.22600
H  41.00100 10.22000 25.77500
H  41.72000 11.34500 24.61000
H  47.44400 9.63400 30.21100
H  46.83000 11.12500 29.40600
H  46.69300 9.59500 28.60000
H  43.62400 11.19100 34.18400
H  45.28800 8.75900 37.44100
H  43.68500 8.27600 36.93000
H  43.75800 9.66600 37.86600

