158

Mg 49.62700 45.45500 43.76000
C  46.47400 46.03700 42.52700
C  49.70200 42.50500 41.91700
C  52.91600 45.08800 44.36200
C  49.64500 48.58900 45.24900
N  48.20800 44.46100 42.32800
C  46.98000 44.84600 42.00100
C  46.25400 43.83000 41.06800
C  47.22900 42.56700 41.17000
C  48.50900 43.21300 41.78100
C  46.74500 41.36000 42.00900
C  45.94100 44.37800 39.63200
C  44.45500 44.45000 39.23600
H  44.08700 43.51200 38.07700
N  51.12100 43.90100 43.36600
C  50.84400 42.81300 42.62300
C  51.99800 41.95300 42.71500
C  53.02300 42.71500 43.43700
C  52.39300 43.96400 43.75700
C  52.20200 40.63100 41.90200
C  54.24500 42.11000 43.87600
O  54.71900 41.05900 43.45900
C  55.21800 42.77500 44.90200
N  51.09100 46.73100 44.53600
C  52.34000 46.33700 44.79700
C  53.17600 47.36400 45.54500
C  52.07800 48.38500 45.98300
C  50.85600 47.89200 45.19800
C  54.17100 46.87400 46.69600
C  52.52100 49.80000 45.77600
C  52.70000 50.60700 47.06100
N  48.34800 47.02800 43.92100
C  48.43200 48.20600 44.61300
C  47.25600 48.96400 44.45500
C  46.50700 48.13300 43.57200
C  47.18500 46.98900 43.30900
C  46.84500 50.34400 45.03300
C  45.30400 48.08900 42.84400
O  44.42600 48.98400 42.73900
C  45.17700 46.71800 42.15000
C  43.99200 46.13900 42.76900
O  44.00100 45.57600 43.82700
O  42.83300 46.45000 42.09900
C  41.59700 45.97100 42.54500
H  49.77000 41.46700 41.58700
H  53.98900 45.21300 44.52400
H  49.59200 49.51400 45.82700
H  45.31000 43.80700 41.61200
H  47.47900 42.17000 40.18600
H  45.76400 41.49000 42.46600
H  47.43900 41.11000 42.81200
H  46.60700 40.46900 41.39600
H  46.56000 43.81900 38.93000
H  46.26200 45.42000 39.62900
H  44.14300 45.47500 39.03600
H  43.82700 44.04100 40.02800
H  52.93800 40.73400 41.10500
H  51.34100 40.14500 41.44200
H  52.64000 39.87700 42.55700
H  54.76200 42.46100 45.84200
H  55.49500 43.82900 44.91600
H  56.21600 42.33600 44.90000
H  53.76600 47.84100 44.76200
H  51.73300 48.21600 47.00300
H  53.94300 47.35100 47.64900
H  55.17700 47.20600 46.44100
H  54.24400 45.78700 46.72800
H  51.81200 50.42600 45.23400
H  53.49400 49.81300 45.28500
H  52.03600 51.46600 46.96900
H  53.74800 50.87900 46.93900
H  52.64100 50.05700 48.00100
H  45.78900 50.45300 45.28100
H  47.10900 51.02100 44.22100
H  47.53600 50.58600 45.84000
H  45.11300 46.97600 41.09300
H  41.67800 44.91200 42.78900
H  40.87400 46.14500 41.74700
H  41.31000 46.47500 43.46700
Mg 41.39700 41.23000 27.27100
C  40.49900 43.71000 29.60500
C  42.56800 39.33200 29.81300
C  42.31700 38.91400 25.04000
C  40.88700 43.54300 24.70300
N  41.53600 41.49000 29.46600
C  40.98500 42.51500 30.23900
C  41.06800 42.23000 31.77900
C  41.87500 40.92800 31.81600
C  42.08800 40.55700 30.27800
C  43.18200 40.76100 32.68200
C  39.65200 42.10500 32.49400
C  39.48500 43.03800 33.76400
H  38.76800 42.35600 34.97200
N  42.27300 39.38000 27.43900
C  42.62800 38.74500 28.57500
C  42.91000 37.40100 28.29900
C  42.88600 37.20500 26.90100
C  42.44700 38.49000 26.38400
C  43.14800 36.42500 29.38900
C  43.29900 35.96200 26.10300
O  43.44700 35.98100 24.86000
C  43.76100 34.66600 26.78300
N  41.53400 41.15800 25.10300
C  41.81400 40.07500 24.40600
C  41.59100 40.39300 22.94000
C  41.07000 41.82200 22.93000
C  41.11000 42.22000 24.35600
C  42.75500 40.01100 21.94500
C  39.61500 41.99100 22.30100
C  38.43900 41.28500 23.03800
N  40.83700 43.21400 27.10000
C  40.78700 44.00800 25.99800
C  40.36200 45.35000 26.43900
C  40.24600 45.26000 27.86900
C  40.57300 43.94900 28.20600
C  40.12400 46.52300 25.53900
C  40.02000 46.02000 29.09100
O  39.80700 47.17300 29.29900
C  40.10400 44.94700 30.23700
C  41.09200 45.42800 31.19500
O  42.29200 45.42200 31.06800
O  40.45000 45.72100 32.34000
C  41.33000 46.25300 33.36500
H  42.69400 38.72900 30.71400
H  42.53600 38.07800 24.37300
H  40.73100 44.23500 23.87200
H  41.64000 43.00100 32.29500
H  41.15400 40.19800 32.18400
H  42.94400 40.14300 33.54800
H  43.40600 41.75000 33.08200
H  44.03600 40.33700 32.15400
H  39.44300 41.08700 32.82200
H  38.94100 42.48100 31.75800
H  38.96900 43.90400 33.34700
H  40.44900 43.39900 34.12100
H  42.51800 35.54200 29.28200
H  43.03900 36.75300 30.42300
H  44.13400 36.00500 29.19400
H  43.02800 34.28300 27.49300
H  44.74800 34.64500 27.24500
H  43.55800 33.97400 25.96600
H  40.71400 39.75900 22.81100
H  41.76900 42.42700 22.35300
H  43.71400 39.90600 22.45300
H  42.82000 40.64200 21.05900
H  42.48900 39.06300 21.47700
H  39.62900 41.57800 21.29300
H  39.51000 43.06400 22.13900
H  38.82800 41.04300 24.02700
H  38.10200 40.36600 22.55900
H  37.52300 41.82600 23.27400
H  40.63700 46.39500 24.58600
H  40.50300 47.38300 26.09100
H  39.06900 46.74000 25.37100
H  39.15800 44.77000 30.74900
H  42.28000 46.62700 32.98400
H  41.51600 45.50100 34.13300
H  40.74500 47.05400 33.81700

