158

Mg 24.63700 0.92400 30.21200
C  26.42500 0.98500 33.25400
C  21.77100 1.16200 32.04000
C  22.91900 0.91200 27.38100
C  27.58400 0.54600 28.57400
N  24.24000 1.11000 32.40200
C  25.06000 1.10200 33.47200
C  24.28900 1.40000 34.78100
C  22.81700 1.10200 34.33900
C  22.94000 1.13200 32.81500
C  22.22500 -0.24000 34.90600
C  24.64400 2.78900 35.41000
C  25.40200 2.86700 36.71900
H  24.78200 3.67900 37.81800
N  22.63200 0.93400 29.77300
C  21.57100 0.99300 30.65400
C  20.32000 1.03000 29.94500
C  20.60300 0.84900 28.55200
C  22.12700 0.94800 28.51500
C  18.96300 1.18000 30.67000
C  19.67400 0.60200 27.39300
O  20.16700 0.35800 26.28300
C  18.13000 0.52000 27.59600
N  25.13200 0.74700 28.27000
C  24.34100 0.82700 27.22600
C  25.09200 1.18200 25.95500
C  26.56800 0.90500 26.36500
C  26.45000 0.69000 27.83500
C  24.63700 0.37800 24.72200
C  27.51500 2.15100 25.99600
C  27.43800 3.42800 26.88100
N  26.63000 0.74700 30.70400
C  27.72900 0.45600 29.94600
C  28.91200 0.27900 30.77700
C  28.44100 0.62500 32.06900
C  27.03600 0.74900 32.00700
C  30.37700 0.05400 30.32300
C  28.80900 0.85500 33.40700
O  29.95100 0.83700 33.94300
C  27.53300 1.13500 34.25500
C  27.64500 0.04600 35.27300
O  27.07700 -1.03400 35.26700
O  28.45300 0.49900 36.33500
C  28.41000 -0.48600 37.49400
H  20.85400 1.40200 32.58200
H  22.45300 1.00600 26.39800
H  28.56100 0.51600 28.08700
H  24.63400 0.57700 35.40700
H  22.10300 1.87100 34.63100
H  21.39000 -0.03800 35.57700
H  22.91000 -0.86000 35.48500
H  21.75700 -0.81900 34.11100
H  23.72500 3.36900 35.49700
H  25.25100 3.32500 34.68100
H  26.41500 3.25700 36.62400
H  25.67900 1.86400 37.04300
H  19.08400 0.91700 31.72100
H  18.07900 0.76100 30.19000
H  18.78800 2.25500 30.71800
H  17.61900 0.34800 26.64900
H  17.91100 1.54400 27.89900
H  17.90900 -0.18800 28.39500
H  24.99300 2.26000 25.83100
H  26.86000 0.05200 25.75300
H  24.36900 -0.62500 25.05200
H  25.42200 0.22900 23.98100
H  23.80500 0.90400 24.25400
H  27.06200 2.41600 25.04000
H  28.53500 1.79100 25.86000
H  28.42100 3.73500 27.23700
H  26.73600 3.44800 27.71500
H  27.19800 4.23600 26.18900
H  30.44800 0.59900 29.38200
H  30.64500 -1.00100 30.27100
H  30.96700 0.49000 31.12900
H  27.56800 2.08100 34.79400
H  29.26200 -0.23400 38.12500
H  28.51100 -1.49100 37.08500
H  27.52400 -0.20300 38.06200
Mg 27.57500 51.08100 25.67300
C  25.62200 52.44800 28.27700
C  29.72100 49.72200 27.98500
C  29.37600 49.98100 22.99100
C  25.23400 52.56400 23.43000
N  27.72000 51.28400 27.85400
C  26.79200 51.77900 28.73200
C  27.12800 51.46700 30.19500
C  28.53500 50.78400 30.04800
C  28.75100 50.54500 28.54300
C  29.62800 51.58100 30.75100
C  26.06600 50.47800 30.87900
C  25.16800 50.99600 31.98600
H  25.06500 50.13400 33.21100
N  29.30900 49.97700 25.51700
C  29.99200 49.44700 26.60800
C  31.01300 48.61400 26.02600
C  30.94000 48.67600 24.62100
C  29.80100 49.55400 24.28700
C  32.00000 47.75900 26.86300
C  31.81300 47.90600 23.58700
O  31.65900 48.07500 22.38100
C  32.91600 46.89900 23.99100
N  27.42500 51.38800 23.52300
C  28.36700 50.89200 22.67100
C  27.87100 51.03800 21.22600
C  26.56400 51.90900 21.32300
C  26.34100 51.94100 22.82300
C  28.86700 51.66400 20.24900
C  25.29400 51.40700 20.50800
C  24.22700 50.59800 21.20100
N  25.88400 52.37600 25.79000
C  24.95900 52.76000 24.81700
C  23.77500 53.48500 25.31400
C  24.01600 53.31500 26.75600
C  25.31300 52.65200 26.93100
C  22.67400 54.10900 24.46900
C  23.36600 53.54100 28.04900
O  22.30100 54.06300 28.34800
C  24.45700 53.04100 29.08500
C  24.80200 54.15700 29.91100
O  25.70700 54.93600 29.70600
O  23.90000 54.17400 30.93600
C  24.24200 54.90300 32.20000
H  30.38000 49.23600 28.70700
H  30.00800 49.62100 22.17600
H  24.44300 52.84100 22.73100
H  27.21500 52.43300 30.69200
H  28.55900 49.78000 30.47200
H  29.18300 52.34300 31.39100
H  30.28000 52.07500 30.03100
H  30.19900 50.89000 31.37100
H  26.43400 49.46100 31.00900
H  25.41500 50.30600 30.02200
H  24.15000 51.09500 31.61200
H  25.60000 51.95600 32.26600
H  32.01600 48.04900 27.91300
H  33.03200 47.88500 26.53500
H  31.82900 46.68900 26.74400
H  33.66100 47.40100 24.60800
H  33.54700 46.62400 23.14600
H  32.55400 45.98300 24.45800
H  27.58200 50.03500 20.91300
H  26.64600 52.95300 21.02100
H  28.86300 51.05700 19.34500
H  29.84900 51.71700 20.71900
H  28.54800 52.67500 19.99300
H  25.60200 50.80500 19.65400
H  24.77600 52.27900 20.10900
H  23.91500 49.77900 20.55300
H  23.33500 51.13800 21.51900
H  24.56800 50.24500 22.17500
H  22.97500 54.67200 23.58500
H  22.07500 54.72600 25.13800
H  22.06300 53.25800 24.16900
H  23.99100 52.25300 29.67600
H  23.43800 55.39300 32.75100
H  24.84000 55.76600 31.90800
H  24.85500 54.31400 32.88200

