158

Mg 0.51500 8.00300 25.75400
C  1.23300 10.02600 28.33400
C  0.48800 5.30600 27.75200
C  0.17100 6.03200 22.94700
C  0.68500 10.78300 23.65700
N  0.99100 7.69600 27.87800
C  1.08100 8.70600 28.77200
C  1.14700 8.20400 30.19600
C  1.09000 6.62200 30.01300
C  0.74700 6.53400 28.42700
C  2.47900 5.84600 30.22700
C  0.04300 8.80500 31.03800
C  0.45400 8.97700 32.49800
H  1.60300 8.12000 33.11800
N  0.41100 5.99000 25.43700
C  0.36900 5.00600 26.38200
C  0.21800 3.71600 25.72900
C  0.08600 3.87300 24.36500
C  0.17500 5.33100 24.18000
C  0.14800 2.41500 26.56700
C  -0.13400 2.92400 23.21800
O  -0.16900 3.17800 21.97900
C  -0.16400 1.42900 23.56900
N  0.43800 8.31400 23.62000
C  0.26700 7.39900 22.65100
C  -0.05800 7.96400 21.30100
C  0.05400 9.44800 21.51700
C  0.52200 9.50400 23.04100
C  0.98000 7.52800 20.22800
C  -1.33500 10.20500 21.28700
C  -1.27400 11.13800 20.16300
N  0.88000 10.05200 25.93500
C  0.91700 11.03100 24.99600
C  1.23300 12.32500 25.59900
C  1.42800 11.96200 26.92400
C  1.13900 10.60000 27.04100
C  1.31100 13.65800 24.89800
C  1.88600 12.39900 28.19400
O  2.36600 13.45300 28.56700
C  1.60000 11.20900 29.17300
C  2.85300 11.08600 29.91700
O  3.94100 10.56400 29.51300
O  2.65200 11.54600 31.16400
C  3.90900 11.82800 31.92100
H  0.48100 4.45500 28.43600
H  -0.06900 5.36100 22.11900
H  0.89600 11.61600 22.98200
H  2.13400 8.51300 30.54000
H  0.29800 6.21400 30.64100
H  2.81200 5.40300 29.28800
H  2.57600 5.01800 30.92900
H  3.25400 6.56900 30.48200
H  -0.76300 8.07300 31.01200
H  -0.16100 9.78700 30.61000
H  -0.40200 8.72800 33.12600
H  0.62300 10.05300 32.54500
H  -0.90300 2.15100 26.44500
H  0.42300 2.53400 27.61500
H  0.80500 1.67200 26.11600
H  -0.87000 1.13900 24.34700
H  0.85500 1.10800 23.78700
H  -0.45900 0.79900 22.72900
H  -1.09900 7.67400 21.15800
H  0.89500 9.85700 20.95700
H  1.57700 6.69800 20.60500
H  1.72300 8.29000 19.99200
H  0.52800 7.21500 19.28700
H  -1.50400 10.70300 22.24200
H  -2.15300 9.49600 21.16400
H  -0.39000 11.02400 19.53600
H  -1.35500 12.11900 20.63100
H  -2.14600 11.03500 19.51700
H  1.63400 14.42500 25.60200
H  0.31400 13.88600 24.51800
H  2.10200 13.54300 24.15700
H  0.78800 11.51000 29.83400
H  4.53500 12.50600 31.34100
H  4.37200 10.85400 32.07800
H  3.60700 12.30700 32.85300
Mg -6.75400 26.00000 25.71000
C  -4.88200 27.47000 28.38900
C  -7.94000 23.72200 28.01600
C  -8.18500 24.55300 23.27800
C  -5.18800 28.38600 23.58300
N  -6.41200 25.66100 27.92400
C  -5.68900 26.41500 28.83400
C  -5.87100 26.11700 30.31600
C  -6.77100 24.79900 30.14200
C  -7.04300 24.64400 28.59600
C  -6.28800 23.51100 30.81200
C  -6.66900 27.31600 30.93600
C  -6.58300 27.47500 32.47800
H  -6.08000 26.35000 33.35800
N  -7.90100 24.37700 25.63900
C  -8.38300 23.56500 26.66900
C  -9.36000 22.66300 26.20000
C  -9.56600 22.91200 24.73900
C  -8.44800 23.98400 24.48900
C  -10.13700 21.75500 27.10300
C  -10.60800 22.55000 23.80200
O  -10.65500 22.88100 22.65400
C  -11.70900 21.69800 24.26600
N  -6.68800 26.36200 23.74000
C  -7.43200 25.62100 22.87400
C  -7.41200 26.16500 21.41600
C  -6.40000 27.37700 21.53300
C  -6.03700 27.44800 23.05300
C  -6.99600 25.08500 20.38500
C  -6.81500 28.77000 20.93900
C  -6.29100 29.33000 19.53700
N  -5.29100 27.67700 25.90400
C  -4.85900 28.57800 24.95000
C  -3.91900 29.48200 25.56000
C  -3.86800 29.10100 26.95600
C  -4.73600 27.96900 27.08300
C  -2.98100 30.43700 24.87600
C  -3.27100 29.36000 28.22300
O  -2.43600 30.20800 28.61000
C  -3.94800 28.37500 29.20000
C  -2.80600 27.58700 29.84300
O  -1.86900 27.20000 29.25400
O  -3.00800 27.47400 31.16500
C  -2.18700 26.38700 31.72300
H  -8.48800 23.18300 28.79100
H  -8.83200 24.28900 22.43900
H  -4.50800 28.81800 22.84500
H  -4.91200 25.89400 30.78500
H  -7.73700 24.97900 30.61400
H  -6.37700 22.67600 30.11700
H  -6.92500 23.38300 31.68700
H  -5.23500 23.45500 31.08600
H  -7.72300 27.16400 30.70400
H  -6.44000 28.24600 30.41700
H  -7.61700 27.65900 32.77000
H  -5.88500 28.31200 32.51700
H  -10.25100 20.77400 26.64300
H  -11.12300 22.17500 27.30200
H  -9.63200 21.55000 28.04700
H  -12.02600 22.13400 25.21300
H  -11.26500 20.70300 24.30200
H  -12.41100 21.74400 23.43300
H  -8.35400 26.60400 21.08500
H  -5.51100 27.03900 21.00100
H  -7.70400 25.08500 19.55600
H  -6.79900 24.13400 20.87900
H  -6.03800 25.38700 19.96300
H  -6.70700 29.59100 21.64800
H  -7.90400 28.77300 20.90100
H  -7.04300 29.07500 18.79000
H  -5.39500 28.77500 19.25500
H  -6.12600 30.40700 19.52900
H  -2.97300 31.40600 25.37600
H  -3.33700 30.73400 23.88900
H  -1.95900 30.07100 24.77800
H  -4.42000 28.96300 29.98700
H  -2.53900 25.46900 31.25200
H  -2.42100 26.34700 32.78700
H  -1.11800 26.59400 31.66600

