158

Mg 53.60100 24.41200 45.05700
C  51.08400 26.67700 44.28400
C  51.60100 21.85700 43.86800
C  56.30500 22.35800 45.20800
C  55.54300 27.01400 46.19400
N  51.60500 24.27600 44.10400
C  50.73600 25.36600 43.88700
C  49.47000 24.85500 43.26700
C  49.47300 23.32300 43.36800
C  50.95600 23.10100 43.82100
C  48.51900 22.78100 44.52100
C  49.22800 25.30400 41.82200
C  50.59200 25.42500 40.91600
H  51.45500 24.17800 40.60600
N  53.89400 22.32700 44.64600
C  52.93500 21.49000 44.28000
C  53.50600 20.18000 44.25500
C  54.84100 20.31500 44.72400
C  55.08600 21.70700 44.88500
C  52.73700 18.98300 43.81600
C  55.83400 19.11400 44.96400
O  55.49900 17.95500 44.83000
C  57.29300 19.43800 45.42400
N  55.72100 24.71500 45.45200
C  56.63100 23.68500 45.44900
C  58.02500 24.19700 45.73100
C  57.79300 25.72500 45.95700
C  56.24500 25.82000 45.88400
C  58.76800 23.37500 46.82000
C  58.37900 26.69200 44.90200
C  59.53200 27.50900 45.42000
N  53.41800 26.41200 45.27900
C  54.20500 27.32800 45.86400
C  53.53000 28.60200 45.99000
C  52.29400 28.41900 45.39100
C  52.29900 27.04000 44.94400
C  53.96400 29.94600 46.64800
C  51.03700 29.07300 45.04000
O  50.60800 30.18300 45.12300
C  50.27800 27.96500 44.25000
C  50.06700 28.47200 42.85700
O  50.92000 28.47200 42.01100
O  48.76700 28.84000 42.67200
C  48.27000 29.07200 41.30800
H  51.03300 20.93900 43.70200
H  57.21600 21.75900 45.14800
H  56.19500 27.77700 46.62300
H  48.81500 25.43800 43.91500
H  49.26300 22.88200 42.39400
H  48.80700 21.75600 44.75700
H  47.47400 22.71600 44.22000
H  48.64300 23.46900 45.35700
H  48.75300 26.28200 41.75000
H  48.58900 24.55600 41.35100
H  51.34500 26.17100 41.17300
H  50.22500 25.73200 39.93600
H  52.04500 19.34800 43.05700
H  52.21200 18.52600 44.65400
H  53.23400 18.20400 43.23800
H  57.74300 18.45500 45.56600
H  57.27900 20.03800 46.33400
H  57.85200 19.97000 44.65400
H  58.54300 24.00100 44.79200
H  58.12000 25.95500 46.97100
H  58.95500 23.98500 47.70400
H  59.62900 22.83600 46.42300
H  58.19800 22.50400 47.14300
H  57.64100 27.32100 44.40400
H  58.88200 26.16900 44.08800
H  59.34400 27.52100 46.49400
H  59.58100 28.50400 44.97800
H  60.45300 26.96900 45.20000
H  53.71800 30.72700 45.92800
H  54.96300 29.94800 47.08400
H  53.22800 30.09100 47.43900
H  49.36400 27.64800 44.75200
H  49.06300 29.53300 40.71800
H  47.46100 29.76800 41.53100
H  47.83500 28.17600 40.86700
Mg -11.97400 16.21700 42.20900
C  -8.97300 14.66700 41.65600
C  -10.75200 19.08400 40.72500
C  -15.18600 17.36700 41.76000
C  -13.32500 13.19300 43.20500
N  -10.12800 16.77500 41.17300
C  -9.00400 15.98400 41.10500
C  -7.82700 16.67100 40.32500
C  -8.36800 18.13000 40.25900
C  -9.83600 17.99000 40.74700
C  -7.63100 19.22900 41.15200
C  -7.60900 15.92300 38.97200
C  -6.15400 15.73800 38.66800
H  -5.60300 16.36600 37.35200
N  -12.79900 18.03100 41.56900
C  -12.04200 19.08500 41.11100
C  -12.87100 20.22400 40.98800
C  -14.26500 19.83700 41.19400
C  -14.16700 18.35300 41.54000
C  -12.34200 21.61600 40.76000
C  -15.50400 20.68300 41.12400
O  -15.42400 21.86300 40.91100
C  -16.86200 20.08700 41.28400
N  -13.92500 15.33300 42.19900
C  -15.08300 16.00700 42.07000
C  -16.35000 15.19400 42.44200
C  -15.78600 13.96100 43.12100
C  -14.25000 14.14900 42.85400
C  -17.44900 15.92600 43.28900
C  -16.50900 12.64700 42.69200
C  -17.29500 11.79700 43.73200
N  -11.27800 14.26300 42.49000
C  -11.92500 13.12700 42.88100
C  -10.92700 12.11700 43.10400
C  -9.76400 12.65600 42.61400
C  -10.01100 13.97300 42.23400
C  -11.05600 10.75200 43.76200
C  -8.41600 12.34800 42.30400
O  -7.82800 11.28200 42.34900
C  -7.84900 13.61500 41.66600
C  -6.77800 14.15400 42.44200
O  -6.85600 14.45500 43.62700
O  -5.65100 14.33300 41.73500
C  -4.53700 14.98900 42.48600
H  -10.25900 19.96500 40.30900
H  -16.19200 17.75000 41.94400
H  -13.76900 12.37500 43.77800
H  -7.01500 16.71500 41.05100
H  -8.37900 18.36000 39.19300
H  -8.37300 19.66500 41.82100
H  -7.10700 19.89200 40.46300
H  -6.91200 18.83400 41.87000
H  -8.07000 16.44300 38.13200
H  -8.09500 14.95200 39.07500
H  -5.85800 14.68900 38.66900
H  -5.48900 16.06200 39.47000
H  -13.18000 22.27800 40.54000
H  -11.62400 21.61500 39.94000
H  -11.94900 22.11700 41.64500
H  -17.63800 20.71000 40.84000
H  -16.92200 19.93500 42.36200
H  -16.98300 19.18800 40.68000
H  -16.79400 15.00300 41.46500
H  -15.86600 14.11300 44.19700
H  -18.15800 16.36300 42.58700
H  -16.96400 16.63900 43.95700
H  -17.96700 15.20700 43.92400
H  -15.86100 11.94100 42.17400
H  -17.23400 12.91400 41.92400
H  -17.56300 12.36900 44.62100
H  -16.70600 10.97700 44.14300
H  -18.25900 11.40000 43.41400
H  -11.39100 10.00800 43.04000
H  -11.86800 10.73500 44.48900
H  -10.12800 10.41700 44.22500
H  -7.48500 13.27900 40.69500
H  -4.49300 14.68700 43.53300
H  -4.80100 16.04600 42.46500
H  -3.61700 14.68400 41.98600

