158

Mg 35.99900 2.30900 30.50300
C  33.43900 3.03000 32.53600
C  38.10500 2.37500 33.10300
C  38.58400 2.02000 28.23300
C  33.79900 2.52800 27.69100
N  35.75500 2.79700 32.60200
C  34.59800 2.99300 33.31400
C  34.86500 3.09300 34.81600
C  36.40800 3.24600 34.84900
C  36.78400 2.78400 33.43700
C  36.93800 4.67900 35.17900
C  34.38500 1.85500 35.59400
C  34.06500 2.08500 37.10800
H  34.55000 3.37700 37.83300
N  38.04900 2.15000 30.63500
C  38.72600 2.12800 31.83300
C  40.13400 1.92600 31.58900
C  40.27300 1.59100 30.15700
C  38.94100 1.97100 29.58800
C  41.09700 1.86600 32.72000
C  41.47300 1.03600 29.44800
O  41.43000 0.90100 28.22300
C  42.72500 0.47200 30.17700
N  36.13700 2.22400 28.24500
C  37.37100 2.19200 27.62300
C  37.21400 1.94900 26.11200
C  35.61500 1.75500 25.95300
C  35.14000 2.18100 27.35600
C  37.88700 2.99100 25.10300
C  34.99600 0.32300 25.43200
C  34.21900 0.32900 24.13700
N  34.07500 2.76000 30.11800
C  33.26300 2.67300 28.96200
C  31.91800 3.06700 29.35100
C  31.98100 3.13100 30.72900
C  33.26700 2.91300 31.18100
C  30.72500 3.25700 28.43400
C  31.09800 3.30300 31.84700
O  29.89800 3.42300 31.92400
C  32.00400 3.18600 33.07800
C  31.71300 4.31400 33.95100
O  32.01000 5.49500 33.86500
O  31.15000 3.74900 35.07600
C  30.91000 4.87300 36.06000
H  38.83200 2.14700 33.88500
H  39.47700 2.07500 27.60800
H  33.05000 2.54600 26.89600
H  34.33100 3.97600 35.16800
H  36.91000 2.56700 35.53900
H  37.52900 5.09800 34.36500
H  37.38500 4.74000 36.17100
H  36.12500 5.39500 35.29800
H  35.06500 1.02200 35.41900
H  33.55800 1.47500 34.99500
H  34.41800 1.19100 37.62200
H  32.98300 2.06400 37.24300
H  41.90400 2.59100 32.61000
H  41.60300 0.90100 32.74900
H  40.71300 2.16900 33.69400
H  43.39700 -0.10500 29.54200
H  42.38500 -0.10400 31.03700
H  43.37500 1.22900 30.61800
H  37.64300 0.96500 25.92400
H  35.23000 2.54200 25.30400
H  38.55200 2.38800 24.48500
H  38.44800 3.71000 25.70000
H  37.06300 3.45400 24.56100
H  34.35900 -0.11500 26.20100
H  35.88500 -0.26900 25.21700
H  33.18300 0.07700 24.36100
H  34.57400 -0.42900 23.43700
H  34.26700 1.22800 23.52300
H  30.26100 2.40000 27.94600
H  31.08900 3.79900 27.56100
H  29.93300 3.80400 28.94500
H  31.70500 2.30400 33.64500
H  30.36000 5.70000 35.60900
H  31.82300 5.25800 36.51600
H  30.18800 4.54900 36.80900
Mg 16.33600 52.87100 26.84800
C  18.23700 51.57200 29.54900
C  13.94800 53.96000 29.29100
C  14.68800 54.39800 24.42200
C  18.46600 51.18300 24.64800
N  16.16400 52.79200 29.13200
C  17.16100 52.33500 30.03600
C  16.75200 52.66100 31.47400
C  15.24800 53.18600 31.32800
C  15.12100 53.32000 29.80400
C  14.11000 52.32400 31.90000
C  17.70800 53.66300 32.11200
C  17.65800 53.69700 33.61300
H  16.48400 53.04000 34.29900
N  14.56500 54.04100 26.82800
C  13.70900 54.29200 27.88200
C  12.47900 54.99300 27.41700
C  12.64200 55.02000 26.03300
C  14.01200 54.49000 25.70300
C  11.36200 55.52100 28.29100
C  11.80500 55.64000 24.97800
O  12.12700 55.69300 23.80000
C  10.34700 56.23100 25.30700
N  16.61300 52.83600 24.89200
C  15.91400 53.67000 24.07300
C  16.31900 53.37400 22.60800
C  17.66100 52.66500 22.71000
C  17.53300 52.14200 24.17100
C  15.27300 52.48200 21.92000
C  18.93100 53.68000 22.67500
C  20.23700 53.02300 22.20700
N  17.93200 51.53300 26.99100
C  18.70000 50.89000 26.01700
C  19.74400 50.08600 26.70300
C  19.67000 50.41700 28.06900
C  18.50400 51.19300 28.20600
C  20.72000 49.22100 25.89900
C  20.18900 50.16000 29.37200
O  21.17700 49.53600 29.75600
C  19.33300 50.95300 30.38000
C  18.65400 50.06700 31.32300
O  17.81800 49.17300 31.08800
O  19.06500 50.40600 32.54100
C  18.56100 49.63900 33.67300
H  13.29400 54.27900 30.10500
H  14.15000 54.87000 23.59700
H  19.28400 50.78600 24.04300
H  16.80200 51.74000 32.05500
H  15.23000 54.12800 31.87600
H  13.58900 52.85400 32.69800
H  14.52600 51.37700 32.24500
H  13.41000 52.08800 31.09800
H  17.39600 54.64300 31.75000
H  18.71700 53.30500 31.90800
H  17.52400 54.77100 33.74100
H  18.62400 53.46200 34.06100
H  10.52700 54.88000 28.00800
H  11.13000 56.54600 28.00200
H  11.48600 55.49000 29.37400
H  9.78300 55.84300 24.45900
H  10.42400 57.31700 25.36700
H  10.14400 55.62500 26.19000
H  16.43400 54.34500 22.12700
H  17.81300 51.76700 22.11200
H  15.79400 51.81500 21.23300
H  14.62600 53.20300 21.42000
H  14.72200 51.91600 22.67100
H  19.08300 54.22200 23.60800
H  18.74600 54.42200 21.89700
H  20.46600 53.54000 21.27500
H  20.09600 51.97300 21.95100
H  21.01400 53.29600 22.92200
H  21.53000 49.82300 25.48900
H  20.14200 48.79400 25.07900
H  21.09400 48.40500 26.51800
H  19.79000 51.78800 30.91000
H  17.48800 49.49300 33.54600
H  18.76200 50.14600 34.61700
H  18.97100 48.63700 33.79600

