158

Mg -1.12000 17.86500 27.16500
C  -1.82500 15.79500 29.99100
C  -1.99500 20.59900 29.12100
C  -0.71500 19.83100 24.53100
C  -1.11700 14.90700 25.18000
N  -1.87200 18.11300 29.27900
C  -1.81000 17.17300 30.29400
C  -2.02500 17.81800 31.60700
C  -2.28000 19.30300 31.25000
C  -2.08400 19.34200 29.78300
C  -3.64500 19.89600 31.59200
C  -0.80400 17.62600 32.53500
C  -1.18300 17.18400 33.90100
H  -0.14000 17.02900 34.98600
N  -1.14300 19.94500 26.87900
C  -1.46400 20.94200 27.82700
C  -1.23600 22.23700 27.25200
C  -0.79200 21.94400 25.90100
C  -0.84400 20.54000 25.72000
C  -1.55500 23.51100 28.01800
C  -0.40900 22.97900 24.79900
O  -0.04000 22.66200 23.72200
C  -0.76700 24.48200 25.07900
N  -0.97200 17.43900 25.19700
C  -0.77100 18.44800 24.30000
C  -0.75300 17.79800 22.90900
C  -0.66800 16.26200 23.11200
C  -0.88900 16.22200 24.64100
C  -1.89000 18.28900 22.01700
C  0.80900 15.84300 22.70400
C  1.95000 16.40500 23.58300
N  -1.32900 15.74400 27.47600
C  -1.33700 14.68800 26.58500
C  -1.65500 13.45100 27.28600
C  -1.77400 13.83000 28.62400
C  -1.60600 15.21900 28.67200
C  -1.96200 12.13700 26.84300
C  -1.95300 13.34700 29.97800
O  -2.04000 12.23200 30.42500
C  -1.87000 14.60400 30.93100
C  -0.65000 14.36100 31.77000
O  0.52000 14.52400 31.37300
O  -0.98100 13.90200 32.98900
C  0.17400 13.30600 33.71300
H  -2.21000 21.45100 29.77000
H  -0.69300 20.42200 23.61300
H  -1.03300 14.06200 24.49400
H  -2.80700 17.27400 32.13800
H  -1.55200 19.96600 31.71700
H  -4.33900 19.19700 32.05900
H  -4.18200 20.23100 30.70400
H  -3.58300 20.85700 32.10300
H  -0.35800 18.61200 32.66000
H  0.05000 17.10000 32.10700
H  -1.70700 16.23100 33.83600
H  -1.81000 17.94500 34.36600
H  -0.65000 24.11700 28.03600
H  -1.71800 23.30400 29.07600
H  -2.37600 23.98800 27.48200
H  -1.83800 24.65200 25.18700
H  -0.42300 24.95200 24.15800
H  -0.24200 24.76400 25.99200
H  0.13900 18.29600 22.52900
H  -1.31300 15.60000 22.53500
H  -2.43700 18.84200 22.78000
H  -2.67600 17.58600 21.74100
H  -1.52400 18.96100 21.24000
H  1.04000 16.11500 21.67400
H  0.87100 14.75500 22.71900
H  1.54500 17.01900 24.38800
H  2.69700 17.01900 23.08100
H  2.50200 15.54600 23.96300
H  -2.21100 12.15900 25.78200
H  -2.81700 11.68200 27.34100
H  -1.10300 11.49800 27.04600
H  -2.79200 14.63800 31.51200
H  -0.24300 13.14400 34.70700
H  1.11900 13.83500 33.58800
H  0.21800 12.32400 33.24300
Mg -0.00500 44.22900 25.54700
C  2.18800 44.45400 28.14700
C  -2.49600 43.71500 27.89500
C  -2.18200 43.34500 23.05900
C  2.52700 44.50400 23.23700
N  -0.06400 43.90800 27.84300
C  0.92000 44.18200 28.66600
C  0.42900 44.05400 30.10600
C  -1.06800 43.73400 29.96800
C  -1.23200 43.77800 28.50500
C  -1.64300 42.46200 30.69200
C  0.92300 45.15900 31.12900
C  0.31000 45.22800 32.48100
H  0.23000 43.94800 33.30000
N  -2.06600 43.73500 25.49100
C  -2.91500 43.63100 26.57000
C  -4.33200 43.53700 26.15100
C  -4.23200 43.32200 24.72400
C  -2.80200 43.50300 24.35700
C  -5.59700 43.53600 26.96300
C  -5.28900 42.96400 23.59200
O  -5.02600 42.75700 22.39600
C  -6.71700 42.74700 23.97400
N  0.13000 43.89100 23.45300
C  -0.84700 43.52900 22.66000
C  -0.38800 43.43500 21.17200
C  1.09200 44.06900 21.22400
C  1.29100 44.12000 22.75800
C  -0.49400 41.99600 20.59400
C  1.22200 45.51400 20.51100
C  1.41700 46.78700 21.37900
N  1.96500 44.43700 25.57300
C  2.90900 44.54200 24.58300
C  4.28700 44.58100 25.19400
C  4.03400 44.55500 26.52600
C  2.63300 44.53700 26.75900
C  5.49900 44.87300 24.48100
C  4.65600 44.54600 27.82300
O  5.81600 44.69900 28.20100
C  3.45500 44.45800 28.95400
C  3.71000 43.25500 29.85100
O  3.56500 42.05100 29.55700
O  4.07200 43.68800 31.11400
C  4.40400 42.64700 32.07900
H  -3.34900 43.64700 28.57400
H  -2.82200 43.15900 22.19500
H  3.36300 44.66000 22.55200
H  0.92800 43.13700 30.42000
H  -1.53700 44.69100 30.19700
H  -2.29800 42.73600 31.52000
H  -0.84800 41.86000 31.13200
H  -2.14600 41.81200 29.97500
H  0.85600 46.07000 30.53500
H  1.99000 45.07900 31.33800
H  -0.59500 45.83600 32.45600
H  1.06300 45.85500 32.95900
H  -5.43700 43.87700 27.98600
H  -5.95700 42.50800 26.91300
H  -6.27600 44.20900 26.44000
H  -7.28600 42.19900 23.22400
H  -7.01500 43.78800 24.09300
H  -6.80400 42.16500 24.89200
H  -1.04200 44.17300 20.70700
H  1.80700 43.38000 20.77400
H  -1.35900 41.99900 19.93000
H  -0.68100 41.24000 21.35500
H  0.38800 41.68300 20.03400
H  0.46500 45.65400 19.73900
H  2.10400 45.38800 19.88200
H  1.31700 46.83000 22.46400
H  0.78800 47.59700 21.00900
H  2.43300 47.13100 21.18900
H  5.46400 44.98400 23.39700
H  6.19800 44.03700 24.51700
H  5.84700 45.77000 24.99300
H  3.64000 45.36700 29.52600
H  4.88800 43.25400 32.84300
H  5.21300 42.02300 31.69600
H  3.53300 42.09600 32.43300

