158

Mg 46.81200 24.49500 28.33700
C  47.74700 26.88500 30.83900
C  45.86000 22.38700 30.85900
C  46.22900 22.25800 26.07600
C  48.21600 26.69800 26.00400
N  46.79700 24.68300 30.54000
C  47.18900 25.70700 31.36400
C  46.91100 25.34100 32.88800
C  46.46400 23.85100 32.89900
C  46.40800 23.56800 31.33300
C  47.36800 22.79900 33.63900
C  45.82400 26.24700 33.67100
C  46.12700 26.67000 35.16400
H  44.97800 26.86700 36.13400
N  46.25200 22.55000 28.43300
C  45.79300 21.89600 29.52200
C  45.45700 20.52900 29.12400
C  45.38500 20.43700 27.75100
C  45.95500 21.73900 27.34900
C  45.09800 19.42300 30.13200
C  44.99600 19.33300 26.78700
O  45.07800 19.38900 25.59100
C  44.39600 18.12400 27.35700
N  47.29900 24.46500 26.36900
C  46.78700 23.46200 25.59200
C  47.03200 23.66300 24.09200
C  47.50500 25.17400 24.11200
C  47.59800 25.55100 25.59400
C  48.11400 22.75000 23.43300
C  46.58600 26.16800 23.34700
C  47.13700 26.94700 22.15500
N  47.70800 26.43700 28.39500
C  48.23400 27.20300 27.31900
C  48.58200 28.52700 27.82700
C  48.55000 28.39400 29.21900
C  47.93500 27.14100 29.50900
C  49.09900 29.72300 26.99200
C  48.74100 29.11500 30.45000
O  49.19500 30.22200 30.72000
C  48.20900 28.10400 31.53600
C  49.33000 27.84100 32.46700
O  50.33600 27.12500 32.34900
O  49.02100 28.53500 33.66000
C  49.97600 28.42800 34.76400
H  45.37300 21.83800 31.66700
H  46.15400 21.56400 25.23700
H  48.55800 27.26100 25.13300
H  47.83300 25.48000 33.45300
H  45.43000 23.66800 33.19100
H  47.31800 21.85700 33.09200
H  46.88700 22.61600 34.59900
H  48.41100 23.06900 33.80600
H  44.91400 25.64900 33.62400
H  45.62000 27.14600 33.08900
H  46.72200 27.58200 35.21000
H  46.77200 25.89900 35.58500
H  44.02600 19.27500 30.00800
H  45.24000 19.80600 31.14300
H  45.57300 18.45000 30.00300
H  45.08000 17.52700 27.95900
H  44.05700 17.46100 26.56000
H  43.50600 18.39300 27.92600
H  46.05100 23.57300 23.62400
H  48.51300 25.33700 23.72900
H  47.79800 22.60000 22.40100
H  48.10800 21.86700 24.07100
H  49.06300 23.28300 23.37500
H  46.22000 26.80800 24.14900
H  45.64700 25.70600 23.04000
H  46.69900 26.56200 21.23400
H  48.21100 26.77400 22.09900
H  47.02600 27.99000 22.45000
H  49.98500 30.08500 27.51300
H  48.36800 30.53100 27.02100
H  49.42500 29.43700 25.99200
H  47.35000 28.47100 32.09900
H  50.28100 29.42000 35.09600
H  50.92000 28.05800 34.36400
H  49.45100 27.82700 35.50600
Mg 7.42200 54.57800 41.45700
C  6.69400 51.22700 41.18400
C  10.59900 53.98200 40.35600
C  7.78000 57.99000 41.05600
C  4.04300 55.21800 42.00600
N  8.53800 52.75200 40.97100
C  8.01400 51.46100 40.81500
C  9.06200 50.45900 40.29400
C  10.35100 51.32200 40.38900
C  9.78200 52.76200 40.61600
C  11.45000 50.78100 41.33500
C  8.79200 49.89200 38.88400
C  8.35400 50.87600 37.75200
H  9.04600 50.76400 36.41200
N  8.97000 55.76200 40.69300
C  10.22000 55.31000 40.41900
C  11.07600 56.47300 40.28700
C  10.21200 57.61700 40.36000
C  8.95100 57.16900 40.78200
C  12.54800 56.38800 39.91900
C  10.67900 59.01800 40.12500
O  11.85400 59.21000 39.93100
C  9.71800 60.13300 40.07100
N  6.07100 56.27500 41.31000
C  6.47200 57.57200 41.32800
C  5.38100 58.62200 41.47300
C  4.15500 57.69300 41.70500
C  4.79300 56.30500 41.68500
C  5.74100 59.67800 42.57600
C  2.99600 57.95600 40.66500
C  3.26100 57.62900 39.14400
N  5.75900 53.52900 41.77900
C  4.44400 53.87200 42.05700
C  3.65000 52.71200 42.40000
C  4.56800 51.65800 42.07800
C  5.75200 52.21500 41.62400
C  2.16900 52.46200 42.77300
C  4.66200 50.19700 42.07400
O  3.88600 49.37600 42.53500
C  6.07900 49.88300 41.41200
C  5.84800 49.01600 40.20800
O  5.62200 49.46200 39.11600
O  5.72700 47.66300 40.52400
C  5.17400 46.86400 39.41300
H  11.62800 53.67800 40.15600
H  7.81000 59.07100 41.21000
H  2.97100 55.38100 42.13900
H  9.17400 49.67800 41.04700
H  10.83100 51.36900 39.41100
H  11.24300 49.73200 41.55000
H  11.42500 51.29600 42.29500
H  12.39400 50.95700 40.81900
H  8.00900 49.13500 38.92600
H  9.70700 49.32900 38.69800
H  8.34100 51.89500 38.13800
H  7.32700 50.55900 37.57500
H  12.85500 55.55900 39.28200
H  13.23600 56.43500 40.76300
H  12.86000 57.29100 39.39500
H  10.09000 60.97200 39.48300
H  9.30600 60.41600 41.03900
H  8.79600 59.84100 39.56800
H  5.26200 59.06900 40.48600
H  3.78200 57.78500 42.72500
H  6.68900 59.57200 43.10500
H  4.98200 59.57800 43.35200
H  5.68000 60.63000 42.04900
H  2.74300 59.01500 40.71400
H  2.14600 57.35600 40.99100
H  3.87000 56.79900 38.78800
H  3.27300 58.51600 38.51000
H  2.26400 57.28100 38.87700
H  1.58700 52.40200 41.85300
H  1.69400 53.26700 43.33400
H  1.92500 51.52400 43.27300
H  6.73800 49.43600 42.15500
H  5.63100 47.05600 38.44200
H  4.10800 47.04600 39.27200
H  5.26600 45.78200 39.51300

