158

Mg 2.76000 -1.09800 44.19200
C  6.07600 -0.63700 43.45600
C  1.98100 1.39800 41.88400
C  -0.52500 -2.01400 44.54000
C  3.64600 -4.23100 45.71000
N  3.89300 0.10200 42.75200
C  5.24000 0.26600 42.79600
C  5.70600 1.54800 42.05600
C  4.38300 2.07200 41.41100
C  3.32200 1.15100 42.09000
C  4.16600 3.52800 41.75800
C  6.77900 1.30600 40.84500
C  7.67200 2.56600 40.52200
H  7.37800 3.39200 39.23900
N  0.99500 -0.17500 43.49000
C  0.88800 0.69600 42.53000
C  -0.59300 0.89500 42.26400
C  -1.28600 0.11200 43.10000
C  -0.31400 -0.75600 43.76500
C  -1.05900 1.87200 41.19800
C  -2.80600 -0.05100 43.19600
O  -3.60400 0.58800 42.50600
C  -3.50200 -1.06400 43.96600
N  1.70800 -2.84000 45.03700
C  0.34400 -2.93200 45.11000
C  -0.14200 -4.24300 45.66300
C  1.20300 -5.11800 45.84400
C  2.30000 -4.04200 45.49200
C  -0.95100 -4.01800 46.93100
C  1.35600 -6.37500 44.90700
C  2.33400 -7.50600 45.27800
N  4.44400 -2.20700 44.58900
C  4.65800 -3.37200 45.22800
C  6.08500 -3.60800 45.40300
C  6.69600 -2.53800 44.81000
C  5.64900 -1.74500 44.22900
C  6.81700 -4.75800 46.08500
C  7.94600 -1.83100 44.54800
O  9.06100 -2.13100 44.87700
C  7.59200 -0.58900 43.67000
C  7.97100 0.57600 44.41000
O  7.56100 0.69800 45.54300
O  8.68700 1.47500 43.67800
C  9.08700 2.75100 44.40900
H  1.71800 2.16700 41.15500
H  -1.55500 -2.37400 44.51100
H  3.82400 -5.19000 46.20000
H  6.19300 2.31400 42.66000
H  4.45600 1.95000 40.33000
H  4.99000 4.12200 41.36200
H  4.10400 3.63300 42.84100
H  3.23100 3.82600 41.28300
H  6.26100 0.92500 39.96500
H  7.48100 0.52500 41.13600
H  8.66200 2.11200 40.48200
H  7.75300 3.25300 41.36500
H  -0.50600 1.58500 40.30400
H  -0.88000 2.88100 41.57000
H  -2.11100 1.85000 40.91400
H  -4.52000 -0.76300 44.21300
H  -3.16400 -1.10600 45.00100
H  -3.43000 -2.07700 43.57100
H  -0.74000 -4.67700 44.86100
H  1.34500 -5.44200 46.87600
H  -2.01800 -4.15300 46.75800
H  -0.82900 -2.95700 47.14900
H  -0.70900 -4.73900 47.71200
H  1.79400 -5.98800 43.98700
H  0.34100 -6.71300 44.69900
H  1.77000 -8.42300 45.11100
H  2.42800 -7.53100 46.36400
H  3.33800 -7.46800 44.85500
H  6.21500 -5.29600 46.81800
H  7.50200 -4.16300 46.68900
H  7.31200 -5.47600 45.43200
H  7.99100 -0.67700 42.65900
H  9.03000 3.57700 43.70000
H  10.13500 2.68200 44.70000
H  8.32200 2.99800 45.14500
Mg 6.67800 53.74900 41.14600
C  6.58200 50.12300 41.37000
C  10.18000 53.36100 40.59000
C  6.83200 57.03100 40.38800
C  3.38600 53.82700 41.59000
N  8.19900 51.98900 40.90200
C  7.92100 50.64700 41.15700
C  9.22400 49.82100 40.82100
C  10.33800 50.86200 41.09900
C  9.54500 52.21700 40.85100
C  11.09400 50.88700 42.52300
C  9.34900 49.21200 39.41100
C  8.85500 50.09500 38.25900
H  7.54000 49.78600 37.58200
N  8.28900 55.03900 40.50000
C  9.65100 54.68600 40.48800
C  10.36300 55.84900 40.25000
C  9.45400 56.94000 39.91100
C  8.14200 56.38000 40.22600
C  11.94600 55.84200 40.03500
C  9.83000 58.40000 39.36700
O  10.98800 58.68300 39.28900
C  8.68000 59.40400 39.01900
N  5.36700 55.17300 40.81700
C  5.59900 56.49000 40.69700
C  4.35400 57.31800 40.85900
C  3.19500 56.32000 40.99000
C  4.02400 55.00800 41.18500
C  4.41500 58.23900 42.13900
C  2.29600 56.35500 39.71400
C  0.77600 56.39600 39.92500
N  5.16600 52.34900 41.38500
C  3.84400 52.51400 41.63700
C  3.21900 51.23100 42.01500
C  4.29400 50.28100 41.85900
C  5.41100 50.97900 41.46900
C  1.80200 51.04400 42.49400
C  4.54700 48.91900 41.99900
O  3.87100 47.99900 42.45100
C  6.05500 48.76300 41.67300
C  6.04500 47.87600 40.54900
O  5.66900 48.20500 39.44200
O  6.31200 46.61700 40.94000
C  6.22600 45.65400 39.85200
H  11.25400 53.16700 40.55800
H  6.94600 58.10000 40.19800
H  2.30900 54.00100 41.61800
H  9.16900 49.03000 41.56800
H  11.14300 50.78300 40.36900
H  10.70800 51.73900 43.08200
H  12.18200 50.82400 42.56700
H  10.75300 50.01500 43.08100
H  8.72100 48.32100 39.37300
H  10.41300 48.97900 39.37400
H  9.60800 49.98700 37.47800
H  8.77600 51.14600 38.53500
H  12.42200 55.07900 40.65100
H  12.36900 56.77500 40.40800
H  12.27100 55.77100 38.99700
H  8.21600 59.70100 39.96000
H  7.94800 58.98600 38.32800
H  9.16500 60.27100 38.57200
H  4.34200 57.94600 39.96900
H  2.66400 56.39500 41.93900
H  4.88700 59.19100 41.89500
H  5.04400 57.63600 42.79300
H  3.43100 58.30200 42.60400
H  2.53800 55.51200 39.06700
H  2.56700 57.27100 39.18800
H  0.23000 55.52200 39.57000
H  0.44200 57.29800 39.41200
H  0.51800 56.52000 40.97700
H  1.75500 50.10700 43.04900
H  1.04500 51.01300 41.71000
H  1.54500 51.84600 43.18700
H  6.57100 48.23800 42.47700
H  6.52300 44.62700 40.06800
H  6.73400 45.97700 38.94300
H  5.17800 45.67700 39.55400

