158

Mg 36.02000 0.69900 30.82400
C  33.49700 1.97800 32.80500
C  38.19100 0.81700 33.61900
C  38.58400 -0.17600 28.74800
C  33.84500 0.91800 28.08200
N  35.83900 1.49600 32.86300
C  34.71400 1.90100 33.49600
C  34.94600 1.96500 35.06400
C  36.52700 1.81400 35.16100
C  36.89400 1.32800 33.80400
C  37.16200 3.13400 35.45000
C  34.21800 0.79700 35.79800
C  33.76400 1.10400 37.20200
H  34.31400 2.33800 37.99700
N  38.09600 0.35500 31.13000
C  38.77000 0.33100 32.37200
C  40.10200 -0.16700 32.09000
C  40.26200 -0.49800 30.75100
C  38.96400 -0.12500 30.13700
C  41.11900 -0.26800 33.18800
C  41.44800 -1.07800 30.06400
O  41.35000 -1.28300 28.86900
C  42.66800 -1.58800 30.84800
N  36.19500 0.48000 28.77600
C  37.35800 0.12400 28.14400
C  37.06000 0.00400 26.59200
C  35.55400 0.18600 26.47600
C  35.12700 0.55600 27.86100
C  37.78400 1.03100 25.62000
C  34.85100 -1.17100 26.02400
C  33.82800 -1.11700 24.93000
N  34.04600 1.22200 30.50400
C  33.27600 1.24300 29.31500
C  31.93300 1.68200 29.59800
C  31.93300 1.96400 31.01200
C  33.28300 1.76000 31.47900
C  30.92600 1.85900 28.56800
C  31.15400 2.32200 32.20700
O  29.97200 2.50100 32.44400
C  32.17600 2.38500 33.45800
C  31.97400 3.67600 34.09800
O  32.46000 4.72400 33.66300
O  31.38700 3.49800 35.33400
C  31.16600 4.85400 35.90600
H  38.81500 0.82100 34.51600
H  39.37400 -0.35400 28.01600
H  33.16500 0.92000 27.22700
H  34.56800 2.92000 35.43000
H  36.88300 1.12700 35.92800
H  37.86500 3.00300 36.27200
H  36.42800 3.88300 35.75000
H  37.64000 3.48300 34.53500
H  34.94500 -0.00400 35.93000
H  33.34800 0.42100 35.25900
H  33.95600 0.20300 37.78400
H  32.68000 1.20600 37.25300
H  40.96700 0.46700 33.97900
H  42.03000 0.12400 32.73600
H  41.17600 -1.32900 33.43000
H  43.36500 -0.81300 31.16700
H  43.21900 -2.20200 30.13600
H  42.23900 -2.25900 31.59300
H  37.41300 -1.01200 26.41500
H  35.27800 0.93900 25.73800
H  37.14000 1.88800 25.42200
H  38.22600 0.55700 24.74400
H  38.65900 1.42700 26.13500
H  34.31200 -1.67700 26.82400
H  35.61900 -1.80600 25.58200
H  34.01800 -1.80200 24.10400
H  33.77700 -0.11300 24.51000
H  32.88300 -1.43200 25.37300
H  30.77600 0.85400 28.17300
H  31.33100 2.59200 27.87000
H  30.08500 2.31100 29.09400
H  31.75600 1.61800 34.10900
H  31.96100 5.11900 36.60200
H  30.29400 4.91500 36.55800
H  31.02300 5.68700 35.21800
Mg 29.97000 59.00800 39.88900
C  27.41600 56.95900 38.55600
C  32.20000 56.40300 38.78200
C  32.67200 61.22600 40.01400
C  27.74300 61.65400 40.22600
N  29.87600 56.85800 38.89400
C  28.69900 56.30400 38.37400
C  29.00900 54.97200 37.59600
C  30.52000 54.74700 38.00900
C  30.85800 56.08400 38.57200
C  30.81800 53.45300 38.86700
C  28.78400 55.16900 36.06200
C  28.12300 53.95600 35.35100
H  26.92400 54.24900 34.41400
N  32.14500 58.74300 39.69400
C  32.81600 57.58600 39.28300
C  34.23100 57.77800 39.39900
C  34.45700 59.19200 39.74200
C  33.06900 59.81400 39.81800
C  35.21700 56.65700 39.15700
C  35.71600 59.82800 39.96600
O  36.81800 59.25100 39.78000
C  35.78700 61.26400 40.36700
N  30.15900 61.14000 40.09400
C  31.39700 61.79900 40.21000
C  31.28900 63.30200 40.27400
C  29.70900 63.33700 40.62900
C  29.11900 61.98100 40.26900
C  32.22000 63.88300 41.37900
C  28.99700 64.59300 40.03600
C  28.42900 65.63000 41.00100
N  27.97000 59.21400 39.69200
C  27.18900 60.32800 39.84200
C  25.85300 59.99000 39.60500
C  25.84100 58.65400 39.11900
C  27.22600 58.26500 39.06500
C  24.68100 60.86300 39.64900
C  25.03700 57.49300 38.63100
O  23.81000 57.37700 38.53600
C  26.05200 56.33900 38.29700
C  25.65500 55.18400 39.21600
O  25.55200 55.18200 40.41200
O  25.42300 54.06400 38.46000
C  24.87700 52.93500 39.23900
H  32.86100 55.60300 38.44000
H  33.46700 61.96900 39.92900
H  27.08300 62.49600 40.44700
H  28.36800 54.15300 37.92100
H  31.22900 54.59700 37.19600
H  29.84700 52.96300 38.94800
H  31.20400 53.72500 39.84900
H  31.62900 52.81900 38.50900
H  29.70900 55.33600 35.51100
H  28.18300 56.05300 35.84700
H  27.83800 53.22700 36.11000
H  28.98400 53.57800 34.80000
H  34.99900 55.66000 39.53800
H  36.18900 56.90900 39.58100
H  35.34700 56.47000 38.09100
H  36.79900 61.55400 40.64800
H  35.04500 61.47600 41.13600
H  35.53000 61.94100 39.55200
H  31.57600 63.57700 39.25900
H  29.55600 63.47200 41.70000
H  32.71000 63.06100 41.90100
H  31.70900 64.48300 42.13200
H  32.97500 64.54100 40.94700
H  28.27500 64.22100 39.30900
H  29.62600 65.11700 39.31800
H  28.56100 66.57700 40.47700
H  29.05600 65.57500 41.89100
H  27.45000 65.23700 41.27500
H  24.90400 61.84900 40.05600
H  23.85300 60.41700 40.20000
H  24.37200 60.97000 38.60900
H  25.88000 56.11500 37.24400
H  24.56700 52.19200 38.50400
H  23.90200 53.22000 39.63400
H  25.61400 52.59600 39.96700

