158

Mg 29.88300 58.37800 39.99100
C  26.93500 56.52500 39.36600
C  31.65800 55.51200 39.07000
C  32.80200 60.19900 40.31600
C  28.04100 61.29800 40.36700
N  29.31400 56.28000 39.33300
C  28.06300 55.81600 39.05000
C  28.07500 54.33500 38.61700
C  29.61300 53.91400 38.61300
C  30.24500 55.30500 38.99600
C  30.01900 52.69000 39.43500
C  27.31400 54.16400 37.21800
C  27.38500 55.36500 36.10900
H  27.40400 54.97900 34.64400
N  31.96200 57.90900 39.82000
C  32.44400 56.65800 39.47900
C  33.87100 56.71500 39.55100
C  34.24100 58.07100 39.80400
C  32.99200 58.83500 40.04500
C  34.78500 55.50300 39.36100
C  35.62100 58.67700 39.85700
O  36.57700 57.90900 39.71100
C  35.89800 60.15800 40.19100
N  30.35000 60.51700 40.36300
C  31.61700 60.98100 40.51800
C  31.59000 62.51300 40.58300
C  30.11500 62.83500 40.82300
C  29.43900 61.46600 40.49300
C  32.55800 63.16300 41.65800
C  29.54600 63.96100 39.95800
C  28.69500 64.81800 40.80800
N  27.89200 58.88200 40.00600
C  27.27400 60.08000 40.23000
C  25.85400 59.80000 40.28900
C  25.64400 58.44900 39.87300
C  26.93000 57.89500 39.78900
C  24.80400 60.83600 40.55300
C  24.65100 57.40300 39.61700
O  23.44300 57.38000 39.66300
C  25.46400 56.14200 39.22000
C  25.10800 55.09900 40.16700
O  25.65300 54.97800 41.28700
O  24.09700 54.29100 39.78400
C  23.40000 53.55100 40.87900
H  32.08000 54.67200 38.51500
H  33.64100 60.89700 40.33900
H  27.47100 62.23000 40.40300
H  27.57300 53.73500 39.37500
H  29.99200 53.75300 37.60300
H  30.84900 52.87000 40.11800
H  30.40800 51.93000 38.75800
H  29.12800 52.34400 39.96000
H  26.28400 53.98500 37.52800
H  27.61200 53.21400 36.77500
H  28.30200 55.92700 36.28500
H  26.62000 56.13400 36.21600
H  35.28100 55.53100 38.39100
H  34.14600 54.62400 39.26600
H  35.46000 55.43700 40.21400
H  35.51300 60.87000 39.46200
H  36.98800 60.19700 40.19700
H  35.51700 60.42100 41.17700
H  31.93100 62.93900 39.64000
H  29.87100 63.08900 41.85400
H  32.06400 63.71800 42.45500
H  33.23000 63.82500 41.11100
H  33.27800 62.50400 42.14300
H  29.00200 63.53600 39.11500
H  30.28700 64.64100 39.53700
H  28.46100 64.37800 41.77700
H  27.66800 64.84400 40.44400
H  29.08500 65.83100 40.90700
H  24.34800 61.29700 39.67600
H  25.20100 61.59400 41.22800
H  23.94200 60.36500 41.02500
H  25.30800 55.82900 38.18800
H  24.08400 52.82900 41.32400
H  22.48400 53.13500 40.46000
H  23.16800 54.31600 41.62000
Mg 0.30800 43.09200 26.53100
C  2.60700 43.09400 29.06300
C  -2.20400 42.51000 28.65200
C  -1.73400 42.33400 23.94600
C  3.02500 43.31500 24.22100
N  0.30300 42.75100 28.59800
C  1.30000 42.91800 29.53300
C  0.78100 42.89300 30.97100
C  -0.64500 42.36100 30.76600
C  -0.90800 42.47000 29.23300
C  -0.79400 40.89300 31.42700
C  0.75000 44.33100 31.61700
C  1.22100 44.26500 33.03800
H  0.87300 42.97100 33.77400
N  -1.70700 42.59400 26.30500
C  -2.61800 42.59300 27.33600
C  -3.93500 42.51000 26.75900
C  -3.80300 42.44100 25.37100
C  -2.34500 42.40000 25.14500
C  -5.20700 42.34500 27.53500
C  -4.81000 42.44200 24.22200
O  -4.52000 42.39500 23.01900
C  -6.23800 42.57300 24.51000
N  0.64300 42.56600 24.35300
C  -0.41100 42.31800 23.54900
C  0.04800 42.17900 22.13600
C  1.57500 42.65500 22.15500
C  1.77500 42.84400 23.65900
C  -0.07100 40.67200 21.62700
C  1.81800 44.06500 21.46800
C  1.26300 45.31100 22.20000
N  2.37400 43.32900 26.57600
C  3.38300 43.38100 25.57400
C  4.67200 43.54600 26.20900
C  4.39900 43.42900 27.62100
C  3.00600 43.34500 27.74600
C  5.96700 43.69200 25.53000
C  5.02000 43.36300 28.94900
O  6.19300 43.44000 29.26800
C  3.87700 43.26700 29.95300
C  4.10500 42.03300 30.81700
O  4.21700 40.90000 30.45600
O  4.05200 42.40000 32.16200
C  4.38700 41.36000 33.08400
H  -3.05700 42.26900 29.29000
H  -2.37100 41.91100 23.16600
H  3.90100 43.35800 23.57000
H  1.37400 42.14700 31.49900
H  -1.40200 43.03300 31.17100
H  -1.19800 40.19900 30.69000
H  -1.57900 41.05500 32.16500
H  0.10500 40.37100 31.75600
H  -0.27800 44.69000 31.66800
H  1.33500 45.03300 31.02200
H  0.77300 45.06300 33.63000
H  2.31000 44.30000 33.03700
H  -5.65200 41.36700 27.35500
H  -5.96400 43.06700 27.23000
H  -5.01200 42.35000 28.60800
H  -6.58900 42.06500 25.40900
H  -6.93400 42.25400 23.73400
H  -6.49400 43.62100 24.66400
H  -0.49700 42.70400 21.35200
H  2.26400 41.93600 21.71200
H  0.89500 40.24900 21.90300
H  -0.07500 40.83200 20.54900
H  -0.95600 40.17000 22.01800
H  1.32300 44.07100 20.49700
H  2.87200 44.31500 21.34800
H  0.95300 46.14400 21.56800
H  2.05300 45.56900 22.90500
H  0.49700 44.86900 22.83800
H  5.96300 43.55700 24.44800
H  6.69100 43.02600 25.99800
H  6.34300 44.70900 25.64600
H  3.82500 44.10800 30.64400
H  3.84000 40.41700 33.07200
H  4.27800 41.77600 34.08600
H  5.46400 41.30500 32.92400

