158

Mg -0.55400 6.98800 26.95400
C  0.09100 9.11700 29.63500
C  -1.06400 4.44700 29.19500
C  -1.31700 5.08300 24.29800
C  -0.21300 9.74400 24.78400
N  -0.48700 6.76500 29.24500
C  -0.18000 7.83000 30.11100
C  -0.11300 7.27400 31.52100
C  -0.27000 5.70400 31.37300
C  -0.67600 5.63300 29.88300
C  1.14000 4.97700 31.55500
C  -1.19300 7.90400 32.46700
C  -0.90500 7.82000 33.99000
H  0.40600 7.08700 34.50000
N  -1.07100 5.07500 26.76300
C  -1.24700 4.17300 27.77600
C  -1.67700 2.93200 27.17800
C  -1.68000 3.04000 25.78100
C  -1.36500 4.39700 25.53900
C  -2.14700 1.76400 28.08200
C  -2.01500 2.03300 24.69900
O  -2.13700 2.33700 23.51300
C  -2.44200 0.58400 25.09500
N  -0.89300 7.40400 24.81000
C  -1.13800 6.41400 23.96700
C  -1.20500 7.00300 22.52100
C  -1.39400 8.58400 22.75600
C  -0.74100 8.59000 24.17900
C  0.07800 6.71300 21.67600
C  -2.86300 9.15700 22.73000
C  -2.93800 10.34800 21.82200
N  0.00200 8.90300 27.13900
C  0.21700 9.87600 26.17100
C  0.56300 11.15100 26.78600
C  0.58400 10.88200 28.15500
C  0.24500 9.49900 28.28600
C  0.67000 12.56300 26.16100
C  0.76400 11.47800 29.38700
O  1.03300 12.61600 29.65100
C  0.32100 10.35600 30.43600
C  1.48900 10.20400 31.33600
O  2.53100 9.65300 31.11000
O  1.11500 10.74100 32.56300
C  2.15200 10.81100 33.60300
H  -0.95900 3.53200 29.78100
H  -1.26900 4.46600 23.39900
H  -0.20200 10.62100 24.13200
H  0.89100 7.56000 31.83500
H  -0.93800 5.19900 32.07000
H  1.86500 5.73400 31.25400
H  1.13200 4.26400 30.73100
H  1.29000 4.38000 32.45400
H  -2.16000 7.42800 32.30800
H  -1.33800 8.94400 32.17400
H  -1.76700 7.33700 34.45100
H  -0.89500 8.85600 34.32600
H  -1.36200 1.04200 28.30900
H  -2.92000 1.15800 27.60900
H  -2.56800 2.10800 29.02700
H  -1.66300 0.05400 25.64300
H  -2.59800 -0.00900 24.19400
H  -3.41600 0.65400 25.57900
H  -2.11400 6.71200 21.99400
H  -0.76900 9.26000 22.17200
H  0.59100 7.67300 21.74100
H  -0.28300 6.46300 20.67800
H  0.64600 5.88400 22.09900
H  -2.90200 9.64300 23.70500
H  -3.59900 8.35600 22.65500
H  -2.16800 10.43900 21.05600
H  -3.02400 11.23200 22.45400
H  -3.86000 10.19600 21.26100
H  0.27500 13.22900 26.92800
H  0.09000 12.60700 25.24000
H  1.72700 12.76200 25.98300
H  -0.54800 10.68100 31.00800
H  2.74200 11.69300 33.35500
H  2.68400 9.87200 33.75600
H  1.53400 11.06200 34.46500
Mg 48.10500 25.37100 28.64500
C  49.25100 27.71300 31.09600
C  47.27500 23.22400 30.92200
C  47.70500 23.24500 26.11500
C  49.76100 27.50400 26.22200
N  48.42200 25.38800 30.81100
C  48.69700 26.47700 31.60300
C  48.24000 26.22500 33.03800
C  47.79900 24.77200 33.00100
C  47.84900 24.38900 31.53500
C  48.54800 23.78900 33.94800
C  47.09500 27.19000 33.51100
C  47.52400 28.23100 34.59900
H  46.68200 28.43700 35.79600
N  47.52600 23.50700 28.57700
C  47.19100 22.72900 29.60800
C  46.58800 21.51700 29.10700
C  46.68300 21.54200 27.68200
C  47.36900 22.78100 27.42300
C  45.93200 20.60000 30.05500
C  46.19200 20.49000 26.65900
O  46.36800 20.54800 25.42900
C  45.36300 19.26100 27.21200
N  48.70100 25.39600 26.45600
C  48.46000 24.34400 25.67200
C  48.95300 24.50900 24.22300
C  49.64400 25.81600 24.32600
C  49.30500 26.30700 25.72300
C  49.64000 23.25200 23.57900
C  49.37700 26.80000 23.14400
C  48.22900 27.84900 23.38200
N  49.17200 27.25900 28.61400
C  49.73500 27.95900 27.54000
C  50.39900 29.14300 28.05800
C  50.16600 29.06800 29.44800
C  49.54500 27.89400 29.70800
C  50.93700 30.25100 27.22000
C  50.37900 29.83400 30.69000
O  50.85600 30.91500 30.93700
C  49.78100 28.93200 31.85500
C  50.84200 28.71500 32.80100
O  51.79000 27.97600 32.72800
O  50.65800 29.54100 33.81000
C  51.72100 29.55600 34.76600
H  46.88200 22.58900 31.71900
H  47.51400 22.48700 25.35300
H  50.26800 28.10800 25.46600
H  49.11700 26.34200 33.67600
H  46.74400 24.53400 33.13900
H  47.89900 23.36900 34.71700
H  49.38000 24.26800 34.46400
H  48.94100 22.89900 33.45600
H  46.25000 26.60100 33.86600
H  46.69800 27.78600 32.68800
H  47.40300 29.16900 34.05700
H  48.57300 28.14400 34.88500
H  46.49200 19.66600 30.00700
H  44.97700 20.32400 29.60800
H  45.86300 20.79600 31.12500
H  45.93000 18.87000 28.05700
H  45.29200 18.42800 26.51300
H  44.38500 19.69600 27.41700
H  48.03100 24.73600 23.68900
H  50.73100 25.75000 24.28500
H  49.00600 22.36600 23.54300
H  50.47100 23.13800 24.27400
H  49.93500 23.54800 22.57200
H  49.13100 26.24800 22.23700
H  50.32600 27.31700 23.00000
H  47.53200 27.67100 22.56300
H  48.54200 28.88900 23.28600
H  47.70000 27.72400 24.32700
H  50.48100 30.14200 26.23600
H  52.02200 30.16700 27.15100
H  50.61500 31.17000 27.70900
H  49.03800 29.53400 32.37900
H  52.71200 29.70600 34.33700
H  51.66100 28.70300 35.44200
H  51.47500 30.37900 35.43700

