158

Mg 0.59900 6.81400 26.05300
C  1.18200 8.72700 28.99600
C  0.51800 4.02200 28.09200
C  -0.00000 4.96900 23.36800
C  1.10800 9.67700 24.20100
N  0.96800 6.50700 28.29200
C  0.94100 7.43100 29.29200
C  0.77500 6.81700 30.65300
C  0.84500 5.28600 30.30600
C  0.71000 5.23400 28.79600
C  2.10300 4.45600 30.70000
C  -0.57600 7.27300 31.42100
C  -0.48600 7.76100 32.85200
H  0.72800 7.39500 33.71700
N  0.44600 4.71100 25.74800
C  0.34500 3.75100 26.70700
C  0.09600 2.47800 26.04100
C  0.00500 2.74400 24.64700
C  0.17300 4.16800 24.53000
C  0.15400 1.11200 26.71800
C  -0.14000 1.74600 23.46900
O  -0.11300 2.10600 22.28500
C  -0.12600 0.20800 23.70100
N  0.49900 7.27600 24.12400
C  0.18700 6.36800 23.20800
C  -0.05600 6.99300 21.83100
C  0.39600 8.45700 22.06000
C  0.77000 8.42500 23.57300
C  0.62800 6.26800 20.55600
C  -0.63800 9.54500 21.63400
C  -1.86200 9.64100 22.63000
N  0.96500 8.79800 26.49600
C  1.29700 9.81200 25.60000
C  1.58300 11.06900 26.26200
C  1.53400 10.63500 27.65100
C  1.20000 9.27800 27.70000
C  2.06600 12.38800 25.59300
C  1.84700 11.10300 28.93300
O  2.26200 12.24000 29.26700
C  1.44800 9.90900 29.93400
C  2.53800 9.83800 30.89100
O  3.60300 9.30400 30.71900
O  2.27100 10.56400 32.00500
C  3.43900 10.75900 32.85100
H  0.35400 3.14800 28.72600
H  -0.28500 4.47900 22.43400
H  1.16800 10.51900 23.50800
H  1.59600 7.07000 31.32300
H  0.01800 4.70100 30.70900
H  2.81800 4.95800 31.35100
H  2.65000 4.10600 29.82500
H  1.68700 3.54300 31.12700
H  -1.36700 6.56700 31.16800
H  -0.87800 8.15500 30.85500
H  -1.39500 7.44000 33.36100
H  -0.47200 8.83800 32.68700
H  0.56100 1.12800 27.72900
H  0.79300 0.46100 26.12100
H  -0.87700 0.76600 26.64900
H  0.84800 -0.26700 23.81700
H  -0.49800 -0.22400 22.77200
H  -0.80300 0.01000 24.53200
H  -1.13600 7.01000 21.68300
H  1.23200 8.73500 21.41900
H  1.04000 5.31400 20.88400
H  1.34000 6.96600 20.11500
H  -0.07700 6.03500 19.75800
H  -1.04800 9.29600 20.65600
H  -0.26000 10.54200 21.40600
H  -2.82900 9.70800 22.13300
H  -1.71200 10.54600 23.21800
H  -1.90500 8.76000 23.27100
H  2.86100 12.16200 24.88200
H  2.50100 13.03800 26.35300
H  1.24100 12.88600 25.08200
H  0.52700 10.15200 30.46400
H  3.99200 11.64400 32.53500
H  4.11100 9.90100 32.86500
H  3.07300 10.98300 33.85300
Mg 43.70500 3.81000 46.60500
C  41.81300 6.66400 47.07500
C  40.95800 1.86300 46.81300
C  45.83400 1.10400 46.32100
C  46.62800 5.90300 46.29800
N  41.62500 4.26500 46.81900
C  41.02900 5.45000 47.07500
C  39.56500 5.27200 47.52800
C  39.39200 3.72300 47.63800
C  40.76100 3.24900 47.01300
C  39.18000 3.09900 49.05300
C  38.39700 5.96900 46.68800
C  38.48800 5.82000 45.13100
H  38.96900 6.92700 44.14600
N  43.42300 1.79600 46.40900
C  42.17600 1.20000 46.46100
C  42.30900 -0.20600 46.39000
C  43.65700 -0.52400 46.25500
C  44.40800 0.81200 46.31500
C  41.19300 -1.19800 46.33300
C  44.24700 -1.88400 46.10500
O  43.44500 -2.86400 46.16600
C  45.62100 -2.08700 45.99200
N  45.94600 3.57200 46.37700
C  46.51200 2.35300 46.35800
C  48.03000 2.48200 46.30400
C  48.29700 4.03400 46.19400
C  46.87700 4.56200 46.31400
C  48.71500 1.76700 47.56400
C  48.85000 4.48600 44.82500
C  50.33800 4.96400 44.86500
N  44.17600 5.88000 46.53600
C  45.33700 6.50300 46.43800
C  45.07900 7.88500 46.60000
C  43.73200 8.03900 46.90300
C  43.19400 6.72800 46.85600
C  46.04600 8.97300 46.32000
C  42.59500 8.94500 47.21400
O  42.65400 10.18500 47.39000
C  41.24900 8.02200 47.33300
C  40.55000 8.27600 48.63200
O  40.65400 7.67100 49.66300
O  39.69100 9.34000 48.42700
C  38.78600 9.59200 49.53800
H  40.09300 1.22100 46.99700
H  46.51100 0.26100 46.17100
H  47.52000 6.51800 46.16400
H  39.49700 5.66200 48.54400
H  38.63500 3.33900 46.95400
H  39.79400 2.20400 49.15200
H  38.14900 2.80400 49.24900
H  39.51200 3.83500 49.78600
H  38.41200 7.01200 47.00400
H  37.45800 5.52200 47.01600
H  37.46300 5.63900 44.80800
H  39.18600 4.98500 45.05900
H  40.19400 -0.77100 46.41900
H  41.29800 -2.09900 46.93800
H  41.15800 -1.65100 45.34200
H  46.09200 -1.78800 46.92900
H  45.92500 -1.59900 45.06600
H  45.77400 -3.14800 45.79200
H  48.39000 1.90700 45.45100
H  48.85500 4.45100 47.03200
H  47.92200 1.13500 47.96300
H  48.90400 2.48800 48.35900
H  49.66500 1.26200 47.38900
H  48.30000 5.27800 44.31800
H  48.68200 3.68800 44.10200
H  50.46700 5.99500 44.53400
H  50.87800 4.32300 44.16800
H  50.80600 4.75300 45.82600
H  46.27700 8.93200 45.25600
H  47.02600 9.10000 46.78000
H  45.59000 9.95700 46.42900
H  40.51400 8.22800 46.55500
H  38.30800 10.57000 49.49300
H  39.27500 9.64100 50.51100
H  37.98700 8.85400 49.46900

