158

Mg 34.85600 2.54700 29.47600
C  32.78600 3.58100 32.01000
C  37.44800 2.22000 31.66600
C  37.03200 2.12900 26.79200
C  32.15500 2.91300 27.13300
N  35.11900 3.08100 31.59400
C  34.04400 3.27700 32.51100
C  34.61100 3.27700 33.88200
C  36.10700 2.87600 33.71900
C  36.21400 2.65700 32.21500
C  37.15700 3.87600 34.32500
C  33.86700 2.15500 34.75500
C  33.82100 2.50600 36.26800
H  34.76100 3.52700 36.86300
N  36.88400 2.08100 29.25300
C  37.74400 1.99900 30.31600
C  39.01500 1.54900 29.78300
C  38.98900 1.59100 28.40200
C  37.60200 1.85400 28.07500
C  40.16500 0.99400 30.66100
C  40.02300 1.35400 27.31100
O  39.81600 1.41300 26.09100
C  41.50300 1.28100 27.55400
N  34.64900 2.61600 27.34000
C  35.69300 2.46700 26.43500
C  35.18600 2.69300 24.96000
C  33.66600 2.50900 25.12100
C  33.42000 2.67300 26.62900
C  35.65500 4.13700 24.50000
C  33.11200 1.24100 24.66100
C  32.86600 0.06200 25.53500
N  32.87700 3.17700 29.47200
C  31.89300 3.22400 28.46500
C  30.64200 3.68700 29.09700
C  30.98100 3.90600 30.45900
C  32.37500 3.56800 30.64800
C  29.41000 3.89800 28.46700
C  30.43300 4.26600 31.75800
O  29.31700 4.53000 32.19900
C  31.56900 3.99900 32.82100
C  31.82100 5.25100 33.65200
O  32.09900 6.35700 33.22500
O  31.32100 5.03600 34.93500
C  31.42200 6.07500 35.86000
H  38.24900 1.96500 32.36300
H  37.67200 2.14400 25.90800
H  31.28800 3.03300 26.48000
H  34.53100 4.32000 34.18800
H  36.29000 1.90800 34.18700
H  37.71600 3.35100 35.09900
H  36.68200 4.73400 34.80000
H  37.89700 4.18500 33.58700
H  34.35100 1.19500 34.57600
H  32.82900 2.03100 34.44500
H  33.80000 1.56600 36.81900
H  32.83400 2.95700 36.36800
H  40.23500 -0.04000 30.32200
H  39.82400 0.97900 31.69600
H  41.05400 1.60600 30.51100
H  41.76900 0.38200 28.11100
H  41.72900 2.18200 28.12400
H  42.07600 1.18300 26.63200
H  35.73500 1.99700 24.32500
H  33.16100 3.28500 24.54600
H  36.26600 3.93200 23.62100
H  36.37900 4.58000 25.18300
H  34.92700 4.90000 24.22700
H  33.80200 0.91300 23.88300
H  32.24400 1.62800 24.12700
H  32.87200 0.43200 26.56000
H  33.53600 -0.78600 25.39300
H  31.87200 -0.27200 25.23800
H  29.26800 3.71500 27.40200
H  29.08500 4.89900 28.74700
H  28.68600 3.33200 29.05300
H  31.30100 3.09500 33.36800
H  30.53100 6.69900 35.80600
H  32.26400 6.70400 35.57000
H  31.46400 5.64900 36.86300
Mg -2.55700 34.51100 27.38100
C  -4.13100 32.43800 29.78000
C  -1.05400 36.20500 29.75800
C  -1.30900 36.58500 25.02000
C  -4.25900 32.84000 24.78400
N  -2.77200 34.45900 29.52500
C  -3.39000 33.45600 30.33600
C  -3.19300 33.72500 31.79800
C  -2.41000 35.10800 31.74200
C  -2.01000 35.28400 30.24600
C  -3.18600 36.33900 32.27900
C  -2.49700 32.55600 32.57800
C  -3.16500 32.25100 34.05500
H  -2.25100 32.57900 35.27100
N  -1.24400 36.10500 27.35600
C  -0.62700 36.57300 28.45500
C  0.40900 37.43100 28.09100
C  0.14100 37.79900 26.71900
C  -0.91200 36.80900 26.28700
C  1.42300 37.87300 29.08600
C  0.78900 38.96000 25.86800
O  0.50200 39.11000 24.68300
C  1.94500 39.76200 26.28100
N  -2.51100 34.48200 25.13800
C  -2.15200 35.62200 24.51000
C  -2.53900 35.54900 23.04300
C  -3.60900 34.41600 23.00900
C  -3.42600 33.86300 24.39000
C  -3.17000 36.86800 22.38400
C  -3.62600 33.36900 21.85400
C  -2.68300 32.13000 22.08200
N  -3.83300 33.01000 27.26600
C  -4.42900 32.42300 26.15400
C  -5.27200 31.34600 26.62100
C  -5.12000 31.23300 28.00400
C  -4.23400 32.29900 28.38900
C  -6.09800 30.47500 25.77300
C  -5.62200 30.63100 29.23500
O  -6.46800 29.78900 29.41800
C  -4.85000 31.26500 30.42600
C  -5.83700 31.58600 31.49400
O  -6.77300 32.38800 31.43400
O  -5.64800 30.72700 32.58600
C  -6.49300 30.84800 33.75300
H  -0.56200 36.73200 30.57800
H  -0.98800 37.22900 24.19800
H  -5.05600 32.45000 24.14800
H  -4.20100 33.88900 32.18000
H  -1.45000 35.03100 32.25200
H  -4.07700 36.01300 32.81400
H  -3.49800 36.93900 31.42400
H  -2.63600 36.83200 33.08100
H  -1.46400 32.88800 32.68100
H  -2.47600 31.68300 31.92500
H  -3.36300 31.18400 33.94900
H  -4.16200 32.66100 34.21900
H  1.23000 37.40700 30.05200
H  1.45100 38.95000 29.24700
H  2.46900 37.74400 28.81000
H  1.77900 40.34600 27.18700
H  2.15600 40.55400 25.56300
H  2.81300 39.11600 26.41000
H  -1.71000 35.19800 22.42900
H  -4.55200 34.95200 23.11500
H  -3.13400 37.73400 23.04500
H  -4.22000 36.65600 22.18200
H  -2.63700 37.15600 21.47800
H  -3.24800 33.82300 20.93700
H  -4.67100 33.08200 21.73900
H  -3.18900 31.26800 22.51600
H  -1.78300 32.30800 22.67200
H  -2.34400 31.83900 21.08800
H  -5.73700 30.31400 24.75700
H  -7.15300 30.74900 25.74900
H  -6.06400 29.47500 26.20700
H  -4.18000 30.49800 30.81500
H  -6.91700 29.84500 33.68700
H  -7.29700 31.55500 33.55200
H  -5.91900 31.16300 34.62400

