158

Mg 24.41100 -7.32200 47.41400
C  26.84400 -4.98500 46.46200
C  22.20700 -5.92900 45.20700
C  22.37000 -10.15700 47.66900
C  26.75500 -8.95300 49.24700
N  24.57700 -5.61500 45.98900
C  25.63400 -4.78900 45.75100
C  25.27200 -3.78500 44.70600
C  23.76600 -3.98500 44.45100
C  23.46300 -5.27600 45.26800
C  22.91000 -2.78600 44.80500
C  26.09800 -3.91400 43.40200
C  26.75500 -2.70600 42.84100
H  26.05100 -1.92400 41.69600
N  22.42300 -7.92800 46.59700
C  21.70800 -7.14800 45.70400
C  20.50600 -7.84900 45.34900
C  20.40100 -9.01200 46.23800
C  21.79200 -9.13800 46.84600
C  19.45100 -7.15400 44.42300
C  19.26200 -10.00000 46.33800
O  18.26800 -9.77000 45.67400
C  19.35100 -11.27600 47.07300
N  24.51800 -9.22900 48.35600
C  23.53600 -10.20000 48.42000
C  24.05300 -11.48800 49.02500
C  25.41700 -11.07300 49.58400
C  25.61000 -9.63300 49.06500
C  23.12600 -12.19800 50.05300
C  26.49400 -12.07800 49.03000
C  27.64200 -12.30700 50.11600
N  26.46300 -7.07500 47.75800
C  27.22100 -7.75600 48.65000
C  28.49200 -7.07500 48.71300
C  28.38500 -6.00500 47.89100
C  27.14500 -6.02000 47.27600
C  29.68700 -7.46700 49.51600
C  29.11500 -4.81400 47.34400
O  30.25100 -4.43400 47.52300
C  28.07800 -4.13700 46.40600
C  27.77200 -2.71200 46.76700
O  27.26700 -2.35100 47.79100
O  28.14200 -1.85300 45.75600
C  27.77300 -0.46400 45.89300
H  21.58300 -5.36200 44.51300
H  21.78900 -11.06800 47.82600
H  27.55100 -9.37600 49.86300
H  25.42700 -2.81300 45.17500
H  23.52700 -4.20400 43.41000
H  21.91500 -2.74900 44.36000
H  23.40600 -1.93500 44.34000
H  22.68900 -2.59300 45.85500
H  25.52300 -4.31900 42.57000
H  26.82200 -4.69700 43.62800
H  27.80400 -2.87300 42.59600
H  26.95400 -1.99100 43.63900
H  18.76500 -7.92800 44.07900
H  20.00500 -6.67100 43.61900
H  18.83200 -6.46300 44.99500
H  20.21200 -11.89800 46.83100
H  18.51900 -11.97000 46.95600
H  19.39000 -10.98600 48.12300
H  24.16700 -12.12700 48.14900
H  25.42200 -11.15300 50.67100
H  22.38100 -11.52300 50.47400
H  23.79700 -12.55600 50.83300
H  22.59900 -13.02800 49.58100
H  26.91100 -11.63600 48.12600
H  26.07500 -13.04200 48.74300
H  27.71100 -11.46500 50.80500
H  28.59000 -12.39400 49.58600
H  27.53900 -13.28200 50.59400
H  29.84600 -8.52900 49.33000
H  29.82400 -7.16600 50.55500
H  30.49700 -6.98200 48.97000
H  28.45500 -4.15300 45.38300
H  28.36800 0.08500 45.16400
H  27.81000 -0.00700 46.88200
H  26.77800 -0.25300 45.50000
Mg 39.95400 8.20500 29.25200
C  41.74800 9.85300 31.86300
C  37.48400 7.35300 31.52600
C  38.38200 6.80700 26.71300
C  42.75300 8.84400 27.17000
N  39.78600 8.52900 31.51800
C  40.59000 9.23800 32.33400
C  39.92700 9.34300 33.73200
C  38.67300 8.36000 33.63900
C  38.59500 8.13100 32.07500
C  38.89900 7.08200 34.49200
C  39.69300 10.76800 34.30800
C  38.68400 10.83600 35.48300
H  39.07200 11.64600 36.73600
N  38.15600 7.22800 29.16400
C  37.30300 6.97100 30.18400
C  36.17300 6.29900 29.56700
C  36.37400 6.16300 28.16800
C  37.66600 6.77900 27.93900
C  34.88200 6.06600 30.28600
C  35.53700 5.43900 27.16600
O  35.89200 5.33200 25.99000
C  34.38300 4.57600 27.62900
N  40.50400 7.82200 27.23300
C  39.60800 7.27000 26.38200
C  40.12700 7.33200 24.87200
C  41.60300 7.96600 25.15400
C  41.69600 8.17700 26.63100
C  40.31500 5.94100 24.28600
C  41.66800 9.34900 24.32900
C  40.55300 10.39600 24.69500
N  41.85000 9.03400 29.49100
C  42.78200 9.25600 28.49500
C  43.89200 10.00200 29.11100
C  43.48100 10.35600 30.39800
C  42.22900 9.71000 30.58000
C  45.19800 10.28100 28.41600
C  43.84900 11.11300 31.58600
O  44.86300 11.72500 31.85000
C  42.70500 10.82400 32.62900
C  43.44200 10.23300 33.79700
O  44.19600 9.30000 33.78700
O  43.26200 11.19700 34.77300
C  44.06600 10.93800 36.01300
H  36.70700 7.12000 32.25800
H  37.93300 6.47800 25.77300
H  43.49900 9.16200 26.43900
H  40.77200 8.91600 34.27200
H  37.76000 8.87500 33.93600
H  39.68300 7.28500 35.22200
H  39.26500 6.25300 33.88600
H  37.92700 6.95500 34.96700
H  39.28100 11.39700 33.51900
H  40.63700 11.14300 34.70500
H  38.44700 9.81900 35.79400
H  37.71000 11.15400 35.10900
H  34.72300 6.57400 31.23700
H  34.76300 5.00200 30.48900
H  34.05000 6.36500 29.64900
H  34.77700 4.01700 28.47900
H  34.16300 3.95500 26.76100
H  33.52900 5.18800 27.91800
H  39.55200 7.89000 24.13300
H  42.43200 7.36800 24.77700
H  39.92000 5.21500 24.99600
H  41.39000 5.77900 24.20500
H  39.74400 5.80400 23.36700
H  41.78500 9.08600 23.27800
H  42.60500 9.78900 24.66900
H  39.85200 10.04900 25.45500
H  39.95900 10.63000 23.81200
H  41.13200 11.27700 24.97300
H  46.03200 10.14100 29.10400
H  45.10900 11.25900 27.94400
H  45.25700 9.51600 27.64200
H  42.13700 11.73800 32.80000
H  43.59000 11.36100 36.89700
H  45.08500 11.32400 35.96500
H  44.11100 9.87000 36.22200

