158

Mg 47.26800 25.43700 27.93700
C  48.75500 27.37100 30.46000
C  45.84700 23.53600 30.26000
C  46.68500 23.24800 25.49600
C  49.36200 27.29100 25.63800
N  47.37700 25.53500 30.17900
C  47.81800 26.44900 30.98000
C  47.25400 26.40100 32.37900
C  46.44000 25.07500 32.36900
C  46.53700 24.69700 30.84000
C  46.93700 24.03800 33.43000
C  46.41800 27.65700 32.89700
C  46.94100 28.30300 34.21200
H  45.90200 28.49300 35.30600
N  46.25900 23.73600 27.88500
C  45.78200 23.04500 29.00900
C  45.12700 21.86800 28.57800
C  45.39900 21.74000 27.20600
C  46.21900 22.91900 26.81800
C  44.53600 20.92300 29.55700
C  45.03200 20.54000 26.30100
O  45.43300 20.47000 25.07900
C  44.15100 19.52100 26.80800
N  48.16200 25.13600 25.88700
C  47.56200 24.25000 25.05300
C  47.86200 24.53400 23.58100
C  48.26500 26.02000 23.69400
C  48.64900 26.19000 25.11400
C  48.97500 23.63300 22.98700
C  47.16500 27.01500 23.30700
C  47.37900 28.57200 23.30200
N  48.68800 26.99000 27.93200
C  49.37200 27.67500 26.96300
C  50.17100 28.77500 27.54700
C  49.91900 28.64300 28.93600
C  49.02200 27.59000 29.13700
C  51.03900 29.73700 26.83100
C  50.12100 29.34600 30.10800
O  50.74000 30.39200 30.31400
C  49.42900 28.49000 31.23100
C  50.42300 28.13400 32.24700
O  51.48600 27.60100 32.10500
O  49.93900 28.55300 33.45900
C  50.88500 28.54700 34.65100
H  45.29900 23.04500 31.06600
H  46.51600 22.57300 24.65400
H  49.88200 27.95400 24.94300
H  48.13500 26.18600 32.98300
H  45.41400 25.30800 32.65400
H  47.30700 24.49900 34.34600
H  47.59400 23.32100 32.93600
H  46.01700 23.52400 33.70800
H  45.38200 27.33900 33.01300
H  46.44700 28.43000 32.12800
H  47.27300 29.30300 33.93300
H  47.78100 27.72200 34.59200
H  43.69200 20.34000 29.18700
H  44.21700 21.33500 30.51500
H  45.42400 20.31200 29.71800
H  44.63000 18.97300 27.61900
H  43.96700 18.79400 26.01700
H  43.15600 19.90300 27.03500
H  46.90600 24.57800 23.05900
H  49.09300 26.17000 23.00200
H  49.00000 22.85400 23.74900
H  49.95000 24.12000 22.98800
H  48.76500 23.24800 21.98900
H  46.27300 26.91700 23.92600
H  46.74500 26.72700 22.34300
H  48.45100 28.67100 23.46900
H  47.03000 28.97000 24.25500
H  47.04300 29.10000 22.41000
H  51.77400 29.12400 26.31000
H  51.62000 30.39100 27.48200
H  50.53200 30.35000 26.08500
H  48.61500 29.04500 31.69800
H  51.48900 27.64000 34.63900
H  50.48200 28.47900 35.66200
H  51.53900 29.37600 34.38000
Mg 50.17900 35.71700 28.09200
C  47.70200 34.14900 30.03700
C  50.38200 38.23400 30.33700
C  52.21400 37.22500 25.97900
C  49.48000 33.33200 25.45000
N  49.21500 35.98700 30.05700
C  48.29200 35.23700 30.72300
C  48.16300 35.65900 32.27800
C  48.81900 37.06000 32.18400
C  49.53500 37.12400 30.78700
C  47.74600 38.21800 32.34100
C  49.12400 34.71400 33.12000
C  48.75600 34.33100 34.60700
H  47.72300 35.19800 35.29100
N  51.13900 37.42700 28.16800
C  51.20900 38.35100 29.22700
C  52.18700 39.39800 28.91900
C  52.74800 39.15700 27.68000
C  52.03600 37.88000 27.19200
C  52.57500 40.39600 29.96700
C  53.69600 40.03400 26.89800
O  54.02200 39.74400 25.73600
C  54.06800 41.36100 27.50800
N  50.63000 35.32900 25.90600
C  51.57600 36.15000 25.36500
C  51.76200 35.78600 23.83400
C  51.05000 34.41200 23.74700
C  50.33900 34.37300 25.05300
C  51.32200 36.84100 22.82100
C  52.02400 33.25600 23.60200
C  51.89100 32.37200 22.41700
N  48.96700 33.98400 27.79200
C  48.76500 33.17400 26.71400
C  47.70100 32.19700 26.94200
C  47.27100 32.52300 28.26400
C  48.08000 33.62000 28.77700
C  47.09200 31.26800 25.93200
C  46.26700 32.25200 29.27500
O  45.45200 31.29900 29.27900
C  46.50000 33.28600 30.51900
C  46.68000 32.44300 31.77600
O  47.34800 31.41600 31.79000
O  46.03800 33.01600 32.86500
C  46.00700 32.20000 34.09100
H  50.38800 38.98300 31.13200
H  52.87200 37.77900 25.30500
H  49.16600 32.49600 24.82100
H  47.12800 35.71600 32.61500
H  49.58700 37.17600 32.94900
H  47.82700 38.96200 31.54900
H  47.84800 38.73500 33.29500
H  46.76600 37.75700 32.22200
H  50.15200 35.07300 33.17100
H  49.12900 33.70600 32.70600
H  49.69800 34.27600 35.15300
H  48.29900 33.34800 34.71700
H  52.14700 40.21000 30.95200
H  52.39400 41.43200 29.68100
H  53.64000 40.26400 30.15900
H  54.71200 41.22100 28.37600
H  53.13700 41.84800 27.79900
H  54.70000 41.90800 26.80700
H  52.82700 35.73600 23.61100
H  50.34300 34.29300 22.92600
H  50.88500 37.67100 23.37700
H  50.54700 36.44200 22.16700
H  52.12900 37.25300 22.21500
H  51.81700 32.61500 24.45900
H  53.01800 33.70100 23.64400
H  51.16100 32.77500 21.71500
H  51.52500 31.36300 22.60700
H  52.85900 32.23200 21.93400
H  47.78700 30.43900 25.80000
H  46.84500 31.85300 25.04600
H  46.14200 30.93000 26.34500
H  45.63800 33.91100 30.75100
H  46.91600 31.63800 34.30500
H  45.13000 31.55200 34.09100
H  45.92300 32.89100 34.93000

