158

Mg 2.46300 -1.52500 43.85200
C  5.77700 -1.18500 42.68700
C  1.61200 1.20800 41.97000
C  -0.67600 -2.45200 44.21500
C  3.53100 -4.65400 45.25000
N  3.58500 -0.16900 42.45800
C  4.89300 -0.21500 42.12200
C  5.26600 0.94300 41.19700
C  4.06400 1.90200 41.39000
C  2.97500 0.97600 42.02400
C  4.25200 3.23000 42.22700
C  5.56300 0.52000 39.74300
C  6.61000 1.41200 39.01700
H  6.17200 2.05500 37.65800
N  0.66800 -0.66200 43.30900
C  0.56600 0.43900 42.47700
C  -0.87900 0.67200 42.28300
C  -1.58500 -0.28200 43.10800
C  -0.51000 -1.16500 43.61400
C  -1.40900 1.84300 41.44200
C  -3.05900 -0.38500 43.33600
O  -3.81000 0.38700 42.79700
C  -3.74800 -1.51000 44.13000
N  1.55600 -3.31700 44.55000
C  0.22400 -3.40100 44.62300
C  -0.18800 -4.77900 45.13500
C  1.15200 -5.42500 45.64300
C  2.18400 -4.42700 45.04100
C  -1.53600 -4.79400 45.98400
C  1.46400 -6.90500 45.22300
C  1.48100 -8.04000 46.24100
N  4.30000 -2.69600 44.05600
C  4.56600 -3.89900 44.68200
C  6.00700 -4.23700 44.65000
C  6.53300 -3.15200 43.84100
C  5.43800 -2.32800 43.49200
C  6.59000 -5.42700 45.25600
C  7.71700 -2.64400 43.21200
O  8.88700 -3.07700 43.23700
C  7.28500 -1.27100 42.57400
C  7.97400 -0.18100 43.25000
O  7.87000 0.08000 44.40300
O  8.77300 0.54000 42.41000
C  9.14500 1.83400 42.88900
H  1.26600 2.17100 41.58900
H  -1.67700 -2.86800 44.35000
H  3.82400 -5.67900 45.48800
H  6.10600 1.50800 41.60200
H  3.65200 2.29800 40.46200
H  5.24200 3.15200 42.67700
H  3.56300 3.40500 43.05300
H  4.21700 4.07800 41.54300
H  4.67600 0.56500 39.11100
H  6.08800 -0.43500 39.75800
H  7.55400 0.86800 39.05200
H  6.82000 2.28300 39.63700
H  -2.40400 2.06500 41.82800
H  -1.43600 1.52000 40.40100
H  -0.75200 2.70400 41.56200
H  -4.81600 -1.29600 44.18300
H  -3.36600 -1.59900 45.14700
H  -3.66800 -2.44400 43.57500
H  -0.37100 -5.09300 44.10700
H  1.23400 -5.32500 46.72500
H  -2.39200 -5.01800 45.34700
H  -1.64000 -3.79800 46.41400
H  -1.49100 -5.54900 46.76900
H  2.29900 -6.91300 44.52300
H  0.62200 -7.07500 44.55100
H  2.23100 -8.78200 45.96800
H  0.55100 -8.59600 46.11500
H  1.45600 -7.78900 47.30100
H  6.75800 -6.11900 44.43100
H  6.03800 -5.87300 46.08300
H  7.57400 -5.30100 45.70700
H  7.70600 -1.24300 41.56900
H  9.48600 1.75700 43.92100
H  8.27600 2.49100 42.92600
H  10.02200 2.21400 42.36400
Mg 44.64700 3.05200 47.81300
C  42.23300 5.67900 47.22800
C  41.98800 0.78300 47.62100
C  46.90200 0.64800 47.64700
C  46.91400 5.49800 47.00600
N  42.34400 3.29300 47.36800
C  41.60000 4.42600 47.18100
C  40.17300 4.07500 47.03100
C  40.10000 2.55200 47.54900
C  41.56800 2.12200 47.52500
C  39.29500 2.27900 48.82000
C  39.74100 4.17200 45.50400
C  38.78300 5.30800 45.27300
H  39.17200 6.13900 44.09200
N  44.51800 0.88600 47.83500
C  43.33500 0.24200 47.68200
C  43.67500 -1.18100 47.74600
C  45.10500 -1.31600 47.89800
C  45.63500 0.06800 47.83500
C  42.64100 -2.33600 47.42800
C  45.93000 -2.55100 47.81100
O  45.40400 -3.67500 47.75700
C  47.46100 -2.60100 47.89300
N  46.52600 3.08300 47.19200
C  47.30700 1.98200 47.48200
C  48.78500 2.32600 47.44800
C  48.82300 3.83700 47.22300
C  47.34800 4.17600 47.06700
C  49.54800 1.86900 48.70600
C  49.79200 4.34900 46.01000
C  51.12800 4.95700 46.56500
N  44.65500 5.23600 47.31100
C  45.66000 6.06000 47.03000
C  45.25900 7.43300 47.08800
C  43.91100 7.35000 47.13900
C  43.56600 5.94000 47.21000
C  46.12100 8.67500 47.17200
C  42.73900 8.12000 47.09600
O  42.53500 9.37300 47.05000
C  41.55000 7.08800 47.17200
C  40.73400 7.46900 48.29500
O  40.66500 6.97400 49.41900
O  39.96200 8.52200 47.89200
C  39.01100 9.09500 48.86300
H  41.13300 0.10300 47.61000
H  47.77700 0.01400 47.80600
H  47.66600 6.28900 46.97100
H  39.52500 4.69100 47.65600
H  39.52400 2.03700 46.78000
H  38.86700 3.23300 49.12800
H  40.02800 1.94800 49.55500
H  38.65200 1.42800 48.59200
H  39.22800 3.28200 45.14100
H  40.65200 4.20000 44.90600
H  38.72400 5.93700 46.16100
H  37.78000 4.90600 45.13400
H  41.57700 -2.11400 47.51400
H  42.85900 -3.15100 48.11800
H  42.63800 -2.76000 46.42400
H  47.67100 -2.16900 46.91500
H  47.78100 -3.64000 47.97400
H  47.91200 -2.09500 48.74700
H  49.17400 1.69600 46.64800
H  49.10700 4.32200 48.15600
H  50.43200 1.32400 48.37600
H  48.95400 1.18100 49.30900
H  49.97700 2.70200 49.26300
H  49.35200 5.16500 45.43600
H  49.97100 3.45200 45.41700
H  51.12800 5.97400 46.17300
H  51.98500 4.35100 46.27300
H  51.14300 4.89200 47.65300
H  45.79200 9.42700 46.45400
H  47.12200 8.35000 46.89000
H  46.30500 9.02100 48.18900
H  41.00500 7.23400 46.24000
H  39.25400 8.78900 49.88000
H  37.96700 8.83600 48.69000
H  39.23200 10.16000 48.79300

