158

Mg 48.18500 34.55000 26.87500
C  45.92600 33.68500 29.45000
C  48.62900 37.58100 28.55100
C  49.38600 35.91700 23.97800
C  47.22400 31.75600 25.10500
N  47.48800 35.48500 28.93500
C  46.65100 34.87800 29.78500
C  46.64100 35.54000 31.17600
C  47.35300 36.93200 30.85100
C  47.83300 36.66400 29.38600
C  46.36000 38.11000 30.80300
C  47.58500 34.74600 32.14400
C  47.04600 34.62100 33.55200
H  47.74400 35.50900 34.59900
N  49.13600 36.42000 26.34300
C  49.15600 37.49300 27.24600
C  49.84300 38.52500 26.56000
C  50.08600 38.11100 25.24100
C  49.57700 36.77500 25.11600
C  50.09800 39.95700 27.15700
C  50.69100 38.93500 24.02600
O  50.72200 38.40900 22.87300
C  51.30100 40.34400 24.28900
N  48.28000 33.96000 24.87300
C  48.75200 34.66800 23.86600
C  48.60400 33.89900 22.50700
C  48.14800 32.44700 22.85400
C  47.85300 32.71200 24.37600
C  47.58300 34.57200 21.54200
C  49.15600 31.26100 22.67500
C  50.03700 30.83400 23.90300
N  46.93500 32.92900 27.21500
C  46.71800 31.83100 26.45700
C  45.73000 31.03300 27.08800
C  45.32200 31.78100 28.26000
C  46.13500 32.89400 28.29500
C  45.16300 29.82100 26.51600
C  44.38100 31.79500 29.42700
O  43.53200 31.01700 29.78500
C  44.74700 33.07300 30.23300
C  45.01900 32.64400 31.57100
O  45.94300 31.88000 31.77400
O  44.01900 33.02700 32.45300
C  44.02800 32.29300 33.77700
H  48.70500 38.52500 29.09400
H  49.74100 36.28600 23.01400
H  46.82000 30.94100 24.50000
H  45.69100 35.73200 31.67500
H  48.06100 37.23500 31.62200
H  46.66600 38.86900 31.52300
H  45.32900 37.79500 30.96000
H  46.39100 38.56800 29.81400
H  48.54000 35.26700 32.20500
H  47.81400 33.74200 31.78600
H  47.32400 33.61500 33.86600
H  45.96600 34.76400 33.51900
H  49.59300 40.18300 28.09700
H  49.79200 40.73200 26.45400
H  51.16500 40.13700 27.28900
H  50.50100 41.08200 24.35800
H  51.85200 40.52900 23.36800
H  51.89300 40.33800 25.20400
H  49.56400 33.85500 21.99200
H  47.18000 32.16500 22.44000
H  47.25500 35.54700 21.90400
H  46.68100 33.97600 21.40700
H  48.03900 34.58900 20.55200
H  49.72300 31.42800 21.75900
H  48.51500 30.38800 22.55000
H  49.57300 29.98000 24.39600
H  50.09500 31.54600 24.72600
H  51.02900 30.56000 23.54300
H  45.04100 29.88500 25.43500
H  44.21100 29.56800 26.98400
H  45.81200 28.96800 26.71500
H  43.88200 33.73200 30.16200
H  44.38600 31.26900 33.67500
H  42.99500 32.13500 34.08800
H  44.63300 32.88500 34.46300
Mg 9.54700 48.20500 26.69100
C  7.18300 48.13200 29.31800
C  11.96300 48.68100 28.98900
C  11.71200 48.28500 24.19000
C  6.90500 47.90700 24.45200
N  9.52200 48.31900 28.89300
C  8.54700 48.27900 29.80100
C  9.04200 48.33300 31.24600
C  10.61600 48.47000 31.02500
C  10.71800 48.55500 29.55400
C  11.14000 49.79100 31.74700
C  8.51800 47.19600 32.22200
C  9.33600 46.62100 33.40300
H  8.66800 46.56300 34.83300
N  11.53200 48.67500 26.62700
C  12.37600 48.80100 27.62600
C  13.67700 49.09000 27.13600
C  13.65000 48.86800 25.77000
C  12.25500 48.55900 25.46700
C  14.83200 49.38800 28.10100
C  14.70000 48.95700 24.77600
O  14.47100 48.80100 23.56500
C  16.06500 49.29900 25.15200
N  9.34800 48.08000 24.55200
C  10.41800 48.10400 23.70400
C  10.03500 47.74700 22.28100
C  8.46300 47.55800 22.41500
C  8.15900 47.88900 23.91000
C  10.48400 48.80300 21.24700
C  8.01100 46.16500 21.92300
C  7.25100 46.20500 20.60400
N  7.46500 48.19600 26.82100
C  6.53100 47.99300 25.86200
C  5.18500 47.97000 26.40700
C  5.44200 47.97600 27.78900
C  6.80800 48.14700 27.97600
C  3.83500 47.79900 25.76400
C  4.76300 47.88200 29.00300
O  3.56800 47.85700 29.29900
C  5.92000 47.85800 30.09300
C  5.87500 46.48500 30.63400
O  6.24500 45.46900 30.10700
O  5.12800 46.51600 31.74300
C  4.91400 45.21500 32.42400
H  12.86200 48.88100 29.57600
H  12.37900 48.29400 23.32600
H  6.18800 47.73000 23.64700
H  8.74100 49.25800 31.73800
H  11.02700 47.53300 31.40200
H  11.70100 49.37700 32.58600
H  10.38800 50.47100 32.14800
H  11.79600 50.42700 31.15300
H  8.32500 46.34300 31.57100
H  7.55200 47.56500 32.56700
H  10.31100 47.10700 33.43800
H  9.66400 45.62900 33.09200
H  15.76400 49.03800 27.65800
H  14.80600 48.79000 29.01100
H  14.85600 50.45100 28.34100
H  16.65400 49.61000 24.29000
H  16.58900 48.48700 25.65600
H  15.94600 50.19100 25.76800
H  10.62000 46.86000 22.03600
H  7.94500 48.30000 21.80700
H  11.43600 48.50000 20.81100
H  10.62100 49.77900 21.71200
H  9.72600 48.92600 20.47400
H  7.30200 45.85100 22.68900
H  8.81600 45.43000 21.90600
H  6.19500 45.99500 20.77300
H  7.65800 45.55500 19.83000
H  7.32200 47.23000 20.24100
H  3.46900 46.77200 25.76000
H  3.95800 48.15700 24.74200
H  3.11800 48.40900 26.31500
H  5.71200 48.60400 30.86000
H  3.93500 44.80400 32.17800
H  4.97300 45.31100 33.50800
H  5.80300 44.60800 32.24900

