158

Mg 40.46700 9.97200 30.31900
C  42.49400 11.27700 32.83000
C  38.47800 8.58400 32.81500
C  38.93200 8.36600 27.88500
C  42.86600 11.11000 27.93500
N  40.45600 9.95900 32.59300
C  41.33300 10.66500 33.38000
C  40.93000 10.57700 34.89600
C  39.69700 9.57200 34.83600
C  39.53100 9.34200 33.35400
C  39.77200 8.20400 35.64000
C  40.56300 11.96700 35.62200
C  41.33200 12.10700 37.00100
H  40.58300 12.73700 38.15900
N  38.87400 8.73400 30.32500
C  38.10600 8.28300 31.45600
C  37.04500 7.39100 30.98200
C  37.25100 7.27900 29.50100
C  38.40700 8.12400 29.21000
C  36.03900 6.84300 31.94200
C  36.59400 6.45300 28.52200
O  36.81400 6.43100 27.33500
C  35.51800 5.61500 29.04100
N  40.93800 9.68200 28.24100
C  40.13400 8.95200 27.45000
C  40.39100 9.20100 25.97900
C  41.65600 10.12100 26.03800
C  41.89600 10.22800 27.50100
C  40.36500 8.06000 24.88900
C  41.44400 11.55900 25.51600
C  42.63100 12.14500 24.80600
N  42.27900 11.06700 30.30600
C  43.11100 11.36500 29.28000
C  44.21100 12.10200 29.86700
C  43.95900 12.15000 31.24700
C  42.80000 11.44900 31.47500
C  45.33500 12.73900 29.21100
C  44.44800 12.73000 32.52000
O  45.36400 13.52800 32.71100
C  43.47700 12.12200 33.60100
C  44.29200 11.26600 34.42200
O  44.93400 10.32100 34.00700
O  44.14200 11.57500 35.74900
C  44.82300 10.60300 36.61900
H  37.71600 8.17800 33.48300
H  38.41800 7.92200 27.03000
H  43.63600 11.50000 27.26600
H  41.72900 10.06100 35.43000
H  38.81300 10.15400 35.09900
H  38.77900 8.11200 36.08100
H  40.55500 8.37900 36.37900
H  40.01100 7.31200 35.06200
H  39.49200 12.12600 35.73900
H  40.84300 12.69300 34.85800
H  42.16500 12.76200 36.74800
H  41.81700 11.15700 37.23000
H  35.16500 7.48700 32.03000
H  36.45200 6.65500 32.93300
H  35.74900 5.81300 31.73400
H  36.00600 4.80300 29.58100
H  34.89500 5.25900 28.22100
H  34.92300 6.31600 29.62600
H  39.55300 9.85300 25.73300
H  42.50800 9.62500 25.57200
H  40.20000 7.11000 25.39800
H  41.27700 7.98300 24.29700
H  39.56500 8.18200 24.16000
H  41.16800 12.23600 26.32400
H  40.70100 11.53700 24.71900
H  42.82200 13.13500 25.22100
H  42.39900 12.26900 23.74800
H  43.56900 11.59300 24.85600
H  45.11100 12.81400 28.14700
H  46.27100 12.17900 29.23100
H  45.46500 13.73900 29.62500
H  43.01900 12.87200 34.24600
H  45.91100 10.62500 36.55900
H  44.47400 9.57200 36.54700
H  44.59400 10.94500 37.62800
Mg -11.97300 16.58400 41.20900
C  -8.93100 14.57400 40.84400
C  -10.34900 19.11800 39.62100
C  -14.89500 18.01500 40.77200
C  -13.51300 13.68000 42.43200
N  -9.85800 16.79000 40.41900
C  -8.78200 15.95700 40.36900
C  -7.52400 16.59500 39.75400
C  -7.95600 18.08000 39.52000
C  -9.53500 18.00800 39.81300
C  -7.06900 19.22000 40.14200
C  -7.03300 15.92300 38.47400
C  -5.55100 15.46600 38.41900
H  -4.90200 16.02400 37.15300
N  -12.51900 18.41400 40.33500
C  -11.73300 19.29600 39.78000
C  -12.47000 20.48100 39.36200
C  -13.85700 20.23000 39.82700
C  -13.83900 18.86700 40.33400
C  -11.80700 21.67700 38.70400
C  -14.99600 21.22800 39.76400
O  -14.96000 22.33100 39.30900
C  -16.34200 20.83100 40.45800
N  -13.87400 15.92800 41.57700
C  -14.94800 16.72500 41.33000
C  -16.22800 16.13200 41.76200
C  -15.76800 14.83300 42.37900
C  -14.30100 14.77900 42.14700
C  -17.04500 16.99100 42.78600
C  -16.46000 13.49800 41.78200
C  -17.36400 12.75800 42.81900
N  -11.36100 14.57200 41.61600
C  -12.10600 13.49000 42.14000
C  -11.33600 12.38300 42.32100
C  -10.04100 12.78100 41.88100
C  -10.11100 14.10700 41.41700
C  -11.70400 11.01100 42.88100
C  -8.62000 12.27700 41.71900
O  -7.99900 11.27500 41.94000
C  -7.83900 13.50500 41.00800
C  -6.88500 13.94800 42.00100
O  -7.20500 14.48800 43.07300
O  -5.58800 13.60700 41.67900
C  -4.51200 14.34500 42.38900
H  -9.74300 19.90000 39.15800
H  -15.89600 18.44700 40.83400
H  -13.94500 12.74600 42.79900
H  -6.73600 16.51700 40.50300
H  -7.89600 18.27300 38.44900
H  -6.38800 18.79800 40.88000
H  -7.72200 19.93000 40.65000
H  -6.55300 19.71000 39.31600
H  -7.21400 16.48800 37.55900
H  -7.63200 15.01600 38.38700
H  -5.45200 14.38200 38.35400
H  -5.06200 15.84700 39.31600
H  -11.39200 21.37900 37.74200
H  -11.09600 22.05600 39.43900
H  -12.56000 22.46000 38.61700
H  -17.01100 21.69100 40.42800
H  -16.23000 20.60600 41.51800
H  -16.78000 19.94600 39.99500
H  -16.75000 16.04300 40.80900
H  -15.85600 14.80400 43.46500
H  -17.42900 16.45400 43.65300
H  -17.96900 17.33900 42.32500
H  -16.42600 17.78800 43.19900
H  -15.72800 12.83700 41.31900
H  -16.95400 13.81900 40.86500
H  -17.01100 11.73000 42.73100
H  -18.37400 12.70900 42.41200
H  -17.26600 13.15000 43.83100
H  -11.78000 11.09200 43.96600
H  -10.94600 10.24600 42.71100
H  -12.67000 10.70600 42.47900
H  -7.31800 13.11800 40.13200
H  -4.88000 15.27700 42.81900
H  -3.71500 14.58300 41.68400
H  -4.15700 13.67600 43.17400

