158

Mg -0.09100 7.02500 26.55200
C  0.81100 9.19000 29.24600
C  -0.24100 4.39900 28.83700
C  -0.72200 5.01000 24.13800
C  0.22600 9.78200 24.40800
N  0.03200 6.87800 28.77100
C  0.52500 7.84400 29.63000
C  0.79000 7.29700 31.05100
C  0.49200 5.78000 30.89800
C  0.07700 5.62700 29.40200
C  1.69300 4.86200 31.31500
C  0.04600 7.93600 32.22800
C  0.73200 8.04300 33.66500
H  1.96200 7.20800 33.99900
N  -0.56000 4.97800 26.50700
C  -0.57400 4.08300 27.50200
C  -0.98700 2.79600 27.03700
C  -1.11900 2.89600 25.66000
C  -0.81300 4.33200 25.35400
C  -1.26100 1.65400 27.95200
C  -1.34100 1.79600 24.61300
O  -1.27200 2.03500 23.39300
C  -1.57700 0.38400 24.98200
N  -0.26400 7.33300 24.54600
C  -0.39600 6.30800 23.70900
C  -0.60600 6.78000 22.21600
C  -0.24300 8.32400 22.32000
C  -0.12300 8.49800 23.91500
C  0.25400 5.98700 21.17000
C  -1.28000 9.20900 21.63500
C  -2.49900 9.78000 22.33200
N  0.48500 9.10000 26.73300
C  0.47800 10.07900 25.77000
C  0.80100 11.36000 26.39300
C  0.96200 11.05200 27.75300
C  0.73100 9.67600 27.90900
C  0.95000 12.67500 25.75500
C  1.37300 11.62700 28.96900
O  1.80300 12.76900 29.20600
C  1.10600 10.44100 30.04500
C  2.21800 10.27600 30.96800
O  3.24600 9.69900 30.81700
O  1.94100 11.08600 32.03200
C  2.91100 11.08400 33.08000
H  -0.20000 3.61300 29.59400
H  -0.97700 4.28500 23.36200
H  0.46600 10.60400 23.73100
H  1.86700 7.37300 31.20000
H  -0.46700 5.57300 31.37300
H  2.47900 5.38100 31.86400
H  2.16300 4.24800 30.54700
H  1.41500 4.23000 32.15800
H  -0.86600 7.36000 32.38200
H  -0.21200 8.94200 31.89700
H  0.00100 7.97800 34.47100
H  1.02900 9.09100 33.62700
H  -0.32800 1.11200 28.10800
H  -1.95700 1.04700 27.37300
H  -1.78700 1.94000 28.86300
H  -2.39600 0.36300 25.70100
H  -0.62300 0.19600 25.47500
H  -1.73700 -0.30300 24.15100
H  -1.64200 6.65900 21.89800
H  0.74500 8.59900 21.95000
H  0.98000 6.64500 20.69200
H  -0.35200 5.61800 20.34200
H  0.89200 5.25800 21.66800
H  -1.51800 8.56100 20.79200
H  -0.73400 10.06300 21.23400
H  -3.40000 9.54600 21.76600
H  -2.43800 10.84100 22.57300
H  -2.62100 9.25000 23.27700
H  1.78200 12.71100 25.05100
H  1.13300 13.38500 26.56200
H  0.08000 12.84100 25.11900
H  0.27800 10.78500 30.66500
H  2.30700 11.34400 33.95000
H  3.68900 11.83600 32.94700
H  3.28500 10.08500 33.30500
Mg 29.60800 57.54500 41.01900
C  26.65400 55.71100 39.91500
C  31.45100 55.16800 39.58400
C  32.00400 59.65200 41.38300
C  27.20100 60.12100 41.97900
N  29.03400 55.76400 39.70900
C  27.78100 55.19800 39.41700
C  28.00400 53.87200 38.67100
C  29.52700 53.57700 38.89900
C  30.03400 54.90800 39.41600
C  29.83700 52.37100 39.91500
C  27.59600 53.68400 37.13100
C  27.13800 54.95600 36.38900
H  27.50300 55.08700 34.86200
N  31.49600 57.45200 40.52300
C  32.12100 56.33900 40.00700
C  33.48800 56.72800 39.76100
C  33.72500 58.04100 40.35800
C  32.38900 58.44200 40.86100
C  34.44000 55.84900 39.01400
C  35.03300 58.77100 40.43600
O  36.01500 58.17700 40.03200
C  35.22500 60.19800 40.99200
N  29.54700 59.54500 41.61900
C  30.73400 60.22300 41.73400
C  30.55400 61.72100 41.86000
C  29.15600 61.77600 42.33100
C  28.57500 60.40800 42.03700
C  31.69000 62.39900 42.75900
C  28.32500 63.03100 41.81800
C  28.37400 64.12000 42.89700
N  27.42100 57.83700 41.16700
C  26.60800 58.92200 41.61600
C  25.15300 58.62800 41.50000
C  25.21200 57.36400 40.86800
C  26.58500 56.94800 40.69500
C  23.97900 59.37300 41.81600
C  24.28400 56.32400 40.37400
O  23.07600 56.14600 40.51800
C  25.20300 55.23800 39.75500
C  24.78400 53.95100 40.43400
O  24.79500 53.73000 41.64800
O  24.38200 53.18000 39.41900
C  24.14300 51.75700 39.58300
H  32.12900 54.37900 39.25200
H  32.72600 60.45400 41.21700
H  26.54000 60.94400 42.26100
H  27.54500 53.05100 39.22200
H  30.11200 53.39400 37.99800
H  28.94600 51.75700 40.04900
H  30.26100 52.86700 40.78800
H  30.65700 51.80800 39.47000
H  26.63700 53.16700 37.16800
H  28.34000 53.12300 36.56600
H  27.66300 55.77400 36.88200
H  26.06200 54.99600 36.55700
H  35.13000 55.62100 39.82600
H  34.95300 56.42300 38.24200
H  34.15600 54.87300 38.62000
H  34.88000 60.82800 40.17200
H  36.28000 60.39900 41.18200
H  34.73800 60.37900 41.95000
H  30.54300 62.22800 40.89500
H  29.06400 61.62300 43.40700
H  32.07900 61.68600 43.48500
H  31.30100 63.24700 43.32200
H  32.43300 62.91000 42.14500
H  27.26000 62.85600 41.66700
H  28.70100 63.49700 40.90700
H  27.37400 64.07600 43.32900
H  28.78000 65.07000 42.55100
H  29.09000 63.91700 43.69400
H  23.95100 60.34100 41.31500
H  24.10300 59.55700 42.88300
H  23.05500 58.86100 41.54600
H  24.93700 55.13300 38.70300
H  24.42200 51.17000 38.70800
H  23.05400 51.72600 39.56800
H  24.58800 51.37800 40.50400

