158

Mg 42.32200 42.02200 26.25900
C  41.52000 44.25300 28.80700
C  43.79100 39.93900 28.83700
C  43.44300 39.94700 23.86700
C  41.63200 44.45900 23.91100
N  42.72300 42.17500 28.57600
C  42.14400 43.11200 29.36300
C  42.12000 42.66600 30.83300
C  43.17400 41.45400 30.78600
C  43.22200 41.14900 29.31500
C  44.59500 41.75900 31.33500
C  40.57300 42.40600 31.20500
C  40.02900 43.06200 32.49700
H  40.93500 43.37500 33.71100
N  43.42500 40.25700 26.34600
C  43.97100 39.54700 27.39500
C  44.52700 38.33000 26.89800
C  44.37400 38.22300 25.52200
C  43.68300 39.51200 25.17400
C  45.10200 37.31300 27.89200
C  44.57600 36.99900 24.66000
O  44.29600 37.12900 23.44600
C  45.10900 35.71400 25.13900
N  42.67100 42.25600 24.11600
C  42.93900 41.18600 23.37100
C  42.91300 41.55900 21.90900
C  42.02900 42.82600 21.93200
C  42.16600 43.31600 23.34600
C  44.35500 41.80300 21.31500
C  40.58600 42.60000 21.44600
C  39.69300 41.77000 22.32700
N  41.69600 43.93000 26.24600
C  41.43300 44.82200 25.26500
C  40.94200 46.07600 25.82900
C  40.94900 45.86600 27.22400
C  41.38300 44.57100 27.39900
C  40.33900 47.24000 25.10900
C  40.47000 46.46900 28.45300
O  39.79700 47.49400 28.77000
C  40.77000 45.39900 29.55800
C  41.51100 46.12100 30.61100
O  42.69100 46.42900 30.60000
O  40.64000 46.48700 31.63500
C  41.26900 47.30300 32.67900
H  44.26400 39.26800 29.55700
H  43.41700 39.23000 23.04300
H  41.13800 45.16100 23.23600
H  42.53600 43.47700 31.43200
H  42.60000 40.75200 31.39100
H  44.63900 41.29400 32.32000
H  44.67200 42.83300 31.50900
H  45.37200 41.40100 30.66000
H  40.55300 41.31700 31.23000
H  39.88900 42.68800 30.40400
H  39.30800 42.30100 32.79600
H  39.45000 43.97400 32.35300
H  46.02500 36.83800 27.55900
H  44.41500 36.48600 28.07000
H  45.19400 37.73000 28.89500
H  46.06300 35.90200 25.63200
H  45.22000 35.17700 24.19800
H  44.40000 35.09800 25.69200
H  42.41000 40.73400 21.40400
H  42.43400 43.55600 21.23100
H  45.14500 41.26500 21.83900
H  44.58700 42.86400 21.40400
H  44.29800 41.66700 20.23500
H  40.64100 42.10600 20.47600
H  40.09900 43.54300 21.20100
H  40.23000 41.59200 23.25800
H  39.53900 40.83200 21.79300
H  38.73300 42.20700 22.60400
H  39.30100 47.39900 25.40100
H  40.27600 47.01400 24.04400
H  40.91500 48.14000 25.32700
H  39.96400 44.88600 30.08300
H  41.57400 48.25100 32.23600
H  41.99500 46.79900 33.31800
H  40.42300 47.38000 33.36100
Mg 28.19400 56.02300 41.24500
C  25.88400 53.53100 40.02600
C  30.66100 54.09800 39.95800
C  30.11000 58.67100 41.75300
C  25.40600 57.90000 41.98200
N  28.22900 53.99800 40.20400
C  27.19000 53.21700 39.68900
C  27.69400 52.16800 38.81300
C  29.22800 52.11600 39.10400
C  29.41600 53.39100 39.88000
C  29.86800 50.79400 39.74400
C  27.25900 52.25000 37.28900
C  27.06400 53.53700 36.59800
H  27.16000 53.68500 35.08600
N  30.19300 56.29000 41.03000
C  31.04700 55.36000 40.47600
C  32.33500 56.05800 40.40900
C  32.22300 57.36000 40.98000
C  30.83200 57.47200 41.38600
C  33.42900 55.29700 39.93500
C  33.33700 58.40500 41.00200
O  34.42200 58.22600 40.48200
C  33.17200 59.71100 41.66000
N  27.77800 58.00400 41.77200
C  28.80300 58.87600 42.06200
C  28.28400 60.32400 42.28700
C  26.78900 60.07300 42.52400
C  26.61900 58.58300 42.04200
C  29.05600 61.09400 43.38500
C  25.94800 61.15500 41.73700
C  24.73200 61.60800 42.56900
N  26.05500 55.73200 41.20100
C  25.09800 56.54800 41.65300
C  23.78000 55.88000 41.62100
C  24.02900 54.64700 40.99400
C  25.44000 54.61100 40.80100
C  22.42200 56.39500 42.04200
C  23.50200 53.36900 40.43700
O  22.35600 52.96900 40.43000
C  24.69200 52.69300 39.72300
C  24.70500 51.32500 40.34200
O  25.37500 51.03200 41.31100
O  23.97100 50.38000 39.67200
C  23.98000 49.02500 40.27900
H  31.49200 53.45400 39.66600
H  30.74400 59.55200 41.87800
H  24.53500 58.50000 42.25400
H  27.27500 51.29700 39.31700
H  29.70400 52.23900 38.13100
H  30.56200 51.22200 40.46700
H  30.40900 50.19300 39.01200
H  29.04600 50.22900 40.18400
H  26.26200 51.81900 37.19100
H  27.79600 51.54600 36.65300
H  27.92600 54.16000 36.83800
H  26.10300 53.99700 36.83100
H  33.11200 54.86800 38.98400
H  33.73600 54.46600 40.57000
H  34.35900 55.83800 39.76200
H  32.55300 60.21500 40.91800
H  34.11300 60.26000 41.62900
H  32.72400 59.74100 42.65300
H  28.50200 60.66600 41.27600
H  26.63400 60.05800 43.60300
H  29.70100 60.37200 43.88700
H  28.35700 61.46100 44.13600
H  29.66400 61.86400 42.91100
H  25.55000 60.78500 40.79200
H  26.62300 61.98000 41.51200
H  23.92600 61.65800 41.83700
H  24.92000 62.55300 43.08000
H  24.57500 60.85500 43.34100
H  21.85200 56.42100 41.11300
H  22.50600 57.36900 42.52400
H  22.01900 55.59000 42.65700
H  24.57000 52.47300 38.66200
H  23.36600 48.29500 39.75100
H  23.62800 49.15600 41.30200
H  25.01800 48.71000 40.17600

