158

Mg 47.42900 25.40700 28.69500
C  48.34600 27.54800 31.06500
C  46.49500 23.04500 31.08300
C  46.87400 23.12100 26.28100
C  49.07400 27.39700 26.18600
N  47.49200 25.28500 30.75400
C  47.77200 26.39700 31.53200
C  47.40700 26.17700 33.02900
C  47.07100 24.65100 32.94400
C  46.93100 24.31400 31.47100
C  48.05100 23.74600 33.74900
C  46.26600 27.09000 33.59500
C  45.75600 26.83800 35.03700
H  45.46000 27.85600 36.11600
N  46.61800 23.39200 28.68100
C  46.25400 22.62700 29.76600
C  45.92000 21.33400 29.30600
C  45.81200 21.43200 27.91800
C  46.45600 22.71000 27.55300
C  45.57700 20.20100 30.21700
C  45.28600 20.38100 26.96500
O  45.28900 20.56700 25.74900
C  44.48300 19.17200 27.56900
N  47.87000 25.30100 26.51200
C  47.41600 24.30700 25.76800
C  47.56100 24.51400 24.22900
C  48.14600 25.93300 24.25200
C  48.40700 26.28100 25.73400
C  48.43600 23.46600 23.42200
C  47.02800 26.92400 23.72000
C  47.64700 28.29900 23.18800
N  48.62800 27.02400 28.63900
C  49.22700 27.78600 27.54200
C  49.77900 28.94100 28.08600
C  49.50400 28.97200 29.49400
C  48.77600 27.74100 29.76300
C  50.67400 29.91100 27.30600
C  49.65800 29.68500 30.70300
O  50.27700 30.69300 30.95400
C  48.79200 28.85500 31.75600
C  49.60200 28.81300 32.99800
O  50.69700 28.26200 33.06400
O  48.94000 29.36800 34.07300
C  49.65500 29.43700 35.40100
H  46.19100 22.32000 31.84100
H  46.69500 22.39700 25.48400
H  49.33800 28.16100 25.45200
H  48.36300 26.36200 33.52000
H  46.17000 24.52300 33.54300
H  47.61300 23.48900 34.71400
H  48.96400 24.32700 33.88500
H  48.15800 22.83400 33.16300
H  45.45300 26.89700 32.89500
H  46.66900 28.10200 33.57800
H  46.48800 26.17100 35.49200
H  44.82400 26.31700 34.81700
H  46.00900 19.27700 29.83200
H  44.50000 20.03300 30.21900
H  46.01700 20.30300 31.20900
H  43.91500 18.55700 26.87100
H  43.76600 19.58700 28.27700
H  45.12800 18.41800 28.02000
H  46.60100 24.48000 23.71400
H  49.10600 26.01300 23.74100
H  49.24100 23.99300 22.90800
H  47.79000 23.00800 22.67300
H  48.84300 22.70200 24.08400
H  46.39600 27.15600 24.57700
H  46.46600 26.45700 22.91100
H  47.31700 28.39900 22.15400
H  48.72500 28.18500 23.07500
H  47.18900 29.13500 23.71700
H  51.53300 29.39900 26.87400
H  51.22900 30.38200 28.11700
H  50.14900 30.66100 26.71600
H  47.90800 29.46400 31.94900
H  50.06400 30.40400 35.69200
H  50.42000 28.66200 35.44000
H  48.89400 29.09500 36.10300
Mg -4.90700 25.67600 26.06800
C  -3.86200 27.08300 29.16500
C  -6.52800 23.20600 27.97100
C  -5.52800 24.09200 23.15300
C  -2.90900 27.92200 24.43400
N  -5.11900 25.12100 28.29900
C  -4.62100 25.87300 29.40900
C  -5.10800 25.26900 30.70100
C  -5.75700 23.93000 30.29700
C  -5.74400 24.03100 28.75800
C  -5.09500 22.60500 30.92400
C  -5.91700 26.27800 31.45700
C  -5.66800 26.49000 32.93100
H  -5.29000 25.34900 33.92800
N  -6.03400 24.02800 25.61000
C  -6.73900 23.19900 26.52000
C  -7.47600 22.19300 25.73500
C  -7.23800 22.47400 24.32500
C  -6.25800 23.56000 24.27100
C  -8.35100 21.14900 26.48500
C  -7.81400 21.80600 23.10300
O  -7.63400 22.24100 21.94700
C  -8.81500 20.84600 23.42000
N  -4.23000 25.90200 24.14800
C  -4.66000 25.16900 23.09800
C  -4.04000 25.59500 21.74500
C  -3.33400 26.92400 22.15900
C  -3.53000 26.94400 23.66300
C  -3.12400 24.58100 21.07600
C  -4.00300 28.20500 21.56100
C  -3.30100 28.72500 20.37200
N  -3.61300 27.17400 26.70000
C  -2.89800 27.99500 25.85000
C  -2.29900 29.03500 26.63000
C  -2.68600 28.72500 27.99900
C  -3.47000 27.58800 27.95800
C  -1.48500 30.20300 26.19300
C  -2.40600 29.04100 29.38900
O  -1.69100 29.88500 29.89900
C  -3.18500 27.96800 30.22000
C  -2.27300 27.23500 31.10000
O  -1.64900 26.26600 30.75300
O  -2.05400 27.92600 32.30500
C  -1.35900 27.15700 33.36100
H  -7.04800 22.48600 28.60700
H  -5.71200 23.55100 22.22300
H  -2.52600 28.76500 23.85500
H  -4.22200 25.13300 31.32100
H  -6.80900 23.93200 30.58400
H  -4.59500 22.83800 31.86500
H  -4.28400 22.24100 30.29300
H  -5.85800 21.82900 30.97200
H  -6.96300 25.99000 31.35500
H  -5.87800 27.26500 30.99700
H  -6.61600 26.88200 33.29700
H  -4.89000 27.25400 32.91000
H  -9.39900 21.34300 26.71300
H  -7.96800 20.93800 27.48400
H  -8.34100 20.24000 25.88400
H  -9.34400 21.33400 24.23800
H  -8.31100 19.92400 23.71100
H  -9.46000 20.68100 22.55600
H  -4.87700 25.88600 21.11000
H  -2.27900 26.89000 21.89000
H  -2.07400 24.78300 21.28800
H  -3.31200 24.51500 20.00400
H  -3.38400 23.58500 21.43400
H  -3.93800 29.03400 22.26500
H  -5.06900 28.12300 21.35100
H  -2.70900 27.93800 19.90500
H  -2.59400 29.46300 20.75100
H  -3.96500 29.07400 19.58100
H  -0.40500 30.05500 26.19300
H  -1.69100 30.94200 26.96800
H  -1.83300 30.63200 25.25300
H  -4.01800 28.48600 30.69500
H  -0.27900 27.22000 33.23200
H  -1.69500 26.12000 33.33900
H  -1.62700 27.54600 34.34300

