158

Mg 40.48300 9.72000 30.55900
C  42.07700 11.18800 33.20600
C  37.91000 8.76000 32.77900
C  38.87100 8.39500 27.96100
C  43.34100 10.03600 28.54600
N  39.91200 10.13700 32.72500
C  40.74000 10.70500 33.59900
C  40.18300 10.65000 35.11000
C  38.95300 9.72700 34.96800
C  38.87300 9.53400 33.39100
C  39.04400 8.42100 35.88600
C  39.87500 12.10100 35.69300
C  40.69900 12.57100 36.99100
H  39.87200 13.08400 38.15700
N  38.61100 8.64500 30.35600
C  37.72600 8.38200 31.42800
C  36.56600 7.69300 30.81700
C  36.83700 7.43900 29.44400
C  38.15000 8.14100 29.15000
C  35.42600 7.24400 31.75800
C  35.98900 6.75100 28.30900
O  36.15300 6.84700 27.12700
C  34.83600 5.93200 28.79900
N  41.06200 9.35600 28.54000
C  40.13200 8.91300 27.65500
C  40.73700 8.82200 26.21300
C  42.25300 9.01500 26.48800
C  42.23200 9.52300 27.87500
C  40.41300 7.56500 25.29600
C  42.96400 9.83000 25.38900
C  42.87400 11.33700 25.59600
N  42.32700 10.45800 30.78300
C  43.39000 10.50700 29.85100
C  44.37300 11.28300 30.49500
C  43.92500 11.58600 31.78700
C  42.66500 11.03500 31.94200
C  45.71300 11.67600 29.84300
C  44.30700 12.21000 33.10200
O  45.39300 12.74700 33.36200
C  43.11600 11.88700 34.08400
C  43.80100 11.09700 35.15800
O  44.35500 9.99500 35.09100
O  43.94400 11.89600 36.31700
C  44.32500 11.15900 37.51400
H  37.24300 8.31900 33.52300
H  38.27600 8.00500 27.13200
H  44.13400 10.20700 27.81500
H  40.84200 10.14000 35.81300
H  38.05300 10.18400 35.38000
H  39.75700 7.72300 35.44700
H  38.11500 7.85300 35.84200
H  39.24000 8.57300 36.94700
H  38.84400 12.16500 36.04100
H  39.97800 12.81800 34.87800
H  41.35700 13.37500 36.66000
H  41.27400 11.68400 37.25500
H  35.16200 8.05500 32.43600
H  35.72400 6.41700 32.40300
H  34.53000 7.03300 31.17400
H  35.31900 5.21900 29.46800
H  34.43500 5.46100 27.90200
H  34.07400 6.62200 29.16100
H  40.25200 9.59800 25.62000
H  42.76400 8.05900 26.60000
H  39.92300 7.70300 24.33300
H  39.93500 6.82400 25.93700
H  41.38800 7.23700 24.93400
H  42.54600 9.55700 24.41900
H  44.02000 9.58200 25.28600
H  42.05300 11.69800 26.21600
H  42.74300 11.77700 24.60700
H  43.84000 11.68300 25.96200
H  45.51600 12.25000 28.93800
H  46.38700 10.84600 29.63300
H  46.14900 12.39900 30.53300
H  42.73500 12.79500 34.55000
H  43.95600 11.81500 38.30300
H  45.39400 10.97100 37.61300
H  43.77400 10.22000 37.55600
Mg 36.15600 50.21500 25.11400
C  36.53300 48.46200 28.08700
C  34.55800 52.74700 26.79200
C  35.82100 51.87100 22.14300
C  37.65000 47.58500 23.46200
N  35.65200 50.57900 27.17900
C  35.96600 49.73100 28.24100
C  35.62900 50.35400 29.60000
C  34.81100 51.65400 29.14900
C  35.01400 51.72400 27.61400
C  33.28200 51.67600 29.52400
C  36.92300 50.58900 30.50900
C  36.81700 50.24900 31.96700
H  35.42200 50.00200 32.53800
N  35.46800 52.16700 24.56000
C  34.70800 52.95900 25.35600
C  34.18900 54.07900 24.51300
C  34.66900 53.93800 23.21800
C  35.42900 52.62400 23.24000
C  33.31400 55.12600 25.21300
C  34.40900 54.81200 21.95600
O  34.83400 54.57700 20.80100
C  33.65700 56.07700 22.20300
N  36.73200 49.77400 23.06500
C  36.47800 50.65200 22.03400
C  36.74000 49.88800 20.67000
C  37.52200 48.63300 21.14500
C  37.28800 48.60800 22.63700
C  35.34300 49.50600 20.06400
C  38.95400 48.49400 20.57500
C  40.11000 48.38200 21.63800
N  36.85900 48.32800 25.58400
C  37.44900 47.33300 24.82700
C  37.69500 46.12400 25.59900
C  37.43100 46.55500 26.91700
C  36.98400 47.86600 26.88000
C  38.31600 44.84600 25.17800
C  37.46600 46.18100 28.29900
O  37.76500 45.06700 28.75300
C  37.00200 47.45400 29.13700
C  35.96600 46.90700 30.06000
O  34.78600 46.87800 29.82100
O  36.52100 46.33900 31.19700
C  35.55300 45.62700 32.04000
H  34.05200 53.55200 27.33100
H  35.67600 52.39000 21.19400
H  38.20200 46.86600 22.85200
H  35.03100 49.64100 30.16700
H  35.26200 52.52600 29.62200
H  32.84600 50.68100 29.61500
H  32.70200 52.17200 28.74600
H  33.06600 52.22000 30.44300
H  37.13900 51.65200 30.40100
H  37.77000 50.14800 29.98400
H  37.22900 51.00700 32.63300
H  37.40400 49.36700 32.22500
H  33.95500 55.95000 25.52300
H  32.76600 54.63600 26.01800
H  32.55400 55.64700 24.63000
H  32.58000 55.96500 22.33200
H  33.78000 56.74000 21.34600
H  34.09100 56.61500 23.04600
H  37.34900 50.40600 19.93000
H  36.90300 47.83500 20.73500
H  34.50500 50.12000 20.39400
H  35.14900 48.46900 20.33900
H  35.44800 49.65400 18.99000
H  39.18200 49.40400 20.02000
H  39.05500 47.64900 19.89400
H  39.86400 48.80400 22.61200
H  40.89800 49.07800 21.35000
H  40.46600 47.35600 21.72900
H  38.24000 44.77100 24.09300
H  37.93500 43.90800 25.58200
H  39.36700 44.87800 25.46500
H  37.77600 47.78000 29.83200
H  35.28900 44.68900 31.55200
H  34.66300 46.17900 32.34300
H  36.05300 45.31600 32.95700

