158

Mg 1.64400 -2.39400 43.32200
C  4.90100 -1.77600 42.90700
C  0.57900 0.31800 41.65600
C  -1.75100 -3.54700 43.47300
C  2.54400 -5.53600 44.80900
N  2.66700 -0.91500 42.37200
C  4.04700 -0.81900 42.25200
C  4.40400 0.39100 41.42700
C  2.91300 1.13300 41.31200
C  1.94100 0.13200 41.85500
C  2.93600 2.43300 42.18800
C  5.07000 0.07400 40.03000
C  6.39200 0.76800 39.77100
H  6.39000 1.81000 38.69400
N  -0.32600 -1.63500 42.78500
C  -0.53400 -0.46100 42.06500
C  -1.96200 -0.26900 41.92300
C  -2.62500 -1.28300 42.63000
C  -1.58400 -2.27700 42.96900
C  -2.48700 1.05100 41.30800
C  -4.16700 -1.35500 42.83000
O  -4.90800 -0.45600 42.47300
C  -4.91200 -2.52100 43.45200
N  0.46700 -4.26900 44.17000
C  -0.83600 -4.43700 44.10100
C  -1.23500 -5.78200 44.75800
C  0.20900 -6.45000 45.06200
C  1.17000 -5.35300 44.64400
C  -2.27100 -5.85800 45.91300
C  0.47000 -7.83600 44.43100
C  0.75100 -8.97100 45.43700
N  3.34500 -3.50300 43.86000
C  3.58600 -4.65800 44.49700
C  5.07900 -4.85300 44.66700
C  5.67000 -3.68700 44.06700
C  4.54900 -2.95400 43.56300
C  5.88800 -5.96200 45.32200
C  6.92200 -2.94000 43.76600
O  8.08800 -3.12700 44.06000
C  6.42900 -1.67300 42.88900
C  6.96000 -0.62000 43.70300
O  6.70300 -0.40700 44.86300
O  7.93200 -0.02900 42.98200
C  8.50900 1.20400 43.66100
H  0.44500 1.26600 41.13000
H  -2.76800 -3.94600 43.46500
H  2.97100 -6.46500 45.19100
H  5.09200 0.98900 42.02400
H  2.89900 1.43600 40.26500
H  3.02900 3.27900 41.50700
H  3.73000 2.45900 42.93500
H  1.96600 2.51600 42.67900
H  4.40600 0.40000 39.23000
H  5.26800 -0.99800 40.03800
H  7.08200 -0.00700 39.43700
H  6.91000 1.25800 40.59600
H  -3.01300 0.77000 40.39500
H  -1.70900 1.81300 41.26000
H  -3.29300 1.45300 41.92200
H  -5.96500 -2.25200 43.52600
H  -4.48900 -2.83200 44.40700
H  -4.92700 -3.33900 42.73100
H  -1.66800 -6.29300 43.89700
H  0.09400 -6.67300 46.12300
H  -3.13800 -5.26900 45.61500
H  -1.82500 -5.51900 46.84800
H  -2.58700 -6.89200 46.05700
H  1.41000 -7.78900 43.88000
H  -0.36500 -8.14000 43.80000
H  1.79100 -9.27700 45.31900
H  0.07600 -9.82700 45.45500
H  0.82800 -8.54100 46.43600
H  5.30000 -6.57300 46.00700
H  6.73400 -5.53200 45.85900
H  6.30000 -6.62800 44.56400
H  6.94900 -1.71300 41.93200
H  8.84900 1.89800 42.89300
H  9.27200 0.97900 44.40700
H  7.75100 1.79800 44.17200
Mg 47.21300 35.16000 27.10400
C  45.49100 33.16300 29.43200
C  47.37200 37.77500 29.32100
C  48.70100 36.95200 24.68500
C  46.41200 32.62900 24.67300
N  46.56000 35.42300 29.16600
C  45.99500 34.38800 29.94000
C  45.96300 34.85500 31.28800
C  46.09800 36.40800 31.20000
C  46.67500 36.65400 29.76500
C  44.68800 37.10400 31.56100
C  47.19800 34.22900 32.10500
C  46.96800 34.15700 33.66000
H  45.98200 35.04300 34.33100
N  48.05200 37.01800 27.09100
C  48.05400 37.94400 28.11500
C  48.75200 39.13100 27.72900
C  49.13100 38.92300 26.30300
C  48.70300 37.54700 25.97900
C  48.95600 40.19400 28.78000
C  49.81500 39.94400 25.39900
O  50.25700 39.60000 24.32300
C  50.04600 41.41000 25.75000
N  47.20200 34.96700 24.79500
C  48.04700 35.81000 24.17000
C  48.41400 35.20200 22.76600
C  47.76600 33.75500 22.84400
C  47.07000 33.78000 24.16600
C  47.91800 36.02600 21.61500
C  48.83900 32.56300 22.68000
C  48.31800 31.49400 21.69000
N  46.08500 33.33200 27.07200
C  45.99400 32.42900 25.98200
C  45.40100 31.20500 26.56000
C  45.12700 31.43900 27.90800
C  45.55200 32.74300 28.09900
C  45.16700 29.95200 25.94300
C  44.62300 30.90800 29.08100
O  44.09800 29.83600 29.38300
C  44.56300 32.12500 30.08200
C  45.05000 31.47200 31.35900
O  46.20000 31.01900 31.52300
O  44.06800 31.50500 32.23200
C  44.52400 30.93600 33.48300
H  47.42200 38.68300 29.92600
H  49.00000 37.58000 23.84400
H  46.34400 31.74700 24.03300
H  45.13500 34.57300 31.93700
H  46.90700 36.69600 31.87200
H  43.95300 36.41200 31.97200
H  44.19400 37.55900 30.70300
H  44.86400 37.91400 32.27000
H  48.19100 34.60300 31.85500
H  47.41000 33.20800 31.78900
H  47.94000 34.38100 34.09900
H  46.76700 33.14600 34.01400
H  49.49600 41.05400 28.38500
H  49.43300 39.67800 29.61400
H  48.00100 40.47800 29.22200
H  50.45200 42.00600 24.93300
H  50.69800 41.18800 26.59400
H  49.13900 41.81800 26.19500
H  49.50000 35.26000 22.69300
H  47.00800 33.62200 22.07200
H  47.42300 35.36100 20.90700
H  48.79300 36.45900 21.13100
H  47.24800 36.82700 21.92600
H  49.07700 32.06100 23.61800
H  49.74400 32.98400 22.24100
H  47.53100 31.99300 21.12600
H  47.83800 30.68800 22.24500
H  49.14300 31.26100 21.01700
H  44.40300 29.33900 26.42300
H  46.07600 29.35600 25.86200
H  44.92900 30.04700 24.88400
H  43.55600 32.51700 30.22400
H  44.75300 29.87200 33.41100
H  43.87100 31.21300 34.31000
H  45.37900 31.55100 33.76600

