158

Mg 54.64600 23.98900 44.95300
C  52.13600 26.14900 43.89600
C  52.71800 21.28200 43.93600
C  57.51200 22.01200 44.95700
C  56.72000 26.71600 45.61900
N  52.61500 23.79100 44.10900
C  51.81700 24.82300 43.67700
C  50.45100 24.27400 43.25200
C  50.53200 22.69800 43.63300
C  52.05500 22.50300 43.89400
C  49.62900 22.26500 44.88300
C  50.17700 24.46800 41.70300
C  48.73000 24.83800 41.41400
H  48.15800 24.61100 40.05800
N  55.00900 22.00800 44.56100
C  54.03300 21.00100 44.31400
C  54.58900 19.71000 44.33500
C  56.02400 19.92400 44.35100
C  56.26000 21.36300 44.58700
C  53.75300 18.50300 43.99500
C  57.05200 18.85600 44.14500
O  56.72200 17.66900 44.09700
C  58.43100 19.26300 43.84600
N  56.82300 24.39800 45.12400
C  57.75400 23.36600 45.23400
C  59.08200 23.82800 45.95300
C  58.84400 25.42100 46.03500
C  57.36400 25.50500 45.63200
C  59.18200 23.07500 47.39600
C  59.70800 26.23500 45.10900
C  61.25200 25.79900 44.87800
N  54.49700 26.05600 44.83900
C  55.42000 27.01500 45.23500
C  54.63200 28.29900 45.21300
C  53.35300 27.94400 44.68900
C  53.36900 26.62800 44.41700
C  55.15600 29.68300 45.65200
C  52.05600 28.50800 44.47900
O  51.55500 29.61000 44.70600
C  51.17300 27.37500 43.86400
C  50.84200 27.79100 42.52900
O  51.61600 27.89100 41.62400
O  49.57100 28.23200 42.62600
C  48.98400 28.92900 41.41200
H  52.07500 20.42100 43.74200
H  58.31000 21.27200 45.04600
H  57.30000 27.62000 45.81400
H  49.74500 24.85700 43.84300
H  50.20500 22.08500 42.79400
H  49.49500 21.18500 44.82400
H  48.60200 22.62600 44.83300
H  49.99000 22.49400 45.88600
H  50.31700 23.49500 41.23200
H  51.00400 25.12300 41.43000
H  48.67000 25.90300 41.64000
H  48.00300 24.38200 42.08500
H  53.38700 18.55400 42.97000
H  52.93600 18.69100 44.69300
H  54.19200 17.57800 44.36900
H  58.99200 18.52600 43.27200
H  58.98300 19.34800 44.78200
H  58.34100 20.16000 43.23300
H  60.01700 23.64100 45.42500
H  58.94100 25.74900 47.07000
H  59.29900 23.80300 48.19800
H  59.96600 22.32000 47.44900
H  58.22900 22.62000 47.66600
H  59.85000 27.24100 45.50100
H  59.13000 26.41300 44.20200
H  61.40600 24.94800 44.21400
H  61.78900 25.67200 45.81800
H  61.80200 26.53500 44.29100
H  56.23500 29.73100 45.50300
H  55.05500 29.87000 46.72100
H  54.64500 30.38000 44.98700
H  50.30300 27.07400 44.44800
H  49.69600 28.99500 40.59000
H  48.60400 29.94100 41.55300
H  48.12800 28.34000 41.08400
Mg 35.97800 48.99200 24.88500
C  36.14200 46.96000 27.67000
C  34.40300 51.38200 26.81700
C  34.89700 50.63600 22.06000
C  36.91000 46.25900 22.96000
N  35.34400 49.13300 26.96200
C  35.62300 48.19300 27.90900
C  35.36800 48.77300 29.29000
C  34.44000 49.96100 28.99300
C  34.71800 50.18200 27.50900
C  32.86800 49.81800 29.23000
C  36.74900 49.30800 29.93600
C  36.71500 49.15300 31.46800
H  35.37700 48.91800 32.15600
N  35.03100 50.79400 24.47600
C  34.52600 51.62000 25.43200
C  34.20400 52.88400 24.87700
C  34.34100 52.78000 23.44400
C  34.71600 51.28800 23.25100
C  33.77100 54.09300 25.68000
C  34.27200 53.78600 22.30000
O  34.79500 53.60400 21.23200
C  33.83600 55.18800 22.57500
N  35.84700 48.45600 22.78300
C  35.46800 49.35800 21.85600
C  35.86100 48.85000 20.42900
C  36.77500 47.64200 20.72500
C  36.54800 47.44600 22.24900
C  34.52000 48.56100 19.62400
C  38.25100 47.82700 20.30000
C  39.36500 47.62300 21.41600
N  36.54000 47.00600 25.17900
C  36.95300 46.04400 24.31100
C  37.42400 44.86900 25.03700
C  37.13300 45.15700 26.40100
C  36.52000 46.43500 26.36900
C  38.05300 43.66100 24.53200
C  37.08000 44.68000 27.81400
O  37.39300 43.62400 28.36100
C  36.57400 45.90900 28.63100
C  35.56100 45.43200 29.52900
O  34.37400 45.42300 29.26100
O  36.14300 45.10400 30.72100
C  35.18500 44.55100 31.73300
H  34.03900 52.17000 27.47900
H  34.75400 51.18000 21.12400
H  37.41000 45.46600 22.40000
H  34.87900 48.00000 29.88300
H  34.70000 50.76500 29.68100
H  32.29200 49.66100 28.31800
H  32.52600 50.74400 29.69200
H  32.64300 48.96100 29.86500
H  36.93000 50.35100 29.67400
H  37.48600 48.59000 29.57500
H  37.06600 50.14600 31.74900
H  37.33600 48.31500 31.78500
H  33.49900 53.74700 26.67700
H  32.90100 54.56100 25.21900
H  34.60000 54.79900 25.71800
H  32.99800 55.15100 23.27200
H  33.39600 55.60500 21.66900
H  34.65000 55.80100 22.96100
H  36.45800 49.65300 19.99700
H  36.39000 46.72100 20.28700
H  33.63900 48.75600 20.23600
H  34.44900 47.53900 19.25100
H  34.53700 49.36600 18.88800
H  38.34800 48.89600 20.10700
H  38.48200 47.19300 19.44400
H  39.19900 46.69300 21.96000
H  39.37100 48.36600 22.21400
H  40.34900 47.55700 20.95100
H  38.08700 42.86100 25.27200
H  39.05500 43.99300 24.26200
H  37.54200 43.23500 23.66900
H  37.35400 46.22500 29.32300
H  34.23600 44.15700 31.36800
H  34.92600 45.34600 32.43200
H  35.60300 43.71700 32.29700

