158

Mg 52.47600 23.66700 44.56300
C  49.51400 25.46400 44.01700
C  50.73800 20.71000 43.68300
C  55.45500 22.14100 44.19200
C  54.05400 26.60700 45.42600
N  50.32300 23.16300 43.88100
C  49.31200 24.06500 43.75200
C  48.02200 23.27500 43.49600
C  48.35300 21.76000 43.47600
C  49.91000 21.87500 43.74900
C  47.54000 20.94500 44.44100
C  47.06300 23.79400 42.34600
C  47.67500 23.93300 40.93200
H  47.55800 22.71800 39.93900
N  53.03300 21.69000 44.12700
C  52.14400 20.65100 43.78600
C  52.98900 19.42100 43.63700
C  54.33000 19.81200 43.69500
C  54.36000 21.26300 44.00500
C  52.35700 18.05800 43.32600
C  55.46600 18.91800 43.23000
O  55.27900 17.72700 43.04100
C  56.75800 19.48700 42.93700
N  54.45900 24.34100 44.59500
C  55.46700 23.45000 44.42400
C  56.75900 24.22500 44.83500
C  56.44100 25.75100 44.83100
C  54.88500 25.60100 45.03200
C  57.47300 23.65200 46.05100
C  56.77200 26.59600 43.55800
C  58.14100 27.28100 43.47200
N  51.88900 25.66200 44.74500
C  52.60500 26.69000 45.27000
C  51.75200 27.83000 45.51400
C  50.52900 27.44800 44.91900
C  50.66900 26.10500 44.46500
C  52.09100 29.20900 45.99900
C  49.14400 27.82000 44.61800
O  48.52800 28.86600 44.92400
C  48.55000 26.65400 43.88000
C  48.39100 27.09300 42.51300
O  49.19200 26.91900 41.60100
O  47.18100 27.72200 42.32700
C  46.72300 27.79300 40.92100
H  50.18800 19.78700 43.49000
H  56.48900 21.79600 44.11600
H  54.53400 27.47700 45.88100
H  47.50100 23.60700 44.39400
H  48.22900 21.42500 42.44600
H  47.30100 19.97500 44.00500
H  46.66700 21.55300 44.68000
H  48.16300 20.74100 45.31100
H  46.73100 24.78900 42.64000
H  46.12900 23.23300 42.36400
H  48.72000 24.18400 41.10900
H  47.14400 24.79700 40.53300
H  52.63900 17.22700 43.97300
H  52.53000 17.77700 42.28700
H  51.27300 17.96500 43.40200
H  57.38100 18.78700 42.37900
H  57.33400 19.52900 43.86100
H  56.69100 20.39900 42.34400
H  57.37000 24.11700 43.93800
H  56.85800 26.18700 45.73900
H  58.37400 23.11500 45.75400
H  56.83700 22.88800 46.49600
H  57.68500 24.42300 46.79200
H  56.02500 27.37400 43.40100
H  56.79400 25.97900 42.66000
H  58.60600 26.82500 42.59800
H  58.77400 27.08300 44.33800
H  58.10000 28.36900 43.42600
H  53.06600 29.56900 45.67300
H  52.02500 29.34600 47.07900
H  51.33100 29.85800 45.56500
H  47.56500 26.41900 44.28300
H  45.91000 27.06700 40.87700
H  47.49600 27.73000 40.15500
H  46.22600 28.76100 40.85800
Mg 34.16900 49.09200 25.54400
C  34.66600 47.32900 28.60800
C  32.29200 51.31900 27.48500
C  33.87200 50.99900 22.80700
C  35.65800 46.59700 23.81800
N  33.49600 49.18000 27.80600
C  33.93900 48.48100 28.86800
C  33.62500 49.14900 30.21600
C  32.59800 50.22000 29.79400
C  32.79400 50.25200 28.26300
C  31.13400 49.97700 30.28200
C  34.87500 49.71000 30.83100
C  34.88900 49.73800 32.39300
H  33.59400 49.59500 33.18700
N  33.26000 50.88000 25.23400
C  32.53700 51.64600 26.12500
C  32.10900 52.87100 25.47500
C  32.54400 52.86300 24.08400
C  33.26100 51.56100 23.98600
C  31.36200 53.93400 26.13300
C  32.26200 53.87500 22.94000
O  32.80300 53.71300 21.86200
C  31.44200 55.07900 23.19100
N  34.68800 48.84800 23.66200
C  34.36100 49.72300 22.65800
C  34.64700 49.08100 21.22100
C  35.51800 47.86100 21.61800
C  35.27500 47.74100 23.14200
C  33.43800 48.84600 20.44000
C  37.01300 47.98300 21.15600
C  37.97300 48.83300 22.09200
N  34.98000 47.28200 26.03000
C  35.54400 46.39400 25.23600
C  35.92700 45.15000 26.01700
C  35.61500 45.52500 27.34800
C  35.12200 46.86900 27.31000
C  36.48200 43.94100 25.55400
C  35.70500 45.00900 28.69500
O  35.97900 43.88700 29.13900
C  35.14300 46.28700 29.56700
C  33.99800 45.76600 30.34700
O  32.88800 45.44300 29.94900
O  34.42400 45.43800 31.58400
C  33.50800 44.54600 32.37100
H  31.64900 51.96000 28.09300
H  33.79700 51.58300 21.88700
H  36.16600 45.83300 23.22700
H  33.32200 48.35100 30.89400
H  32.88700 51.23500 30.06700
H  30.82100 48.93300 30.31500
H  30.46500 50.52400 29.61700
H  31.09900 50.30000 31.32200
H  34.94800 50.75700 30.53500
H  35.77600 49.19800 30.49400
H  35.20700 50.74200 32.67400
H  35.48500 48.92500 32.80600
H  31.14100 53.71300 27.17700
H  30.39500 53.89700 25.63200
H  31.98600 54.82700 26.08300
H  31.87000 55.78000 23.90800
H  30.45400 54.75100 23.51400
H  31.23700 55.59500 22.25400
H  35.23400 49.80900 20.66100
H  35.15100 46.93400 21.17600
H  32.62800 48.80100 21.16800
H  33.29800 47.84900 20.02000
H  33.27300 49.49900 19.58300
H  37.07400 48.35700 20.13400
H  37.46800 46.99300 21.20300
H  38.53300 49.48900 21.42600
H  38.61200 48.17800 22.68500
H  37.42900 49.46300 22.79600
H  37.08200 44.15800 24.67000
H  35.88800 43.05600 25.32500
H  37.21900 43.70300 26.32100
H  35.92900 46.67700 30.21200
H  33.19500 43.69200 31.77100
H  32.67300 45.19300 32.63900
H  34.02700 44.20700 33.26800

