158

Mg 48.02100 34.62100 27.26800
C  45.87700 33.07200 29.76600
C  48.67100 37.16900 29.52700
C  49.22100 36.32800 24.84900
C  47.10400 31.99400 25.23600
N  47.25700 35.02000 29.26900
C  46.49400 34.24300 30.18700
C  46.77500 34.79600 31.59800
C  47.03900 36.33200 31.35500
C  47.75800 36.15300 29.97400
C  45.85000 37.24300 31.29900
C  47.99400 34.03400 32.39100
C  47.60400 33.54800 33.84000
H  48.07900 34.38600 35.01100
N  48.90200 36.45300 27.16000
C  49.17600 37.29600 28.24700
C  49.81000 38.54300 27.75800
C  50.02700 38.26700 26.34300
C  49.33600 36.99300 26.07800
C  50.24000 39.67400 28.62200
C  50.69300 39.22600 25.45000
O  50.80100 38.98600 24.29200
C  51.03000 40.61700 25.92800
N  48.10300 34.25700 25.29400
C  48.77000 35.12700 24.51000
C  48.78900 34.58600 23.00900
C  48.29400 33.07300 23.21300
C  47.74500 33.11000 24.67700
C  47.94300 35.44100 21.98200
C  49.40800 32.01100 23.10900
C  50.71600 32.00600 23.95900
N  46.82500 32.90400 27.43800
C  46.59400 31.87600 26.57000
C  45.76300 30.85600 27.07700
C  45.47600 31.25400 28.34500
C  46.09400 32.52200 28.49200
C  45.63000 29.55200 26.40900
C  44.82200 30.90800 29.58200
O  44.20300 29.95800 29.95700
C  44.98600 32.12400 30.53100
C  45.49000 31.60500 31.76600
O  46.60700 31.12900 31.86700
O  44.48400 31.56200 32.71200
C  44.84000 30.83700 33.97900
H  48.88700 37.89700 30.31200
H  49.73900 36.81000 24.01700
H  46.86200 31.31500 24.41600
H  45.82500 34.81500 32.13200
H  47.68600 36.80200 32.09600
H  44.98500 36.58300 31.23900
H  45.81800 37.87500 30.41100
H  45.74700 37.84600 32.20200
H  48.87200 34.67500 32.47500
H  48.37300 33.16400 31.85500
H  47.85000 32.50800 34.05400
H  46.53300 33.63400 34.02000
H  51.31800 39.81300 28.69400
H  50.01200 39.41500 29.65600
H  49.68000 40.55000 28.29600
H  50.20200 41.19200 26.34200
H  51.28400 41.28500 25.10600
H  51.86200 40.61800 26.63300
H  49.82800 34.51700 22.68800
H  47.55000 32.81200 22.46100
H  48.55600 36.23300 21.55100
H  47.06900 35.91700 22.42800
H  47.53000 34.77400 21.22500
H  49.81500 32.23200 22.12200
H  49.07100 30.97500 23.08700
H  50.75800 31.01100 24.40100
H  50.69700 32.78300 24.72300
H  51.57500 32.05300 23.28900
H  46.08300 28.83000 27.08900
H  46.28500 29.55000 25.53800
H  44.63000 29.25100 26.09800
H  44.01600 32.60500 30.65000
H  45.19400 31.63400 34.63400
H  45.54400 30.01700 33.83700
H  43.97300 30.37200 34.44700
Mg -5.21300 25.55100 26.77300
C  -3.74200 27.33500 29.55300
C  -6.73500 23.47300 29.10400
C  -5.99500 23.55900 24.14100
C  -3.28500 27.57600 24.59700
N  -5.24300 25.48900 29.02000
C  -4.62300 26.28400 29.93900
C  -4.85700 25.73400 31.43300
C  -5.72700 24.50900 31.28800
C  -5.91600 24.44500 29.71500
C  -5.10700 23.15900 31.89500
C  -5.36800 26.99400 32.17000
C  -6.46600 26.82800 33.26400
H  -6.14500 25.92800 34.48900
N  -6.17700 23.79300 26.65700
C  -6.80300 23.16100 27.70100
C  -7.61700 22.03700 27.13800
C  -7.38300 22.01100 25.73900
C  -6.45900 23.16600 25.46100
C  -8.45100 21.22100 28.06000
C  -7.96500 21.02800 24.64200
O  -7.57700 20.99500 23.48500
C  -8.86100 19.95700 25.14300
N  -4.75800 25.59800 24.65900
C  -5.29000 24.75300 23.73300
C  -4.95100 25.16000 22.30400
C  -4.04400 26.42600 22.49700
C  -4.04000 26.57600 23.99200
C  -4.23700 24.06400 21.49300
C  -4.64200 27.75700 21.88700
C  -3.57500 28.66200 21.31200
N  -3.77400 27.09600 26.93800
C  -3.15500 27.84000 26.00200
C  -2.26400 28.73200 26.68000
C  -2.52200 28.59200 28.07400
C  -3.44000 27.58200 28.19500
C  -1.23100 29.61600 26.04500
C  -2.09700 29.20000 29.36100
O  -1.31600 30.04800 29.62200
C  -2.83700 28.32800 30.39300
C  -1.77000 27.63300 31.05600
O  -0.95700 26.94000 30.51400
O  -1.93400 27.75000 32.43500
C  -1.34500 26.76400 33.34200
H  -7.19400 22.77100 29.80200
H  -6.25100 23.04600 23.21200
H  -2.70800 28.23800 23.94800
H  -3.87000 25.42800 31.77800
H  -6.67500 24.62300 31.81300
H  -4.46700 23.47900 32.71800
H  -4.47400 22.64100 31.17400
H  -5.82000 22.41100 32.24400
H  -5.64600 27.75700 31.44300
H  -4.54100 27.40500 32.74800
H  -7.41200 26.45300 32.87500
H  -6.39900 27.86500 33.59400
H  -9.38500 20.92900 27.58000
H  -8.82400 21.75300 28.93600
H  -7.90300 20.30700 28.28600
H  -8.79200 19.09900 24.47500
H  -9.82400 20.45900 25.22700
H  -8.45000 19.57100 26.07600
H  -5.84600 25.38700 21.72500
H  -3.00700 26.19900 22.25000
H  -4.84800 23.66100 20.68500
H  -4.15900 23.17500 22.11900
H  -3.18100 24.30300 21.36700
H  -5.17800 28.30800 22.65900
H  -5.42100 27.55000 21.15300
H  -3.78100 28.87500 20.26300
H  -2.62400 28.12900 21.28600
H  -3.52600 29.58100 21.89700
H  -1.73400 30.54800 25.78800
H  -0.99400 29.24200 25.04900
H  -0.32300 29.80100 26.61800
H  -3.39800 28.89700 31.13400
H  -1.01200 25.83400 32.88200
H  -2.16100 26.47500 34.00400
H  -0.52100 27.25500 33.86100

