158

Mg 1.40800 42.37900 27.03100
C  2.71900 42.28300 30.34500
C  -1.46100 40.79400 28.36400
C  0.26500 41.73100 23.90000
C  4.34900 43.39600 25.83200
N  0.65100 41.82400 29.13900
C  1.36000 41.93900 30.33400
C  0.49900 41.56900 31.51100
C  -0.80700 41.01500 30.90700
C  -0.56800 41.22000 29.33800
C  -1.19300 39.56900 31.36300
C  0.39200 42.74700 32.57500
C  0.98800 42.41300 34.00100
H  0.13800 42.08400 35.20500
N  -0.35000 41.39500 26.25200
C  -1.41600 40.88500 26.93900
C  -2.42700 40.45000 25.97500
C  -1.96600 40.68600 24.71200
C  -0.62000 41.29500 24.87900
C  -3.71200 39.84200 26.47900
C  -2.67400 40.56400 23.41900
O  -2.18700 40.80700 22.30100
C  -4.08100 40.04700 23.48600
N  2.16900 42.53900 25.19400
C  1.51200 42.31100 24.02800
C  2.32400 42.80200 22.81000
C  3.55900 43.52000 23.41500
C  3.33700 43.08600 24.91000
C  2.72900 41.64600 21.83400
C  3.39500 45.01900 23.23900
C  3.77200 45.46300 21.85400
N  3.19200 42.80600 27.88900
C  4.32200 43.20200 27.21300
C  5.38100 43.39500 28.20300
C  4.77900 43.04300 29.40600
C  3.43500 42.69400 29.18000
C  6.77900 43.86300 28.00800
C  4.98500 42.86100 30.82500
O  6.02600 43.02200 31.44000
C  3.68800 42.38500 31.51400
C  3.98000 41.04800 32.17700
O  4.02300 39.96600 31.64700
O  4.42400 41.31800 33.40900
C  4.73700 40.10400 34.19300
H  -2.39400 40.40300 28.77500
H  -0.09500 41.56500 22.88300
H  5.22000 43.87700 25.38400
H  1.04500 40.76400 32.00200
H  -1.56800 41.74400 31.18700
H  -0.58000 39.26700 32.21200
H  -1.16900 38.82600 30.56600
H  -2.20000 39.79400 31.71500
H  -0.62500 43.10000 32.74300
H  0.84200 43.64700 32.15500
H  1.53200 43.34100 34.18000
H  1.81000 41.71000 33.86600
H  -3.80600 39.66700 27.55100
H  -3.74500 38.81500 26.11500
H  -4.59400 40.40500 26.17200
H  -4.46000 39.93700 22.47000
H  -4.64700 40.77100 24.07200
H  -4.03500 39.03500 23.88700
H  1.60300 43.42500 22.28200
H  4.56200 43.31100 23.04200
H  3.44800 41.02300 22.36600
H  3.19100 42.18200 21.00500
H  1.86100 41.02600 21.61300
H  3.86000 45.63400 24.01000
H  2.34100 45.28200 23.32600
H  4.05900 44.62100 21.22400
H  4.64000 46.12200 21.87300
H  2.96500 46.04100 21.40100
H  7.06500 44.68000 28.67000
H  6.84000 44.33400 27.02700
H  7.44200 42.99800 28.02400
H  3.49800 43.16300 32.25300
H  5.77700 40.32200 34.43600
H  4.81400 39.15500 33.66300
H  4.10900 39.95300 35.07100
Mg -12.11500 16.08900 42.28100
C  -9.29300 14.18100 41.64100
C  -10.78400 18.75000 40.38600
C  -15.21600 17.59500 42.13200
C  -13.73100 13.09100 43.26600
N  -10.25000 16.30600 41.07400
C  -9.24300 15.38900 40.90500
C  -8.09400 15.94000 40.19500
C  -8.47500 17.40200 39.80300
C  -9.96000 17.55300 40.42300
C  -7.48300 18.34000 40.41200
C  -7.69100 15.01300 39.03700
C  -6.19600 14.59500 38.85000
H  -5.47400 15.28000 37.63000
N  -12.82200 18.01700 41.63400
C  -12.10800 19.00100 40.97400
C  -12.92900 20.15600 40.79200
C  -14.23800 19.85800 41.30600
C  -14.16700 18.42200 41.72700
C  -12.40100 21.52300 40.11400
C  -15.36200 20.81700 41.45800
O  -15.14000 21.95000 41.16600
C  -16.69500 20.46900 41.84000
N  -14.22100 15.52100 42.75300
C  -15.30800 16.26200 42.55800
C  -16.67500 15.49300 42.71800
C  -16.12600 14.12100 43.17600
C  -14.55100 14.25200 43.08900
C  -17.86700 16.09200 43.55800
C  -16.59600 12.89900 42.28900
C  -16.90400 11.56100 43.01200
N  -11.58900 14.08600 42.62900
C  -12.30800 13.02700 43.07200
C  -11.43200 11.91600 43.37200
C  -10.13900 12.35200 42.85400
C  -10.35800 13.64000 42.35700
C  -11.89700 10.56700 43.72500
C  -8.83400 11.95600 42.63400
O  -8.18300 10.94800 42.90100
C  -8.23500 13.14800 41.82000
C  -7.00800 13.59100 42.49900
O  -6.94600 14.18300 43.52700
O  -5.85600 13.17800 41.79700
C  -4.63200 13.73300 42.34800
H  -10.35700 19.55000 39.77800
H  -16.20100 18.02200 41.93000
H  -14.23400 12.15400 43.51100
H  -7.23700 15.96000 40.86800
H  -8.66000 17.67600 38.76400
H  -6.97200 17.93800 41.28700
H  -8.04600 19.17500 40.82900
H  -6.76500 18.56800 39.62500
H  -7.92900 15.43500 38.06100
H  -8.23600 14.07600 39.14800
H  -6.05300 13.51600 38.79200
H  -5.72000 14.96900 39.75700
H  -12.75800 22.43100 40.59900
H  -12.56000 21.49100 39.03600
H  -11.33700 21.56000 40.34800
H  -17.40700 21.29400 41.80000
H  -16.68700 19.95100 42.79900
H  -17.14600 19.81200 41.09700
H  -17.02000 15.40700 41.68700
H  -16.44000 13.90400 44.19700
H  -18.35400 15.27000 44.08300
H  -18.46800 16.61200 42.81300
H  -17.64600 16.96100 44.17900
H  -15.85500 12.69800 41.51500
H  -17.48300 13.18300 41.72300
H  -17.98200 11.40400 43.03100
H  -16.60600 11.67600 44.05500
H  -16.50100 10.63500 42.60100
H  -11.06100 9.91000 43.48800
H  -12.80200 10.32000 43.17000
H  -12.36200 10.55900 44.71000
H  -7.97900 12.74200 40.84200
H  -4.68500 14.81300 42.20900
H  -3.70500 13.39700 41.88500
H  -4.46100 13.50300 43.39900

