158

Mg 6.06800 54.24500 40.58300
C  5.23700 50.88100 40.29000
C  9.43100 53.42800 39.93800
C  6.73900 57.45400 40.12000
C  2.69300 54.96500 40.87000
N  7.09200 52.43600 40.01800
C  6.56800 51.12900 39.89600
C  7.68900 50.14300 39.62200
C  9.05400 50.94500 39.78900
C  8.49400 52.35700 39.98100
C  10.01600 50.48500 40.92700
C  7.53500 49.26000 38.35200
C  7.54800 50.03200 36.93900
H  6.55500 49.57200 35.86500
N  7.89100 55.25600 40.24000
C  9.12000 54.77200 39.97000
C  10.02000 55.88700 39.83600
C  9.35600 57.12200 40.10600
C  7.93500 56.66800 40.18000
C  11.56300 55.44900 39.50700
C  9.97000 58.52600 40.19300
O  11.21000 58.67300 39.97200
C  9.15800 59.71600 40.53800
N  4.88600 55.89600 40.35100
C  5.41600 57.14800 40.22500
C  4.30400 58.23000 40.13300
C  3.06700 57.43300 40.46200
C  3.56200 56.00500 40.58900
C  4.49500 59.44000 41.08600
C  1.87800 57.74600 39.46200
C  0.52400 58.25600 40.07400
N  4.23100 53.18700 40.65100
C  2.91500 53.62600 40.84700
C  2.09700 52.48800 41.06700
C  2.99300 51.41500 40.85700
C  4.25300 51.83900 40.62300
C  0.59200 52.34900 41.35400
C  2.92600 49.94200 40.79200
O  1.99500 49.11400 40.86600
C  4.47100 49.53200 40.50700
C  4.36500 48.56200 39.40200
O  3.90100 48.67000 38.26500
O  4.73500 47.36300 39.97400
C  4.42500 46.11600 39.25700
H  10.42700 52.99000 39.84300
H  6.97500 58.51000 39.97300
H  1.68100 55.25800 41.15800
H  7.71800 49.45200 40.46500
H  9.53000 50.84100 38.81400
H  10.93400 50.04600 40.53700
H  9.65700 49.72400 41.62000
H  10.27800 51.41700 41.42900
H  6.78000 48.47600 38.40600
H  8.46600 48.69900 38.42100
H  8.55700 49.89900 36.55000
H  7.43800 51.10400 37.10600
H  12.08300 55.03800 40.37200
H  12.23800 56.20400 39.10300
H  11.47600 54.65500 38.76600
H  8.63000 60.10200 39.66600
H  9.87700 60.46500 40.86800
H  8.46900 59.48700 41.35100
H  4.40100 58.55400 39.09700
H  2.61700 57.75400 41.40100
H  5.12500 60.19600 40.61700
H  5.02900 59.06800 41.96000
H  3.55600 59.94400 41.31400
H  1.66900 56.85200 38.87300
H  2.15900 58.51600 38.74300
H  -0.23600 57.48600 39.93500
H  0.12800 59.18100 39.65500
H  0.63800 58.45300 41.14000
H  -0.10100 53.08500 40.94600
H  0.47400 52.31200 42.43700
H  0.32600 51.45200 40.79500
H  4.75800 49.00300 41.41500
H  4.65200 45.18600 39.77800
H  4.81700 46.24600 38.24800
H  3.34300 46.03100 39.15700
Mg 9.35300 48.24200 26.58900
C  7.40600 48.40400 29.47100
C  11.98600 49.25500 28.63800
C  11.39000 47.98700 23.98500
C  6.60700 47.63000 24.67600
N  9.58600 48.83100 28.82700
C  8.69400 48.70900 29.83700
C  9.36400 48.99500 31.17300
C  10.58100 49.84800 30.72300
C  10.81700 49.28300 29.29100
C  10.35000 51.38100 30.80500
C  9.71400 47.62800 31.89500
C  10.10700 47.70400 33.41000
H  9.46500 46.56300 34.33100
N  11.35000 48.33400 26.35800
C  12.26500 48.81600 27.32700
C  13.65400 48.57200 26.79900
C  13.52000 48.21200 25.46400
C  12.04900 48.15000 25.19200
C  14.95300 48.80700 27.66100
C  14.66800 47.78100 24.42700
O  14.36600 47.30800 23.33200
C  16.10800 47.77500 24.87400
N  9.09800 47.70800 24.66500
C  10.06900 47.75400 23.72400
C  9.50700 47.49900 22.33000
C  7.93600 47.45100 22.48700
C  7.88500 47.56400 24.03100
C  9.96400 48.37200 21.15700
C  7.15500 46.25200 21.83100
C  6.14700 46.67000 20.77400
N  7.40000 48.19300 26.93300
C  6.37500 47.79800 26.03900
C  5.10300 47.63200 26.75800
C  5.51000 47.92600 28.11500
C  6.88400 48.24400 28.17100
C  3.80500 47.17300 26.24500
C  4.91200 47.98600 29.45900
O  3.73200 47.78800 29.76600
C  6.20000 48.16100 30.38500
C  6.37900 46.91800 31.14300
O  6.91000 45.86400 30.73600
O  5.92100 47.02900 32.47100
C  5.97700 45.71000 33.12300
H  12.80000 49.71800 29.19900
H  12.12400 47.93900 23.17900
H  5.73900 47.32900 24.08500
H  8.61500 49.49600 31.78700
H  11.41400 49.56700 31.36700
H  9.50000 51.64100 31.43600
H  10.12900 51.71000 29.79000
H  11.25500 51.93500 31.05400
H  10.64400 47.33800 31.40600
H  8.85300 46.97200 31.76600
H  9.91300 48.74900 33.65400
H  11.18300 47.53600 33.35600
H  14.72600 48.89400 28.72300
H  15.43100 49.77300 27.49800
H  15.58400 47.91900 27.62100
H  16.34700 48.76200 25.26900
H  16.73800 47.48200 24.03400
H  16.07600 46.95900 25.59600
H  9.87600 46.51100 22.05500
H  7.52200 48.41100 22.17800
H  9.17300 48.78200 20.52900
H  10.70700 47.80200 20.60000
H  10.49700 49.20800 21.60900
H  6.56500 45.76400 22.60600
H  7.89700 45.55300 21.44300
H  5.93200 45.82400 20.12300
H  6.61000 47.56100 20.34900
H  5.20100 46.99300 21.21000
H  4.02600 46.50600 25.41200
H  3.27600 48.06500 25.91200
H  3.19100 46.56400 26.90800
H  6.06600 49.01300 31.05100
H  5.91700 45.93800 34.18700
H  6.86700 45.17400 32.79300
H  5.14500 45.08500 32.79800

