158

Mg 16.06700 -1.95700 27.46000
C  15.07600 0.36700 29.87900
C  18.14400 -3.51300 29.78800
C  17.65900 -3.45100 25.04500
C  14.36600 0.11400 25.15400
N  16.70400 -1.40600 29.50800
C  16.01000 -0.54400 30.37500
C  16.47800 -0.81000 31.78000
C  17.68600 -1.82000 31.61600
C  17.46200 -2.33900 30.23400
C  19.07500 -1.22400 31.89300
C  15.37000 -1.40500 32.76300
C  15.67600 -1.12100 34.27000
H  16.92800 -0.41300 34.78800
N  17.48600 -3.51300 27.46200
C  18.26700 -3.96300 28.48000
C  19.15100 -5.03700 27.97600
C  18.90800 -5.08300 26.53500
C  17.99800 -4.00500 26.31300
C  19.94300 -5.95100 28.86400
C  19.38600 -6.14200 25.42900
O  18.91200 -6.17200 24.33300
C  20.40000 -7.25800 25.77100
N  15.99300 -1.67600 25.41100
C  16.79400 -2.42100 24.63700
C  16.64700 -2.00200 23.18400
C  15.31100 -1.14500 23.15200
C  15.14100 -0.91500 24.65300
C  17.87100 -1.10900 22.66000
C  14.08900 -1.79000 22.39000
C  13.32600 -0.85600 21.32000
N  14.77100 -0.20000 27.43400
C  14.15600 0.46600 26.46400
C  13.37900 1.55300 27.02000
C  13.61300 1.53200 28.37700
C  14.54700 0.47200 28.55000
C  12.53700 2.45000 26.20400
C  13.39800 2.15400 29.69100
O  12.56700 3.01200 29.92900
C  14.22300 1.33300 30.72800
C  15.02300 2.34400 31.43200
O  16.07600 2.85700 31.12600
O  14.33000 2.52700 32.61600
C  14.82600 3.48900 33.54400
H  18.82300 -4.06600 30.44100
H  18.17400 -3.84500 24.16600
H  13.78500 0.80700 24.54200
H  16.85200 0.14300 32.15400
H  17.62400 -2.69200 32.26700
H  18.89200 -0.15000 31.94800
H  19.68000 -1.50100 31.03000
H  19.43900 -1.53800 32.87200
H  15.35000 -2.48300 32.60700
H  14.45500 -0.99100 32.34000
H  15.75100 -2.14000 34.65100
H  14.86300 -0.57100 34.74300
H  19.56300 -6.96000 28.70600
H  19.91600 -5.66400 29.91500
H  20.96200 -6.00100 28.48000
H  20.55500 -7.75800 24.81500
H  19.99900 -8.05200 26.40100
H  21.27600 -6.82600 26.25500
H  16.55700 -2.93600 22.62900
H  15.52800 -0.17500 22.70500
H  18.65300 -0.93700 23.40000
H  17.53700 -0.14000 22.29100
H  18.28600 -1.68100 21.83000
H  13.41700 -2.12300 23.18000
H  14.40600 -2.69600 21.87400
H  13.43300 -1.36400 20.36100
H  13.85000 0.09300 21.21000
H  12.26700 -0.67900 21.50500
H  13.24900 3.20000 25.86000
H  11.74000 2.83000 26.84300
H  12.11900 1.96600 25.32100
H  13.51100 0.80000 31.35800
H  13.98200 4.14800 33.74800
H  15.72300 3.99700 33.19100
H  15.09600 2.93700 34.44400
Mg 46.67500 17.53100 29.30600
C  44.81600 16.80800 32.27200
C  48.95000 19.26000 31.35400
C  48.25200 18.63600 26.46200
C  44.23300 16.05800 27.51800
N  46.95400 17.73600 31.50000
C  46.03900 17.44100 32.53300
C  46.58200 17.91200 33.88100
C  47.72500 18.97200 33.55000
C  47.93100 18.60300 32.03400
C  47.38200 20.50000 33.87800
C  47.13500 16.76800 34.71700
C  47.38300 17.04800 36.21800
H  47.00500 18.36900 36.88500
N  48.34600 18.68200 28.96700
C  49.13600 19.31300 29.94600
C  50.16000 20.09500 29.19800
C  49.94700 20.01000 27.80200
C  48.82400 19.03700 27.67100
C  51.23300 20.91400 29.93900
C  50.73100 20.65400 26.65000
O  50.55200 20.48800 25.45300
C  51.99100 21.40800 26.87300
N  46.45200 17.12900 27.24800
C  47.12300 17.77100 26.23200
C  46.65500 17.32500 24.85200
C  45.40900 16.42500 25.23900
C  45.32100 16.57000 26.75400
C  46.35200 18.42900 23.71300
C  45.52400 14.91600 24.77300
C  46.47400 14.00900 25.62200
N  44.88700 16.58500 29.74200
C  43.97200 16.07900 28.88800
C  42.84000 15.54000 29.59900
C  43.13700 15.83200 30.93700
C  44.39300 16.44800 30.96600
C  41.67200 14.85600 28.98300
C  42.65400 15.68400 32.37900
O  41.67700 15.15600 32.90200
C  43.79300 16.31500 33.26700
C  43.18800 17.50500 34.01100
O  42.93400 18.57400 33.51200
O  42.97400 17.23500 35.33300
C  42.07300 18.16400 36.05900
H  49.73700 19.69000 31.97700
H  48.67900 18.93700 25.50300
H  43.52800 15.57100 26.84100
H  45.82500 18.49000 34.41200
H  48.57600 18.67900 34.16500
H  46.30800 20.66100 33.97300
H  47.64800 21.11700 33.02000
H  47.87300 20.77100 34.81300
H  48.03700 16.39500 34.23200
H  46.46400 15.90900 34.69600
H  48.44900 16.83100 36.28100
H  46.88000 16.32100 36.85400
H  51.72100 21.71200 29.37800
H  52.05900 20.26300 30.22600
H  50.85500 21.27300 30.89600
H  52.61700 20.86400 27.58000
H  51.81800 22.40800 27.27000
H  52.63000 21.42100 25.99000
H  47.37100 16.59500 24.47500
H  44.44300 16.85800 24.97900
H  45.27700 18.60800 23.73800
H  46.67000 18.16400 22.70500
H  46.77200 19.41200 23.92800
H  45.85600 14.85700 23.73600
H  44.58400 14.39300 24.94900
H  47.44300 14.50700 25.61200
H  46.56500 12.97800 25.27900
H  45.99000 13.87400 26.58900
H  41.10300 15.65100 28.50100
H  41.16700 14.25000 29.73500
H  42.03800 14.26200 28.14500
H  44.15400 15.56100 33.96700
H  41.13000 18.27300 35.52400
H  42.52200 19.15200 36.15900
H  41.86200 17.79700 37.06400

