158

Mg -2.77000 16.77800 26.69800
C  -3.18400 14.65200 29.46600
C  -3.08000 19.48400 28.81800
C  -2.35900 18.80000 24.01700
C  -2.67200 13.99700 24.53500
N  -2.97000 16.96900 28.91000
C  -3.13900 15.93100 29.82900
C  -3.23700 16.47300 31.22800
C  -3.26300 18.11800 30.95100
C  -3.06200 18.25400 29.46600
C  -4.60500 18.75200 31.37500
C  -2.21600 15.88100 32.22400
C  -1.71900 16.71200 33.32300
H  -1.36900 16.10000 34.64500
N  -2.84800 18.78900 26.46000
C  -2.94600 19.76500 27.44200
C  -2.81600 21.06900 26.88000
C  -2.59400 20.91000 25.48100
C  -2.64000 19.45400 25.22400
C  -2.78700 22.41200 27.64000
C  -2.18000 21.94400 24.39500
O  -1.97500 21.61900 23.23200
C  -1.80100 23.38400 24.85000
N  -2.40900 16.43900 24.63600
C  -2.30900 17.44900 23.79800
C  -2.15500 16.96400 22.31700
C  -2.16800 15.35200 22.48200
C  -2.38800 15.25200 23.98400
C  -3.38700 17.28900 21.44000
C  -0.84200 14.68700 22.01000
C  -0.98700 13.94100 20.66800
N  -2.95500 14.71800 26.93200
C  -2.94200 13.71500 25.92200
C  -3.19800 12.40000 26.59100
C  -3.24300 12.75100 28.01200
C  -3.05700 14.14200 28.18900
C  -3.44500 11.11700 25.99800
C  -3.48200 12.21800 29.33200
O  -3.63900 11.02900 29.68900
C  -3.40600 13.42700 30.34200
C  -2.26100 13.12400 31.25500
O  -1.09500 13.25400 30.88700
O  -2.58400 12.56900 32.51100
C  -1.44300 11.92300 33.19700
H  -3.02700 20.34200 29.49200
H  -2.21600 19.35600 23.08900
H  -2.54700 13.12400 23.89100
H  -4.23700 16.19300 31.56100
H  -2.36200 18.48200 31.44400
H  -4.39400 19.41200 32.21600
H  -5.30400 17.94300 31.58700
H  -5.06400 19.28500 30.54200
H  -1.34600 15.45300 31.72600
H  -2.71700 15.03700 32.69700
H  -2.38600 17.56000 33.48300
H  -0.77300 17.20200 33.08800
H  -3.03000 22.39400 28.70200
H  -3.46200 23.14000 27.18900
H  -1.77800 22.77100 27.44000
H  -2.68500 23.79000 25.34100
H  -1.58000 24.05100 24.01600
H  -0.88300 23.18800 25.40500
H  -1.29500 17.37900 21.79100
H  -2.94000 14.75300 21.99900
H  -4.22700 17.65100 22.03300
H  -3.83400 16.42100 20.95500
H  -3.03400 17.94900 20.64800
H  -0.36500 14.15300 22.83300
H  -0.13400 15.48600 21.78900
H  -1.97000 13.49100 20.52800
H  -0.27500 13.13500 20.84700
H  -0.58800 14.65900 19.95100
H  -3.63600 11.26800 24.93600
H  -4.29600 10.67700 26.51800
H  -2.55000 10.54700 26.24900
H  -4.31600 13.38300 30.94000
H  -1.66300 10.85900 33.28100
H  -1.43200 12.42100 34.16700
H  -0.48900 12.02400 32.68000
Mg 45.86700 17.24200 29.00600
C  44.30500 16.83600 32.23500
C  48.16000 19.20900 30.51900
C  46.92300 17.88700 26.03100
C  43.07300 15.52000 27.66000
N  46.18800 17.92500 31.03400
C  45.42500 17.65100 32.21600
C  46.16300 18.15400 33.47400
C  47.38200 18.98100 32.88300
C  47.25900 18.75200 31.40000
C  47.39600 20.48600 33.17700
C  46.61600 17.09800 34.47900
C  46.20100 17.23300 35.98700
H  45.91000 18.64700 36.49000
N  47.37300 18.28600 28.37600
C  48.24500 18.96200 29.15600
C  49.41000 19.39800 28.38400
C  49.07500 19.04900 27.05600
C  47.71500 18.42200 27.09400
C  50.63900 20.08400 28.99400
C  49.89600 19.42900 25.81000
O  49.49000 19.11600 24.68100
C  51.18400 20.24600 25.82100
N  45.06500 16.76800 27.13800
C  45.67100 17.25900 26.05800
C  44.82500 17.04600 24.78500
C  43.81900 15.95900 25.24200
C  43.92200 16.11200 26.78300
C  44.17700 18.35100 24.25400
C  44.14900 14.47100 24.77600
C  43.71800 14.07500 23.36600
N  44.08500 16.25100 29.75700
C  43.04100 15.60600 29.05200
C  42.09000 15.15500 30.00100
C  42.59300 15.51600 31.25600
C  43.80100 16.22700 31.05400
C  40.83100 14.40800 29.64700
C  42.27000 15.51200 32.67600
O  41.36600 14.97300 33.29600
C  43.36100 16.45900 33.35000
C  42.72800 17.66400 34.01500
O  42.45200 18.69800 33.44400
O  42.49200 17.41000 35.33400
C  41.81800 18.42300 36.20000
H  48.95300 19.79800 30.98400
H  47.28900 18.03800 25.01400
H  42.32700 14.90600 27.15200
H  45.47800 18.91000 33.85600
H  48.31800 18.47900 33.13100
H  46.71700 20.84200 33.95200
H  47.30600 21.06800 32.25900
H  48.39700 20.70200 33.55000
H  47.69300 16.93900 34.42400
H  46.14500 16.18100 34.12300
H  46.94800 16.76400 36.62700
H  45.24400 16.71300 36.03400
H  51.51600 19.71300 28.46400
H  50.83600 19.88100 30.04600
H  50.60800 21.16600 28.86300
H  51.84500 19.65700 26.45700
H  51.03500 21.28900 26.10000
H  51.53700 20.23500 24.79000
H  45.38800 16.59200 23.97000
H  42.84400 16.17100 24.80500
H  43.90700 18.98900 25.09600
H  43.26300 18.12400 23.70400
H  44.72800 18.95800 23.53600
H  43.98800 13.72900 25.55700
H  45.22900 14.58900 24.68200
H  43.53400 15.01100 22.83900
H  42.80000 13.49600 23.46200
H  44.49700 13.46800 22.90500
H  40.78500 13.95900 28.65500
H  40.04900 15.15000 29.80800
H  40.70800 13.61800 30.38700
H  43.77800 15.77400 34.08800
H  42.11500 18.21800 37.22900
H  40.74500 18.23900 36.16900
H  42.21700 19.43000 36.07600

