158

Mg 16.39300 -1.68200 28.10600
C  15.61400 0.61000 30.80600
C  18.21700 -3.55300 30.17700
C  17.45900 -3.29300 25.39600
C  14.66200 0.65000 26.05100
N  17.03200 -1.38100 30.19000
C  16.40000 -0.57300 31.17800
C  16.86200 -0.99300 32.48100
C  17.75100 -2.24300 32.34100
C  17.64200 -2.43900 30.78900
C  19.26600 -2.07100 32.75900
C  15.73500 -1.16700 33.48300
C  15.87300 -0.52700 34.85400
H  17.18400 0.06200 35.26900
N  17.53000 -3.26000 27.86300
C  18.16400 -3.96800 28.82600
C  18.85100 -5.10900 28.26500
C  18.63300 -5.11500 26.81300
C  17.80200 -3.86500 26.64200
C  19.61000 -6.05500 29.10200
C  18.98100 -6.06500 25.64400
O  18.47100 -5.89200 24.54700
C  19.96300 -7.14800 25.86600
N  15.85100 -1.54400 25.94600
C  16.61900 -2.23600 25.02400
C  16.35100 -1.69200 23.62300
C  15.28200 -0.57600 23.87400
C  15.21200 -0.47500 25.35700
C  17.47400 -1.22600 22.68300
C  13.85800 -0.91400 23.33300
C  13.31400 -0.03500 22.14000
N  15.27000 0.18800 28.30900
C  14.61700 0.91300 27.42700
C  13.95300 2.04400 28.06300
C  14.31100 1.88800 29.42600
C  15.13500 0.77500 29.49300
C  13.26600 3.13600 27.45100
C  14.09900 2.53500 30.69600
O  13.51900 3.54100 31.03500
C  14.86400 1.57800 31.72400
C  15.75700 2.53900 32.55800
O  16.81500 3.02600 32.14900
O  15.07700 2.84300 33.64400
C  15.58500 4.00500 34.34300
H  18.53100 -4.31200 30.89700
H  17.91200 -3.77100 24.52500
H  14.11500 1.35100 25.41600
H  17.47100 -0.17900 32.87400
H  17.34500 -3.10500 32.87100
H  19.84000 -2.25500 31.85100
H  19.50100 -2.78300 33.55000
H  19.56300 -1.10600 33.16900
H  15.55400 -2.24000 33.55400
H  14.85100 -0.78800 32.96900
H  15.61000 -1.37300 35.48900
H  15.21700 0.34300 34.86300
H  19.83200 -6.98200 28.57400
H  19.02800 -6.28300 29.99500
H  20.52500 -5.59000 29.46800
H  20.88200 -6.75100 26.29600
H  19.99000 -7.62700 24.88700
H  19.34200 -7.77500 26.50700
H  15.97000 -2.59000 23.13600
H  15.69800 0.39100 23.59300
H  18.33500 -0.74200 23.14300
H  17.20900 -0.50100 21.91300
H  17.75900 -2.14900 22.17800
H  13.08000 -0.97100 24.09500
H  13.91200 -1.91900 22.91300
H  12.25400 0.15200 22.31300
H  13.42800 -0.56200 21.19300
H  13.82000 0.92600 22.04300
H  13.84000 3.52500 26.61000
H  13.18400 3.90300 28.22100
H  12.30100 2.74400 27.12900
H  14.09000 1.13600 32.35300
H  14.90300 4.83200 34.14700
H  16.51500 4.50800 34.07800
H  15.58200 3.87300 35.42500
Mg 42.60300 41.59600 26.76800
C  41.28900 43.61700 29.34100
C  43.28700 39.20700 29.18600
C  43.90800 39.69900 24.38100
C  42.05000 44.15400 24.44000
N  42.43300 41.50800 29.03400
C  41.76000 42.39000 29.86500
C  41.76400 41.98100 31.28800
C  42.36900 40.48600 31.20500
C  42.76500 40.41200 29.71100
C  43.55800 40.39300 32.24800
C  40.41100 41.97000 32.00100
C  40.19300 42.91500 33.22600
H  39.57800 42.19800 34.53800
N  43.48500 39.77900 26.77900
C  43.60400 38.89100 27.85300
C  44.28400 37.71300 27.34500
C  44.24300 37.74400 25.96800
C  43.85000 39.11300 25.65000
C  44.54200 36.56200 28.33100
C  44.61900 36.63700 24.96900
O  44.59600 36.76800 23.72200
C  44.94800 35.29200 25.44400
N  43.17500 41.98100 24.72300
C  43.60000 40.96000 23.92500
C  43.61600 41.25800 22.34600
C  42.96900 42.71300 22.55600
C  42.66000 42.94100 24.02800
C  45.07400 41.18000 21.81000
C  42.00400 43.16100 21.46300
C  40.52900 42.84100 21.69000
N  41.79900 43.47500 26.78400
C  41.64600 44.41500 25.78300
C  40.96000 45.59300 26.25700
C  40.82600 45.38800 27.66900
C  41.34500 44.02000 27.96900
C  40.70100 46.73200 25.45200
C  40.40700 45.99300 28.90600
O  39.97700 47.08300 29.20700
C  40.66500 44.84000 30.00900
C  41.56500 45.47000 30.98600
O  42.83100 45.52300 30.87800
O  40.91400 45.95200 32.08600
C  41.51400 46.92800 32.99300
H  43.44700 38.42800 29.93400
H  44.24900 39.09300 23.53900
H  41.89900 44.97200 23.73100
H  42.48700 42.68000 31.70800
H  41.62700 39.71200 31.40100
H  44.45100 40.94900 31.96500
H  43.76300 39.34300 32.45900
H  43.28400 40.81700 33.21400
H  40.05800 41.02900 32.42500
H  39.67000 42.31200 31.27900
H  39.59400 43.75000 32.86500
H  41.16900 43.26400 33.56100
H  43.57300 36.16200 28.62800
H  44.96200 36.90400 29.27700
H  45.30100 35.85100 28.00600
H  45.93900 35.30100 25.89800
H  45.06400 34.65500 24.56700
H  44.16400 34.85000 26.05900
H  42.91400 40.60500 21.82800
H  43.86300 43.33600 22.55200
H  45.38700 42.11200 21.34000
H  45.09300 40.47800 20.97700
H  45.86000 40.76600 22.44200
H  42.24800 42.74700 20.48400
H  42.12900 44.23900 21.36000
H  40.19300 42.55300 20.69400
H  40.07200 43.78300 21.99500
H  40.35700 42.09800 22.46900
H  40.06200 46.29200 24.68700
H  41.58900 47.09600 24.93500
H  40.25900 47.44500 26.14900
H  39.71200 44.55800 30.45600
H  42.35900 47.51000 32.62500
H  41.92900 46.39300 33.84700
H  40.77300 47.65600 33.32300

