158

Mg 17.03000 -1.77400 28.05100
C  16.04100 0.57400 30.63800
C  18.30800 -3.65500 30.51000
C  18.40600 -3.64300 25.74400
C  16.22500 0.67900 25.74000
N  17.23100 -1.48400 30.19800
C  16.72600 -0.55700 31.07800
C  17.13500 -0.86100 32.51600
C  18.17400 -2.06500 32.39000
C  17.92200 -2.40600 30.91700
C  19.64600 -1.66900 32.69100
C  15.96700 -1.17200 33.40000
C  15.97300 -0.67500 34.84000
H  17.29500 -0.07100 35.28000
N  18.03300 -3.50600 28.11500
C  18.42800 -4.16600 29.21200
C  18.84900 -5.49300 28.77300
C  18.90000 -5.49200 27.38500
C  18.45200 -4.15700 27.04200
C  19.30700 -6.50600 29.74100
C  19.35400 -6.56300 26.41500
O  19.41100 -6.38700 25.20800
C  19.72400 -7.86300 27.06600
N  17.19800 -1.48800 26.06700
C  17.86500 -2.44200 25.29900
C  18.04000 -1.89300 23.86400
C  17.28800 -0.53000 23.83600
C  16.89900 -0.41300 25.35600
C  19.52900 -1.77500 23.38400
C  16.03900 -0.50100 22.85800
C  15.76600 0.86800 22.11600
N  16.02500 0.10700 28.13300
C  15.79100 0.97900 27.07300
C  15.20900 2.20700 27.56700
C  15.31000 2.07100 28.93500
C  15.81100 0.82100 29.24700
C  14.74400 3.37600 26.71100
C  15.02500 2.70700 30.24000
O  14.41000 3.71900 30.53700
C  15.68300 1.84200 31.41500
C  16.80400 2.60800 31.99200
O  17.94600 2.74300 31.52700
O  16.38900 3.33000 33.13500
C  17.52600 3.93800 33.79300
H  18.59600 -4.19800 31.41200
H  18.79900 -4.13400 24.85100
H  16.14000 1.50300 25.02800
H  17.73900 0.01200 32.76200
H  17.82800 -2.90300 32.99500
H  19.75000 -0.64300 33.04300
H  20.20800 -1.62600 31.75800
H  20.10800 -2.45200 33.29200
H  15.63400 -2.20800 33.47400
H  15.11600 -0.73100 32.88200
H  15.54800 -1.40300 35.53200
H  15.23900 0.11100 35.01900
H  18.69200 -7.40500 29.77800
H  19.32400 -5.95300 30.68100
H  20.36100 -6.70900 29.55300
H  19.85300 -8.55500 26.23400
H  18.94100 -8.31400 27.67500
H  20.72500 -7.72100 27.47300
H  17.52500 -2.68800 23.32600
H  17.86900 0.35700 23.58200
H  20.13700 -1.95400 24.27100
H  19.87800 -0.84000 22.94600
H  19.72400 -2.53700 22.63000
H  15.17700 -0.93100 23.36800
H  16.16900 -1.19000 22.02300
H  14.87700 1.28700 22.58700
H  15.54400 0.84500 21.04900
H  16.68000 1.46200 22.11700
H  13.80900 3.24700 26.16700
H  15.36900 3.80600 25.93000
H  14.55100 4.17500 27.42700
H  14.92000 1.59500 32.15300
H  17.76300 4.95400 33.47900
H  18.49500 3.46400 33.95100
H  17.20500 4.02100 34.83100
Mg 44.83400 2.31000 46.89400
C  42.69500 5.07200 46.87300
C  42.06300 0.33800 46.66600
C  46.89900 -0.26500 46.60900
C  47.63500 4.60000 46.66900
N  42.53700 2.78100 46.47900
C  41.95500 3.92600 46.74000
C  40.40300 3.72600 46.87000
C  40.27000 2.17200 47.00800
C  41.71500 1.66800 46.65600
C  39.82300 1.65800 48.37800
C  39.46100 4.33200 45.71100
C  39.68300 3.72200 44.33400
H  40.42200 4.74800 43.50000
N  44.48800 0.28400 46.58000
C  43.29100 -0.34900 46.54200
C  43.51800 -1.76100 46.44600
C  44.88300 -1.96100 46.61000
C  45.50000 -0.60300 46.59900
C  42.44200 -2.80800 46.49600
C  45.61100 -3.27200 46.82700
O  45.01200 -4.35800 46.99400
C  47.09100 -3.49000 47.12000
N  46.97500 2.19600 46.72200
C  47.59100 0.96000 46.67900
C  49.09200 1.06300 46.73500
C  49.40500 2.56300 46.41300
C  47.94500 3.22100 46.64400
C  49.60500 0.45800 48.07900
C  49.89000 2.83200 44.99300
C  51.44900 3.16000 44.82600
N  45.18800 4.46400 46.77300
C  46.35600 5.20500 46.78700
C  45.98000 6.61500 46.83900
C  44.62100 6.63700 46.91900
C  44.12500 5.26300 46.88500
C  46.99000 7.78700 47.02700
C  43.39400 7.47300 46.99400
O  43.28900 8.70600 46.99600
C  42.18200 6.51000 46.88800
C  41.33400 6.81900 48.07300
O  41.29300 6.13400 49.08100
O  40.43700 7.82300 47.78100
C  39.68800 8.16500 48.99800
H  41.10600 -0.18700 46.68100
H  47.64300 -1.05500 46.48400
H  48.52600 5.23200 46.65700
H  39.91700 4.05500 47.78900
H  39.63200 1.77500 46.21800
H  40.70000 1.29000 48.91100
H  39.13700 0.81700 48.27800
H  39.40400 2.34000 49.11800
H  39.70800 5.39000 45.61300
H  38.44000 4.29500 46.09100
H  38.74000 3.41000 43.88300
H  40.25700 2.79700 44.38800
H  42.56200 -3.70400 47.10500
H  42.28600 -3.08900 45.45400
H  41.54200 -2.34100 46.89500
H  47.50700 -3.34400 46.12400
H  47.27000 -4.49100 47.51300
H  47.39500 -2.71500 47.82400
H  49.38700 0.42700 45.89900
H  49.99100 3.13600 47.13100
H  50.36900 1.06800 48.56100
H  50.03600 -0.51300 47.83900
H  48.72800 0.26200 48.69500
H  49.28900 3.65300 44.60200
H  49.57500 1.97300 44.40100
H  51.88400 2.67500 43.95200
H  51.87800 2.76400 45.74600
H  51.53300 4.23000 44.63600
H  46.37100 8.68200 46.96000
H  47.74800 7.83700 46.24500
H  47.49500 7.83300 47.99200
H  41.61600 6.72700 45.98200
H  38.75100 7.60700 48.99300
H  39.44800 9.22800 48.98300
H  40.16800 7.94200 49.95000

