158

Mg 1.19600 -0.62600 44.56200
C  4.67100 0.30200 43.75000
C  0.29200 2.35200 42.72100
C  -1.72600 -1.86600 44.08200
C  2.55200 -3.67900 45.49800
N  2.37400 1.07100 43.30500
C  3.74600 1.15100 43.15600
C  4.12500 2.36200 42.22300
C  2.81600 3.21200 42.24000
C  1.73300 2.13800 42.72400
C  2.74700 4.54800 43.02800
C  4.53200 1.85300 40.81600
C  5.98100 2.28400 40.30700
H  6.08800 2.79300 38.85800
N  -0.46700 0.20300 43.69100
C  -0.73200 1.38800 43.08000
C  -2.10300 1.56400 42.76100
C  -2.78400 0.38000 43.09300
C  -1.65000 -0.51800 43.67200
C  -2.64700 2.82700 42.08500
C  -4.29700 0.00100 42.88000
O  -5.06800 0.84900 42.42900
C  -4.89600 -1.21900 43.47300
N  0.58300 -2.44800 44.85600
C  -0.72100 -2.75100 44.59000
C  -1.05900 -4.15400 45.06200
C  0.21600 -4.66900 45.69100
C  1.19000 -3.61600 45.28500
C  -2.41300 -4.20700 45.90700
C  0.42200 -6.12600 45.32500
C  0.78700 -7.11400 46.45400
N  3.23000 -1.54300 44.80300
C  3.58400 -2.77800 45.19900
C  4.97500 -2.90300 45.35300
C  5.53000 -1.70400 44.81100
C  4.39900 -0.97000 44.41500
C  5.69300 -4.11600 45.84400
C  6.68400 -0.91900 44.44800
O  7.90800 -1.06000 44.50600
C  6.15600 0.34300 43.71300
C  6.70900 1.58200 44.34400
O  6.43700 2.05300 45.42500
O  7.52800 2.19700 43.39800
C  8.03000 3.53000 43.76800
H  -0.06700 3.25100 42.21600
H  -2.66800 -2.40200 43.94800
H  2.89700 -4.61700 45.93900
H  4.93000 2.90300 42.72200
H  2.47400 3.40600 41.22400
H  3.75000 4.89200 43.27900
H  2.36200 4.33300 44.02500
H  2.15700 5.24700 42.43500
H  3.86600 2.19200 40.02300
H  4.57700 0.76400 40.84000
H  6.66100 1.44000 40.42700
H  6.35400 2.96800 41.06900
H  -2.49700 2.70300 41.01300
H  -2.23400 3.73200 42.53000
H  -3.72400 2.86200 42.25100
H  -5.97200 -1.12500 43.62000
H  -4.43600 -1.42600 44.44000
H  -4.70100 -2.03400 42.77500
H  -1.24300 -4.72400 44.15200
H  0.27300 -4.62500 46.77900
H  -2.26400 -4.56500 46.92500
H  -3.13200 -4.86000 45.41200
H  -2.86600 -3.21500 45.93100
H  1.28400 -6.15600 44.65800
H  -0.33500 -6.58200 44.68600
H  1.56300 -7.82300 46.16500
H  -0.08000 -7.75800 46.60300
H  0.96900 -6.59300 47.39400
H  6.58700 -3.78900 46.37600
H  5.76700 -4.66200 44.90400
H  5.07900 -4.73000 46.50200
H  6.62200 0.41100 42.73000
H  8.91000 3.82500 43.19500
H  8.32200 3.45600 44.81500
H  7.33100 4.36600 43.77100
Mg 48.01300 24.84300 27.98200
C  48.74400 27.06700 30.49500
C  47.53400 22.33700 30.49400
C  47.37000 22.49300 25.56100
C  48.69600 27.16700 25.62200
N  48.25400 24.71900 30.25800
C  48.54800 25.82900 31.08700
C  48.40200 25.54500 32.58100
C  48.08000 23.92200 32.54700
C  47.96100 23.60700 30.98100
C  49.04600 22.89500 33.32700
C  47.17300 26.36700 33.18700
C  47.45400 27.19500 34.51400
H  46.36600 27.19300 35.54000
N  47.40600 22.77700 28.00600
C  47.24800 21.94900 29.13600
C  46.80500 20.64400 28.61000
C  46.79800 20.62200 27.17000
C  47.21500 21.95300 26.85600
C  46.47600 19.51300 29.60500
C  46.35400 19.52100 26.14300
O  46.44100 19.65800 24.96300
C  45.82700 18.21700 26.62300
N  48.21800 24.72200 25.85200
C  47.84100 23.71000 25.02800
C  47.90400 24.06600 23.52700
C  48.13000 25.59700 23.60800
C  48.32800 25.88400 25.16300
C  48.90600 23.15300 22.67400
C  46.96900 26.38100 22.91000
C  45.76200 26.75500 23.75600
N  48.69000 26.77400 27.96100
C  48.95500 27.61500 26.95200
C  49.47400 28.87500 27.46500
C  49.25700 28.77400 28.92100
C  48.83600 27.43900 29.15600
C  50.06500 30.02900 26.65600
C  49.46900 29.39900 30.20800
O  49.87200 30.51100 30.46800
C  49.13100 28.28600 31.26300
C  50.28000 28.32000 32.19500
O  51.36700 27.83100 31.99500
O  49.92000 29.07700 33.29000
C  50.90200 29.01200 34.42800
H  47.38900 21.59800 31.28400
H  47.30000 21.80500 24.71500
H  49.07200 27.80000 24.81500
H  49.25700 25.81900 33.19800
H  47.05800 23.83700 32.91400
H  49.13300 21.96500 32.76400
H  48.55800 22.55200 34.24000
H  50.01500 23.38600 33.41400
H  46.39400 25.67200 33.50100
H  46.89000 27.05000 32.38600
H  47.58400 28.25400 34.29100
H  48.33800 26.64600 34.83900
H  46.80600 18.56000 29.19100
H  45.42800 19.54100 29.90600
H  46.94000 19.64000 30.58300
H  46.56900 17.61300 27.14600
H  45.54600 17.67300 25.72100
H  44.92700 18.50700 27.16600
H  46.96000 23.78800 23.06000
H  48.97000 25.75800 22.93200
H  48.50700 22.57400 21.84100
H  49.21100 22.34800 23.34200
H  49.79000 23.71200 22.36500
H  46.46500 25.89600 22.07400
H  47.39500 27.30000 22.50800
H  44.88600 26.29700 23.29600
H  45.67500 27.84000 23.81000
H  45.82300 26.41100 24.78800
H  50.33100 29.73300 25.64100
H  50.96500 30.24500 27.23200
H  49.43000 30.91400 26.65000
H  48.20500 28.61900 31.73200
H  50.39800 28.84600 35.38000
H  51.57100 29.86800 34.51400
H  51.48500 28.10600 34.26300

