158

Mg 46.22300 16.11000 27.76300
C  44.50100 15.61200 30.82900
C  48.42000 17.98400 29.39400
C  47.82400 16.53100 24.89600
C  43.78400 14.29900 26.17000
N  46.40900 16.66900 29.86100
C  45.63600 16.39500 30.92500
C  46.13400 17.02200 32.22800
C  47.10500 18.10600 31.74200
C  47.31600 17.65400 30.25100
C  46.63100 19.60600 31.84900
C  46.87400 15.81800 33.02100
C  46.85500 16.04700 34.55400
H  48.28800 16.13400 35.18400
N  47.94400 17.09800 27.26600
C  48.78100 17.80500 28.06700
C  49.97300 18.11800 27.46400
C  49.78600 17.80700 26.09600
C  48.47200 17.11000 26.02000
C  51.08500 18.76100 28.17700
C  50.69000 18.00300 24.97300
O  50.40200 17.69800 23.78900
C  52.05300 18.50200 25.15700
N  45.89500 15.45500 25.84800
C  46.62600 15.79600 24.79800
C  46.15100 15.26900 23.52900
C  44.97900 14.32000 23.89300
C  44.86100 14.66600 25.40300
C  45.92800 16.27000 22.33400
C  45.16300 12.76400 23.58400
C  46.05700 11.99400 24.52700
N  44.43500 15.12700 28.32000
C  43.47400 14.47700 27.56800
C  42.38000 13.98400 28.38500
C  42.73500 14.45800 29.67200
C  44.00900 15.08300 29.61300
C  41.15800 13.26400 27.88000
C  42.28900 14.50100 31.00100
O  41.24800 14.03400 31.39700
C  43.44500 15.29100 31.86400
C  42.67900 16.43500 32.49300
O  42.45400 17.51100 31.97700
O  42.29700 16.03200 33.74000
C  41.50000 16.92100 34.58200
H  49.16900 18.55300 29.94900
H  48.23500 16.61100 23.88700
H  43.07000 13.74300 25.55900
H  45.30800 17.51000 32.74500
H  48.04900 18.09200 32.28700
H  46.29600 19.96700 30.87700
H  47.52400 20.17500 32.10900
H  45.76900 19.82000 32.48200
H  47.88600 15.76500 32.62100
H  46.49000 14.82400 32.79100
H  46.34000 15.22300 35.04700
H  46.33900 16.99200 34.72600
H  51.05000 19.83900 28.02100
H  52.08600 18.51200 27.82500
H  51.05800 18.60200 29.25500
H  52.00200 19.47700 25.64100
H  52.50800 18.62600 24.17400
H  52.58100 17.73800 25.72800
H  46.97400 14.59900 23.28200
H  44.03400 14.67600 23.48100
H  45.04300 16.00300 21.75600
H  46.83900 16.07000 21.77000
H  45.92200 17.31200 22.65300
H  45.62700 12.65500 22.60300
H  44.14200 12.38900 23.64200
H  45.53500 11.24700 25.12400
H  46.57400 12.57000 25.29500
H  46.79000 11.36900 24.01700
H  41.45700 12.23800 27.66400
H  40.71700 13.69800 26.98300
H  40.51300 13.20600 28.75600
H  43.95900 14.72900 32.64400
H  41.34700 16.39900 35.52600
H  40.54000 16.93600 34.06700
H  42.03200 17.85500 34.76600
Mg 30.04400 59.85200 40.05800
C  27.14000 58.25800 39.17300
C  31.84400 56.93500 39.79500
C  32.81600 61.73200 40.32500
C  28.17800 62.79600 40.61900
N  29.53500 57.80700 39.50900
C  28.28600 57.39200 39.07800
C  28.42600 55.95500 38.52400
C  29.76900 55.48200 39.13200
C  30.45800 56.81700 39.58700
C  29.74300 54.52100 40.44700
C  28.35900 56.06100 36.87900
C  27.25300 55.29900 36.19600
H  26.58300 55.99400 35.03800
N  32.08600 59.37800 39.98600
C  32.60700 58.09200 39.98400
C  34.03400 58.19600 40.02600
C  34.39200 59.56600 40.29200
C  33.08000 60.30300 40.22300
C  34.93000 57.04700 39.71200
C  35.79000 60.09500 40.47700
O  36.75400 59.32400 40.60800
C  36.09500 61.51200 40.57500
N  30.46300 62.04600 40.16300
C  31.71200 62.53700 40.31600
C  31.69600 64.05400 40.66900
C  30.21000 64.37000 40.95400
C  29.53700 62.98200 40.53100
C  32.68700 64.60400 41.68500
C  29.72700 65.64300 40.17000
C  28.84300 66.58200 40.97600
N  28.09700 60.44300 39.98700
C  27.47600 61.63100 40.28200
C  26.06000 61.41200 40.22400
C  25.88100 60.08300 39.75600
C  27.15500 59.57500 39.65800
C  24.97400 62.40600 40.50600
C  24.89700 59.10300 39.21600
O  23.69200 59.03800 39.11500
C  25.73100 57.77300 38.82600
C  25.10700 56.62200 39.59700
O  25.34300 56.28500 40.74800
O  24.29000 55.99600 38.71600
C  23.37900 54.99400 39.30600
H  32.26700 55.93400 39.69000
H  33.75100 62.26500 40.51000
H  27.69400 63.72700 40.92200
H  27.53700 55.37200 38.76600
H  30.42700 55.06400 38.37100
H  30.57800 53.98200 40.89400
H  28.97300 53.75500 40.36100
H  29.37300 55.08400 41.30400
H  29.29600 55.66100 36.49300
H  28.25600 57.10700 36.59000
H  26.43200 55.18600 36.90400
H  27.51300 54.28700 35.88400
H  34.41500 56.12600 39.43900
H  35.56100 56.75500 40.55100
H  35.63500 57.31100 38.92300
H  37.14200 61.63300 40.85500
H  35.56900 62.03500 41.37300
H  35.93900 61.99300 39.60900
H  32.02700 64.59100 39.78100
H  29.97100 64.48800 42.01000
H  32.14000 65.12800 42.46900
H  33.38100 65.29700 41.20900
H  33.14800 63.74400 42.17100
H  29.26300 65.28300 39.25200
H  30.59700 66.14200 39.74300
H  28.58800 66.27600 41.99100
H  27.86100 66.66600 40.51100
H  29.26700 67.57900 40.85200
H  25.21500 62.82700 41.48200
H  23.99400 61.92900 40.51500
H  24.94600 63.12500 39.68800
H  25.62400 57.51200 37.77300
H  22.71000 55.36800 40.08100
H  23.95000 54.22200 39.82100
H  22.87700 54.64800 38.40200

