158

Mg 17.32400 51.42600 26.62700
C  19.01000 50.02200 29.35500
C  14.82100 52.26900 28.79300
C  15.50600 52.31000 23.87200
C  19.82300 50.30900 24.53400
N  16.98900 51.31000 28.87700
C  17.84000 50.71300 29.78700
C  17.48000 51.08900 31.21500
C  15.99700 51.52400 31.02100
C  15.95500 51.76200 29.46700
C  14.97200 50.45500 31.48500
C  18.36300 52.30600 31.68700
C  18.41100 52.59400 33.23700
H  17.58700 51.78600 34.24700
N  15.44200 52.22300 26.33500
C  14.57700 52.50700 27.34800
C  13.30400 53.01100 26.77400
C  13.44500 52.97500 25.34300
C  14.87300 52.51800 25.11100
C  12.20800 53.48100 27.61700
C  12.40900 53.15300 24.32000
O  12.68800 52.89100 23.14300
C  11.07000 53.75900 24.72600
N  17.62300 51.40800 24.59600
C  16.79900 51.84400 23.63700
C  17.40500 51.76000 22.20900
C  18.86400 51.33400 22.43200
C  18.82700 51.05500 23.95000
C  16.60500 50.80000 21.29700
C  19.91400 52.43600 22.00600
C  21.32400 51.93500 21.63900
N  19.06300 50.40300 26.84300
C  20.02400 50.06500 25.87000
C  21.13200 49.38700 26.51500
C  20.73900 49.29800 27.86000
C  19.49200 49.94600 27.97600
C  22.38100 48.85900 25.87100
C  21.07400 48.84700 29.16600
O  22.06600 48.18300 29.49600
C  19.98600 49.30700 30.20900
C  19.49400 48.18800 31.13000
O  18.48900 47.52800 30.92600
O  20.26600 48.21300 32.29200
C  19.84700 47.17700 33.24700
H  14.03800 52.41800 29.53900
H  14.96900 52.58200 22.96100
H  20.65600 49.95300 23.92500
H  17.66800 50.23900 31.87000
H  15.73300 52.43500 31.55700
H  15.29500 49.80100 32.29500
H  14.55200 49.90100 30.64500
H  14.17600 51.10200 31.85200
H  17.96900 53.06400 31.00900
H  19.36400 52.00600 31.37600
H  18.26200 53.67200 33.28300
H  19.44200 52.48700 33.57400
H  11.90500 54.50900 27.41600
H  12.27600 53.31400 28.69200
H  11.31500 52.90400 27.37500
H  10.36900 53.06200 25.18500
H  10.59200 54.13500 23.82200
H  11.15700 54.61800 25.39300
H  17.32000 52.73800 21.73500
H  19.15200 50.42500 21.90400
H  16.56000 51.36300 20.36500
H  15.62900 50.62500 21.75100
H  17.20500 49.91700 21.07900
H  20.00200 53.18900 22.78900
H  19.48300 52.98300 21.16800
H  22.04000 52.25500 22.39600
H  21.76200 52.25700 20.69500
H  21.31500 50.85300 21.50800
H  22.40300 49.00200 24.79100
H  22.38900 47.80800 26.15900
H  23.29100 49.31500 26.26000
H  20.33800 50.04700 30.92800
H  20.77300 46.97600 33.78500
H  19.53400 46.26100 32.74600
H  19.03500 47.61300 33.82900
Mg 1.64300 41.94300 26.05800
C  3.53900 42.06100 28.97300
C  -1.09200 41.12300 27.89400
C  0.26200 41.12200 23.28400
C  4.73500 42.59400 24.25300
N  1.27300 41.60900 28.25100
C  2.17000 41.95900 29.21200
C  1.37100 41.92400 30.56700
C  -0.09800 41.49700 30.25100
C  -0.02400 41.46600 28.70200
C  -0.41100 40.06400 30.78600
C  1.49400 43.24800 31.37600
C  1.60500 43.16300 32.89300
H  1.23000 41.89600 33.63600
N  -0.24100 41.21600 25.64200
C  -1.23400 40.84500 26.51400
C  -2.30700 40.31500 25.71200
C  -1.90900 40.26100 24.36900
C  -0.59500 40.90200 24.36800
C  -3.66400 39.88900 26.29100
C  -2.65500 39.75800 23.15900
O  -2.15300 39.66800 22.04600
C  -4.08000 39.30200 23.19700
N  2.39200 41.89000 23.98900
C  1.53500 41.55400 23.06700
C  2.14700 41.79800 21.67100
C  3.44700 42.55200 21.99700
C  3.57800 42.37000 23.48800
C  2.36600 40.47800 20.80800
C  3.39600 44.05600 21.62300
C  4.23800 44.47900 20.44900
N  3.69000 42.28900 26.45900
C  4.77600 42.57600 25.68600
C  5.93200 42.66300 26.50600
C  5.53000 42.46800 27.79500
C  4.15700 42.19900 27.73700
C  7.40000 42.91900 26.00900
C  5.91700 42.37500 29.21000
O  6.97100 42.44100 29.81500
C  4.57700 42.20900 30.02900
C  4.73400 41.04100 30.91700
O  4.49100 39.90900 30.54600
O  5.00200 41.42200 32.24000
C  5.19700 40.39200 33.18800
H  -2.00800 41.16100 28.48600
H  -0.29200 40.88700 22.37300
H  5.62000 42.91700 23.70100
H  1.92800 41.12200 31.04900
H  -0.86300 42.19500 30.59000
H  0.25600 39.81400 31.61200
H  -0.18900 39.36900 29.97700
H  -1.43800 39.85400 31.08900
H  0.62000 43.83900 31.10100
H  2.32600 43.83500 30.98800
H  1.03700 43.95700 33.37900
H  2.68100 43.26600 33.03600
H  -3.70700 40.17600 27.34100
H  -3.79200 38.80600 26.26300
H  -4.42300 40.43400 25.73000
H  -4.76600 40.14700 23.26300
H  -4.25700 38.69800 24.08600
H  -4.24700 38.80100 22.24300
H  1.46200 42.44000 21.11700
H  4.35800 42.13300 21.57000
H  1.50700 39.84300 21.02500
H  3.28700 39.96300 21.08100
H  2.42300 40.82800 19.77700
H  3.68200 44.72300 22.43600
H  2.35900 44.37300 21.51000
H  4.98400 45.21300 20.75300
H  3.55000 44.90700 19.72000
H  4.76500 43.61800 20.03800
H  7.74200 43.87300 26.41100
H  7.42400 42.97800 24.92100
H  7.99300 42.15500 26.51100
H  4.49800 43.11800 30.62500
H  6.22700 40.03800 33.14200
H  4.58200 39.49700 33.09100
H  4.82000 40.74900 34.14600

