158

Mg 49.04600 45.92900 43.04100
C  45.61600 46.23000 42.00100
C  49.00300 42.76600 41.72600
C  52.35300 46.05400 43.08500
C  48.90800 49.40200 43.62500
N  47.49000 44.68900 41.93400
C  46.17600 44.99100 41.66600
C  45.51900 43.73300 41.13500
C  46.51700 42.62000 41.35500
C  47.74800 43.37400 41.78300
C  46.14500 41.45400 42.32600
C  44.88300 43.80400 39.66000
C  45.94100 44.00700 38.48100
H  45.93300 42.98600 37.41800
N  50.52400 44.53500 42.67600
C  50.26500 43.30100 42.09600
C  51.56200 42.61300 42.10100
C  52.51800 43.44600 42.64900
C  51.81900 44.74000 42.85600
C  51.73400 41.21300 41.85600
C  54.04600 43.19700 42.73200
O  54.41800 42.14200 42.24400
C  54.97800 44.24100 43.28500
N  50.42600 47.60600 43.07700
C  51.73600 47.31500 43.18000
C  52.56500 48.66000 43.28000
C  51.42200 49.73100 43.67400
C  50.16200 48.89800 43.51600
C  53.86700 48.66800 44.14100
C  51.46200 51.06600 42.92700
C  52.40400 51.99600 43.54700
N  47.53500 47.49600 43.11700
C  47.63400 48.83500 43.39100
C  46.29500 49.50300 43.27400
C  45.48000 48.44500 42.69100
C  46.30200 47.27600 42.68200
C  45.91500 50.99000 43.34100
C  44.21100 48.19500 42.16900
O  43.32400 48.96100 41.88100
C  44.19800 46.74300 41.66300
C  43.09500 45.90900 42.18200
O  42.11200 45.49800 41.50800
O  43.22300 45.59400 43.50400
C  42.00300 44.92800 44.04400
H  49.04600 41.70600 41.46800
H  53.43500 46.12900 43.21900
H  48.90500 50.46500 43.87700
H  44.60500 43.58200 41.71000
H  46.85500 42.06300 40.48200
H  45.26900 41.64300 42.94600
H  46.83400 41.29100 43.15600
H  45.90800 40.54700 41.77100
H  44.05200 44.50800 39.71500
H  44.32200 42.88500 39.49100
H  46.90200 43.81800 38.95900
H  46.02900 45.02500 38.10100
H  52.44200 41.12400 41.03300
H  50.82500 40.67400 41.58800
H  52.17700 40.72600 42.72500
H  55.16300 45.01900 42.54400
H  55.90800 43.70200 43.46600
H  54.54500 44.67300 44.18600
H  52.84500 48.83900 42.24200
H  51.44300 49.96800 44.73800
H  53.82300 47.84900 44.85900
H  54.07200 49.56400 44.72700
H  54.70400 48.44500 43.48000
H  50.49600 51.57000 42.89800
H  51.75900 50.93200 41.88700
H  52.90800 51.50700 44.38000
H  51.90200 52.88600 43.92500
H  53.11300 52.35900 42.80200
H  44.94400 51.19200 42.88900
H  46.65100 51.61000 42.82900
H  45.85900 51.27200 44.39300
H  44.00100 46.78400 40.59200
H  42.18100 44.84900 45.11700
H  41.83100 43.93700 43.62300
H  41.05900 45.47200 44.07600
Mg 1.09300 42.06500 26.10600
C  2.84800 41.92800 29.18500
C  -1.86700 41.10600 27.85100
C  -0.52900 41.80800 23.21000
C  4.04500 42.61600 24.49700
N  0.59500 41.57400 28.24200
C  1.45000 41.76500 29.32800
C  0.68800 41.62100 30.71300
C  -0.78300 41.32300 30.27800
C  -0.70900 41.32200 28.72100
C  -1.45200 40.06500 30.98300
C  0.81100 42.89000 31.61900
C  1.24000 42.74300 33.15200
H  0.85100 41.47700 33.83500
N  -0.84600 41.47700 25.56700
C  -1.88600 41.19200 26.42700
C  -3.07600 40.88900 25.66700
C  -2.69100 40.98800 24.26000
C  -1.30700 41.37800 24.26500
C  -4.53800 40.77600 26.21200
C  -3.51300 40.69500 23.00900
O  -3.11200 40.72900 21.89800
C  -4.94900 40.23600 23.14600
N  1.60100 42.29200 24.19600
C  0.81500 42.09400 23.08900
C  1.54500 42.25400 21.76600
C  2.95200 42.73400 22.22100
C  2.88600 42.51600 23.77000
C  1.54800 40.91400 21.01500
C  3.39000 44.13500 21.91900
C  3.59200 44.40200 20.40300
N  3.08800 42.20100 26.63700
C  4.19400 42.47600 25.87000
C  5.42000 42.51300 26.70200
C  4.91000 42.28100 27.95200
C  3.49300 42.06100 27.89000
C  6.72800 42.99200 26.24800
C  5.29800 42.30100 29.29600
O  6.40400 42.40400 29.74100
C  4.01500 42.12700 30.18400
C  4.24800 41.03000 31.27100
O  4.03400 39.87300 31.06200
O  4.65200 41.62700 32.41800
C  5.07300 40.74000 33.48900
H  -2.84900 41.02900 28.32200
H  -0.96100 41.81800 22.20700
H  4.99500 42.75000 23.97500
H  1.15800 40.76100 31.19000
H  -1.51500 42.11300 30.44300
H  -1.88500 39.37700 30.25600
H  -2.26200 40.39700 31.63200
H  -0.94300 39.38300 31.66400
H  -0.14000 43.42300 31.61400
H  1.49900 43.58600 31.13900
H  0.82800 43.60100 33.68300
H  2.31700 42.89800 33.21900
H  -5.21700 41.48200 25.73300
H  -4.53000 41.04100 27.27000
H  -4.96500 39.78000 26.09400
H  -5.37100 40.04100 22.16000
H  -5.65700 40.93000 23.59900
H  -4.96200 39.26500 23.64100
H  1.06200 43.05500 21.20600
H  3.80500 42.13200 21.90700
H  2.50900 40.43100 21.19600
H  1.39800 41.07000 19.94600
H  0.79100 40.24400 21.42100
H  4.40500 44.26500 22.29500
H  2.61500 44.84600 22.20500
H  2.82600 45.12400 20.11900
H  3.55300 43.45300 19.86800
H  4.59600 44.80100 20.25600
H  6.71000 43.22400 25.18300
H  7.57100 42.32700 26.43700
H  6.81500 43.98800 26.68400
H  3.87200 43.04900 30.74700
H  4.37000 39.95100 33.75900
H  5.25600 41.37100 34.35800
H  6.02400 40.25300 33.27400

