158

Mg 17.54700 -0.97200 26.68600
C  16.70400 1.18200 29.41100
C  19.56100 -2.63100 28.86700
C  18.44800 -2.95600 24.14000
C  15.91800 1.24700 24.54200
N  17.92600 -0.79200 28.88900
C  17.51700 0.12400 29.78200
C  18.00000 -0.13000 31.21600
C  19.16000 -1.15700 30.92500
C  18.90300 -1.59000 29.46400
C  20.58800 -0.57500 31.09500
C  16.89900 -0.69900 32.13200
C  16.78000 -0.03200 33.47000
H  17.91200 0.68700 34.15900
N  18.78700 -2.65600 26.52300
C  19.43400 -3.18500 27.55000
C  20.16200 -4.42600 27.12400
C  19.95900 -4.43200 25.68600
C  18.99500 -3.32600 25.39000
C  20.89300 -5.37300 28.02300
C  20.45100 -5.51700 24.68600
O  20.23800 -5.44700 23.47700
C  21.20100 -6.68300 25.25300
N  17.32100 -0.78000 24.63200
C  17.69600 -1.81200 23.75600
C  17.42400 -1.42900 22.33100
C  16.36200 -0.34200 22.53200
C  16.60200 0.21900 24.00700
C  18.87800 -0.98900 21.75100
C  14.87700 -0.64800 22.24900
C  14.13900 -1.42300 23.42000
N  16.57600 0.90400 26.86000
C  15.85900 1.53200 25.91800
C  15.06100 2.54000 26.52500
C  15.37000 2.48900 27.89000
C  16.32700 1.50000 28.02200
C  14.27000 3.59400 25.77800
C  15.07500 3.08000 29.18600
O  14.32100 4.01200 29.50700
C  15.91400 2.27000 30.24800
C  16.77800 3.12900 31.07000
O  17.84400 3.58000 30.69100
O  16.23900 3.34000 32.30400
C  16.89600 4.44700 33.00000
H  20.17500 -3.30400 29.47000
H  18.72100 -3.53100 23.25200
H  15.29600 1.81500 23.84700
H  18.34400 0.75300 31.75500
H  19.03200 -2.00900 31.59300
H  20.53500 0.34300 31.67900
H  21.20200 -0.42600 30.20700
H  21.06800 -1.28000 31.77400
H  17.22900 -1.71300 32.35700
H  16.00500 -0.58200 31.52000
H  16.52800 -0.87600 34.11300
H  15.87700 0.57600 33.42500
H  21.92400 -5.45800 27.68100
H  20.47900 -6.38100 27.98000
H  20.87900 -4.93000 29.01900
H  20.64500 -7.20300 26.03300
H  22.18200 -6.33100 25.57300
H  21.32600 -7.29800 24.36200
H  17.03700 -2.25800 21.73800
H  16.64200 0.43800 21.82400
H  18.87200 0.09500 21.63700
H  19.18300 -1.51500 20.84600
H  19.73700 -1.14400 22.40400
H  14.74600 -1.19800 21.31700
H  14.38400 0.28100 21.96300
H  14.59000 -1.20200 24.38700
H  14.10500 -2.47800 23.14600
H  13.10900 -1.06700 23.38600
H  14.85100 4.07500 24.99200
H  13.88400 4.29800 26.51600
H  13.32400 3.21600 25.38900
H  15.19100 1.77700 30.89800
H  16.63100 5.39100 32.52300
H  17.97700 4.44400 32.86200
H  16.58000 4.60500 34.03100
Mg 26.26400 1.18600 28.16600
C  27.85800 0.89100 31.24900
C  23.27900 1.69800 29.93300
C  24.66000 1.15800 25.28500
C  29.18500 0.24300 26.57700
N  25.67800 1.34400 30.39700
C  26.52300 1.35200 31.42400
C  25.79300 1.57100 32.74500
C  24.30600 1.73700 32.29300
C  24.43900 1.68300 30.78400
C  23.34100 0.70800 32.88500
C  26.32200 2.69800 33.78700
C  26.68900 2.36000 35.21500
H  26.56500 3.41200 36.33800
N  24.25200 1.34500 27.66500
C  23.17900 1.58600 28.54200
C  21.99200 1.74300 27.79300
C  22.30000 1.55000 26.40400
C  23.77800 1.28300 26.37700
C  20.57800 1.95500 28.35700
C  21.38100 1.45900 25.14400
O  21.76000 1.19900 24.02300
C  19.92500 1.82900 25.30100
N  26.85200 0.77000 26.18800
C  26.00500 1.04000 25.16000
C  26.81000 0.93300 23.79000
C  28.25300 0.53000 24.17900
C  28.14000 0.55200 25.71500
C  26.13900 0.01900 22.73100
C  29.38600 1.58100 23.77900
C  29.65300 1.71100 22.27600
N  28.09500 0.67000 28.76000
C  29.16500 0.24700 28.00400
C  30.23900 -0.20300 28.86600
C  29.81500 0.15600 30.15400
C  28.48300 0.68500 30.01100
C  31.59900 -0.70500 28.40800
C  30.16800 0.09900 31.56800
O  31.20800 -0.19800 32.13600
C  28.91400 0.63500 32.28500
C  28.56700 -0.29000 33.35000
O  27.64600 -1.08000 33.35200
O  29.37100 -0.11400 34.47800
C  29.05300 -0.85200 35.61800
H  22.32300 1.81500 30.44900
H  24.16900 1.16100 24.31000
H  30.09900 -0.10700 26.09300
H  25.87300 0.56000 33.14300
H  23.91000 2.73600 32.47500
H  23.84400 0.12600 33.65600
H  22.94400 0.12300 32.05500
H  22.64700 1.33100 33.44900
H  25.54500 3.46200 33.80000
H  27.15400 3.18900 33.28200
H  27.71300 2.04200 35.41100
H  26.08400 1.48400 35.44900
H  19.96100 2.56600 27.69800
H  20.59400 2.49400 29.30400
H  20.14600 0.95600 28.41800
H  19.49800 1.90200 24.30100
H  19.92500 2.87400 25.61200
H  19.36100 1.23700 26.02200
H  26.84800 1.95600 23.41400
H  28.64200 -0.42900 23.83700
H  25.25800 -0.45900 23.16000
H  26.78100 -0.72900 22.26600
H  25.80100 0.64200 21.90400
H  30.37600 1.22300 24.06200
H  29.23000 2.51000 24.32700
H  29.04000 0.96700 21.76800
H  30.66500 1.48800 21.93800
H  29.36100 2.70700 21.94200
H  32.21600 -0.59000 29.29900
H  31.85000 -0.06800 27.56000
H  31.54700 -1.76200 28.14700
H  29.13100 1.59400 32.75500
H  29.26300 -1.88700 35.34700
H  28.04800 -0.75200 36.02800
H  29.69800 -0.49600 36.42100

