158

Mg 4.91600 53.26000 41.16100
C  3.05500 50.31000 41.23500
C  7.40700 51.60300 39.60500
C  6.12500 56.28200 40.39800
C  1.81600 55.01000 42.00400
N  4.97200 51.15400 40.22200
C  4.23500 50.08600 40.47500
C  4.81400 48.80700 39.90500
C  6.30400 49.16000 39.81900
C  6.25600 50.74100 39.85000
C  7.20200 48.51600 40.85300
C  4.19500 48.47000 38.52300
C  4.29300 47.06500 37.99400
H  4.94900 46.89200 36.61400
N  6.57000 53.83100 40.31300
C  7.49500 53.01200 39.59900
C  8.52800 53.74700 39.04700
C  8.29300 55.08500 39.42500
C  6.89700 55.13800 40.00300
C  9.70800 53.04600 38.42800
C  9.29600 56.24700 39.30300
O  10.32100 56.09400 38.66200
C  9.13900 57.50300 40.01600
N  4.12200 55.33900 41.38700
C  4.89900 56.35800 40.94500
C  4.21200 57.67400 41.01300
C  2.78500 57.24300 41.54500
C  2.91400 55.79600 41.61100
C  4.86800 58.78400 41.93700
C  1.52800 57.74900 40.65000
C  0.35700 58.39700 41.44200
N  2.96600 52.77000 41.76300
C  1.80400 53.57100 42.03800
C  0.70300 52.67200 42.40000
C  1.24400 51.35600 42.22600
C  2.51000 51.52600 41.69700
C  -0.65600 53.09900 42.84100
C  0.89800 49.98800 42.22900
O  -0.14900 49.34800 42.42300
C  2.16800 49.27400 41.82800
C  1.77000 48.12600 41.02500
O  1.04700 48.22500 40.02200
O  2.27700 46.93300 41.53300
C  2.07400 45.71500 40.85200
H  8.19400 51.00300 39.14400
H  6.60200 57.16500 39.96700
H  0.92500 55.56800 42.29800
H  4.75900 48.01200 40.64900
H  6.63500 48.78500 38.85100
H  8.16800 48.13700 40.51800
H  6.74100 47.74700 41.47200
H  7.47500 49.30400 41.55600
H  4.51000 49.19600 37.77400
H  3.11600 48.62500 38.51300
H  3.33800 46.54000 37.99100
H  4.86200 46.50500 38.73700
H  10.35900 53.74200 37.89800
H  9.45500 52.16900 37.83200
H  10.30000 52.69100 39.27100
H  10.05800 58.08900 40.00700
H  8.85400 57.24500 41.03600
H  8.37100 58.18400 39.65000
H  4.02100 57.92400 39.97000
H  2.59200 57.68000 42.52500
H  5.89300 58.49600 42.16900
H  4.35000 58.86600 42.89300
H  4.82000 59.74600 41.42700
H  1.15600 56.89300 40.08700
H  1.93900 58.55200 40.03800
H  0.25200 59.42000 41.07900
H  0.45600 58.44300 42.52600
H  -0.62500 57.98400 41.21200
H  -1.33600 52.56800 42.17500
H  -0.81200 54.16000 42.64400
H  -0.84200 52.83200 43.88200
H  2.56500 48.88200 42.76400
H  2.98400 45.36500 40.36700
H  1.41500 45.90800 40.00600
H  1.55200 45.01100 41.50100
Mg 1.96800 41.63000 25.22500
C  2.72200 41.77500 28.71600
C  -1.04800 40.36800 26.10000
C  1.49900 40.84600 21.97200
C  5.16300 42.95600 24.57200
N  1.02300 41.01200 27.18100
C  1.43800 41.24400 28.49100
C  0.33900 41.01600 29.52800
C  -0.81500 40.49500 28.66700
C  -0.28000 40.64700 27.20800
C  -1.30400 39.01600 28.91900
C  -0.01300 42.26200 30.42600
C  0.09500 41.86800 31.88800
H  -0.77100 40.76900 32.50500
N  0.44100 40.79200 24.16800
C  -0.74000 40.37700 24.69500
C  -1.62600 39.88500 23.57800
C  -0.88000 40.10600 22.38600
C  0.43800 40.55800 22.82800
C  -3.02100 39.23300 23.72300
C  -1.29500 39.82600 20.93400
O  -0.65300 40.24600 19.97300
C  -2.54300 39.14900 20.61300
N  3.25900 41.85000 23.47800
C  2.83600 41.36100 22.23600
C  3.81900 41.85300 21.17600
C  4.90400 42.72000 21.96900
C  4.42400 42.48800 23.41900
C  4.47900 40.67500 20.36800
C  4.88700 44.29100 21.47300
C  3.87500 45.26200 22.12300
N  3.64300 42.32700 26.39500
C  4.83400 42.90200 25.94100
C  5.66000 43.19200 27.09000
C  4.81000 42.70600 28.15800
C  3.61500 42.21500 27.72000
C  7.03600 43.72900 27.10900
C  4.89600 42.55100 29.59400
O  5.75700 42.84800 30.40300
C  3.54800 41.82200 29.94600
C  3.78700 40.53200 30.51600
O  4.43600 39.60300 29.94500
O  3.27900 40.43900 31.77500
C  3.47700 39.24100 32.60100
H  -2.00800 39.90100 26.33000
H  1.38600 40.75200 20.89000
H  6.08000 43.50000 24.33700
H  0.70200 40.16100 30.09900
H  -1.67000 41.14200 28.86800
H  -0.83400 38.54500 29.78200
H  -1.06400 38.39700 28.05500
H  -2.38300 39.05900 29.06600
H  -0.96100 42.75600 30.21000
H  0.61000 43.15300 30.33500
H  0.20200 42.79500 32.45200
H  1.07500 41.41200 32.02700
H  -3.73000 39.66800 23.01900
H  -3.32700 39.35500 24.76200
H  -2.99000 38.16000 23.53400
H  -3.41100 39.79400 20.75100
H  -2.61400 38.24400 21.21600
H  -2.43200 38.95900 19.54600
H  3.15600 42.48000 20.58000
H  5.90600 42.31600 21.82100
H  5.48900 40.49300 20.73700
H  4.46500 41.09000 19.36000
H  3.76700 39.86000 20.49800
H  4.73900 44.28600 20.39300
H  5.86000 44.73400 21.68500
H  3.33600 45.58700 21.23300
H  4.35600 46.08000 22.65800
H  3.20300 44.88500 22.89400
H  7.19700 44.15300 26.11800
H  7.74700 42.91100 27.22700
H  7.10300 44.46900 27.90800
H  3.07800 42.51000 30.64900
H  4.29900 39.64500 33.19300
H  3.67500 38.26500 32.15900
H  2.46600 39.14200 32.99700

