158

Mg 49.57300 45.66300 43.27800
C  46.15500 46.09500 42.34900
C  49.32500 42.35600 42.18200
C  52.88500 45.58200 43.17100
C  49.70300 49.19800 43.82600
N  47.88600 44.36200 42.53700
C  46.61600 44.76600 42.19000
C  45.77900 43.58900 41.59800
C  46.64800 42.31900 41.90600
C  48.06800 42.99400 42.22900
C  46.28000 41.34500 43.11200
C  45.39400 43.79300 40.07800
C  46.49800 43.94000 39.04600
H  46.34800 42.92500 37.84700
N  50.91500 44.15900 42.82100
C  50.60600 42.90500 42.37100
C  51.87500 42.16900 42.26600
C  52.93800 43.01700 42.50600
C  52.27900 44.34700 42.74500
C  51.84900 40.63100 42.02200
C  54.43000 42.59700 42.47600
O  54.72700 41.39400 42.33100
C  55.56400 43.67800 42.65600
N  50.95800 47.18100 43.40000
C  52.29500 46.80700 43.45900
C  53.22100 48.07900 43.58100
C  52.22500 49.20900 43.83900
C  50.84700 48.47900 43.68500
C  54.38100 47.93600 44.58900
C  52.35200 50.51700 42.91400
C  52.65900 51.85100 43.60400
N  48.20100 47.34800 43.23200
C  48.40300 48.69500 43.52900
C  47.16800 49.43200 43.23100
C  46.25100 48.43300 42.82600
C  46.93800 47.19300 42.81600
C  47.12400 50.95400 43.31200
C  44.88700 48.21100 42.33500
O  43.94500 48.97700 42.04400
C  44.80200 46.68800 42.05000
C  43.73800 46.05700 42.81200
O  42.91100 45.28400 42.33600
O  43.58200 46.52700 44.06900
C  42.50000 45.97400 44.82100
H  49.20200 41.29200 41.97000
H  53.97500 45.62900 43.14900
H  49.67800 50.22600 44.19400
H  44.84000 43.42600 42.12800
H  46.86300 41.67500 41.05300
H  46.59300 40.33400 42.84900
H  45.19100 41.39300 43.11800
H  46.78900 41.75000 43.98600
H  44.79200 44.67300 39.85100
H  44.73100 42.93200 39.98200
H  47.47800 43.74900 39.48300
H  46.58300 44.94400 38.62900
H  52.61500 40.34100 41.30200
H  50.90000 40.17900 41.73700
H  52.15600 40.20900 42.97900
H  55.43700 44.45700 41.90400
H  56.46600 43.10100 42.45300
H  55.54400 44.07400 43.67100
H  53.60400 48.18700 42.56600
H  52.32300 49.57500 44.86000
H  55.25500 47.68700 43.98700
H  54.17100 47.04300 45.17800
H  54.44200 48.77600 45.28100
H  51.40000 50.57700 42.38700
H  53.09200 50.46300 42.11500
H  51.70700 52.38100 43.63200
H  53.29200 52.52500 43.02500
H  53.00200 51.67500 44.62400
H  47.27400 51.37300 44.30700
H  46.12900 51.31300 43.04800
H  47.93000 51.17300 42.61200
H  44.53700 46.66700 40.99300
H  41.72700 46.73800 44.90200
H  42.83900 45.70100 45.82000
H  41.83200 45.17000 44.51200
Mg -2.14500 34.06700 26.64200
C  -3.52400 32.33000 29.33400
C  -0.30700 36.03300 28.92900
C  -0.83000 35.74500 24.09400
C  -4.07800 32.23300 24.48000
N  -2.07500 34.15700 28.81300
C  -2.70800 33.38200 29.77800
C  -2.09900 33.61100 31.19700
C  -1.39200 35.06000 30.98300
C  -1.29400 35.16000 29.46000
C  -2.19100 36.22400 31.47300
C  -1.16900 32.48100 31.65900
C  -1.02700 32.26300 33.19700
H  -1.70600 33.16100 34.21900
N  -0.62700 35.57800 26.54300
C  -0.02200 36.22400 27.59700
C  0.94900 37.17300 26.99800
C  0.69800 37.19600 25.58000
C  -0.33200 36.14100 25.33500
C  1.97400 37.92800 27.93500
C  1.40100 38.00600 24.46300
O  1.13600 37.96400 23.28300
C  2.54900 38.84100 24.96000
N  -2.41400 34.06900 24.57500
C  -1.78400 34.87900 23.68500
C  -2.12400 34.59500 22.21700
C  -3.03200 33.31000 22.43600
C  -3.24600 33.23000 23.94500
C  -2.99000 35.78200 21.60300
C  -2.40100 31.95000 21.87700
C  -1.28600 31.31900 22.69800
N  -3.64300 32.66400 26.76300
C  -4.23300 31.93400 25.80300
C  -5.04300 30.88100 26.42000
C  -4.76200 30.99600 27.77700
C  -3.88800 32.08600 27.94100
C  -5.89700 29.89800 25.70200
C  -5.10900 30.44600 29.01300
O  -5.94100 29.55200 29.27900
C  -4.24400 31.27500 30.09500
C  -5.22800 31.75800 31.10600
O  -6.08900 32.58500 30.88500
O  -5.14000 31.03900 32.22000
C  -6.07600 31.34500 33.26900
H  0.25200 36.66200 29.62500
H  -0.16900 36.10300 23.30200
H  -4.65000 31.71600 23.70600
H  -2.83300 33.63300 32.00200
H  -0.40300 35.04400 31.44100
H  -1.64100 36.79800 32.21900
H  -3.05800 35.77700 31.96000
H  -2.44600 36.90700 30.66300
H  -0.15800 32.78700 31.38900
H  -1.24700 31.49600 31.19800
H  0.04000 32.37400 33.38600
H  -1.19600 31.25100 33.56500
H  3.02700 37.66600 27.83300
H  1.57700 37.96500 28.94900
H  1.91900 38.99600 27.72700
H  3.33600 38.24600 25.42400
H  2.08400 39.54500 25.65000
H  3.07600 39.24200 24.09400
H  -1.27800 34.54300 21.53100
H  -3.98900 33.45100 21.93200
H  -4.05400 35.73000 21.83600
H  -2.77400 35.57400 20.55500
H  -2.54000 36.69100 22.00200
H  -1.91500 32.24100 20.94600
H  -3.12000 31.18000 21.59600
H  -1.47200 30.24700 22.63200
H  -1.28300 31.57500 23.75700
H  -0.28200 31.58100 22.36600
H  -6.83000 29.56900 26.16000
H  -5.28500 29.06500 25.35600
H  -6.11800 30.34300 24.73200
H  -3.52900 30.67500 30.65700
H  -6.98100 31.92400 33.08200
H  -5.55400 31.89900 34.04900
H  -6.50900 30.42700 33.66500

