158

Mg 35.80700 1.72600 29.71500
C  33.49300 2.70100 32.17700
C  38.12600 1.52800 32.36300
C  38.11400 1.12200 27.47800
C  33.37800 2.25900 27.23300
N  35.81500 2.19400 32.01800
C  34.70800 2.50500 32.78900
C  35.01400 2.48900 34.27100
C  36.60400 2.39700 34.25700
C  36.90400 1.96700 32.77700
C  37.32600 3.59200 34.70800
C  34.36200 1.22200 34.88500
C  33.78100 1.48300 36.34000
H  34.41900 2.52900 37.23300
N  37.86100 1.27800 29.85400
C  38.57300 1.12500 31.04700
C  39.91800 0.63300 30.68100
C  39.97300 0.62100 29.24900
C  38.66100 1.04200 28.81400
C  40.89700 0.08300 31.76700
C  41.21000 0.34200 28.36700
O  41.14600 0.39500 27.10000
C  42.45900 -0.10800 29.02000
N  35.72700 1.77000 27.65900
C  36.83300 1.34600 26.98000
C  36.57200 1.30100 25.51200
C  35.00200 1.43900 25.42300
C  34.69300 1.89200 26.81400
C  37.37400 2.29800 24.63700
C  34.13800 0.20500 25.00400
C  33.16500 0.38700 23.77000
N  33.77600 2.36000 29.61100
C  32.91200 2.53000 28.56800
C  31.64900 2.99800 29.07500
C  31.79200 3.03600 30.50800
C  33.14300 2.60200 30.77900
C  30.49000 3.29900 28.17900
C  31.11700 3.28300 31.73900
O  29.98600 3.61200 32.02300
C  32.24200 3.04500 32.91300
C  32.21700 4.30500 33.77200
O  32.66700 5.37900 33.46200
O  31.65600 4.08700 35.01000
C  31.46700 5.24600 35.91900
H  38.83300 1.60600 33.19200
H  38.91700 0.79900 26.81300
H  32.69500 2.24100 26.38000
H  34.71200 3.40900 34.77000
H  36.98100 1.53600 34.81000
H  36.70300 4.44500 34.97900
H  37.98500 3.85800 33.88200
H  37.93000 3.32500 35.57500
H  35.08100 0.40300 34.90000
H  33.45200 0.98200 34.33600
H  33.78300 0.46800 36.73800
H  32.70900 1.67200 36.29900
H  41.61500 0.88800 31.92000
H  41.42600 -0.80800 31.42800
H  40.32100 -0.09100 32.67500
H  42.65900 0.46100 29.92800
H  43.25600 0.16900 28.33000
H  42.34500 -1.16700 29.25100
H  36.81000 0.30500 25.14000
H  34.79200 2.22400 24.69700
H  37.79100 3.12500 25.21200
H  36.65800 2.64100 23.89000
H  38.12400 1.65500 24.17600
H  33.44000 -0.00400 25.81500
H  34.82900 -0.62700 24.86900
H  33.28200 1.39100 23.36100
H  32.16400 0.12800 24.11500
H  33.43600 -0.24000 22.92100
H  30.95000 3.71400 27.28200
H  29.78300 3.96800 28.66900
H  29.96900 2.36600 27.96800
H  31.91200 2.23400 33.56200
H  31.44500 6.19100 35.37600
H  32.25700 5.32000 36.66600
H  30.53500 5.10500 36.46600
Mg 42.00500 40.68500 27.32900
C  41.44000 43.30000 29.75600
C  42.67800 38.54000 30.04800
C  42.64900 38.21800 25.27400
C  41.59900 43.02400 24.90600
N  41.88200 40.87500 29.65400
C  41.61800 42.01100 30.35500
C  41.72300 41.71100 31.80000
C  42.32700 40.24700 31.92000
C  42.29100 39.81800 30.45600
C  43.81200 40.28600 32.56200
C  40.38500 41.92500 32.56200
C  40.29800 42.82500 33.75900
H  39.45800 42.15700 35.00000
N  42.59800 38.68700 27.59200
C  42.84200 38.01500 28.77400
C  43.21100 36.65000 28.44500
C  43.18300 36.50100 27.07200
C  42.78300 37.83700 26.60600
C  43.54300 35.60100 29.52200
C  43.34500 35.22600 26.24700
O  43.22900 35.18300 25.02700
C  43.48400 33.97300 26.91800
N  42.08600 40.65600 25.41100
C  42.39100 39.51900 24.69100
C  42.33500 39.68400 23.22400
C  41.67500 41.12500 23.13300
C  41.85900 41.67600 24.55200
C  43.73100 39.55600 22.62600
C  40.26900 41.27000 22.42900
C  39.03500 40.99200 23.31000
N  41.63400 42.73300 27.27300
C  41.43200 43.57600 26.16600
C  41.13800 44.92500 26.55100
C  41.10400 44.85600 27.97900
C  41.42700 43.49700 28.31000
C  40.78700 45.98500 25.60500
C  40.98000 45.60400 29.23600
O  40.79800 46.78600 29.27900
C  41.04700 44.63700 30.42300
C  42.10200 45.09600 31.35600
O  43.30900 44.98200 31.38100
O  41.31200 45.68800 32.33300
C  41.99700 46.19700 33.45500
H  42.84800 37.86500 30.89000
H  42.75000 37.30500 24.68400
H  41.69900 43.72000 24.07000
H  42.41300 42.45700 32.19500
H  41.70800 39.53800 32.46900
H  43.99700 41.21600 33.10000
H  44.42600 40.37600 31.66600
H  44.05000 39.42900 33.19200
H  39.97800 40.99400 32.95600
H  39.67600 42.17000 31.77100
H  39.78500 43.73800 33.45600
H  41.31700 43.07500 34.05500
H  44.62000 35.44200 29.47000
H  43.03600 34.65000 29.36000
H  43.32300 35.95000 30.53100
H  42.63300 33.74500 27.55900
H  44.45500 33.97100 27.41200
H  43.45700 33.27000 26.08500
H  41.61000 38.97000 22.83100
H  42.38300 41.69900 22.53600
H  44.38600 38.97900 23.27900
H  44.13200 40.51800 22.30600
H  43.53200 39.07700 21.66800
H  40.20700 40.70200 21.50000
H  40.22800 42.31100 22.10900
H  38.32000 40.23800 22.98200
H  38.46400 41.91100 23.44600
H  39.35400 40.78700 24.33200
H  40.52800 45.58500 24.62500
H  41.72600 46.53800 25.60300
H  40.07700 46.66600 26.07300
H  40.08900 44.40900 30.89100
H  41.47000 46.99400 33.97900
H  43.05600 46.38700 33.27900
H  41.85900 45.37300 34.15500

