158

Mg 0.83800 8.75900 26.83100
C  1.43500 11.01700 29.30600
C  0.65600 6.16600 29.17200
C  0.61000 6.47600 24.38700
C  1.14600 11.34100 24.47400
N  0.93300 8.60300 28.93000
C  1.19700 9.70300 29.78100
C  1.04700 9.27200 31.23100
C  1.19900 7.69300 31.14000
C  0.83900 7.48200 29.70200
C  2.61800 7.21200 31.66100
C  -0.34000 9.64300 31.84800
C  -0.55000 9.35400 33.32200
H  0.69800 9.05200 34.13700
N  0.61800 6.65400 26.75100
C  0.50800 5.76700 27.82200
C  0.19000 4.41100 27.33700
C  0.20900 4.46500 25.90500
C  0.51800 5.83100 25.62500
C  -0.02900 3.31500 28.24700
C  -0.17400 3.33100 24.86200
O  -0.25600 3.50100 23.61100
C  -0.55200 1.85900 25.30000
N  0.90400 8.91600 24.74200
C  0.70500 7.82100 23.97800
C  0.73300 8.25200 22.47600
C  0.44900 9.81300 22.56500
C  0.94200 10.06900 24.00400
C  1.99900 7.85100 21.73700
C  -1.10400 10.15900 22.50900
C  -1.52000 11.35100 21.56700
N  1.24500 10.78700 26.77600
C  1.38700 11.70600 25.80300
C  1.70300 12.97100 26.32400
C  1.82300 12.77800 27.68700
C  1.42400 11.43400 27.92100
C  1.90900 14.19000 25.41600
C  2.08700 13.38100 29.04200
O  2.42900 14.53800 29.31600
C  1.76600 12.27400 30.09700
C  2.92900 12.06000 30.97000
O  4.00200 11.46400 30.79600
O  2.61000 12.65200 32.21300
C  3.66900 12.50800 33.17900
H  0.62700 5.36500 29.91300
H  0.39400 5.92000 23.47200
H  1.08700 12.12700 23.71900
H  1.91100 9.72700 31.71500
H  0.49500 7.20000 31.81000
H  3.00800 7.69100 32.55900
H  3.36600 7.26600 30.87100
H  2.47400 6.20900 32.06400
H  -1.05000 8.96200 31.37900
H  -0.63400 10.63900 31.51700
H  -1.07900 8.40100 33.29300
H  -1.10000 10.17600 33.78000
H  -1.06600 3.23700 28.57400
H  0.57500 3.35000 29.15300
H  0.25300 2.42600 27.68200
H  0.33100 1.48600 25.81800
H  -0.71000 1.30700 24.37300
H  -1.44200 1.94200 25.92400
H  -0.14000 7.68400 22.15500
H  0.98800 10.42900 21.84400
H  2.75100 7.45500 22.41900
H  2.38900 8.71500 21.19900
H  1.69000 7.05600 21.05800
H  -1.33600 10.51000 23.51400
H  -1.68600 9.28100 22.23100
H  -2.14400 10.98900 20.75000
H  -0.70000 11.95000 21.17200
H  -2.02300 12.16300 22.09300
H  1.76200 15.12300 25.96000
H  1.12500 14.30700 24.66800
H  2.92200 14.18500 25.01300
H  0.86400 12.41000 30.69400
H  3.58400 13.15000 34.05600
H  4.59800 12.80100 32.68900
H  3.86600 11.48100 33.48600
Mg 56.00900 23.00300 44.92000
C  53.70900 25.45200 43.98400
C  53.73100 20.59400 43.93600
C  58.35300 20.60900 45.32800
C  58.24200 25.39900 45.55600
N  53.94800 23.08100 43.99800
C  53.18000 24.20800 43.75200
C  51.80800 23.82600 43.06400
C  51.80700 22.31100 43.53000
C  53.22400 21.92300 43.80800
C  50.85400 22.07600 44.74300
C  51.70800 24.12800 41.55200
C  50.38100 24.58000 41.01900
H  49.77900 23.81600 39.87600
N  56.06800 20.88700 44.56100
C  55.00400 20.09500 44.26900
C  55.26200 18.64500 44.42700
C  56.60400 18.64300 44.81200
C  57.13800 20.03200 44.79300
C  54.25400 17.51000 44.14600
C  57.39800 17.33600 45.33600
O  56.74100 16.30000 45.54000
C  58.89800 17.26800 45.74800
N  58.08000 22.99400 45.07100
C  58.80000 21.90100 45.47800
C  60.06800 22.34000 46.17800
C  60.12100 23.83100 45.76500
C  58.72500 24.11100 45.52900
C  59.93300 22.01000 47.68700
C  60.96100 24.24700 44.53800
C  61.99000 25.32000 44.74700
N  55.97400 24.99700 44.93700
C  56.97000 25.86500 45.30300
C  56.48600 27.19000 45.40600
C  55.19200 27.10600 44.81900
C  54.94700 25.72700 44.51400
C  57.19900 28.38500 45.78400
C  54.03100 27.87900 44.43300
O  53.80500 29.09200 44.55800
C  53.08200 26.78900 43.79700
C  52.83400 27.14000 42.39300
O  53.64900 27.06700 41.44200
O  51.57500 27.73700 42.30500
C  51.32300 28.54000 41.06700
H  53.03500 19.75900 43.83800
H  59.14900 19.91500 45.60400
H  58.87300 26.06800 46.14500
H  51.01000 24.37300 43.56700
H  51.53700 21.66400 42.69600
H  51.32900 21.67300 45.63800
H  50.16000 21.34400 44.33100
H  50.32800 22.95600 45.11300
H  51.78400 23.15900 41.05900
H  52.49700 24.70000 41.06400
H  50.52800 25.60500 40.67800
H  49.61500 24.53000 41.79300
H  53.51800 17.73200 44.91900
H  54.59600 16.48600 44.29200
H  53.79700 17.69200 43.17300
H  59.49000 17.78600 44.99400
H  59.26100 16.25900 45.94500
H  59.03100 17.69000 46.74400
H  60.85800 21.76600 45.69300
H  60.40400 24.34100 46.68600
H  58.96900 21.52200 47.82800
H  59.96700 22.96800 48.20500
H  60.64300 21.26100 48.03500
H  60.32800 24.70900 43.78100
H  61.56500 23.42000 44.16500
H  61.95800 26.20900 44.11800
H  62.99400 24.90500 44.83900
H  61.71300 25.71700 45.72300
H  58.25900 28.14100 45.71800
H  57.01700 28.81200 46.77000
H  56.96200 29.15200 45.04600
H  52.11600 26.66000 44.28600
H  50.36700 28.11400 40.76000
H  52.05400 28.50200 40.26000
H  51.21900 29.59700 41.31300

