158

Mg 25.89700 1.37300 29.14000
C  27.72400 1.06900 32.12100
C  23.06900 1.83700 31.02300
C  23.99100 1.45600 26.24900
C  28.69000 0.68900 27.27900
N  25.39500 1.05200 31.37800
C  26.32400 1.19500 32.42100
C  25.68000 1.59800 33.74800
C  24.20500 1.78800 33.30500
C  24.17100 1.53300 31.84900
C  23.12400 0.91300 34.06700
C  26.30800 2.86500 34.43600
C  26.91400 2.59900 35.83000
H  26.42000 3.49000 36.92200
N  23.88500 1.63900 28.70700
C  22.86300 1.76500 29.65100
C  21.58100 1.91200 29.00500
C  21.80900 1.78800 27.59700
C  23.30100 1.63800 27.50100
C  20.32300 2.16300 29.80800
C  20.76300 1.83700 26.51300
O  21.08500 1.80300 25.30300
C  19.31400 2.08100 26.83100
N  26.32100 1.11000 27.15000
C  25.37000 1.19300 26.15300
C  25.92800 0.94000 24.71900
C  27.42500 0.77300 25.04500
C  27.51700 0.84200 26.58200
C  25.34500 -0.24600 24.00300
C  28.39800 1.80000 24.35500
C  29.01600 1.24900 23.05500
N  27.84200 0.94300 29.49700
C  28.88700 0.71900 28.65300
C  30.03500 0.36800 29.43600
C  29.62100 0.55300 30.77100
C  28.27200 0.87000 30.80400
C  31.40200 -0.17900 28.94400
C  30.11900 0.54600 32.15500
O  31.25300 0.45100 32.66100
C  28.90700 0.94000 33.09600
C  28.77100 -0.11000 34.12600
O  28.38300 -1.24400 33.92300
O  29.12000 0.35700 35.39100
C  29.20100 -0.49700 36.55800
H  22.25500 2.30300 31.58300
H  23.32500 1.60600 25.39800
H  29.59000 0.33600 26.77000
H  25.80500 0.72700 34.39200
H  23.96500 2.83300 33.49900
H  22.45400 0.38800 33.38600
H  22.55000 1.48700 34.79400
H  23.55200 0.11100 34.66800
H  25.61600 3.70700 34.42200
H  27.18500 3.23400 33.90500
H  27.97600 2.82900 35.91600
H  26.81100 1.58400 36.21400
H  19.82100 1.26600 30.17000
H  19.55800 2.69500 29.24200
H  20.58300 2.83500 30.62600
H  18.68800 1.94700 25.95000
H  19.17900 3.14900 27.00200
H  18.91200 1.47600 27.64400
H  25.59100 1.73100 24.05000
H  27.74800 -0.22200 24.74000
H  25.64500 -0.40200 22.96600
H  24.26500 -0.13800 24.10600
H  25.71700 -1.11200 24.55000
H  29.22100 1.99400 25.04300
H  27.89900 2.75200 24.17500
H  28.82900 1.84000 22.15800
H  28.49400 0.32800 22.80100
H  30.05800 0.93500 23.11800
H  31.11400 -0.94100 28.22000
H  31.94000 -0.72100 29.72100
H  32.02900 0.55300 28.43500
H  29.15600 1.86000 33.62400
H  28.38100 -0.17800 37.20200
H  30.12500 -0.34000 37.11400
H  29.20300 -1.57100 36.37000
Mg -2.20100 35.33700 26.37500
C  -3.89800 33.99100 29.08400
C  -1.16200 37.91000 28.48100
C  -0.55400 36.63700 23.68800
C  -3.88100 33.06400 24.26000
N  -2.46700 35.83200 28.59800
C  -3.12600 35.06600 29.49400
C  -2.91900 35.45700 30.98100
C  -2.08100 36.79200 30.74600
C  -1.91300 36.92200 29.17800
C  -2.46700 38.14700 31.43300
C  -2.18900 34.33700 31.88400
C  -1.56100 34.79700 33.18700
H  -2.25200 34.26500 34.43600
N  -0.98900 36.95100 26.08100
C  -0.75800 37.94100 27.07900
C  0.17000 38.89900 26.54000
C  0.47900 38.53800 25.19600
C  -0.39200 37.35700 24.88200
C  0.91300 40.00500 27.36000
C  1.39200 39.22800 24.18100
O  1.53400 38.85600 23.00100
C  2.16900 40.40000 24.56300
N  -2.06300 34.73200 24.25500
C  -1.30600 35.42800 23.38900
C  -1.18000 34.60900 22.12700
C  -2.39300 33.54500 22.18800
C  -2.93100 33.84100 23.64200
C  -1.14200 35.61000 20.88500
C  -2.08000 31.97100 22.00700
C  -2.81800 31.23600 20.88300
N  -3.58600 33.87500 26.53900
C  -4.23200 33.05800 25.59200
C  -5.21300 32.20800 26.26400
C  -5.07100 32.60900 27.61500
C  -4.17200 33.63300 27.73200
C  -6.17200 31.34300 25.58600
C  -5.62300 32.18800 28.98200
O  -6.34000 31.22500 29.21900
C  -4.74000 32.97900 29.93700
C  -5.77800 33.51800 30.90500
O  -6.47400 34.42500 30.74200
O  -5.76800 32.73700 32.02800
C  -6.81200 33.11500 33.03400
H  -0.84300 38.76100 29.08700
H  -0.05100 37.07000 22.82100
H  -4.31200 32.42800 23.48400
H  -3.83100 35.72400 31.51500
H  -1.13200 36.65300 31.26400
H  -1.58600 38.65000 31.83000
H  -3.16900 38.01000 32.25500
H  -3.04200 38.65500 30.65900
H  -1.49100 33.78900 31.25100
H  -2.97400 33.65900 32.22000
H  -1.71300 35.87400 33.11000
H  -0.50000 34.59600 33.33600
H  1.97500 39.81900 27.19800
H  0.86200 39.80500 28.43100
H  0.70100 41.04600 27.11600
H  2.98400 39.94600 25.12800
H  1.67900 41.14400 25.19100
H  2.84700 40.79200 23.80500
H  -0.23600 34.09600 22.30600
H  -3.22200 33.82700 21.54000
H  -1.76900 36.49900 20.95200
H  -1.52800 35.02400 20.05100
H  -0.09900 35.87700 20.71100
H  -2.19500 31.46300 22.96500
H  -1.06000 31.81100 21.65900
H  -3.73900 30.67500 21.04900
H  -2.15000 30.50900 20.42100
H  -3.01800 31.99700 20.12900
H  -6.49700 31.93600 24.73100
H  -6.90700 31.31200 26.38900
H  -5.63300 30.43400 25.31600
H  -4.05900 32.35900 30.52100
H  -6.66900 34.12900 33.40900
H  -6.83000 32.41800 33.87100
H  -7.79700 32.98100 32.58600

