158

Mg 30.80400 57.73700 40.45900
C  27.80200 56.16600 39.42300
C  32.50400 54.97200 39.68100
C  33.59000 59.55700 40.52500
C  28.88400 60.74800 40.86400
N  30.26000 55.90100 39.39500
C  28.96100 55.35100 39.25300
C  29.00600 53.95300 38.59600
C  30.36600 53.52000 39.18900
C  31.11500 54.86300 39.48000
C  30.40800 52.63700 40.52900
C  28.90600 54.00300 36.96900
C  27.61100 53.37700 36.27900
H  26.73800 54.23300 35.32000
N  32.83700 57.31000 40.12900
C  33.33600 56.13100 39.91300
C  34.80700 56.23100 39.79500
C  35.09200 57.61900 40.16600
C  33.78500 58.23800 40.22600
C  35.72300 55.08200 39.41200
C  36.49300 58.17600 40.35900
O  37.47300 57.42100 40.16200
C  36.79300 59.65700 40.69000
N  31.18800 60.03300 40.40500
C  32.44800 60.40100 40.73200
C  32.41400 61.86800 41.04000
C  30.90600 62.25000 41.32300
C  30.23900 60.93800 40.81800
C  33.33900 62.34100 42.20000
C  30.38700 63.62400 40.67400
C  29.70300 64.56300 41.70500
N  28.71000 58.37500 40.24000
C  28.13900 59.56900 40.48100
C  26.71800 59.54300 40.36300
C  26.51700 58.15600 39.96800
C  27.77400 57.50200 39.90000
C  25.67600 60.57700 40.68100
C  25.51900 57.16300 39.51300
O  24.29800 57.19300 39.28900
C  26.34100 55.78800 39.24300
C  25.82000 54.62400 40.09000
O  26.42700 54.15400 41.07900
O  24.55300 54.28400 39.58800
C  23.72900 53.36100 40.44700
H  33.17200 54.12500 39.50700
H  34.43100 60.23500 40.68200
H  28.26600 61.56400 41.24500
H  28.19000 53.33400 38.96900
H  30.90400 53.05100 38.36500
H  29.41600 52.68400 40.97800
H  31.08700 53.19700 41.17200
H  30.73700 51.60700 40.38900
H  29.73300 53.42500 36.55600
H  29.14300 55.04300 36.74300
H  26.98700 52.85700 37.00500
H  28.02500 52.59500 35.64200
H  36.23800 54.82600 40.33800
H  36.46200 55.31400 38.64500
H  35.12600 54.29100 38.95800
H  36.44100 60.43300 40.01000
H  37.85800 59.68100 40.92100
H  36.29100 59.82300 41.64300
H  32.68800 62.42800 40.14600
H  30.56100 62.12800 42.35000
H  34.22700 62.79200 41.75700
H  33.69700 61.42600 42.67200
H  32.85700 62.88400 43.01300
H  29.74000 63.26700 39.87200
H  31.28600 64.14000 40.33600
H  29.14600 64.00500 42.45700
H  28.97400 65.09200 41.09100
H  30.23400 65.41600 42.12900
H  25.26600 60.48700 41.68600
H  24.86800 60.40200 39.97000
H  26.11400 61.57500 40.66100
H  26.15900 55.45300 38.22200
H  23.21600 53.98300 41.18100
H  24.32500 52.62100 40.98000
H  23.05800 52.81700 39.78300
Mg 36.33900 49.97800 25.54700
C  36.35300 48.28200 28.51600
C  35.17500 52.82600 27.17400
C  36.00700 51.44900 22.49800
C  37.32400 47.12700 23.98500
N  35.74400 50.42500 27.57300
C  35.91500 49.60500 28.60900
C  35.77400 50.49800 29.91700
C  35.27700 51.89700 29.47300
C  35.39300 51.74600 27.98800
C  34.05500 52.43400 30.17500
C  37.10300 50.47000 30.70900
C  37.04000 50.21000 32.18000
H  35.75400 50.17200 33.04300
N  35.77800 51.85300 24.91300
C  35.34500 52.89700 25.71200
C  35.01800 54.04800 24.89700
C  35.22800 53.61400 23.55600
C  35.72900 52.26700 23.58900
C  34.31200 55.29100 25.41100
C  34.94900 54.50200 22.29500
O  35.10400 54.16000 21.16300
C  34.31900 55.88800 22.35600
N  36.67400 49.39800 23.59400
C  36.46600 50.17400 22.49800
C  36.80900 49.50200 21.18100
C  37.66800 48.30800 21.72500
C  37.21100 48.25200 23.17400
C  35.70400 49.01400 20.17600
C  39.23100 48.44200 21.65500
C  40.06700 47.15400 21.28800
N  36.68100 48.02200 26.06400
C  37.11000 46.91900 25.36200
C  37.29900 45.71400 26.17100
C  37.08400 46.22600 27.44600
C  36.73000 47.62900 27.29700
C  37.87800 44.35200 25.74300
C  37.21800 45.97100 28.91100
O  37.67100 45.01800 29.48200
C  36.66200 47.22400 29.63400
C  35.51400 46.87700 30.44200
O  34.36000 46.80900 29.99900
O  35.90100 46.43300 31.66000
C  34.82300 45.88000 32.56800
H  34.77000 53.65200 27.76300
H  35.99100 51.80600 21.46600
H  37.59900 46.17100 23.53500
H  34.99900 50.00000 30.49800
H  36.05000 52.63300 29.69100
H  34.39700 53.29200 30.75400
H  33.55000 51.74200 30.84900
H  33.32200 52.76200 29.43700
H  37.50600 51.47200 30.56500
H  37.85700 49.88400 30.18300
H  37.76100 50.87300 32.65600
H  37.50500 49.22800 32.27200
H  33.29900 55.25700 25.00800
H  34.85100 56.21900 25.22000
H  34.26800 55.14500 26.49000
H  34.43300 56.30800 21.35700
H  34.92300 56.58800 22.93400
H  33.29000 55.82900 22.71200
H  37.50900 50.17000 20.67900
H  37.35600 47.40000 21.20800
H  34.77200 49.56900 20.28500
H  35.45300 47.97600 20.39200
H  36.05300 49.10600 19.14700
H  39.64300 49.01200 22.48800
H  39.51700 49.18700 20.91200
H  40.47900 46.76300 22.21700
H  40.86200 47.41000 20.58800
H  39.29800 46.52600 20.83700
H  38.45600 44.02500 26.60700
H  38.55300 44.38000 24.88700
H  37.07400 43.64700 25.53500
H  37.39900 47.55100 30.36700
H  33.91100 46.47700 32.58200
H  35.14600 45.73800 33.59900
H  34.61500 44.89000 32.16300

