158

Mg -3.23300 17.26500 25.56500
C  -3.24600 14.82100 28.20100
C  -3.95500 19.57000 27.92100
C  -3.35700 19.41900 23.09200
C  -2.77800 14.68500 23.33000
N  -3.55300 17.13600 27.91500
C  -3.39300 16.11200 28.73000
C  -3.50500 16.53600 30.20100
C  -4.04400 18.00500 30.08100
C  -3.87200 18.30600 28.53100
C  -5.43500 18.42800 30.61200
C  -2.08500 16.32900 30.85500
C  -1.52600 17.08200 32.06300
H  -1.30600 16.17800 33.29500
N  -3.63900 19.21100 25.47100
C  -3.82700 19.99300 26.57000
C  -4.08300 21.29500 26.11600
C  -3.83300 21.38600 24.75000
C  -3.63000 19.96600 24.35700
C  -4.47400 22.45400 27.09700
C  -3.71600 22.66500 23.82500
O  -3.68500 22.56600 22.62200
C  -3.55400 24.03300 24.50500
N  -2.74600 17.11600 23.51200
C  -2.97700 18.16700 22.70800
C  -2.76700 17.82200 21.20600
C  -2.85700 16.28200 21.36800
C  -2.66600 15.98800 22.80200
C  -3.77100 18.36500 20.12400
C  -1.97000 15.43000 20.36900
C  -2.56900 14.24400 19.64100
N  -3.16400 15.23800 25.71000
C  -3.05200 14.31800 24.69100
C  -3.14700 12.97900 25.15000
C  -3.19500 13.17100 26.48800
C  -3.22400 14.56200 26.83800
C  -3.06000 11.67800 24.43800
C  -3.26200 12.39900 27.72400
O  -3.16600 11.19500 27.89300
C  -3.26100 13.49300 28.89100
C  -2.03900 13.12200 29.71500
O  -0.86100 13.31500 29.42900
O  -2.47800 12.56700 30.90900
C  -1.47700 12.48000 31.93200
H  -4.35400 20.26100 28.66700
H  -3.39400 20.10100 22.24000
H  -2.81000 13.91600 22.55600
H  -4.23500 15.84400 30.62100
H  -3.37400 18.65500 30.64300
H  -5.93700 17.59300 31.10100
H  -6.08900 18.70900 29.78700
H  -5.43500 19.23000 31.35000
H  -1.34000 16.51800 30.08200
H  -2.02100 15.24700 30.97500
H  -2.28500 17.83400 32.27900
H  -0.52100 17.43600 31.83400
H  -4.88100 22.04300 28.02100
H  -5.25900 22.96600 26.54200
H  -3.58700 23.06600 27.26300
H  -3.50800 24.80800 23.73900
H  -2.60300 24.07500 25.03700
H  -4.38600 24.22700 25.18200
H  -1.77000 18.08400 20.85000
H  -3.81800 15.80700 21.17300
H  -4.72300 18.60400 20.59700
H  -3.81500 17.66700 19.28700
H  -3.32500 19.31200 19.82100
H  -1.14900 15.05500 20.98000
H  -1.56400 16.13500 19.64400
H  -3.56800 14.09200 20.05000
H  -1.91100 13.37800 19.70700
H  -2.63600 14.54600 18.59600
H  -4.07300 11.37600 24.17000
H  -2.51500 10.87700 24.93600
H  -2.39000 11.71600 23.57900
H  -4.13100 13.29300 29.51600
H  -0.65300 13.19300 31.95100
H  -1.05500 11.48100 31.82900
H  -2.11300 12.65400 32.80100
Mg 48.15100 16.09200 29.01900
C  46.39100 15.50000 31.81200
C  50.49400 17.68500 30.90100
C  49.97200 16.67000 26.26500
C  45.53000 14.60400 27.05700
N  48.47400 16.40100 31.12000
C  47.53900 16.12600 32.10600
C  47.89700 16.72500 33.49100
C  49.19900 17.50000 33.08800
C  49.40400 17.24900 31.61200
C  49.13200 19.04000 33.45900
C  48.22600 15.60400 34.53100
C  47.53600 15.91000 35.85700
H  47.40000 17.34400 36.38000
N  49.99800 16.97700 28.64400
C  50.83400 17.56600 29.54400
C  52.09800 17.98000 28.92300
C  51.94600 17.72700 27.54800
C  50.63800 17.00700 27.44300
C  53.24800 18.48600 29.76600
C  52.88000 18.13500 26.37800
O  52.69000 17.65200 25.23200
C  53.95500 19.20400 26.51300
N  47.74000 15.77400 26.95500
C  48.62400 16.24600 26.03300
C  48.13000 15.94200 24.61500
C  46.73300 15.25900 24.89300
C  46.66600 15.18200 26.33700
C  48.31500 17.23300 23.68900
C  46.53700 13.84400 24.13400
C  46.86400 12.59400 24.94500
N  46.28600 15.22200 29.31500
C  45.42900 14.54200 28.43200
C  44.35500 13.89300 29.21800
C  44.62500 14.27800 30.56500
C  45.84900 15.09800 30.53600
C  43.13900 13.15000 28.78500
C  44.21000 14.25800 31.99300
O  43.29500 13.70000 32.63000
C  45.32500 15.11300 32.78000
C  44.52300 16.25700 33.25800
O  44.26600 17.32000 32.66700
O  43.98400 15.97500 34.51400
C  43.06600 16.91900 35.13900
H  51.20400 18.19000 31.55900
H  50.45300 16.87900 25.30800
H  44.71100 14.14200 26.50100
H  47.11100 17.42400 33.77600
H  49.99100 16.98700 33.63200
H  49.29900 19.80300 32.69900
H  49.90700 19.15200 34.21700
H  48.26000 19.27700 34.06800
H  49.26800 15.45800 34.81500
H  47.75200 14.67700 34.20700
H  48.05200 15.30300 36.60100
H  46.51000 15.61600 35.63700
H  52.92100 18.96400 30.69000
H  53.75500 19.25300 29.18100
H  53.97100 17.69500 29.96300
H  53.42800 19.94700 27.11100
H  54.36200 19.62300 25.59200
H  54.73100 18.74700 27.12800
H  48.69200 15.17100 24.08900
H  45.97400 15.98300 24.59900
H  49.02900 17.06800 22.88200
H  48.71900 18.07400 24.25300
H  47.31700 17.39800 23.28400
H  47.16600 13.87300 23.24400
H  45.54000 13.76700 23.70000
H  45.97200 12.34300 25.51900
H  47.68600 12.89700 25.59400
H  47.14800 11.68300 24.41800
H  42.27500 13.70800 28.42400
H  42.91600 12.44900 29.59000
H  43.49800 12.50900 27.97900
H  45.67600 14.40400 33.53000
H  42.60700 17.64700 34.47100
H  43.49800 17.51300 35.94500
H  42.22900 16.48800 35.68700

