158

Mg 16.80300 -1.64200 28.33800
C  15.58900 0.40500 30.97600
C  19.11600 -2.94200 30.59700
C  18.34600 -3.25700 25.81000
C  14.92600 0.17900 26.13000
N  17.39500 -1.22000 30.48200
C  16.61800 -0.48600 31.31900
C  17.11100 -0.72300 32.77900
C  18.23100 -1.75300 32.66000
C  18.31100 -1.97000 31.16300
C  19.52700 -1.40100 33.44400
C  15.94100 -1.24000 33.76800
C  16.00000 -0.62900 35.19300
H  17.17300 0.16800 35.75600
N  18.42500 -2.86500 28.22700
C  19.19200 -3.37100 29.27900
C  19.98600 -4.52300 28.77800
C  19.91400 -4.49900 27.35000
C  18.86200 -3.53600 27.06700
C  20.75700 -5.40700 29.69200
C  20.66700 -5.39000 26.44100
O  20.56700 -5.34400 25.25000
C  21.64600 -6.40400 26.93600
N  16.93500 -1.28500 26.24600
C  17.64700 -2.09900 25.39800
C  17.27900 -1.71600 23.91500
C  16.08200 -0.73500 24.07900
C  15.91900 -0.62300 25.57800
C  18.58200 -1.02600 23.39600
C  14.74900 -1.22800 23.36400
C  13.92400 -0.17300 22.61600
N  15.45400 -0.01000 28.51800
C  14.74700 0.63000 27.51400
C  13.87100 1.54100 28.14700
C  14.13000 1.54000 29.52400
C  15.12600 0.54200 29.66200
C  12.91400 2.39800 27.45200
C  13.87300 2.16700 30.76700
O  13.15000 3.05200 31.08400
C  14.70700 1.36200 31.83000
C  15.54800 2.29700 32.70300
O  16.60600 2.74700 32.41900
O  14.85100 2.68300 33.80900
C  15.42500 3.61200 34.83400
H  19.71800 -3.47800 31.33400
H  18.77400 -3.77800 24.95100
H  14.24600 0.58800 25.37900
H  17.47400 0.22900 33.16400
H  18.02900 -2.77400 32.98700
H  19.83500 -2.00500 34.29800
H  19.25000 -0.44800 33.89500
H  20.39300 -1.33600 32.78500
H  15.99900 -2.32200 33.88400
H  15.00800 -1.05900 33.23300
H  15.66900 -1.36300 35.92800
H  15.23500 0.14700 35.21800
H  20.29400 -6.36700 29.91700
H  20.78800 -5.00500 30.70500
H  21.80800 -5.56900 29.45000
H  21.19500 -7.17600 27.55800
H  22.48300 -5.87900 27.39600
H  22.21600 -6.92400 26.16500
H  16.98400 -2.58100 23.32100
H  16.29600 0.25700 23.67900
H  18.33600 -0.05500 22.96600
H  19.08500 -1.61000 22.62500
H  19.26200 -0.86900 24.23300
H  14.16600 -1.79800 24.08700
H  15.00600 -2.03200 22.67500
H  14.37400 0.80300 22.80000
H  12.98900 -0.09100 23.17100
H  13.70200 -0.38100 21.56900
H  12.70400 1.89700 26.50800
H  13.51000 3.28400 27.23200
H  12.07100 2.46300 28.14000
H  13.98700 0.84300 32.46200
H  15.43500 3.02200 35.75100
H  14.77100 4.48400 34.82500
H  16.42300 3.92300 34.52600
Mg 35.99600 48.81000 24.27200
C  36.34400 47.09500 27.30700
C  34.75100 51.53500 25.93900
C  35.69500 50.40000 21.26600
C  37.27900 45.95400 22.58200
N  35.43900 49.18200 26.33700
C  35.69300 48.37400 27.46400
C  35.48900 49.17300 28.79000
C  34.69800 50.48100 28.29000
C  34.98100 50.40500 26.77300
C  33.25100 50.64400 28.71400
C  36.77700 49.43700 29.59000
C  36.74800 49.09100 31.13500
H  35.38400 49.00100 31.91600
N  35.43200 50.74000 23.66500
C  34.93300 51.71000 24.50300
C  34.51900 52.81400 23.70800
C  34.89100 52.55100 22.37700
C  35.36800 51.18100 22.35700
C  33.87700 54.02600 24.31600
C  34.72600 53.48300 21.17300
O  35.20700 53.13900 20.09800
C  34.01400 54.82400 21.25600
N  36.15500 48.12100 22.13100
C  36.07300 49.04400 21.21800
C  36.25400 48.30400 19.85800
C  37.07200 47.02500 20.22000
C  36.80300 47.00100 21.69800
C  34.89400 48.03200 19.20200
C  38.50100 47.08000 19.67500
C  39.74100 47.24600 20.69500
N  36.54700 46.87200 24.80300
C  37.10700 45.85600 24.00200
C  37.70100 44.87100 24.85400
C  37.41700 45.33000 26.18300
C  36.60400 46.49300 26.06200
C  38.44600 43.69400 24.34500
C  37.53300 45.02600 27.63900
O  38.09300 44.09100 28.24800
C  36.87000 46.18100 28.37300
C  35.82900 45.72100 29.38000
O  34.67600 45.50600 29.13900
O  36.45200 45.55100 30.55700
C  35.59400 44.82100 31.57000
H  34.41000 52.40200 26.50900
H  35.51100 50.81100 20.27100
H  37.70800 45.07000 22.10600
H  34.81200 48.60700 29.43000
H  35.13100 51.38000 28.72900
H  32.92800 49.92600 29.46800
H  32.58800 50.51000 27.85900
H  33.03600 51.63600 29.11100
H  37.13400 50.45600 29.44000
H  37.55500 48.72800 29.30600
H  37.32100 49.88200 31.62000
H  37.31800 48.20100 31.40100
H  34.46800 54.91300 24.54100
H  33.49500 53.82300 25.31700
H  33.02900 54.29000 23.68500
H  32.93800 54.68300 21.35500
H  34.16900 55.35800 20.31900
H  34.34100 55.52200 22.02700
H  36.77600 48.99200 19.19300
H  36.52500 46.18100 19.80000
H  34.01800 48.19300 19.83000
H  34.73700 47.04800 18.76000
H  34.81400 48.68500 18.33300
H  38.67300 47.83200 18.90600
H  38.69300 46.16800 19.10900
H  40.36900 46.35600 20.72600
H  39.37000 47.61500 21.65200
H  40.25900 48.14700 20.36700
H  38.94600 43.93500 23.40600
H  37.97700 42.71100 24.29800
H  39.17800 43.43300 25.10800
H  37.70700 46.61300 28.92200
H  35.33000 43.79000 31.33500
H  34.67800 45.36000 31.81300
H  36.15700 44.81200 32.50400

