158

Mg 26.38800 51.10500 26.57200
C  24.21100 52.21000 29.20300
C  28.81800 50.49700 28.98500
C  28.49400 50.75300 24.02700
C  23.99000 52.38400 24.44600
N  26.51100 51.42500 28.76900
C  25.48700 51.76700 29.61500
C  25.96900 51.57300 31.09600
C  27.53100 51.32700 30.97000
C  27.65100 51.02000 29.49400
C  28.55300 52.50700 31.35400
C  25.14200 50.45600 31.92200
C  24.34700 50.86400 33.20300
H  24.60100 49.92800 34.38800
N  28.34600 50.55500 26.51800
C  29.15400 50.27800 27.60500
C  30.36500 49.71200 27.19400
C  30.28200 49.70900 25.71300
C  29.02700 50.37900 25.35900
C  31.37500 49.09700 28.17000
C  31.32400 49.18200 24.67500
O  31.11300 49.29000 23.45600
C  32.53100 48.56900 25.22800
N  26.33200 51.70400 24.56500
C  27.29500 51.35800 23.66600
C  26.89800 51.73800 22.21800
C  25.37400 51.91100 22.38400
C  25.23100 52.05900 23.88700
C  27.73300 52.99000 21.77100
C  24.52700 50.75700 21.87600
C  23.06500 51.09600 21.62600
N  24.50200 52.03200 26.74700
C  23.63100 52.43100 25.76100
C  22.32000 52.78900 26.29900
C  22.55400 52.81600 27.68000
C  23.86800 52.32700 27.84600
C  21.06000 53.11700 25.48900
C  21.94700 53.02800 28.97500
O  20.85200 53.46300 29.32800
C  23.00200 52.65900 29.98200
C  23.23700 53.90900 30.80200
O  23.94000 54.91600 30.51000
O  22.64900 53.79000 32.02100
C  22.97600 54.84200 33.04800
H  29.55700 50.27700 29.75800
H  29.16400 50.67200 23.16900
H  23.25800 52.76800 23.73200
H  25.88100 52.59100 31.47600
H  27.86900 50.45100 31.52400
H  29.01600 52.42600 32.33700
H  28.00300 53.44800 31.36200
H  29.33200 52.61700 30.59900
H  25.82300 49.66400 32.23400
H  24.46200 49.99400 31.20700
H  23.27400 50.87500 33.01000
H  24.42900 51.93300 33.40000
H  31.08300 48.04700 28.19600
H  31.34600 49.49400 29.18400
H  32.38500 49.22100 27.77900
H  33.13300 49.31800 25.74100
H  33.08000 48.17300 24.37300
H  32.34000 47.78800 25.96400
H  27.10900 50.91000 21.54000
H  25.04800 52.82200 21.88100
H  28.64100 53.03300 22.37100
H  27.15800 53.91600 21.80500
H  28.07700 52.78200 20.75800
H  24.65600 50.01500 22.66300
H  24.90600 50.38300 20.92500
H  22.54400 50.56200 22.42000
H  22.73300 50.63400 20.69600
H  22.92300 52.17500 21.67400
H  21.10700 54.20600 25.50000
H  20.12400 52.81400 25.95900
H  21.18400 52.67900 24.49800
H  22.71100 51.80100 30.58800
H  23.66100 55.63600 32.75000
H  23.33600 54.28400 33.91200
H  22.12000 55.46100 33.31600
Mg 16.44800 51.93900 25.49300
C  18.07700 50.78000 28.48300
C  13.77500 52.69300 27.47400
C  14.85800 52.62300 22.85100
C  19.27300 50.63300 23.72100
N  16.12100 52.08700 27.73500
C  16.97600 51.62300 28.70200
C  16.39100 51.95600 30.06100
C  14.90400 52.37900 29.80500
C  14.90400 52.38300 28.27600
C  13.74700 51.50500 30.45700
C  17.28900 53.00000 30.82200
C  17.67800 52.63200 32.27000
H  16.82000 51.68000 33.18500
N  14.55900 52.55500 25.18100
C  13.57300 52.81700 26.09700
C  12.33900 53.18500 25.47100
C  12.63700 53.27500 24.03300
C  14.04300 52.83800 23.96400
C  11.06900 53.53100 26.33200
C  11.66300 53.49400 22.84000
O  12.03300 53.37100 21.71100
C  10.37200 54.12800 23.13800
N  16.98600 51.55800 23.58000
C  16.09200 52.06200 22.65400
C  16.69000 51.87000 21.23900
C  18.18000 51.46700 21.59600
C  18.16100 51.18900 23.08500
C  15.96100 50.81600 20.37800
C  19.25400 52.44900 20.96000
C  19.67200 52.25400 19.50400
N  18.34200 50.85200 25.95000
C  19.32300 50.36800 25.10800
C  20.43200 49.74000 25.85800
C  19.92000 49.82000 27.21000
C  18.69500 50.55100 27.23100
C  21.67300 49.20900 25.32700
C  20.23200 49.55100 28.58800
O  21.20900 48.93600 29.07300
C  19.03200 50.16000 29.50500
C  18.54200 49.12600 30.45000
O  17.89600 48.07200 30.08900
O  19.06400 49.31200 31.70900
C  18.82000 48.15300 32.61800
H  12.91200 52.97000 28.08400
H  14.42200 53.05000 21.94500
H  20.15400 50.43800 23.10700
H  16.44500 51.05400 30.67100
H  14.78600 53.38400 30.21000
H  13.15400 51.13900 29.61800
H  13.18500 52.15000 31.13300
H  14.12500 50.70600 31.09400
H  16.84400 53.99400 30.87000
H  18.21000 53.10100 30.24900
H  17.71000 53.60400 32.76400
H  18.73100 52.35500 32.33100
H  11.09500 54.50900 26.81300
H  10.90200 52.74300 27.06700
H  10.19000 53.59400 25.69100
H  9.66700 53.45200 23.62300
H  9.75400 54.56300 22.35200
H  10.46400 54.97700 23.81500
H  16.71700 52.79000 20.65500
H  18.45400 50.48100 21.22000
H  15.04400 50.51700 20.88500
H  16.59700 49.99100 20.05500
H  15.68700 51.29500 19.43800
H  20.18500 52.45500 21.52700
H  18.79700 53.43800 20.95600
H  18.88600 51.67900 19.01400
H  20.57600 51.69800 19.25300
H  19.69200 53.22900 19.01800
H  21.56000 48.12800 25.23700
H  22.43700 49.47700 26.05700
H  21.84700 49.69900 24.36900
H  19.51100 50.96600 30.06100
H  19.61400 47.42600 32.45200
H  17.79700 47.79300 32.51400
H  19.03300 48.50300 33.62800

