158

Mg 48.07500 25.15700 29.18700
C  49.00400 27.47000 31.66100
C  46.90200 23.02800 31.68100
C  47.03200 23.14600 26.81300
C  49.32700 27.38500 26.87400
N  47.99200 25.33700 31.43400
C  48.40900 26.29300 32.25100
C  47.97800 26.10700 33.73800
C  47.51600 24.56000 33.72900
C  47.48600 24.29600 32.19500
C  48.57000 23.60300 34.38600
C  46.83900 27.13200 34.08800
C  47.03800 27.99200 35.30500
H  46.22300 27.83100 36.50100
N  47.21400 23.26500 29.20500
C  46.73600 22.58200 30.33000
C  46.17300 21.34400 29.94000
C  46.08200 21.35500 28.53500
C  46.81800 22.58300 28.08400
C  45.81200 20.14500 30.84300
C  45.47100 20.40200 27.55100
O  45.57000 20.57500 26.35200
C  44.77800 19.17900 27.95100
N  48.35300 25.15400 27.12300
C  47.65300 24.27800 26.33200
C  47.73800 24.72800 24.81300
C  48.29500 26.14900 24.93400
C  48.73100 26.23800 26.40300
C  48.68000 23.83900 23.95800
C  47.16300 27.24100 24.58100
C  47.55300 28.31800 23.48600
N  49.03500 27.00900 29.26400
C  49.51900 27.73800 28.20900
C  50.06900 28.99300 28.64200
C  50.00000 28.92600 30.10300
C  49.34000 27.70100 30.38400
C  50.73200 30.04400 27.78000
C  50.27400 29.58500 31.32700
O  50.95000 30.60600 31.53700
C  49.54200 28.59200 32.39700
C  50.64500 28.21600 33.30200
O  51.44600 27.27300 33.16800
O  50.70100 29.11600 34.39800
C  51.59500 28.76400 35.51600
H  46.34100 22.41900 32.39200
H  46.32600 22.69700 26.11000
H  49.52200 28.02000 26.00700
H  48.92600 26.14500 34.27300
H  46.49600 24.44200 34.09500
H  48.75500 22.81200 33.65900
H  48.01400 23.23000 35.24600
H  49.52200 24.08600 34.60600
H  45.97900 26.48300 34.25500
H  46.64900 27.61700 33.13100
H  47.07200 29.02100 34.94800
H  48.07400 27.79300 35.58200
H  46.19800 20.29600 31.85200
H  46.19900 19.22800 30.39900
H  44.73600 20.06600 31.00000
H  44.10300 19.56800 28.71300
H  45.41900 18.36700 28.29700
H  44.14400 18.78100 27.15900
H  46.79000 24.69500 24.27500
H  49.18800 26.31500 24.33200
H  48.47900 24.01800 22.90100
H  48.53200 22.79900 24.24900
H  49.70900 24.16000 24.12300
H  46.77800 27.66700 25.50700
H  46.24100 26.78500 24.22100
H  48.52100 28.12900 23.02200
H  47.63800 29.27700 23.99500
H  46.81600 28.42300 22.68900
H  50.08200 30.19300 26.91800
H  51.74200 29.85500 27.41600
H  50.65300 31.00200 28.29300
H  48.69300 28.95800 32.97500
H  51.00700 28.19700 36.23700
H  51.90000 29.77000 35.80400
H  52.41800 28.13800 35.17200
Mg -11.80800 37.81200 41.79000
C  -9.52600 35.36600 40.98000
C  -10.03700 39.84400 39.64600
C  -14.44000 39.91300 41.55000
C  -14.01100 35.40200 43.12300
N  -10.04700 37.58200 40.35000
C  -9.21600 36.48600 40.23900
C  -7.94000 36.77100 39.46400
C  -8.15000 38.26000 39.08900
C  -9.49700 38.60700 39.72500
C  -6.94600 39.14300 39.41700
C  -7.72800 35.88300 38.21900
C  -6.24100 35.29500 37.93700
H  -5.22700 36.17800 37.12800
N  -12.03500 39.72100 40.96800
C  -11.13600 40.40800 40.26400
C  -11.53600 41.76400 40.11200
C  -12.91300 41.82400 40.62900
C  -13.16800 40.43100 41.05100
C  -10.64400 42.85000 39.49500
C  -13.72000 43.09500 40.78800
O  -13.35500 44.13600 40.27100
C  -14.93200 43.08300 41.66900
N  -13.95300 37.67000 42.21000
C  -14.80200 38.71800 41.99500
C  -16.16500 38.46400 42.58500
C  -16.01000 36.93700 43.06800
C  -14.55900 36.59900 42.78600
C  -16.59700 39.41400 43.66500
C  -16.95600 35.87900 42.44900
C  -18.19200 35.43700 43.17500
N  -11.79300 35.77800 42.02800
C  -12.64600 34.95700 42.85300
C  -12.00600 33.64200 43.00200
C  -10.74200 33.79900 42.34200
C  -10.68400 35.08800 41.70800
C  -12.50100 32.42000 43.79800
C  -9.48700 33.12200 42.02900
O  -9.15500 32.00100 42.33400
C  -8.56400 34.09500 41.15800
C  -7.29500 34.23100 41.93900
O  -6.50800 33.27800 42.07700
O  -7.13900 35.55200 42.35600
C  -5.99700 35.85200 43.23800
H  -9.52600 40.51500 38.95300
H  -15.21100 40.68500 41.51400
H  -14.69800 34.77100 43.69100
H  -7.09700 36.63500 40.14200
H  -8.33300 38.42600 38.02700
H  -7.19900 39.89700 40.16300
H  -6.62900 39.63500 38.49800
H  -6.07900 38.60800 39.80200
H  -7.92000 36.56700 37.39200
H  -8.41100 35.05000 38.04900
H  -6.37700 34.30400 37.50500
H  -5.84100 35.19300 38.94600
H  -10.82800 43.77800 40.03600
H  -10.87400 43.03300 38.44600
H  -9.59600 42.66600 39.72900
H  -15.22600 44.06900 42.03000
H  -14.75900 42.48200 42.56200
H  -15.71500 42.73200 40.99700
H  -16.85800 38.44100 41.74400
H  -16.16500 36.85100 44.14300
H  -17.38700 40.09500 43.34900
H  -15.72200 39.91400 44.08100
H  -17.07100 38.84700 44.46700
H  -16.44800 34.99000 42.07400
H  -17.21300 36.25100 41.45700
H  -18.43700 36.18200 43.93200
H  -17.90700 34.54700 43.73600
H  -19.00900 35.16000 42.50900
H  -12.96100 31.69000 43.13200
H  -13.20500 32.79400 44.54200
H  -11.69200 31.86300 44.27000
H  -8.29600 33.77400 40.15100
H  -6.41800 36.47300 44.02900
H  -5.28700 36.35300 42.58000
H  -5.54400 34.97700 43.70400

