158

Mg 41.68400 40.34500 26.12200
C  40.70100 42.60500 28.73300
C  42.51600 38.10200 28.49900
C  42.61900 38.24300 23.59200
C  40.97000 42.88700 23.82200
N  41.60900 40.41000 28.37700
C  41.07200 41.33400 29.21900
C  41.04700 40.85300 30.71300
C  41.83300 39.48500 30.55100
C  42.02000 39.33200 29.02400
C  43.14800 39.40500 31.38600
C  39.61300 40.72500 31.28800
C  39.41000 40.20600 32.73400
H  38.98000 41.03500 33.99500
N  42.51900 38.44100 26.09000
C  42.72300 37.61200 27.18500
C  43.22700 36.33400 26.76400
C  43.33800 36.34500 25.35800
C  42.81500 37.71800 24.90300
C  43.66800 35.22900 27.83100
C  43.82500 35.36000 24.30500
O  43.69800 35.40300 23.09000
C  44.49600 34.08100 24.82800
N  41.76800 40.58600 24.03000
C  42.09900 39.53800 23.25200
C  42.05400 39.89400 21.78500
C  41.30200 41.24900 21.79000
C  41.26400 41.61000 23.25500
C  43.44200 39.93700 20.95800
C  39.90200 41.15100 21.17500
C  38.92900 40.10400 21.84600
N  41.05500 42.33000 26.16600
C  40.81500 43.21600 25.14300
C  40.37000 44.49900 25.65900
C  40.34500 44.29300 27.02800
C  40.76200 42.96700 27.31200
C  40.06500 45.71800 24.88000
C  40.10500 44.88500 28.21400
O  39.89600 46.08500 28.43600
C  40.12700 43.80700 29.37100
C  41.02200 44.24000 30.53000
O  42.23100 44.46600 30.45900
O  40.30500 44.43000 31.61900
C  41.02500 44.98700 32.73900
H  42.72800 37.38600 29.29500
H  42.93900 37.56200 22.80100
H  40.77400 43.65400 23.07000
H  41.50400 41.54600 31.41900
H  41.19600 38.66700 30.88800
H  43.24600 40.30600 31.99100
H  43.94000 39.50200 30.64300
H  43.31800 38.47400 31.92700
H  39.11200 40.08200 30.56300
H  39.18800 41.72800 31.27300
H  40.31600 39.73700 33.11800
H  38.67300 39.41800 32.58200
H  43.70500 35.62400 28.84700
H  44.69300 34.93900 27.59800
H  43.02900 34.35800 27.68700
H  45.05600 33.59900 24.02700
H  43.62400 33.47400 25.07100
H  45.03900 34.21900 25.76300
H  41.50100 39.12500 21.24500
H  41.95100 42.00600 21.34900
H  43.73800 40.92600 20.60600
H  43.36300 39.35500 20.03900
H  44.11700 39.44600 21.65900
H  40.00300 40.84500 20.13300
H  39.48600 42.15500 21.09200
H  38.49900 39.54800 21.01300
H  38.03400 40.57600 22.25200
H  39.41300 39.42000 22.54300
H  40.80400 46.51700 24.82100
H  39.20900 46.13200 25.41100
H  39.80700 45.37700 23.87700
H  39.08600 43.68800 29.66900
H  41.48100 44.15100 33.27000
H  40.29900 45.50700 33.36400
H  41.83000 45.70300 32.58000
Mg 9.11200 48.16600 26.47700
C  7.43100 48.52700 29.54200
C  11.91800 49.20000 28.02900
C  10.54400 48.15300 23.58400
C  6.02800 48.34000 24.89900
N  9.56300 48.78500 28.56300
C  8.77400 48.80700 29.64200
C  9.59600 49.00700 30.94300
C  10.88900 49.62700 30.34100
C  10.83800 49.13000 28.87600
C  11.00700 51.19600 30.28800
C  9.80400 47.69200 31.65600
C  9.39400 47.72200 33.09700
H  9.37300 46.38200 33.94400
N  11.04400 48.37800 25.92200
C  12.06700 48.75600 26.70200
C  13.26600 48.85600 25.92000
C  12.88700 48.54600 24.57400
C  11.45500 48.30900 24.66700
C  14.65300 49.14200 26.64400
C  13.69700 48.34700 23.27600
O  13.17400 48.00200 22.23600
C  15.25200 48.39600 23.49600
N  8.38700 48.26500 24.37200
C  9.16200 48.25300 23.38200
C  8.38100 48.10400 22.04000
C  6.93500 48.40700 22.47900
C  7.11100 48.28900 23.99900
C  8.77900 49.00600 20.87800
C  5.72200 47.61500 21.82000
C  5.31700 48.13800 20.40600
N  7.07800 48.36400 27.04900
C  5.94600 48.34300 26.25200
C  4.79500 48.25200 27.10500
C  5.31400 48.28300 28.41100
C  6.72900 48.34100 28.31900
C  3.33900 48.04700 26.74100
C  5.05900 48.21100 29.83000
O  4.03300 48.01100 30.45900
C  6.41000 48.31500 30.64200
C  6.57500 47.00500 31.32200
O  6.99200 45.94100 30.90300
O  6.05800 47.14100 32.58900
C  5.95600 45.83300 33.23300
H  12.76000 49.65700 28.55300
H  10.98400 48.04200 22.59100
H  5.05200 48.33100 24.40900
H  9.03500 49.75500 31.50500
H  11.84000 49.35400 30.79700
H  10.25800 51.62900 30.95200
H  10.87500 51.56100 29.27000
H  11.98300 51.48300 30.67800
H  10.86100 47.48000 31.49500
H  9.33500 46.86400 31.12600
H  8.35900 48.06400 33.13100
H  10.00400 48.42300 33.66700
H  14.51600 49.32900 27.70900
H  15.20200 49.92500 26.12000
H  15.29500 48.27500 26.49100
H  15.81300 47.51500 23.80700
H  15.44700 49.17600 24.23300
H  15.70500 48.89300 22.63800
H  8.51100 47.03800 21.85400
H  6.91100 49.49100 22.37600
H  9.76500 49.40500 21.11400
H  8.05000 49.74300 20.54100
H  8.88000 48.31700 20.04100
H  4.78100 47.48400 22.35500
H  6.18500 46.65800 21.57700
H  5.71800 47.53300 19.59300
H  5.62700 49.16800 20.23100
H  4.23400 48.06000 20.30700
H  3.04500 48.64900 25.88200
H  2.76000 48.35700 27.61000
H  3.28500 47.01200 26.40200
H  6.33300 49.12500 31.36700
H  4.98200 45.40800 32.98700
H  6.00300 45.84700 34.32200
H  6.72300 45.08400 33.03600

