158

Mg 46.26900 25.13700 28.87000
C  47.26400 27.26100 31.45200
C  45.06800 22.98000 31.10200
C  46.59300 22.69600 26.49900
C  47.58600 27.40300 26.57500
N  46.02800 25.20400 31.05400
C  46.48600 26.15500 31.85900
C  45.98900 25.86800 33.32200
C  45.39300 24.44600 33.19000
C  45.51200 24.15500 31.69700
C  46.24000 23.30800 33.94900
C  44.92100 26.90700 33.89400
C  45.18000 27.25800 35.31900
H  44.05100 27.15600 36.33300
N  45.85600 23.12600 28.82000
C  45.33200 22.40200 29.85800
C  44.87200 21.10600 29.34000
C  45.32500 21.03600 27.99300
C  46.00600 22.31800 27.74700
C  44.15900 20.03600 30.22700
C  45.21800 19.84800 26.99000
O  45.63600 19.88000 25.83800
C  44.54500 18.61000 27.44900
N  46.98900 25.03900 26.90500
C  47.10000 23.90200 26.09900
C  47.90400 24.25000 24.81900
C  47.61600 25.80400 24.63200
C  47.36900 26.07600 26.14300
C  49.38900 23.83600 24.90100
C  46.42100 26.18700 23.80600
C  45.03400 26.12100 24.37300
N  47.05200 27.04800 28.89500
C  47.58500 27.84200 27.90600
C  48.07800 29.11700 28.43200
C  48.07000 28.90600 29.88400
C  47.43900 27.61600 30.07900
C  48.67900 30.18600 27.67300
C  48.43700 29.46600 31.17900
O  49.02500 30.43400 31.48700
C  47.84100 28.42700 32.26500
C  48.81200 28.03800 33.35100
O  49.55700 27.06300 33.31900
O  48.64800 28.91100 34.42600
C  49.48500 28.68900 35.61900
H  44.47200 22.24900 31.65300
H  46.68200 21.86300 25.79800
H  47.89200 28.10500 25.79700
H  46.81500 25.79600 34.03000
H  44.37900 24.31000 33.56600
H  45.81000 23.21000 34.94600
H  47.29000 23.54400 34.12000
H  46.10500 22.37300 33.40400
H  43.90600 26.51300 33.84000
H  44.83700 27.84500 33.34500
H  45.39600 28.32500 35.27200
H  46.03100 26.79100 35.81400
H  44.95600 19.41500 30.63500
H  43.40600 19.48400 29.66400
H  43.77200 20.42600 31.16900
H  44.70200 18.21100 28.45100
H  44.79100 17.78900 26.77600
H  43.48800 18.66000 27.18600
H  47.38400 23.69600 24.03800
H  48.47400 26.33800 24.22400
H  50.12500 24.61500 24.70200
H  49.61300 22.90600 24.37800
H  49.63200 23.53200 25.91900
H  46.32100 25.62700 22.87700
H  46.56100 27.21900 23.48400
H  44.87400 27.14600 24.70700
H  44.90600 25.48200 25.24700
H  44.33600 25.84200 23.58300
H  48.36400 31.10800 28.16200
H  48.25000 30.14800 26.67200
H  49.76500 30.10200 27.69900
H  47.00200 28.92500 32.75100
H  50.51900 28.64400 35.27600
H  49.25400 27.73000 36.08200
H  49.44300 29.39800 36.44600
Mg 16.41100 52.36700 25.56600
C  18.01800 50.88800 28.30000
C  13.92400 53.47100 27.63400
C  14.78500 53.43800 22.89200
C  18.97700 50.98900 23.49400
N  16.01700 52.13900 27.73500
C  16.81400 51.56600 28.70100
C  16.31600 51.93200 30.08700
C  14.87100 52.50500 29.80500
C  15.00600 52.79900 28.27200
C  13.75200 51.51700 30.10900
C  17.38000 52.82700 30.82100
C  16.86600 53.42500 32.16000
H  15.83800 52.61100 32.91800
N  14.67300 53.30500 25.31300
C  13.70900 53.59600 26.27000
C  12.51400 54.21500 25.67000
C  12.80900 54.23100 24.27200
C  14.13200 53.63200 24.11700
C  11.36800 54.71200 26.46900
C  11.91000 54.75300 23.18100
O  12.26900 54.77100 21.97100
C  10.56700 55.35400 23.49600
N  16.86500 52.27500 23.47100
C  15.99700 52.81000 22.61200
C  16.44300 52.50800 21.11400
C  17.81800 51.65600 21.31000
C  17.89300 51.61900 22.83700
C  15.27500 51.72000 20.39100
C  19.11700 52.36100 20.72800
C  19.40800 52.10700 19.22100
N  18.08500 51.15100 25.76500
C  19.11600 50.75400 24.87300
C  20.19800 50.00100 25.64600
C  19.78200 49.96200 26.97300
C  18.52400 50.75100 27.00100
C  21.48500 49.44800 25.11900
C  20.10700 49.55500 28.32000
O  21.06000 48.92400 28.78800
C  19.05800 50.30100 29.28500
C  18.45300 49.37700 30.31700
O  17.48000 48.69900 30.12500
O  19.02600 49.59100 31.59100
C  18.26600 49.12100 32.75900
H  13.19300 53.70900 28.41000
H  14.23600 53.78000 22.01200
H  19.73200 50.45400 22.91400
H  16.24800 51.01000 30.66300
H  14.63800 53.45400 30.28900
H  13.10300 52.02100 30.82500
H  14.20000 50.58000 30.43900
H  13.06200 51.39100 29.27500
H  17.73700 53.44800 30.00000
H  18.21600 52.16100 31.03200
H  16.46200 54.39100 31.85700
H  17.72400 53.56200 32.81800
H  10.55700 54.06200 26.14100
H  11.17100 55.77400 26.32500
H  11.38200 54.60100 27.55400
H  10.71400 56.25300 24.09300
H  10.12800 54.49800 24.01000
H  9.92000 55.56900 22.64600
H  16.62800 53.52500 20.76600
H  17.77900 50.58400 21.11200
H  14.41400 51.50600 21.02400
H  15.64500 50.76000 20.03000
H  14.90700 52.39400 19.61800
H  19.98300 52.23400 21.37700
H  18.92400 53.43100 20.79800
H  19.48300 53.08600 18.74900
H  18.62700 51.45900 18.82300
H  20.36100 51.60000 19.06800
H  22.27100 50.10500 25.49200
H  21.46400 49.41600 24.02900
H  21.78400 48.45300 25.44800
H  19.61000 51.11500 29.75400
H  18.44700 48.04700 32.79300
H  17.22900 49.45300 32.70500
H  18.68800 49.63700 33.62100

