158

Mg 24.69900 -7.59200 48.17400
C  27.03100 -5.29300 47.06300
C  22.38200 -6.53400 45.80800
C  22.74400 -10.12000 49.06400
C  27.36400 -9.28100 49.97300
N  24.71800 -6.19500 46.57900
C  25.78500 -5.32600 46.36500
C  25.38800 -4.36300 45.22400
C  23.85300 -4.48300 45.16400
C  23.65300 -5.86900 45.80400
C  22.97800 -3.43800 45.87200
C  26.06800 -4.81900 43.94800
C  26.66800 -3.65800 43.28100
H  25.72900 -2.59300 42.72400
N  22.76200 -8.18200 47.51200
C  22.00700 -7.66000 46.51600
C  20.81900 -8.38900 46.37100
C  20.79100 -9.41800 47.36700
C  22.13400 -9.30200 48.04900
C  19.71700 -8.13100 45.35000
C  19.71500 -10.45900 47.57100
O  18.65300 -10.48000 46.95500
C  19.84200 -11.49700 48.71300
N  25.14800 -9.57700 49.16100
C  24.00400 -10.22100 49.56100
C  24.25300 -11.22000 50.68500
C  25.81900 -11.15100 50.77500
C  26.12200 -9.94100 49.94600
C  23.58500 -11.00300 52.06600
C  26.57500 -12.45900 50.37900
C  27.46400 -12.50100 49.05000
N  26.73200 -7.33000 48.51000
C  27.64600 -8.08600 49.30400
C  28.90900 -7.27600 49.21500
C  28.68900 -6.17100 48.41000
C  27.37500 -6.20900 47.98100
C  30.20900 -7.73500 49.75600
C  29.27800 -4.95200 47.90600
O  30.39900 -4.47400 48.13400
C  28.25200 -4.47100 46.82800
C  28.02600 -3.03700 47.01200
O  27.48700 -2.46800 47.96800
O  28.55100 -2.41500 45.97000
C  28.25200 -0.97900 45.82600
H  21.49200 -6.11000 45.33900
H  22.17000 -10.88000 49.59800
H  28.08600 -9.80800 50.60000
H  25.75900 -3.36500 45.45700
H  23.58000 -4.52600 44.10900
H  22.51200 -3.87300 46.75700
H  22.24000 -2.98900 45.20700
H  23.62900 -2.66600 46.28100
H  25.40100 -5.42300 43.33300
H  26.89600 -5.47700 44.21500
H  27.30700 -4.14000 42.54000
H  27.44100 -3.21400 43.90900
H  20.02300 -8.88800 44.62700
H  19.87300 -7.18100 44.84100
H  18.66000 -8.34500 45.51000
H  20.40900 -12.26500 48.18700
H  18.82400 -11.86800 48.82800
H  20.14100 -11.04600 49.66000
H  23.97200 -12.23400 50.40000
H  26.13600 -10.99000 51.80500
H  23.21900 -9.99000 52.23200
H  24.09600 -11.23700 53.00100
H  22.66800 -11.59100 52.05100
H  25.75500 -13.17000 50.28000
H  27.17500 -12.75700 51.23800
H  27.43200 -13.56800 48.83100
H  28.48500 -12.17200 49.24300
H  27.14600 -12.11800 48.08000
H  31.12000 -7.74500 49.15700
H  30.01200 -8.67900 50.26400
H  30.63900 -7.08200 50.51500
H  28.53400 -4.66200 45.79300
H  29.29600 -0.66600 45.81300
H  27.78100 -0.51500 46.69200
H  27.61700 -0.83000 44.95200
Mg 36.91300 49.78700 25.32800
C  36.69300 47.93400 28.36200
C  36.22800 52.69700 27.02300
C  36.45100 51.26400 22.35200
C  37.24500 46.60200 23.67700
N  36.49800 50.22200 27.46300
C  36.52400 49.28700 28.49200
C  36.27600 50.06400 29.82000
C  35.82500 51.56200 29.31100
C  36.26500 51.50500 27.85200
C  34.35300 52.07600 29.58700
C  37.48700 50.04100 30.80500
C  37.23700 49.51900 32.23400
H  35.86000 49.78400 32.90300
N  36.56400 51.72900 24.77800
C  36.39600 52.81100 25.60400
C  36.43300 54.03700 24.82300
C  36.36400 53.59300 23.43400
C  36.41400 52.12000 23.49300
C  36.43700 55.39400 25.42300
C  36.27000 54.41300 22.08700
O  36.24000 53.91600 20.95500
C  36.30600 56.01700 22.22500
N  36.71300 49.07300 23.27100
C  36.61700 49.91600 22.23500
C  36.73500 49.06400 20.88200
C  37.19100 47.66800 21.38400
C  37.10400 47.79500 22.85800
C  35.49000 49.12100 19.97100
C  38.66500 47.30100 20.91400
C  38.73200 45.99000 20.28700
N  36.98900 47.70400 25.84500
C  37.11800 46.54700 25.07000
C  37.28900 45.45900 25.92800
C  37.07100 45.97200 27.23500
C  36.82600 47.31600 27.08700
C  37.63900 44.09400 25.53700
C  37.07300 45.59200 28.63100
O  37.39200 44.50700 29.19100
C  36.77600 46.84900 29.35700
C  35.55400 46.56200 30.08200
O  34.44800 46.72600 29.63800
O  35.83300 46.04300 31.29600
C  34.70600 45.67800 32.17600
H  36.02800 53.55900 27.66200
H  36.34800 51.80100 21.40600
H  37.51900 45.66600 23.18800
H  35.38100 49.62500 30.26200
H  36.51800 52.26000 29.78000
H  34.02800 52.37700 28.59200
H  34.51700 52.95200 30.21500
H  33.63700 51.38700 30.03600
H  37.93600 51.03500 30.80600
H  38.15500 49.29500 30.37500
H  37.96100 49.96500 32.91700
H  37.40000 48.44400 32.15600
H  37.49500 55.62200 25.55000
H  36.03200 55.52600 26.42600
H  35.89900 56.11400 24.80600
H  35.36800 56.33700 22.67900
H  36.19700 56.27500 21.17200
H  37.14700 56.56200 22.65300
H  37.46200 49.46100 20.17200
H  36.45500 46.91300 21.10800
H  35.17700 50.13600 19.72400
H  34.63900 48.72900 20.52800
H  35.72500 48.51000 19.10000
H  39.39400 47.22300 21.72000
H  39.07500 47.99900 20.18400
H  39.39700 45.21900 20.67700
H  39.08700 46.24000 19.28700
H  37.75000 45.55700 20.10000
H  36.83000 43.71300 24.91400
H  37.95100 43.54700 26.42700
H  38.48500 44.11900 24.85000
H  37.50000 47.01800 30.15500
H  33.79800 45.62800 31.57500
H  34.61600 46.45400 32.93600
H  34.79000 44.69600 32.64000

