158

Mg 26.13000 51.09500 26.70500
C  23.75500 51.74100 29.25200
C  28.43700 50.42900 29.16800
C  28.44000 50.57100 24.34000
C  23.79800 52.08700 24.31500
N  26.05800 51.23300 28.92000
C  24.99400 51.49500 29.73500
C  25.39100 51.20600 31.18600
C  26.88900 51.00500 31.13700
C  27.18600 50.91500 29.61500
C  27.81000 51.91000 32.01400
C  24.63800 49.97200 31.70800
C  24.13900 50.01700 33.15900
H  24.77800 50.99600 34.23700
N  28.12600 50.48400 26.72600
C  28.92000 50.26200 27.82100
C  30.14900 49.65100 27.43500
C  30.16500 49.66800 26.04900
C  28.86400 50.27900 25.64700
C  31.20000 49.25700 28.46400
C  31.40800 49.30100 25.10500
O  31.34000 49.45900 23.89000
C  32.74600 48.81100 25.67300
N  26.20700 51.61500 24.65100
C  27.25200 51.20100 23.87900
C  26.95700 51.49600 22.36400
C  25.43000 51.88800 22.35200
C  25.08700 51.83300 23.86600
C  27.94500 52.37300 21.61000
C  24.50400 50.92700 21.45900
C  24.15000 49.48400 22.04500
N  24.16800 51.74300 26.74700
C  23.38400 52.09700 25.67200
C  22.05600 52.51700 26.21800
C  22.16800 52.46700 27.58100
C  23.47800 51.91500 27.86300
C  20.88500 53.06100 25.44700
C  21.55100 52.76700 28.83300
O  20.42800 53.24000 29.05300
C  22.51000 52.31700 29.90200
C  22.97500 53.57200 30.68100
O  23.73800 54.46200 30.27400
O  22.23300 53.57000 31.86300
C  22.21200 54.82800 32.68800
H  29.08000 50.20900 30.02400
H  29.06900 50.35600 23.47300
H  23.04700 52.38200 23.58000
H  25.17500 52.09200 31.78200
H  27.12700 50.02300 31.54400
H  27.21700 52.30100 32.84000
H  28.28100 52.64600 31.36200
H  28.67800 51.33400 32.33400
H  25.25500 49.07600 31.63300
H  23.77800 49.75300 31.07600
H  24.22100 49.02200 33.59600
H  23.09300 50.27100 32.98700
H  32.16200 49.65300 28.13900
H  31.30700 48.17200 28.48100
H  30.97200 49.63400 29.46100
H  32.58100 48.10200 26.48500
H  33.13200 49.72400 26.12500
H  33.37200 48.25800 24.97300
H  26.94900 50.55200 21.81900
H  25.39100 52.97300 22.25100
H  28.69700 52.57200 22.37300
H  27.66400 53.30700 21.12400
H  28.45200 51.75200 20.87100
H  25.03800 50.89500 20.50900
H  23.53400 51.39400 21.28800
H  24.59700 48.76400 21.36000
H  23.07200 49.32500 22.08300
H  24.53800 49.35600 23.05500
H  20.99000 54.14000 25.33500
H  20.01600 52.94700 26.09500
H  20.82400 52.62400 24.45100
H  22.02700 51.61900 30.58500
H  23.16700 54.86000 33.21200
H  21.29400 54.92400 33.26700
H  22.27200 55.74600 32.10300
Mg -1.90700 34.39900 26.66700
C  -3.30500 32.43900 29.32300
C  -0.23200 36.18600 28.98000
C  -1.46900 36.78000 24.29300
C  -3.89100 32.70300 24.43000
N  -1.98000 34.31300 28.92300
C  -2.49500 33.42600 29.79200
C  -2.03500 33.70100 31.21300
C  -1.08600 34.97100 30.99200
C  -1.08900 35.15900 29.52300
C  -1.44000 36.18200 31.82700
C  -1.34100 32.53800 31.96600
C  -1.97200 32.11500 33.36100
H  -0.94700 31.69500 34.37200
N  -0.79200 36.03800 26.61100
C  -0.13500 36.63100 27.67900
C  0.70400 37.75800 27.19700
C  0.24100 38.01300 25.83900
C  -0.75800 36.93200 25.54000
C  1.74800 38.51100 28.16300
C  0.67600 39.05000 24.81100
O  0.13900 39.25100 23.73400
C  1.82600 39.90100 25.17600
N  -2.74800 34.80900 24.69600
C  -2.46500 35.89200 23.93500
C  -2.99200 35.75900 22.46100
C  -3.74800 34.36400 22.50800
C  -3.51400 33.91000 23.97300
C  -3.84400 36.98300 21.93800
C  -3.11300 33.29100 21.49100
C  -1.78000 32.65700 21.93000
N  -3.35800 32.89000 26.77000
C  -3.98200 32.22600 25.77100
C  -4.73000 31.06800 26.32700
C  -4.51200 31.18300 27.72100
C  -3.59500 32.23200 27.96300
C  -5.61200 30.15800 25.57000
C  -4.84700 30.58300 28.99100
O  -5.53000 29.60400 29.15800
C  -4.07400 31.35600 30.09100
C  -5.08300 31.78100 31.13500
O  -5.73600 32.75000 31.03000
O  -4.99300 30.89900 32.15600
C  -5.83400 31.22200 33.35300
H  0.27400 36.73400 29.77700
H  -1.32900 37.52200 23.50500
H  -4.52100 32.19300 23.69800
H  -2.98600 33.94800 31.68500
H  -0.12400 34.54200 31.27500
H  -1.54200 37.08100 31.22000
H  -0.62500 36.37400 32.52500
H  -2.36500 36.08100 32.39500
H  -0.28600 32.78300 32.08900
H  -1.30800 31.58200 31.44300
H  -2.55200 31.19300 33.37000
H  -2.63100 32.91200 33.70600
H  2.76500 38.31900 27.82100
H  1.51700 38.18700 29.17800
H  1.65600 39.59400 28.08500
H  1.44200 40.61300 25.90600
H  2.23200 40.38400 24.28600
H  2.57100 39.20300 25.55800
H  -2.13500 35.81100 21.78900
H  -4.81400 34.38400 22.28100
H  -4.86200 36.71800 21.65400
H  -3.22100 37.41400 21.15400
H  -3.91100 37.71400 22.74400
H  -2.85200 33.68500 20.50900
H  -3.91800 32.57900 21.30600
H  -1.10700 32.96000 21.12700
H  -1.83000 31.57900 22.08400
H  -1.29000 33.07900 22.80700
H  -6.18000 29.63700 26.34100
H  -5.11800 29.42300 24.93400
H  -6.25300 30.60300 24.80800
H  -3.48600 30.55300 30.53400
H  -5.92600 30.35800 34.01100
H  -6.78000 31.65300 33.02500
H  -5.21900 31.94400 33.89000

