158

Mg 46.76600 24.39000 28.47800
C  47.43600 26.55600 31.17000
C  45.87600 22.00100 30.81600
C  46.33800 22.17800 25.97600
C  48.30700 26.64000 26.35900
N  46.64900 24.34000 30.69600
C  46.80100 25.36000 31.59500
C  46.42400 24.99700 33.02300
C  46.25900 23.47300 32.88500
C  46.26500 23.22300 31.37100
C  47.34200 22.56500 33.61700
C  45.22700 25.87500 33.55400
C  45.63700 26.63100 34.85400
H  46.12500 25.80000 36.02600
N  46.06900 22.43600 28.38200
C  45.81700 21.57400 29.45700
C  45.55000 20.18500 29.04900
C  45.49800 20.24500 27.60100
C  46.05800 21.63100 27.24200
C  45.19500 19.04500 29.94300
C  45.20000 19.19700 26.53900
O  45.21300 19.45400 25.36400
C  44.67200 17.97400 26.94800
N  47.25600 24.38700 26.45600
C  46.83300 23.44600 25.54500
C  47.28000 23.77500 24.12500
C  47.84900 25.19500 24.31600
C  47.79500 25.42600 25.82700
C  48.30300 22.78200 23.38600
C  47.16800 26.33700 23.40600
C  45.76200 26.81000 23.84800
N  47.72200 26.18000 28.66800
C  48.30900 26.99200 27.71500
C  48.84200 28.12900 28.34200
C  48.60500 28.00900 29.70100
C  47.82400 26.85400 29.84000
C  49.57500 29.13100 27.59100
C  48.87500 28.59400 31.00700
O  49.54200 29.55500 31.32600
C  48.06500 27.70900 31.99000
C  49.04100 27.39500 33.14200
O  49.77900 26.44600 33.20700
O  48.90200 28.31800 34.14300
C  49.46700 27.91800 35.47900
H  45.63900 21.23900 31.56100
H  46.18200 21.66500 25.02500
H  48.70300 27.30400 25.58900
H  47.28500 25.16000 33.67100
H  45.29100 23.17400 33.28700
H  47.57400 23.00200 34.58900
H  48.28600 22.34400 33.12100
H  46.97600 21.54100 33.68500
H  44.26900 25.37400 33.69000
H  45.05600 26.65400 32.81100
H  44.73100 27.10800 35.22900
H  46.34300 27.41500 34.57900
H  46.02600 19.06100 30.64900
H  44.95200 18.10800 29.44100
H  44.27000 19.38900 30.40500
H  45.36900 17.32700 27.48000
H  44.26000 17.28300 26.21200
H  43.85500 18.12900 27.65200
H  46.31800 23.81400 23.61400
H  48.90700 25.31700 24.08200
H  49.16300 23.38000 23.08200
H  47.76500 22.43300 22.50500
H  48.55200 21.96500 24.06400
H  47.08200 26.23100 22.32500
H  47.74300 27.25400 23.53700
H  45.05400 27.00100 23.04200
H  45.81200 27.80000 24.30100
H  45.24100 26.21300 24.59700
H  48.79700 29.55800 26.95800
H  50.25400 28.63800 26.89500
H  50.02600 29.92500 28.18700
H  47.29900 28.36400 32.40500
H  49.83200 28.86600 35.87500
H  50.26000 27.19500 35.29200
H  48.63400 27.42700 35.98200
Mg 6.07600 54.17000 41.46700
C  5.28900 50.63600 41.09500
C  9.21100 53.32900 40.44200
C  6.61600 57.51500 41.12600
C  2.72300 54.72700 42.23300
N  7.05300 52.16700 40.71000
C  6.57000 50.89600 40.61000
C  7.64500 49.90100 40.22800
C  8.89200 50.75300 40.46700
C  8.33100 52.20600 40.54400
C  9.71400 50.48300 41.76500
C  7.66000 49.29100 38.75800
C  7.24800 50.24200 37.63100
H  5.76400 50.29500 37.18500
N  7.62900 55.30500 40.73500
C  8.88400 54.76500 40.47900
C  9.80300 55.80500 40.14900
C  9.10600 57.07400 40.43600
C  7.71000 56.71600 40.80600
C  11.23700 55.49000 39.83800
C  9.68700 58.50100 40.39000
O  10.90900 58.61800 40.24900
C  8.80600 59.73300 40.65200
N  4.82300 55.81400 41.66100
C  5.32100 57.08000 41.54000
C  4.23000 58.14000 41.86900
C  3.00700 57.25500 42.20000
C  3.51900 55.82000 42.03600
C  4.73300 59.11800 42.94900
C  1.71300 57.65400 41.38100
C  0.43900 57.89500 42.22200
N  4.32900 53.00800 41.87500
C  3.05800 53.36100 42.10100
C  2.17500 52.21600 42.19900
C  3.04700 51.13200 41.97400
C  4.33600 51.62900 41.64600
C  0.66900 52.16800 42.47400
C  3.11500 49.62700 41.85300
O  2.30600 48.75900 42.14200
C  4.53600 49.32900 41.34100
C  4.28000 48.68500 40.04600
O  3.74500 49.02200 39.03300
O  4.69800 47.34100 40.17400
C  4.85000 46.53400 38.94800
H  10.28300 53.15900 40.31700
H  6.59500 58.60100 41.01000
H  1.67100 54.96900 42.40100
H  7.62000 49.12800 40.99600
H  9.58200 50.66300 39.62800
H  9.68800 51.26800 42.52100
H  10.75300 50.35100 41.46500
H  9.46000 49.51500 42.19600
H  6.92500 48.48600 38.73600
H  8.64200 48.92900 38.45600
H  7.81800 49.92400 36.75800
H  7.56600 51.27900 37.73500
H  11.36000 54.46700 39.48100
H  11.91700 55.45700 40.69000
H  11.66400 56.14700 39.08100
H  8.05800 59.70200 39.85900
H  9.38200 60.65300 40.55500
H  8.28900 59.68100 41.61000
H  4.12500 58.71900 40.95100
H  2.74600 57.41700 43.24600
H  3.99700 59.30100 43.73300
H  4.83100 60.13500 42.56900
H  5.65100 58.70800 43.37000
H  1.48800 56.98500 40.55100
H  1.87000 58.62400 40.91000
H  0.39800 57.34000 43.15900
H  -0.40700 57.71400 41.55900
H  0.48800 58.93700 42.53700
H  0.07400 51.99300 41.57700
H  0.42500 53.12500 42.93500
H  0.35700 51.39900 43.18100
H  5.14000 48.70700 42.00100
H  5.77600 45.96100 38.97700
H  4.78000 47.20900 38.09500
H  4.05800 45.78800 39.01200

