158

Mg 8.19400 3.02700 27.61200
C  9.45400 1.60100 30.62900
C  6.04200 4.94000 29.49100
C  6.74100 4.15400 24.76700
C  9.91600 0.54500 25.90700
N  7.96200 3.33900 29.85100
C  8.50300 2.64000 30.83100
C  8.07400 3.18900 32.22000
C  6.89000 4.16900 31.87400
C  6.89200 4.12700 30.30400
C  5.50500 3.74100 32.58900
C  9.18100 3.79400 33.09300
C  9.40200 3.06000 34.48100
H  9.84300 3.98000 35.68700
N  6.73500 4.35800 27.21700
C  6.02900 5.13200 28.10700
C  5.29000 6.14200 27.47200
C  5.34400 5.88100 26.06400
C  6.30600 4.77200 25.96500
C  4.50400 7.19100 28.20800
C  4.62000 6.61200 24.85900
O  5.00600 6.35200 23.69500
C  3.68700 7.76900 25.06200
N  8.24000 2.42700 25.56900
C  7.65300 3.00800 24.58300
C  7.88100 2.33600 23.29200
C  8.68400 1.07900 23.65800
C  9.03600 1.33700 25.17200
C  6.51300 2.00700 22.58200
C  9.94300 0.79400 22.78000
C  10.17200 -0.66800 22.46400
N  9.56500 1.42900 28.14900
C  10.19800 0.57900 27.25800
C  10.88500 -0.36300 28.09300
C  10.70100 0.04200 29.40600
C  9.82300 1.08200 29.36200
C  11.44300 -1.64100 27.66200
C  11.00700 -0.23700 30.78200
O  11.71500 -1.07000 31.36200
C  10.15900 0.71500 31.66300
C  9.35000 -0.25000 32.36800
O  8.27800 -0.71300 32.00000
O  9.80500 -0.43100 33.65100
C  8.89000 -1.03700 34.54000
H  5.41700 5.50200 30.18900
H  6.31800 4.47500 23.81300
H  10.34400 -0.30500 25.37200
H  7.60200 2.32300 32.68400
H  7.07400 5.22800 32.05500
H  4.72300 3.42400 31.89900
H  4.93800 4.36600 33.27900
H  5.73400 2.86100 33.19000
H  9.01800 4.86500 33.21100
H  10.08200 3.81400 32.48100
H  10.19700 2.33500 34.30900
H  8.51700 2.49600 34.77700
H  3.44900 6.91500 28.22800
H  4.55700 8.10500 27.61700
H  4.86200 7.35600 29.22400
H  3.42300 8.12800 24.06700
H  4.15600 8.66700 25.46500
H  2.84400 7.66200 25.74600
H  8.39700 2.99100 22.59000
H  8.09500 0.16600 23.57200
H  5.75900 2.19200 23.34700
H  6.40200 0.98700 22.21400
H  6.40800 2.71600 21.76100
H  10.80500 1.24300 23.27300
H  9.75600 1.13300 21.76100
H  11.21900 -0.94300 22.34300
H  9.60900 -1.03200 21.60500
H  9.82400 -1.35100 23.23900
H  10.83800 -2.10100 26.88000
H  11.53200 -2.35600 28.48000
H  12.48900 -1.48600 27.40000
H  10.67200 1.28300 32.43900
H  9.46600 -1.30100 35.42700
H  8.41800 -1.93800 34.14800
H  8.08000 -0.35900 34.80800
Mg 34.45900 1.96400 30.33000
C  32.42700 3.02300 32.88900
C  37.16400 1.83000 32.50200
C  36.71000 1.80900 27.68100
C  31.97100 2.72300 27.98600
N  34.70200 2.53600 32.44100
C  33.63400 2.68800 33.33800
C  34.11700 2.63400 34.73400
C  35.68400 2.45200 34.64200
C  35.94500 2.29100 33.10600
C  36.63900 3.53400 35.26800
C  33.27200 1.65900 35.63400
C  32.70400 2.14500 37.02900
H  33.54100 3.25500 37.76500
N  36.51200 1.50400 30.13300
C  37.41800 1.47300 31.15800
C  38.68100 1.01300 30.71400
C  38.63000 1.09700 29.28300
C  37.23500 1.50500 28.96900
C  39.78500 0.51200 31.68900
C  39.80300 0.91900 28.30800
O  39.67700 1.16200 27.13400
C  41.18000 0.52300 28.83100
N  34.36600 2.13300 28.18200
C  35.35800 1.96000 27.32800
C  34.96300 2.24600 25.85700
C  33.39800 2.21800 25.92700
C  33.19300 2.35100 27.43400
C  35.48700 3.65200 25.30000
C  32.76300 0.80600 25.34900
C  31.33600 0.86500 24.76600
N  32.56800 2.80800 30.34200
C  31.65500 3.07500 29.34400
C  30.48200 3.54300 29.86400
C  30.70600 3.57100 31.26000
C  32.02200 3.12600 31.49000
C  29.22200 3.85300 29.08300
C  30.07000 3.79900 32.53600
O  28.93100 4.31900 32.66200
C  31.16000 3.48300 33.66100
C  31.24400 4.73100 34.29400
O  31.91000 5.71600 33.99500
O  30.58400 4.62400 35.50400
C  30.66500 5.65300 36.55500
H  37.94300 1.83500 33.26800
H  37.42500 1.80500 26.85500
H  31.07600 2.76600 27.36200
H  33.91300 3.62900 35.12800
H  35.94100 1.50500 35.11700
H  36.08500 4.22500 35.90300
H  36.97400 4.20900 34.48100
H  37.36900 3.14300 35.97800
H  33.83000 0.73800 35.80000
H  32.38400 1.38800 35.06300
H  32.59200 1.18200 37.52700
H  31.70500 2.58000 36.99200
H  40.59200 1.24400 31.67500
H  40.17500 -0.46100 31.39000
H  39.53200 0.54300 32.74900
H  41.56600 1.31700 29.46900
H  41.87100 0.49200 27.98900
H  41.18000 -0.47000 29.28100
H  35.23300 1.34600 25.30500
H  32.94100 3.08500 25.45000
H  35.83000 4.07500 26.24400
H  34.68300 4.26100 24.88500
H  36.30400 3.54500 24.58700
H  32.88300 0.03100 26.10600
H  33.39200 0.62100 24.47800
H  31.27800 0.80200 23.67900
H  30.92100 1.82700 25.06800
H  30.87700 0.00600 25.25400
H  28.65500 3.01600 28.67700
H  29.58200 4.55400 28.33000
H  28.56600 4.42100 29.74300
H  30.87800 2.71400 34.38000
H  29.78100 6.28300 36.45200
H  31.58000 6.22100 36.39200
H  30.72300 5.18400 37.53800

