158

Mg 48.86300 45.74000 43.42100
C  45.39400 45.96900 42.29200
C  48.97000 42.72000 41.96100
C  52.28400 45.98400 43.50100
C  48.55300 49.17700 44.03000
N  47.27700 44.53600 42.19400
C  45.99400 44.76900 41.89500
C  45.30300 43.54900 41.27400
C  46.49000 42.57600 41.20700
C  47.68300 43.26800 41.89600
C  46.29100 41.17600 41.88000
C  44.40200 43.79900 39.93500
C  45.07800 44.43000 38.70600
H  45.69400 43.59300 37.64100
N  50.42400 44.37800 43.10600
C  50.26100 43.20500 42.49300
C  51.53200 42.51900 42.36300
C  52.51900 43.48700 42.74100
C  51.76100 44.73000 43.18200
C  51.61900 41.05000 41.97000
C  54.02800 43.13800 42.65000
O  54.40500 42.05700 42.19800
C  55.07500 44.12500 43.07000
N  50.22500 47.41500 43.62600
C  51.57000 47.16800 43.84900
C  52.33500 48.44200 44.19600
C  51.08200 49.49700 44.35400
C  49.82700 48.61600 43.96200
C  53.21900 48.33100 45.50300
C  51.21400 50.89000 43.79400
C  52.34800 51.76500 44.28700
N  47.31800 47.27400 43.41500
C  47.37400 48.60700 43.69900
C  46.02900 49.17500 43.75900
C  45.25800 48.24000 43.08800
C  46.10000 47.08200 42.96400
C  45.59800 50.60400 44.18200
C  43.95500 47.93100 42.64000
O  42.96800 48.66400 42.66800
C  44.00000 46.47700 42.13000
C  43.00800 45.72100 42.95700
O  41.85700 45.53000 42.58200
O  43.43900 45.36200 44.17300
C  42.42200 44.86300 45.15700
H  49.08800 41.76800 41.43900
H  53.36900 46.10200 43.52300
H  48.43500 50.25000 44.19600
H  44.63800 43.18600 42.05800
H  46.70800 42.44900 40.14700
H  46.44100 40.47700 41.05800
H  45.25600 41.08000 42.20800
H  46.90200 41.06800 42.77600
H  43.56100 44.43900 40.20000
H  43.98500 42.86300 39.56300
H  45.89100 45.06400 39.05900
H  44.31100 45.11000 38.33600
H  51.89100 41.00900 40.91500
H  50.65900 40.53600 42.01500
H  52.34900 40.52300 42.58400
H  54.99200 44.96800 42.38500
H  56.05100 43.71700 42.80900
H  55.12900 44.48600 44.09700
H  52.92800 48.81200 43.36000
H  50.97000 49.62200 45.43100
H  53.98500 49.10500 45.46300
H  53.63900 47.32500 45.50000
H  52.55600 48.40000 46.36600
H  50.30300 51.37200 44.15000
H  51.24100 50.87700 42.70500
H  52.71500 51.37600 45.23600
H  52.06200 52.81000 44.40800
H  53.13900 51.72700 43.53800
H  44.70700 50.88900 43.62500
H  46.42600 51.25200 43.89300
H  45.32800 50.68200 45.23500
H  43.58300 46.33200 41.13400
H  42.27400 43.79500 44.99300
H  41.50800 45.43400 44.99400
H  42.74500 45.06600 46.17800
Mg 48.02300 36.12800 28.31500
C  46.03800 34.73400 30.84800
C  48.79500 38.69700 30.56100
C  49.79800 37.61100 25.95000
C  47.25000 33.36600 26.30600
N  47.54200 36.55900 30.54500
C  46.70600 35.82200 31.36700
C  46.73500 36.33300 32.84400
C  47.26200 37.79100 32.57500
C  47.95900 37.70400 31.19500
C  46.07000 38.78600 32.45100
C  47.67400 35.48900 33.83900
C  48.85600 36.06500 34.71400
H  48.50400 36.64200 36.04000
N  49.08000 37.92400 28.26400
C  49.28200 38.83500 29.29600
C  50.09000 39.90500 28.76900
C  50.39100 39.58800 27.47800
C  49.77300 38.32200 27.19500
C  50.67700 41.09200 29.67800
C  51.25600 40.43200 26.51200
O  51.73700 39.96200 25.51300
C  51.63300 41.80900 26.84700
N  48.39700 35.64300 26.36200
C  49.28500 36.34900 25.57900
C  49.43200 35.70400 24.18700
C  48.89000 34.28200 24.38800
C  48.20400 34.33800 25.79600
C  48.84100 36.61800 23.08300
C  49.93200 33.14600 24.38300
C  50.81700 32.95000 23.21800
N  46.74400 34.49600 28.39200
C  46.61200 33.39100 27.57300
C  45.72600 32.38500 28.13200
C  45.41500 32.89600 29.39200
C  46.10800 34.12600 29.52500
C  45.33600 31.07000 27.45300
C  44.72800 32.61100 30.66900
O  44.04100 31.65900 30.98300
C  45.02400 33.86800 31.56200
C  45.20300 33.49100 32.91600
O  46.00600 32.74600 33.35300
O  44.26200 34.07500 33.69500
C  44.05200 33.65900 35.12000
H  49.00200 39.48900 31.28400
H  50.45700 38.04000 25.19200
H  47.31200 32.42800 25.75100
H  45.71000 36.37600 33.21400
H  47.97700 38.07800 33.34700
H  45.91600 39.34600 33.37300
H  45.15200 38.23900 32.23500
H  46.39600 39.55200 31.74700
H  47.95400 34.61400 33.25300
H  46.91400 35.21500 34.57200
H  49.35500 36.86700 34.17100
H  49.59700 35.26800 34.76900
H  51.75900 41.22400 29.64700
H  50.52000 40.93300 30.74500
H  50.21400 42.03100 29.37500
H  50.72500 42.26700 27.23900
H  51.95500 42.35000 25.95700
H  52.45200 41.76000 27.56400
H  50.51000 35.58300 24.07600
H  48.10400 34.01000 23.68300
H  48.07000 36.04700 22.56600
H  49.66700 36.87200 22.41800
H  48.43800 37.50700 23.56800
H  49.43000 32.19300 24.55400
H  50.48500 33.34600 25.30100
H  51.84700 32.95500 23.57300
H  50.87400 33.79600 22.53300
H  50.72300 31.97500 22.73900
H  44.34300 31.07600 27.00300
H  45.64100 30.23600 28.08600
H  46.06700 30.98900 26.64900
H  44.08700 34.40700 31.41900
H  43.47800 32.73400 35.18100
H  43.42700 34.39600 35.62400
H  44.97500 33.57100 35.69300

