158

Mg 47.56600 15.42100 27.68500
C  45.35000 15.27100 30.52300
C  49.73200 17.07300 29.58500
C  49.46700 15.50500 24.99500
C  44.94200 13.79700 25.87900
N  47.47400 16.16100 29.79200
C  46.53900 15.96700 30.79700
C  47.10900 16.36600 32.17000
C  48.36800 17.18100 31.80700
C  48.54300 16.73600 30.30300
C  48.24600 18.74300 31.78500
C  47.35900 15.20300 33.11300
C  47.36700 15.49300 34.64800
H  47.11100 16.97800 35.04700
N  49.47600 16.07100 27.38500
C  50.15300 16.79300 28.29000
C  51.40700 17.12100 27.67300
C  51.38300 16.62700 26.32600
C  50.05800 16.04500 26.15300
C  52.57600 17.84200 28.35400
C  52.43700 16.70900 25.24900
O  52.34800 16.13600 24.13200
C  53.68500 17.43700 25.42600
N  47.11700 14.91300 25.67800
C  48.16300 14.94600 24.76200
C  47.65000 14.44300 23.36200
C  46.30000 13.63300 23.79700
C  46.10400 14.10900 25.22700
C  47.52000 15.55300 22.38800
C  46.35600 12.08900 23.51900
C  46.54200 11.16100 24.74100
N  45.48900 14.71300 28.02600
C  44.64500 14.01800 27.27600
C  43.50600 13.56700 28.02600
C  43.72300 14.07900 29.26300
C  44.94900 14.70900 29.24500
C  42.33900 12.87700 27.44300
C  43.20300 14.17100 30.67200
O  42.13400 13.84900 31.09400
C  44.21000 14.90900 31.53600
C  43.51900 16.09700 32.09000
O  42.98400 17.04900 31.45800
O  43.54000 15.95000 33.47600
C  42.58800 16.70800 34.19300
H  50.52000 17.62300 30.10400
H  50.03900 15.57600 24.06800
H  44.25900 13.09800 25.39100
H  46.34000 17.00400 32.60500
H  49.10000 16.83200 32.53600
H  48.01200 19.14700 30.80000
H  49.21800 19.11200 32.11100
H  47.36500 19.02400 32.36200
H  48.27800 14.70100 32.80900
H  46.59700 14.47600 32.83200
H  48.33100 15.20600 35.07000
H  46.56500 14.94000 35.13700
H  52.37300 17.82000 29.42500
H  52.68600 18.79100 27.83000
H  53.56600 17.40000 28.24000
H  53.38500 18.41500 25.80100
H  54.20600 17.63800 24.48900
H  54.35900 17.01800 26.17300
H  48.42100 13.83700 22.88600
H  45.45200 14.00000 23.21800
H  46.50300 15.93900 22.45000
H  47.80800 15.11900 21.43000
H  48.21400 16.31600 22.74200
H  47.14500 11.78700 22.83100
H  45.43500 11.81300 23.00700
H  46.64000 10.10700 24.47900
H  45.73000 11.35800 25.44000
H  47.55200 11.33700 25.11100
H  42.40400 11.80700 27.64100
H  42.29000 13.03600 26.36600
H  41.39600 13.29000 27.80100
H  44.53300 14.16300 32.26200
H  42.72100 16.44600 35.24200
H  41.59100 16.41600 33.86400
H  42.74100 17.78100 34.07800
Mg 0.29000 43.97400 25.45900
C  2.08500 43.60900 28.41600
C  -2.52700 42.90900 27.12100
C  -1.34100 43.81700 22.55000
C  3.12200 44.83700 23.88600
N  -0.16500 43.56000 27.57300
C  0.74300 43.42500 28.61000
C  0.07200 43.03700 29.94900
C  -1.43800 42.95400 29.52300
C  -1.42300 43.11700 27.99100
C  -2.05000 41.53800 29.74400
C  0.25100 44.10100 31.07800
C  0.54300 43.57500 32.51800
H  0.23900 42.16100 32.92200
N  -1.72300 43.62300 24.90200
C  -2.65100 43.09800 25.73100
C  -3.86400 42.81400 25.01000
C  -3.58900 43.27100 23.66100
C  -2.14500 43.63400 23.69600
C  -5.04600 42.17700 25.64400
C  -4.45200 43.19300 22.48700
O  -4.10900 43.75900 21.45600
C  -5.73900 42.47000 22.60200
N  0.86800 44.11900 23.49300
C  -0.02100 43.98700 22.47900
C  0.72900 44.22200 21.08400
C  2.13100 44.83200 21.54200
C  2.04600 44.65700 23.11200
C  0.79400 42.88800 20.19000
C  2.47900 46.28800 21.10200
C  1.26100 47.28600 20.85900
N  2.23800 44.05300 25.98200
C  3.29900 44.42800 25.21700
C  4.51700 44.45600 25.97700
C  4.06300 44.14600 27.27400
C  2.68300 43.94400 27.23300
C  5.92100 44.99600 25.59200
C  4.53000 43.96300 28.64000
O  5.64100 44.08200 29.23200
C  3.19100 43.63200 29.39200
C  3.37800 42.43400 30.20200
O  3.32000 41.31200 29.81900
O  3.60600 42.78800 31.50000
C  4.00700 41.73000 32.47200
H  -3.43400 42.94100 27.72900
H  -1.82900 43.58700 21.60100
H  3.99000 45.23800 23.35900
H  0.53000 42.10200 30.27200
H  -1.99700 43.73300 30.04200
H  -1.38300 40.90100 30.32500
H  -2.30900 41.00600 28.82800
H  -3.03700 41.46600 30.20100
H  -0.54200 44.83400 31.23000
H  1.02400 44.82400 30.81700
H  0.03600 44.15200 33.29200
H  1.58700 43.71500 32.79500
H  -5.34700 41.16200 25.38400
H  -5.79900 42.95500 25.52300
H  -4.96300 42.08300 26.72700
H  -6.22100 42.45800 21.62500
H  -6.39900 42.86800 23.37400
H  -5.68500 41.41100 22.85200
H  0.07300 44.88900 20.52500
H  2.91300 44.21500 21.10000
H  0.32700 42.96000 19.20700
H  0.23200 42.15200 20.76500
H  1.83100 42.58500 20.04900
H  3.03800 46.29400 20.16700
H  3.10700 46.87900 21.76900
H  0.74500 47.24600 19.90000
H  1.63300 48.29000 21.06300
H  0.50500 47.09600 21.62200
H  6.52700 45.47400 26.36100
H  5.68300 45.83400 24.93600
H  6.40200 44.18000 25.05400
H  3.16800 44.47800 30.07800
H  5.07100 41.57000 32.29600
H  3.48500 40.79800 32.25400
H  3.71600 42.06900 33.46600

