158

Mg 35.84400 1.65900 29.13700
C  33.72500 2.79400 31.78700
C  38.37300 1.64400 31.34300
C  37.75200 0.92500 26.51300
C  33.11500 2.26000 26.92800
N  35.95600 1.98400 31.32900
C  34.97700 2.48000 32.18400
C  35.50500 2.56900 33.61700
C  37.04800 2.23400 33.43500
C  37.14300 1.86400 31.97800
C  37.92400 3.53000 33.71600
C  34.75500 1.49300 34.51500
C  34.42800 1.97200 35.93500
H  35.26900 3.01600 36.66800
N  37.82400 1.28800 28.93800
C  38.67300 1.31300 29.99800
C  39.94500 0.87200 29.52700
C  39.89600 0.82600 28.11200
C  38.46100 1.02500 27.73700
C  41.08300 0.68000 30.48100
C  40.96100 0.63100 27.16800
O  40.72400 0.55900 25.98600
C  42.37800 0.50100 27.55000
N  35.42200 1.56700 26.94500
C  36.39500 1.11200 26.07600
C  35.86200 1.27200 24.60900
C  34.34600 1.54400 24.81900
C  34.25400 1.79100 26.35100
C  36.61200 2.30500 23.82700
C  33.38400 0.50000 24.19300
C  32.97400 -0.78200 24.92200
N  33.90500 2.39100 29.29500
C  32.91200 2.56000 28.33200
C  31.68400 2.96500 28.92600
C  31.93900 3.11600 30.32000
C  33.26100 2.73000 30.44400
C  30.33800 3.15300 28.22100
C  31.37900 3.53800 31.63000
O  30.28400 4.04000 31.88600
C  32.55400 3.26100 32.62600
C  32.59400 4.52600 33.46800
O  33.15000 5.59000 33.18400
O  31.80200 4.41600 34.57900
C  31.55100 5.64200 35.33600
H  39.25000 1.73500 31.98700
H  38.31200 0.66400 25.61200
H  32.23300 2.43100 26.30800
H  35.26600 3.57900 33.94900
H  37.49100 1.49500 34.10300
H  38.46900 3.89200 32.84400
H  38.69800 3.20800 34.41300
H  37.44000 4.37600 34.20400
H  35.29000 0.54800 34.61400
H  33.81200 1.26900 34.01600
H  34.39600 1.15300 36.65400
H  33.45300 2.45900 35.92300
H  41.66600 -0.20700 30.23000
H  40.99700 0.70800 31.56700
H  41.68500 1.58600 30.42100
H  43.05500 0.29500 26.72100
H  42.42800 -0.32900 28.25500
H  42.66500 1.41800 28.06400
H  36.01500 0.30900 24.12200
H  34.09200 2.48000 24.32200
H  36.04400 3.20200 23.57600
H  36.97300 1.81500 22.92300
H  37.53800 2.59200 24.32400
H  33.70800 0.21900 23.19000
H  32.43900 1.00300 23.98900
H  33.58400 -0.99800 25.79900
H  33.21000 -1.65500 24.31300
H  31.97500 -0.72700 25.35200
H  30.10100 2.20700 27.73500
H  30.49300 3.81200 27.36600
H  29.62000 3.52400 28.95300
H  32.11300 2.50800 33.27800
H  30.47900 5.73000 35.51000
H  31.87500 6.58000 34.88400
H  32.01400 5.49600 36.31200
Mg 53.85100 24.83000 44.89400
C  51.02100 26.92000 44.07700
C  51.95800 22.05300 43.48600
C  56.54900 22.89700 44.78400
C  55.62800 27.68700 45.61200
N  51.96000 24.62700 43.71600
C  50.96300 25.60400 43.64000
C  49.71400 24.98100 42.96300
C  49.94700 23.53900 43.29700
C  51.41800 23.34600 43.48200
C  49.10400 22.77900 44.33900
C  49.38000 25.28200 41.52800
C  50.25000 24.78100 40.38500
H  50.88500 25.69900 39.33300
N  54.22200 22.72700 44.25900
C  53.29300 21.81100 43.79000
C  53.93700 20.48400 43.78900
C  55.28200 20.64500 44.19300
C  55.42700 22.12800 44.45300
C  53.27100 19.15000 43.53900
C  56.34900 19.50200 44.23300
O  56.06300 18.29500 43.98800
C  57.68500 19.81400 44.84500
N  55.82100 25.33800 44.89500
C  56.76000 24.33000 45.06200
C  58.14300 24.84800 45.37900
C  57.84900 26.39900 45.59800
C  56.34000 26.56300 45.28900
C  59.00000 24.08600 46.46200
C  58.69700 27.39900 44.80100
C  59.28500 28.53400 45.58700
N  53.38800 26.84300 45.08800
C  54.25800 27.91500 45.37100
C  53.46100 29.16300 45.51400
C  52.11800 28.81800 45.08500
C  52.18600 27.36900 44.76800
C  53.97900 30.51700 46.04000
C  50.77200 29.29700 44.82000
O  50.33100 30.41900 44.77300
C  50.02600 28.15300 44.12200
C  49.65200 28.68200 42.79400
O  50.38000 28.73200 41.78100
O  48.38400 29.27800 42.76800
C  47.92600 29.68200 41.44000
H  51.37400 21.16200 43.24600
H  57.56300 22.49300 44.76200
H  56.19900 28.48200 46.09500
H  48.89400 25.35900 43.57400
H  49.78600 22.98000 42.37600
H  49.75700 22.12800 44.92100
H  48.42600 22.11800 43.79900
H  48.60800 23.54300 44.93600
H  49.21000 26.34800 41.37800
H  48.35400 24.94600 41.37300
H  49.67200 24.07300 39.79200
H  51.12300 24.28300 40.80600
H  53.59700 18.67500 42.61300
H  52.19800 19.21000 43.35700
H  53.46700 18.36500 44.27000
H  57.51100 20.42500 45.73100
H  58.37400 20.33500 44.18000
H  58.16200 18.88700 45.16300
H  58.59800 24.73000 44.39500
H  57.96900 26.64100 46.65400
H  58.52500 23.16700 46.80500
H  59.19600 24.71900 47.32800
H  59.95900 23.70900 46.10600
H  58.08000 27.78200 43.98900
H  59.58300 26.88500 44.42900
H  60.34900 28.31900 45.68100
H  58.73900 28.72300 46.51100
H  59.26400 29.40600 44.93400
H  53.19800 31.10800 46.51900
H  54.45600 31.09700 45.25100
H  54.72700 30.38600 46.82200
H  49.10400 27.89000 44.64000
H  47.07700 30.36500 41.46500
H  47.55200 28.86300 40.82600
H  48.74000 30.19300 40.92600

