158

Mg 34.72000 3.10200 30.26600
C  32.22500 3.96500 32.40000
C  37.01600 3.14300 32.82200
C  37.20100 2.48900 27.95600
C  32.50900 3.29900 27.56600
N  34.61600 3.21000 32.41100
C  33.51200 3.73300 33.00300
C  33.77100 3.84400 34.55800
C  35.34000 3.81000 34.65700
C  35.66400 3.41800 33.20000
C  36.09500 5.08100 35.11500
C  33.13400 2.63600 35.23700
C  32.37800 3.09000 36.47500
H  33.14900 4.00700 37.50900
N  36.75400 2.74500 30.39600
C  37.52700 2.80100 31.55900
C  38.87800 2.42000 31.25700
C  38.98400 2.29800 29.82600
C  37.61800 2.55000 29.33000
C  40.01800 2.42000 32.32700
C  40.24800 1.96000 29.01100
O  40.22600 1.65100 27.82000
C  41.58600 1.79500 29.65800
N  34.87500 2.83000 28.06800
C  35.99400 2.66200 27.37700
C  35.77900 2.67100 25.87100
C  34.22100 2.59600 25.84200
C  33.82400 2.81500 27.26400
C  36.48800 3.88100 25.24200
C  33.62400 1.26700 25.23200
C  34.23400 0.84500 23.93600
N  32.80900 3.52200 29.96300
C  32.08900 3.69200 28.85800
C  30.76300 4.13000 29.18400
C  30.79600 4.29900 30.62100
C  32.03900 3.84000 30.99700
C  29.61200 4.32000 28.27400
C  29.98900 4.62500 31.82000
O  28.80500 4.85100 31.90800
C  30.95400 4.44300 33.04700
C  31.23800 5.84100 33.51600
O  32.06700 6.63000 33.10200
O  30.51700 6.11000 34.65400
C  30.82400 7.41200 35.25200
H  37.69500 2.95100 33.65500
H  37.93000 2.07600 27.25500
H  31.82300 3.26000 26.71700
H  33.41000 4.79500 34.95100
H  35.67800 3.03500 35.34400
H  36.81200 4.82700 35.89600
H  35.50600 5.94900 35.41100
H  36.67100 5.48800 34.28300
H  33.90500 1.96600 35.61800
H  32.41500 2.20100 34.54400
H  32.16100 2.11900 36.92100
H  31.48100 3.65600 36.22500
H  40.99100 2.82600 32.05000
H  40.35600 1.38400 32.35600
H  39.66300 2.73400 33.30800
H  42.29500 1.23800 29.04500
H  41.43600 1.04200 30.43100
H  41.87900 2.77600 30.03100
H  36.16300 1.77700 25.38000
H  33.79700 3.34700 25.17600
H  35.71700 4.56600 24.88900
H  37.13300 3.43500 24.48500
H  37.14900 4.38700 25.94500
H  32.56400 1.40900 25.02400
H  33.71200 0.35400 25.82100
H  33.41400 0.26500 23.51100
H  35.10600 0.24700 24.20200
H  34.54000 1.74000 23.39400
H  29.90300 4.93700 27.42300
H  28.74800 4.84700 28.68000
H  29.35300 3.28300 28.05700
H  30.51200 3.74900 33.76200
H  30.59400 8.19900 34.53300
H  31.88100 7.45900 35.51200
H  30.13400 7.50000 36.09200
Mg 48.10700 25.33200 29.54400
C  49.52000 27.42200 31.89600
C  46.85300 23.54400 32.00700
C  47.42900 23.04000 27.23200
C  49.79700 27.34800 27.05100
N  48.23300 25.46800 31.68800
C  48.86700 26.36700 32.49400
C  48.53300 26.27600 33.90800
C  47.72600 24.94000 33.91400
C  47.51300 24.69400 32.46500
C  48.42800 23.68400 34.53700
C  47.64000 27.46700 34.50100
C  48.23700 28.30100 35.62100
H  47.33200 28.43200 36.85900
N  47.19100 23.52500 29.57600
C  46.77700 22.96100 30.71400
C  46.07500 21.74400 30.32000
C  46.32000 21.55000 28.88500
C  47.01700 22.73500 28.50900
C  45.31100 20.88000 31.31500
C  45.78500 20.44300 28.01900
O  45.95000 20.38100 26.78700
C  44.94900 19.40800 28.58300
N  48.66400 25.14800 27.48100
C  48.16200 24.13700 26.73100
C  48.36100 24.30300 25.25200
C  48.86400 25.79000 25.17600
C  49.14600 26.14300 26.68200
C  49.27300 23.29900 24.57400
C  47.93500 26.87300 24.71100
C  48.41100 27.88100 23.54500
N  49.41100 27.02800 29.45400
C  49.97300 27.74700 28.38100
C  50.62700 28.89200 28.93500
C  50.42700 28.87100 30.26900
C  49.77500 27.65900 30.57300
C  51.18700 29.96300 28.12700
C  50.69500 29.54200 31.55200
O  51.21600 30.60600 31.89200
C  50.14600 28.56400 32.63500
C  51.24100 28.23100 33.54100
O  52.02900 27.33100 33.42000
O  51.32500 29.22500 34.51700
C  52.01400 28.93100 35.71700
H  46.42600 22.98000 32.83900
H  47.01500 22.39000 26.45800
H  50.16600 28.04500 26.29500
H  49.45300 26.20600 34.48800
H  46.77200 25.07500 34.42500
H  48.94100 23.99400 35.44700
H  48.99200 23.19500 33.74200
H  47.74400 22.88500 34.82200
H  46.73500 27.07600 34.96500
H  47.32800 28.18200 33.73900
H  48.41400 29.28400 35.18600
H  49.17500 27.95700 36.05600
H  44.25400 20.78600 31.06800
H  45.34200 21.31400 32.31500
H  45.75000 19.88300 31.28300
H  45.55700 18.67600 29.11500
H  44.43300 18.97000 27.72900
H  44.09400 19.86000 29.08600
H  47.42700 24.29400 24.69100
H  49.77800 25.76300 24.58300
H  49.71100 22.66800 25.34600
H  50.06900 23.66900 23.92700
H  48.63100 22.78300 23.86000
H  47.44900 27.40900 25.52600
H  46.99700 26.45100 24.34900
H  48.40700 28.94000 23.80200
H  47.77800 27.69600 22.67700
H  49.43700 27.70600 23.22000
H  50.46300 30.70500 27.79000
H  51.61800 29.41700 27.28800
H  52.01400 30.42900 28.66200
H  49.39100 29.12600 33.18500
H  51.34500 28.31000 36.31200
H  52.14100 29.80500 36.35500
H  53.01200 28.49300 35.67100

