158

Mg 47.45600 45.13800 43.29600
C  43.98400 44.90100 43.18400
C  47.73900 41.74500 42.89200
C  50.66000 45.57200 41.98400
C  47.00600 48.78100 43.11600
N  46.08500 43.59100 43.17900
C  44.67000 43.66900 43.18900
C  44.06900 42.23200 43.19000
C  45.28900 41.38300 43.54300
C  46.50600 42.30000 43.18400
C  45.41600 40.80100 45.03800
C  43.24400 41.84000 41.94200
C  43.59700 42.49900 40.59600
H  43.43200 41.73300 39.25000
N  49.04100 43.82400 42.67300
C  48.97400 42.40100 42.59500
C  50.29800 41.88900 42.22300
C  51.13700 42.97100 42.02200
C  50.27900 44.21700 42.25400
C  50.71500 40.41000 42.27100
C  52.63600 42.85500 41.65000
O  53.10300 41.78500 41.34500
C  53.49200 44.07500 41.63600
N  48.62400 46.95100 42.78700
C  50.00100 46.78300 42.36700
C  50.67600 48.21700 42.19900
C  49.41700 49.16900 42.42500
C  48.29400 48.25200 42.87400
C  51.97100 48.51900 43.14500
C  49.18300 50.18700 41.34900
C  48.55800 51.49500 41.73800
N  45.87000 46.61400 43.26400
C  45.83800 47.98900 43.27200
C  44.45400 48.46900 43.37600
C  43.62900 47.30700 43.24800
C  44.57300 46.20500 43.27900
C  43.96200 49.82300 43.38900
C  42.27700 46.75400 43.24300
O  41.16400 47.31900 43.27300
C  42.49400 45.16800 43.21300
C  41.73500 44.56200 44.41300
O  40.91100 43.67900 44.41800
O  42.18000 45.15600 45.60600
C  41.30000 44.78000 46.82100
H  47.78200 40.65500 42.95800
H  51.64700 45.75400 41.55300
H  47.02700 49.86100 43.27200
H  43.25300 42.22700 43.91100
H  45.42000 40.52500 42.88400
H  45.73000 39.76200 44.94300
H  44.42700 40.96100 45.46700
H  46.21600 41.33700 45.54900
H  42.22800 42.19900 42.10900
H  43.11700 40.77000 41.77500
H  44.67400 42.55100 40.76100
H  43.23700 43.52700 40.55400
H  50.62800 40.00800 41.26200
H  49.95900 39.85000 42.82200
H  51.67300 40.30300 42.77900
H  53.29200 44.68700 42.51500
H  53.43000 44.70300 40.74700
H  54.48800 43.66200 41.79700
H  51.03300 48.12000 41.17400
H  49.60200 49.77100 43.31400
H  51.73300 49.26900 43.89900
H  52.79600 48.85000 42.51400
H  52.28700 47.61000 43.65700
H  48.51400 49.69100 40.64600
H  50.12500 50.38800 40.83900
H  48.58600 51.61800 42.82100
H  47.59300 51.71400 41.28200
H  49.13000 52.36700 41.42200
H  44.29400 50.38300 44.26300
H  42.87400 49.84500 43.44900
H  44.21800 50.19300 42.39600
H  42.01100 44.83700 42.29300
H  41.71100 45.13100 47.76800
H  41.24900 43.69200 46.86200
H  40.27500 45.13700 46.71500
Mg 34.72400 48.69000 25.54400
C  34.98100 46.98500 28.56100
C  33.04300 51.22400 27.25400
C  34.17700 50.16600 22.70600
C  36.09900 45.84900 23.91800
N  33.99500 48.95600 27.64400
C  34.32200 48.20800 28.69600
C  33.89100 48.87900 30.00600
C  33.00000 50.02300 29.51400
C  33.35400 50.07500 28.05900
C  31.46100 49.86700 29.81500
C  35.10200 49.35900 30.92400
C  34.98300 48.97500 32.39600
H  33.65600 49.12600 33.01700
N  33.70400 50.37800 25.03100
C  33.19100 51.36400 25.88000
C  32.62400 52.48000 25.14500
C  32.92600 52.14300 23.83700
C  33.67100 50.86900 23.78700
C  31.97900 53.77200 25.64300
C  32.63300 52.91500 22.61200
O  33.16300 52.76400 21.47200
C  31.75100 54.19100 22.65100
N  35.26900 48.13800 23.63000
C  34.92800 48.96000 22.61900
C  35.34400 48.37700 21.24800
C  36.14700 47.04900 21.69900
C  35.79900 47.02000 23.18900
C  34.16400 48.10000 20.31300
C  37.70600 46.93900 21.49200
C  38.45500 47.89300 20.56100
N  35.44700 46.73200 26.08200
C  35.95700 45.73900 25.37400
C  36.38400 44.69300 26.23700
C  36.04200 45.10800 27.54100
C  35.38300 46.36000 27.33700
C  36.96000 43.32800 25.80800
C  36.10600 44.80700 28.90800
O  36.46900 43.74000 29.47800
C  35.49100 46.02200 29.68100
C  34.44000 45.58400 30.67200
O  33.24100 45.60800 30.49300
O  35.02900 45.05500 31.81600
C  34.20400 44.64400 32.98400
H  32.60500 52.03600 27.83800
H  34.14400 50.64000 21.72300
H  36.44900 44.96000 23.39000
H  33.29600 48.24000 30.65900
H  33.28300 50.98100 29.95000
H  31.17200 50.82800 30.23900
H  31.24500 49.17500 30.63000
H  30.90800 49.46500 28.96600
H  35.21700 50.42800 30.74300
H  36.02100 48.99000 30.47000
H  35.77900 49.53400 32.88600
H  35.13600 47.89900 32.47900
H  30.93000 53.83500 25.35200
H  32.52800 54.63200 25.26000
H  32.05100 53.80100 26.73100
H  32.20000 55.08200 23.09000
H  30.77700 53.98800 23.09500
H  31.60200 54.47700 21.61000
H  35.95100 49.10600 20.71000
H  35.64400 46.22100 21.20000
H  33.36300 47.64600 20.89600
H  34.43900 47.43500 19.49500
H  33.70400 49.01600 19.94100
H  38.01100 45.95800 21.12900
H  38.13300 47.05700 22.48800
H  37.79500 48.26100 19.77600
H  39.27700 47.34500 20.09900
H  38.87600 48.79200 21.01000
H  36.31500 42.60200 25.31300
H  37.53100 42.89400 26.62900
H  37.73400 43.52000 25.06600
H  36.41700 46.32600 30.16800
H  33.65500 43.73000 32.75800
H  33.70100 45.55200 33.31600
H  34.89000 44.32700 33.77000

