158

Mg 3.29900 -1.69200 43.70300
C  6.48700 -0.16700 43.35100
C  1.96600 1.27800 42.51800
C  0.34200 -3.12200 43.64200
C  4.79000 -4.50300 44.98600
N  4.19400 0.24900 42.82300
C  5.47700 0.70800 42.87900
C  5.57200 2.16000 42.38900
C  4.09400 2.56600 42.26400
C  3.37600 1.25300 42.54300
C  3.61100 3.56300 43.28000
C  6.37500 2.34400 41.07000
C  5.82900 1.62300 39.79600
H  6.58400 2.01000 38.51000
N  1.40500 -1.03500 42.99000
C  1.06900 0.21500 42.52800
C  -0.34300 0.19600 42.13600
C  -0.86100 -0.95900 42.69500
C  0.27800 -1.76500 43.18400
C  -1.06200 1.36000 41.38300
C  -2.41200 -1.25100 42.63200
O  -3.33100 -0.50200 42.18900
C  -2.91000 -2.66400 43.12200
N  2.64600 -3.51400 44.29600
C  1.38100 -3.92500 44.05400
C  1.17900 -5.43400 44.45600
C  2.64800 -5.89700 44.76700
C  3.41600 -4.56500 44.63300
C  0.16000 -5.58300 45.67900
C  3.18300 -7.13700 43.89400
C  2.92800 -8.57700 44.34000
N  5.13700 -2.23400 44.11800
C  5.63800 -3.42500 44.68600
C  7.01200 -3.29000 44.96400
C  7.43200 -2.07800 44.35800
C  6.27100 -1.47000 43.88800
C  7.80800 -4.30300 45.58200
C  8.56900 -1.30400 44.10300
O  9.75700 -1.47600 44.21400
C  7.99700 -0.00300 43.42400
C  8.45100 1.20200 44.26000
O  9.31300 1.95200 43.76900
O  7.88600 1.34900 45.52600
C  8.19300 2.61000 46.15700
H  1.54000 2.24200 42.23200
H  -0.51600 -3.78800 43.52300
H  5.11800 -5.44000 45.44000
H  6.03400 2.78100 43.15600
H  3.77500 2.91400 41.28200
H  4.44500 4.18900 43.59900
H  3.15300 3.02900 44.11200
H  2.87500 4.23300 42.83600
H  7.44000 2.17800 41.23100
H  6.54500 3.40200 40.86700
H  4.78300 1.87800 39.62600
H  5.88400 0.54300 39.93300
H  -2.10000 1.20900 41.08600
H  -0.46000 1.61400 40.51100
H  -1.13300 2.24000 42.02300
H  -2.51500 -2.90100 44.11000
H  -2.76900 -3.44900 42.37900
H  -3.96200 -2.54400 43.37900
H  0.77600 -6.09100 43.68500
H  2.80700 -6.27200 45.77800
H  -0.87600 -5.79000 45.40900
H  0.06500 -4.55700 46.03600
H  0.53900 -6.21100 46.48400
H  4.25100 -6.99100 43.73000
H  2.70700 -7.01500 42.92000
H  2.42600 -9.22700 43.62300
H  2.28500 -8.56100 45.22000
H  3.80400 -9.13400 44.67400
H  7.74900 -4.01000 46.63000
H  8.73700 -4.30700 45.01200
H  7.29300 -5.26400 45.58100
H  8.50000 0.18600 42.47600
H  8.08900 2.53900 47.23900
H  7.57600 3.34900 45.64700
H  9.18200 3.04900 46.02600
Mg 6.46400 56.90800 42.14500
C  5.50700 53.46400 42.57800
C  9.34100 55.64500 40.80000
C  7.08100 59.86000 41.22200
C  3.10600 57.64300 43.03300
N  7.29200 54.73300 41.50800
C  6.73100 53.50800 41.82900
C  7.62800 52.38400 41.30000
C  8.99500 53.16300 41.19800
C  8.54200 54.61800 41.24700
C  10.13800 52.83200 42.20300
C  7.19700 51.97500 39.89900
C  7.73000 50.60300 39.46300
H  6.97100 49.82100 38.43300
N  8.12900 57.71300 41.41900
C  9.17400 57.04400 40.89700
C  10.16000 58.03800 40.47700
C  9.54700 59.34200 40.54000
C  8.17700 59.04300 41.11700
C  11.62800 57.69000 40.07600
C  10.15300 60.65400 40.07400
O  11.21600 60.66600 39.48100
C  9.41200 61.90300 40.36500
N  5.25000 58.53600 42.10600
C  5.76700 59.67000 41.69200
C  4.66800 60.78100 41.76800
C  3.41000 60.06800 42.43000
C  3.89800 58.65900 42.49700
C  5.21200 62.16300 42.26800
C  2.11500 60.35000 41.66900
C  0.93500 60.78500 42.55300
N  4.64800 55.84900 42.71400
C  3.43500 56.35800 43.20500
C  2.66500 55.23100 43.75400
C  3.48800 54.05600 43.56500
C  4.61900 54.50100 42.89900
C  1.24200 55.30900 44.33300
C  3.62100 52.63700 43.85100
O  2.90600 51.81300 44.45200
C  4.93200 52.23700 43.18200
C  4.69800 51.23000 42.17700
O  4.21000 51.47300 41.08900
O  5.15100 50.00900 42.67000
C  5.02700 48.83600 41.82400
H  10.25000 55.26100 40.33200
H  7.21400 60.87100 40.83200
H  2.17000 57.93400 43.51400
H  7.65700 51.55300 42.00400
H  9.42900 53.12900 40.19800
H  9.98900 51.81800 42.57500
H  10.14300 53.51700 43.05100
H  11.07400 52.95900 41.66000
H  7.66900 52.65000 39.18500
H  6.11600 52.01000 39.76400
H  7.76800 49.96300 40.34500
H  8.76600 50.73600 39.15200
H  12.24900 58.44000 40.56600
H  11.85200 57.83000 39.01900
H  11.91900 56.66300 40.29700
H  9.10600 61.95600 41.41000
H  8.59000 62.02300 39.65900
H  10.17900 62.63500 40.11300
H  4.49500 60.93900 40.70300
H  3.45400 60.55900 43.40200
H  6.13000 62.00800 42.83500
H  4.54800 62.68900 42.95400
H  5.33100 62.76200 41.36400
H  1.86600 59.47700 41.06600
H  2.34500 61.13300 40.94600
H  1.07500 60.54400 43.60700
H  0.01400 60.26100 42.29700
H  0.94200 61.87500 42.55300
H  0.97300 56.31900 44.64200
H  1.31500 54.72300 45.24900
H  0.48200 54.89100 43.67300
H  5.65800 51.78700 43.85900
H  4.11600 48.76000 41.23000
H  5.09100 47.93300 42.43100
H  5.86100 48.72200 41.13300

