158

Mg 24.91000 -5.83700 46.73800
C  27.08500 -3.61200 45.13400
C  22.37000 -4.51600 44.79700
C  23.05000 -8.48600 47.51200
C  27.65900 -7.27000 48.30800
N  24.74700 -4.22200 45.42200
C  25.74300 -3.49700 44.88900
C  25.23000 -2.42300 43.84000
C  23.63900 -2.50100 44.05900
C  23.57400 -3.80000 44.83000
C  23.02600 -1.35000 44.81300
C  25.74200 -2.59200 42.31800
C  26.41000 -1.40500 41.69800
H  25.99900 -0.92800 40.29800
N  22.87800 -6.39900 46.25400
C  22.05200 -5.69500 45.45100
C  20.78600 -6.39700 45.42300
C  20.90100 -7.64700 46.20800
C  22.31200 -7.56400 46.65400
C  19.59700 -5.97900 44.60000
C  19.80600 -8.64700 46.49300
O  18.67700 -8.48500 46.02600
C  20.06600 -9.84500 47.27300
N  25.30600 -7.72500 47.70100
C  24.32200 -8.58500 47.99700
C  24.88100 -9.74400 48.82300
C  26.27600 -9.31900 49.31100
C  26.46300 -8.05800 48.37400
C  23.85200 -10.11200 50.01600
C  27.36500 -10.38700 49.14000
C  27.87300 -10.66400 47.74000
N  27.04800 -5.51200 46.78900
C  28.02100 -6.18100 47.51900
C  29.33600 -5.54100 47.23000
C  29.01800 -4.48400 46.35000
C  27.63800 -4.60100 46.03900
C  30.63400 -6.06600 47.74400
C  29.52600 -3.42600 45.52500
O  30.68600 -3.04300 45.27000
C  28.29000 -2.75700 44.71700
C  28.24700 -1.29500 45.09600
O  27.88300 -0.84200 46.17900
O  28.71000 -0.58000 44.03700
C  28.93800 0.87700 44.25900
H  21.60300 -4.16400 44.10400
H  22.39400 -9.32100 47.76500
H  28.47000 -7.73400 48.87400
H  25.63700 -1.48400 44.21300
H  23.05200 -2.66300 43.15500
H  23.66200 -0.85000 45.54400
H  22.13900 -1.76200 45.29300
H  22.76400 -0.63600 44.03200
H  24.91500 -2.80200 41.64000
H  26.34200 -3.48600 42.14800
H  27.49100 -1.54400 41.66800
H  26.28000 -0.54800 42.35900
H  19.39300 -6.79000 43.90100
H  19.78400 -5.07600 44.01800
H  18.70000 -5.87800 45.21100
H  19.15200 -10.43700 47.32000
H  20.28500 -9.38400 48.23600
H  20.91100 -10.47200 46.98800
H  24.94300 -10.55700 48.10000
H  26.29200 -8.94700 50.33500
H  23.14600 -9.29600 50.16800
H  24.40100 -10.23600 50.94900
H  23.20900 -10.96400 49.79400
H  26.95400 -11.33300 49.49300
H  28.16500 -10.11800 49.82900
H  28.74300 -10.02000 47.60700
H  27.14400 -10.37100 46.98500
H  28.08500 -11.73000 47.66300
H  30.87300 -6.99700 47.22900
H  30.54700 -6.25400 48.81400
H  31.41500 -5.34400 47.50700
H  28.46800 -2.76800 43.64100
H  29.00300 1.04200 45.33500
H  28.02200 1.27700 43.82400
H  29.80900 1.26600 43.73200
Mg 25.64700 1.82200 29.94400
C  27.81100 1.63800 32.84800
C  23.06200 2.16200 32.14300
C  23.72600 1.64100 27.37100
C  28.49700 1.38700 28.03200
N  25.48800 1.88700 32.22700
C  26.49200 1.93500 33.14800
C  25.94400 2.26300 34.58300
C  24.39800 2.23200 34.41300
C  24.30200 2.13200 32.84800
C  23.54200 1.20900 35.19000
C  26.55800 3.62600 35.17100
C  27.20100 3.46600 36.59300
H  26.64300 4.38300 37.64900
N  23.64400 1.88900 29.72900
C  22.71000 2.00300 30.76700
C  21.39500 1.95300 30.23600
C  21.52500 1.76000 28.81400
C  23.00300 1.73700 28.55700
C  20.17300 2.24000 31.09800
C  20.42500 1.54200 27.74700
O  20.88500 1.22400 26.65000
C  18.89300 1.61000 27.95400
N  26.03100 1.47000 27.98700
C  25.05900 1.51700 27.07000
C  25.60800 1.45800 25.68800
C  27.17600 1.45600 25.86400
C  27.25600 1.42600 27.34300
C  25.05100 0.33600 24.80200
C  27.91300 2.68300 25.17900
C  27.46400 2.92900 23.76300
N  27.80000 1.51200 30.29800
C  28.81000 1.28200 29.42400
C  30.08900 1.01100 30.13000
C  29.71000 1.23700 31.50400
C  28.36100 1.48300 31.56500
C  31.36200 0.59400 29.45400
C  30.26600 1.28800 32.76200
O  31.41400 1.01800 33.12700
C  29.12700 1.50900 33.71600
C  29.06600 0.36200 34.64700
O  28.25300 -0.54000 34.49200
O  29.86700 0.53900 35.77000
C  29.52300 -0.34500 36.92800
H  22.31000 2.48300 32.86700
H  23.12500 1.71000 26.46200
H  29.33800 1.38800 27.33500
H  26.31300 1.43800 35.19200
H  23.98900 3.22800 34.58400
H  23.28100 0.40900 34.49700
H  22.70200 1.66100 35.71600
H  23.98200 0.71900 36.05800
H  25.80000 4.40700 35.23500
H  27.29600 4.07100 34.50500
H  28.26100 3.67200 36.74000
H  26.88100 2.48800 36.95500
H  19.82900 1.45000 31.76600
H  19.41100 2.41000 30.33800
H  20.15800 3.15700 31.68700
H  18.35800 1.17000 27.11200
H  18.69400 2.67900 28.03000
H  18.53900 1.15100 28.87800
H  25.20900 2.35800 25.22000
H  27.53900 0.52900 25.41900
H  24.38800 -0.34100 25.34000
H  25.77800 -0.40100 24.46300
H  24.46200 0.76100 23.98800
H  28.99600 2.58100 25.10900
H  27.62300 3.48800 25.85500
H  26.89600 2.12300 23.29900
H  28.24500 3.12000 23.02800
H  26.76100 3.76000 23.82200
H  32.09100 1.39600 29.56400
H  31.11900 0.46600 28.39900
H  31.65500 -0.34100 29.93300
H  29.29800 2.39700 34.32500
H  28.67000 0.10500 37.43600
H  30.34600 -0.32600 37.64300
H  29.30500 -1.35300 36.57700

