158

Mg 41.12800 41.85700 26.98600
C  40.12700 44.17900 29.64000
C  41.31000 39.41000 29.48700
C  42.36200 39.82100 24.75900
C  40.70600 44.36300 24.68300
N  40.96700 41.85000 29.29200
C  40.42100 42.87500 30.17300
C  40.33700 42.44400 31.65300
C  40.94600 40.93000 31.52100
C  41.11600 40.67200 30.01100
C  42.22400 40.71400 32.30800
C  38.87900 42.58800 32.18500
C  38.60800 41.92700 33.50300
H  37.80600 42.65600 34.55800
N  41.79000 39.86100 27.08100
C  41.78200 39.01000 28.19200
C  42.26600 37.68700 27.80200
C  42.58400 37.77600 26.38500
C  42.25600 39.19200 25.97700
C  42.31400 36.43000 28.74600
C  43.16500 36.78400 25.44300
O  43.35700 36.97800 24.25000
C  43.44600 35.41200 25.89800
N  41.39000 42.02100 25.04500
C  42.03300 41.09600 24.33000
C  42.18900 41.49200 22.84300
C  41.28100 42.70200 22.76900
C  41.15000 43.12300 24.28400
C  43.62900 41.80100 22.45000
C  39.92300 42.66800 22.11700
C  38.93300 41.74000 22.78800
N  40.64100 43.87900 27.09600
C  40.41100 44.75400 26.01900
C  40.01000 46.03800 26.53900
C  39.83600 45.76900 27.92100
C  40.24100 44.45600 28.22800
C  39.64600 47.28300 25.78400
C  39.34100 46.43200 29.16700
O  38.79000 47.54000 29.34100
C  39.55800 45.41800 30.28800
C  40.41800 46.03500 31.39300
O  41.61900 46.43600 31.36700
O  39.69400 45.95900 32.54600
C  40.38200 46.43100 33.76900
H  41.17000 38.61400 30.22000
H  42.83200 39.17800 24.01200
H  40.57600 45.21400 24.01100
H  40.93200 43.17900 32.19500
H  40.17200 40.21500 31.80000
H  42.06000 39.90200 33.01700
H  42.40500 41.63800 32.85600
H  43.16100 40.69100 31.75200
H  38.23700 42.28000 31.35900
H  38.65800 43.64900 32.30200
H  39.47300 41.65400 34.10700
H  37.99100 41.04400 33.33900
H  41.63300 35.71400 28.28500
H  41.97100 36.63500 29.76000
H  43.34800 36.08500 28.73700
H  43.92500 35.36100 26.87600
H  44.12500 35.02700 25.13800
H  42.45600 34.98600 26.05800
H  41.84700 40.64300 22.25100
H  41.73700 43.52300 22.21500
H  43.81400 41.38100 21.46200
H  44.33400 41.35700 23.15200
H  43.75500 42.87300 22.29400
H  40.06700 42.45700 21.05700
H  39.41200 43.62400 22.23000
H  38.39800 41.12300 22.06700
H  38.14200 42.27600 23.31300
H  39.38000 41.04100 23.49500
H  38.67000 47.63800 26.11400
H  39.60000 47.28100 24.69500
H  40.39300 48.03500 26.03900
H  38.59300 45.21900 30.75500
H  40.75500 45.57700 34.33400
H  39.56300 47.00000 34.20900
H  41.15300 47.17200 33.55400
Mg -0.18700 43.41100 24.93300
C  1.60700 43.07600 28.07200
C  -2.89800 42.36800 26.64400
C  -1.73200 43.65500 22.14800
C  2.88800 44.15900 23.34500
N  -0.58100 42.80100 27.23000
C  0.26100 42.84200 28.27700
C  -0.50600 42.58400 29.58800
C  -1.80900 41.92300 28.93700
C  -1.80000 42.43200 27.55700
C  -2.07500 40.44900 29.19300
C  -0.70200 43.92400 30.31800
C  -0.86900 43.75600 31.85700
H  -0.56100 42.38900 32.62600
N  -2.11500 43.10200 24.42900
C  -3.10300 42.58200 25.24300
C  -4.30800 42.41600 24.43600
C  -4.00300 42.86400 23.12700
C  -2.55900 43.22400 23.20800
C  -5.57100 41.87400 24.94000
C  -4.95600 43.00700 21.82800
O  -4.58400 43.57000 20.83500
C  -6.46400 42.70700 21.90000
N  0.55900 43.58500 22.97300
C  -0.33400 43.81600 22.01400
C  0.26300 44.22400 20.69400
C  1.62800 44.75300 21.19800
C  1.73900 43.97100 22.55200
C  0.44200 43.02300 19.65300
C  1.76200 46.32800 21.33100
C  0.94100 47.25900 20.39200
N  1.83500 43.48300 25.49800
C  2.95000 43.84600 24.81700
C  4.05200 43.97800 25.65800
C  3.57000 43.63900 26.89000
C  2.22100 43.36000 26.79400
C  5.44000 44.46500 25.25100
C  4.00800 43.52200 28.28900
O  5.10800 43.51800 28.82100
C  2.67500 43.22200 29.10400
C  2.92200 42.05100 29.92700
O  2.92900 40.87200 29.55900
O  3.40200 42.49600 31.10700
C  4.04200 41.44600 31.87900
H  -3.71800 41.86000 27.15600
H  -2.28400 43.68900 21.20700
H  3.79200 44.48700 22.82800
H  -0.02300 41.81500 30.19100
H  -2.65500 42.40200 29.42800
H  -2.95800 40.29300 29.81200
H  -1.21600 39.99100 29.68300
H  -2.18500 39.85300 28.28700
H  -1.65600 44.33500 29.98700
H  0.05400 44.67300 30.08300
H  -1.83500 44.12700 32.20100
H  -0.27300 44.58700 32.23400
H  -5.66200 41.99700 26.01900
H  -5.55700 40.82000 24.66200
H  -6.45800 42.34700 24.51800
H  -7.01900 43.39100 22.54200
H  -6.51800 41.64400 22.13600
H  -6.89500 42.73900 20.89900
H  -0.45600 44.95300 20.32100
H  2.46400 44.44400 20.57100
H  0.05400 43.47000 18.73800
H  -0.13700 42.13000 19.89100
H  1.46800 42.71200 19.46000
H  2.81700 46.59200 21.27300
H  1.31000 46.48200 22.31100
H  -0.04700 47.44600 20.81200
H  0.97500 46.73900 19.43400
H  1.44300 48.20900 20.21200
H  5.25700 45.13800 24.41300
H  6.07800 43.67100 24.86400
H  5.88500 44.97700 26.10400
H  2.48900 44.10200 29.72100
H  4.45500 41.79500 32.82500
H  4.72400 40.78900 31.33900
H  3.30000 40.72800 32.23000

