158

Mg 25.33100 -1.11800 28.76100
C  27.39700 -1.51300 31.55000
C  22.63600 -1.08600 30.72500
C  23.55500 -0.77900 25.92900
C  28.16000 -1.82200 26.75900
N  25.09200 -1.42700 30.89200
C  26.03100 -1.36000 31.87100
C  25.37400 -1.20100 33.29100
C  23.81100 -1.06700 32.98300
C  23.84300 -1.28500 31.40100
C  22.78700 -2.12100 33.59900
C  25.86800 0.12500 34.01300
C  26.14000 -0.03900 35.46400
H  25.86800 1.18500 36.36600
N  23.36800 -0.83500 28.37700
C  22.40500 -0.83500 29.34400
C  21.15000 -0.39400 28.74900
C  21.42000 -0.44300 27.33500
C  22.83000 -0.69300 27.09900
C  19.89900 -0.05300 29.43100
C  20.45000 -0.20000 26.23100
O  20.83700 -0.04100 25.06100
C  19.05200 -0.27200 26.46200
N  25.79600 -1.51000 26.57300
C  24.88600 -1.12900 25.67700
C  25.50800 -1.11300 24.21100
C  27.01600 -1.43500 24.48300
C  27.01600 -1.66400 26.02000
C  24.94900 -2.07300 23.15000
C  27.93200 -0.22600 24.05600
C  27.90400 1.04200 24.85900
N  27.41800 -1.62100 29.02800
C  28.40300 -1.88800 28.15100
C  29.59700 -2.15400 28.90600
C  29.22300 -1.94700 30.22200
C  27.93900 -1.74600 30.25900
C  30.89200 -2.50300 28.23200
C  29.76800 -1.93700 31.55100
O  30.88600 -2.04600 31.95800
C  28.57700 -1.54200 32.45000
C  28.30600 -2.62000 33.48000
O  27.82400 -3.72400 33.27700
O  28.64300 -2.12500 34.75000
C  28.15500 -3.02900 35.79400
H  21.75100 -0.81600 31.30600
H  23.10900 -0.59800 24.94800
H  29.02500 -1.95200 26.10600
H  25.57600 -2.00600 33.99800
H  23.47700 -0.04100 33.13400
H  23.02100 -2.30500 34.64800
H  22.83600 -3.08600 33.09500
H  21.86300 -1.60000 33.84900
H  25.19800 0.94600 33.75900
H  26.80900 0.38700 33.53000
H  27.22000 -0.10800 35.60000
H  25.59600 -0.92900 35.78100
H  19.44500 0.83300 28.98700
H  20.08100 0.02400 30.50300
H  19.18200 -0.87000 29.34600
H  18.55800 -0.39900 25.49900
H  18.80800 0.73800 26.79200
H  18.71700 -1.05400 27.14500
H  25.37000 -0.15000 23.72000
H  27.44400 -2.25800 23.91100
H  25.55300 -2.98000 23.16400
H  25.10500 -1.63800 22.16300
H  23.87000 -2.16500 23.27300
H  27.73200 -0.05800 22.99800
H  28.97200 -0.54600 24.10900
H  27.37000 0.84300 25.78900
H  27.46300 1.93400 24.41300
H  28.91000 1.40600 25.06900
H  30.90300 -3.57100 28.01500
H  31.77700 -2.32800 28.84400
H  31.17400 -2.07700 27.27000
H  28.82200 -0.64100 33.01200
H  27.06700 -2.96400 35.77200
H  28.46900 -2.66200 36.77100
H  28.36700 -4.09200 35.68000
Mg 53.65800 23.74600 45.56800
C  50.80700 25.70900 44.77500
C  51.88900 21.04000 44.68600
C  56.62300 22.11100 45.63400
C  55.29000 26.65400 46.47100
N  51.58300 23.45700 44.57900
C  50.58700 24.35300 44.49800
C  49.25200 23.70000 44.21900
C  49.50800 22.15400 44.45900
C  51.09700 22.16600 44.65800
C  48.63000 21.70500 45.66600
C  48.74300 23.88000 42.76800
C  49.65900 23.51700 41.60300
H  49.45000 24.22700 40.24200
N  54.15300 21.86000 45.20800
C  53.28800 20.90800 44.92300
C  54.00500 19.66100 44.87400
C  55.43700 19.93600 44.85800
C  55.50900 21.34400 45.21800
C  53.28200 18.31300 44.73000
C  56.55600 18.87200 44.63900
O  56.27700 17.70600 44.44200
C  58.04900 19.31100 44.59900
N  55.73000 24.36800 45.91000
C  56.73800 23.44800 45.96400
C  58.04600 24.12000 46.42000
C  57.63100 25.54800 46.72000
C  56.08100 25.55300 46.34800
C  58.67900 23.35600 47.64600
C  58.68000 26.55400 46.11300
C  58.38000 27.14400 44.79300
N  53.24800 25.75300 45.64500
C  53.98300 26.80400 46.04400
C  53.15800 27.97800 46.27600
C  51.90000 27.56000 45.70400
C  52.03300 26.24700 45.29300
C  53.44900 29.19100 46.90900
C  50.54100 28.02200 45.48800
O  50.02500 29.08300 45.66600
C  49.79100 26.79000 44.80400
C  49.32400 27.27400 43.40200
O  50.03400 27.64400 42.46900
O  47.97100 27.45500 43.49700
C  47.27700 28.13200 42.40000
H  51.31700 20.15000 44.41700
H  57.55200 21.60900 45.91000
H  55.77600 27.53300 46.89900
H  48.45800 24.14700 44.81600
H  49.29800 21.58500 43.55300
H  49.19800 20.87900 46.09300
H  47.58600 21.48100 45.44500
H  48.69900 22.63200 46.23500
H  48.22300 24.81300 42.55200
H  47.96600 23.11600 42.73000
H  49.40000 22.48100 41.38000
H  50.71300 23.54100 41.88000
H  54.11200 17.63300 44.91800
H  52.92200 18.16200 43.71300
H  52.48800 18.23400 45.47300
H  58.18600 20.13400 43.89800
H  58.59800 18.45800 44.20000
H  58.44300 19.36300 45.61400
H  58.72900 24.14300 45.57200
H  57.69600 25.55300 47.80800
H  57.86000 22.73000 47.99900
H  59.01100 23.92300 48.51500
H  59.52000 22.78200 47.25700
H  59.69300 26.19800 46.30000
H  58.59400 27.41800 46.77100
H  57.92900 28.12100 44.96300
H  57.54800 26.62100 44.31900
H  59.31100 27.18200 44.22900
H  52.53700 29.76800 47.06100
H  54.18400 29.75600 46.33500
H  53.91600 28.98600 47.87200
H  48.84200 26.59600 45.30600
H  46.40200 28.51500 42.92500
H  46.93100 27.57700 41.52800
H  47.86400 28.99600 42.08600

