158

Mg 24.70100 -7.14900 47.32400
C  27.34900 -5.26100 46.29500
C  22.95700 -6.18200 44.66000
C  22.67900 -9.84300 47.75900
C  27.05600 -8.89200 49.50600
N  25.20100 -5.96000 45.66500
C  26.28300 -5.17100 45.41100
C  26.09300 -4.30800 44.18200
C  24.67800 -4.66900 43.69400
C  24.20700 -5.60400 44.78100
C  23.71700 -3.51000 43.39700
C  27.23500 -4.41200 43.09800
C  27.87200 -3.11400 42.61100
H  27.81600 -2.71200 41.19800
N  22.89200 -7.71000 46.59300
C  22.32300 -7.16600 45.44700
C  21.03500 -7.80300 45.20000
C  20.88500 -8.75900 46.24200
C  22.15800 -8.83500 46.96600
C  20.08300 -7.22800 44.11800
C  19.65800 -9.57600 46.44300
O  18.69900 -9.46500 45.75000
C  19.60400 -10.51600 47.56200
N  24.81900 -9.09100 48.47000
C  23.81000 -9.92600 48.46500
C  24.03700 -11.12400 49.38300
C  25.34000 -10.70500 50.10900
C  25.83400 -9.60800 49.19400
C  22.92800 -11.48900 50.36200
C  26.39600 -11.80900 50.24900
C  26.72700 -12.26100 51.65900
N  26.71900 -7.01600 47.98600
C  27.55400 -7.69600 48.83600
C  28.82000 -7.07400 48.91200
C  28.77000 -6.02700 47.98900
C  27.47800 -6.05800 47.41200
C  30.08200 -7.50000 49.66900
C  29.54600 -4.94900 47.38100
O  30.69200 -4.54800 47.57800
C  28.54600 -4.38200 46.31500
C  28.25100 -2.98700 46.76200
O  28.12000 -2.51700 47.92600
O  28.16500 -2.21400 45.64000
C  27.86700 -0.80400 45.86700
H  22.28200 -5.87000 43.86000
H  22.03800 -10.72500 47.69800
H  27.72500 -9.36500 50.22700
H  26.10600 -3.27300 44.52500
H  24.69500 -5.28100 42.79200
H  23.22600 -3.61600 42.43000
H  24.24600 -2.56100 43.31100
H  22.94800 -3.53300 44.16900
H  26.81600 -4.83600 42.18500
H  27.86600 -5.20700 43.49400
H  28.93100 -3.09500 42.87200
H  27.30000 -2.29300 43.04300
H  19.14700 -7.78600 44.07600
H  20.57500 -7.21500 43.14600
H  19.75600 -6.21800 44.36600
H  20.03500 -9.95000 48.38800
H  20.10100 -11.47000 47.38600
H  18.57500 -10.61700 47.90400
H  24.20300 -11.92900 48.66700
H  24.96600 -10.25400 51.02800
H  22.45300 -10.53900 50.61000
H  23.24700 -12.08000 51.22100
H  22.21700 -12.06000 49.76500
H  27.28100 -11.48800 49.69900
H  25.93700 -12.70800 49.83600
H  26.07900 -11.78800 52.39700
H  27.78800 -12.02100 51.72700
H  26.62900 -13.34600 51.63700
H  30.04100 -8.23300 50.47500
H  30.38200 -6.65400 50.28700
H  30.89600 -7.66500 48.96400
H  29.04400 -4.29000 45.35000
H  28.41000 -0.44700 46.74100
H  26.80800 -0.62500 46.05700
H  28.20800 -0.21900 45.01200
Mg 26.19200 -0.27600 29.11600
C  27.85800 -0.65100 32.08100
C  23.17700 0.16600 30.83700
C  24.54100 -0.27900 26.14100
C  29.22600 -0.87600 27.34800
N  25.53100 -0.50300 31.18200
C  26.44900 -0.41200 32.21900
C  25.63200 -0.08100 33.57200
C  24.12900 0.19700 33.04500
C  24.27100 -0.08600 31.56700
C  23.04400 -0.72700 33.81700
C  26.15100 1.04500 34.54000
C  26.46800 0.47200 35.94800
H  27.30100 1.39900 36.82600
N  24.16500 -0.03100 28.60100
C  23.06700 0.16300 29.43900
C  21.84800 0.37200 28.63100
C  22.24600 0.27200 27.22200
C  23.70100 -0.00900 27.27500
C  20.48000 0.55300 29.28100
C  21.45600 0.33300 25.92700
O  21.90300 0.24900 24.79800
C  19.98100 0.49900 26.11200
N  26.81500 -0.49100 27.08900
C  25.95000 -0.52300 26.04100
C  26.60500 -0.90100 24.72200
C  28.10800 -0.66600 25.01800
C  28.07900 -0.66900 26.62500
C  26.22300 -2.34900 24.37300
C  28.74500 0.72400 24.61800
C  29.12300 0.86900 23.06500
N  28.08700 -0.70700 29.60700
C  29.21800 -0.92000 28.78500
C  30.31700 -1.22400 29.67300
C  29.89500 -1.06200 30.96500
C  28.51200 -0.83900 30.84600
C  31.71000 -1.52300 29.28900
C  30.24100 -0.97700 32.34000
O  31.33500 -1.00900 32.96700
C  28.95000 -0.70600 33.13300
C  28.72300 -1.93200 34.05700
O  28.43200 -3.08400 33.77000
O  29.10400 -1.55700 35.33500
C  29.14100 -2.70400 36.30700
H  22.36800 0.49800 31.49100
H  24.09400 -0.38700 25.15100
H  30.14300 -1.04400 26.78000
H  25.68200 -1.04500 34.07900
H  23.90400 1.26100 33.11700
H  22.47400 -1.37700 33.15200
H  22.30600 -0.19100 34.41400
H  23.64500 -1.37900 34.45100
H  25.46200 1.88900 34.57200
H  27.14500 1.29800 34.17200
H  26.88900 -0.52600 35.82500
H  25.47500 0.35700 36.38200
H  20.07900 1.54000 29.05400
H  20.65000 0.54900 30.35700
H  19.83000 -0.27800 29.00600
H  19.51000 0.58100 25.13200
H  19.84100 1.40100 26.70800
H  19.57400 -0.42600 26.52000
H  26.22200 -0.36700 23.85200
H  28.73400 -1.49800 24.69400
H  25.28600 -2.62200 24.85800
H  26.98500 -3.04800 24.71800
H  26.00100 -2.53400 23.32200
H  29.69900 0.99000 25.07400
H  27.99400 1.47600 24.86200
H  28.45900 1.55300 22.53700
H  28.92100 -0.08500 22.57900
H  30.13700 1.22300 22.87900
H  31.91200 -1.22100 28.26100
H  31.89300 -2.59700 29.27600
H  32.44300 -1.13700 29.99700
H  29.06900 0.17600 33.76200
H  28.37300 -2.58000 37.07100
H  30.11500 -2.83400 36.78000
H  28.99000 -3.69600 35.88100

