158

Mg 1.29900 8.31200 25.52700
C  2.18200 10.17300 28.28100
C  1.04800 5.45700 27.59600
C  0.53700 6.39500 22.85200
C  1.71000 11.09000 23.58500
N  1.74300 7.88400 27.68200
C  1.84600 8.89500 28.67600
C  1.75700 8.25000 30.07500
C  1.78800 6.71100 29.76500
C  1.46900 6.64000 28.25400
C  3.15900 6.05500 30.22200
C  0.49400 8.71300 30.72100
C  0.46900 8.65800 32.28900
H  1.53500 7.97400 33.04900
N  0.76800 6.22400 25.26800
C  0.73500 5.22800 26.28200
C  0.19200 4.00300 25.71300
C  0.05000 4.23200 24.30000
C  0.40800 5.68400 24.07600
C  0.12200 2.71900 26.63100
C  -0.25800 3.22100 23.16900
O  -0.35500 3.53800 21.98900
C  -0.67200 1.86900 23.54000
N  1.14900 8.65100 23.57600
C  0.83200 7.73500 22.65600
C  0.69400 8.32500 21.27800
C  0.70800 9.86000 21.55600
C  1.18400 9.90700 23.00100
C  1.79200 7.81900 20.20800
C  -0.65700 10.66800 21.48900
C  -0.64700 11.94300 20.62000
N  1.81000 10.30100 25.77100
C  2.00600 11.33300 24.89200
C  2.52800 12.49500 25.50200
C  2.47200 12.19200 26.90300
C  2.17800 10.75300 26.91900
C  2.94500 13.79000 24.90600
C  2.82300 12.62200 28.24400
O  3.24600 13.64500 28.70000
C  2.47500 11.40200 29.17800
C  3.61400 11.26000 30.13100
O  4.74100 10.82200 29.89100
O  3.26900 11.90100 31.35600
C  4.30700 11.93200 32.43500
H  0.89500 4.64400 28.30800
H  0.19500 5.97700 21.90300
H  1.70100 11.99900 22.98100
H  2.62500 8.66500 30.58700
H  1.02200 6.18800 30.33700
H  3.65200 6.56000 31.05300
H  3.77400 5.99200 29.32400
H  2.91200 5.06600 30.60600
H  -0.31400 8.11600 30.29900
H  0.23300 9.72200 30.40100
H  -0.42100 8.08400 32.54900
H  0.26300 9.70000 32.53700
H  0.99100 2.52700 27.26000
H  -0.05300 1.85400 25.99100
H  -0.74300 2.91700 27.26400
H  -0.93400 1.37200 22.60600
H  -1.54700 1.94200 24.18600
H  0.18300 1.40800 24.03500
H  -0.25300 8.01300 20.83900
H  1.43100 10.28100 20.85800
H  2.18500 6.81500 20.36600
H  2.63500 8.48600 20.02700
H  1.33000 7.69300 19.22900
H  -1.00100 11.00200 22.46800
H  -1.36000 9.88200 21.21500
H  -1.62200 12.05600 20.14500
H  0.18400 12.08300 19.92800
H  -0.67700 12.72400 21.37900
H  3.72700 14.23600 25.52000
H  2.18500 14.56800 24.83100
H  3.25300 13.55800 23.88700
H  1.60000 11.65600 29.77500
H  3.90100 11.45600 33.32800
H  4.49400 12.96000 32.74500
H  5.31400 11.53600 32.30400
Mg -11.83900 37.84800 42.03400
C  -9.57800 35.51900 41.05100
C  -9.94800 40.27600 40.55100
C  -14.36300 39.96000 42.60500
C  -14.09900 35.22700 42.79000
N  -10.10400 37.83300 40.75500
C  -9.26800 36.79200 40.55400
C  -7.88800 37.19000 39.94900
C  -7.98200 38.74500 40.05600
C  -9.47500 38.97900 40.50700
C  -6.90600 39.35900 40.95700
C  -7.79000 36.57900 38.50700
C  -6.53800 35.80500 38.04800
H  -5.62000 36.44100 36.94600
N  -12.09400 39.87200 41.74400
C  -11.21200 40.66400 41.09100
C  -11.72800 42.03000 41.21300
C  -12.94700 42.02200 41.82800
C  -13.21400 40.61100 42.07100
C  -10.87100 43.15000 40.88800
C  -13.84800 43.21800 42.27100
O  -13.50000 44.34900 41.99000
C  -15.12700 43.01800 43.05100
N  -13.93600 37.58300 42.47100
C  -14.72400 38.63700 42.74000
C  -16.17900 38.26000 43.14000
C  -16.12800 36.69300 43.15000
C  -14.67900 36.50500 42.68100
C  -16.59300 38.86400 44.52500
C  -17.06400 36.12500 42.09200
C  -16.78200 36.52200 40.52800
N  -11.83000 35.78500 42.00000
C  -12.76100 34.84600 42.49900
C  -12.08100 33.57900 42.64800
C  -10.86100 33.71900 41.99600
C  -10.76800 35.10600 41.69500
C  -12.71000 32.30200 43.13300
C  -9.72600 33.09000 41.37400
O  -9.53800 31.90600 41.23700
C  -8.77300 34.29400 40.90700
C  -7.57300 34.24200 41.81600
O  -7.45900 35.00300 42.74400
O  -6.74200 33.27400 41.38600
C  -5.46800 33.05900 42.21900
H  -9.16000 40.98300 40.28300
H  -15.16400 40.63900 42.90200
H  -14.87100 34.58000 43.21100
H  -7.09400 36.77900 40.57300
H  -7.83000 39.13900 39.05100
H  -6.40900 38.63400 41.60200
H  -7.40700 40.02900 41.65500
H  -6.25300 39.96100 40.32600
H  -8.02800 37.40100 37.83300
H  -8.60800 35.86100 38.45300
H  -6.77000 34.77100 37.79200
H  -5.88400 35.73400 38.91700
H  -10.87600 43.15000 39.79800
H  -9.89200 42.98600 41.33800
H  -11.16400 44.10500 41.32500
H  -15.85700 42.51900 42.41500
H  -15.63100 43.90800 43.42800
H  -14.84700 42.47900 43.95700
H  -16.88200 38.72000 42.44600
H  -16.36400 36.29700 44.13800
H  -15.85700 39.43000 45.09500
H  -16.79200 38.04000 45.21000
H  -17.46700 39.50600 44.41100
H  -18.09600 36.35100 42.36200
H  -16.91800 35.04700 42.17100
H  -16.11000 37.37600 40.44900
H  -17.73900 36.66300 40.02600
H  -16.31900 35.72800 39.94200
H  -12.56200 31.59500 42.31800
H  -13.77700 32.37400 43.34400
H  -12.03200 32.00200 43.93200
H  -8.48100 34.20700 39.86000
H  -5.55300 32.09500 42.72000
H  -5.22400 33.82200 42.95800
H  -4.63100 32.91600 41.53600

