158

Mg 24.19600 -5.01900 45.32800
C  26.42400 -2.64300 43.93600
C  21.60500 -3.68200 43.45400
C  22.33000 -7.46300 46.29200
C  27.10700 -6.28000 47.01200
N  24.13000 -3.41000 43.78500
C  25.14200 -2.58300 43.35000
C  24.65400 -1.60100 42.31600
C  23.04400 -1.73700 42.51200
C  22.84500 -2.99900 43.30600
C  22.41600 -0.50900 43.14500
C  25.10500 -1.97700 40.87500
C  25.64200 -0.80400 40.01400
H  25.36700 -1.03800 38.47900
N  22.23600 -5.42500 45.03200
C  21.35300 -4.81400 44.17600
C  20.04900 -5.47500 44.23500
C  20.24400 -6.55900 45.09800
C  21.67300 -6.52600 45.54500
C  18.86900 -4.98200 43.56700
C  19.13400 -7.67700 45.30500
O  17.97500 -7.48800 44.97600
C  19.45600 -8.95300 46.00800
N  24.64600 -6.55800 46.54500
C  23.67000 -7.46200 46.78900
C  24.22900 -8.80800 47.34100
C  25.71300 -8.34500 47.71400
C  25.82800 -7.01600 47.03500
C  23.49300 -9.43100 48.52700
C  26.82200 -9.31000 47.34600
C  27.14100 -10.31700 48.46500
N  26.31100 -4.54200 45.48700
C  27.35800 -5.13300 46.26200
C  28.60500 -4.37900 46.12400
C  28.22300 -3.32800 45.21800
C  26.87700 -3.54200 44.88000
C  29.88900 -4.64800 46.74400
C  28.69800 -2.16600 44.54300
O  29.76800 -1.55700 44.62300
C  27.56000 -1.69800 43.63400
C  27.38900 -0.20400 43.79300
O  26.67900 0.38800 44.62700
O  28.19300 0.41300 42.85800
C  28.45300 1.92600 42.95900
H  20.77100 -3.17000 42.96900
H  21.66300 -8.20200 46.74100
H  28.00100 -6.74600 47.43200
H  25.04200 -0.61300 42.56500
H  22.58300 -1.88900 41.53600
H  21.73900 -0.70200 43.97700
H  21.81400 0.10200 42.47300
H  23.28600 0.06800 43.46100
H  24.30900 -2.46900 40.31600
H  25.94100 -2.67400 40.83100
H  26.67800 -0.59000 40.27800
H  25.12200 0.10200 40.32300
H  17.98400 -5.61500 43.63400
H  19.02200 -4.47500 42.61400
H  18.67300 -4.12600 44.21200
H  18.62400 -9.64700 45.88700
H  19.69500 -8.63800 47.02400
H  20.30600 -9.43900 45.52900
H  24.20600 -9.56100 46.55300
H  25.74400 -8.07600 48.77000
H  22.72700 -8.79300 48.96800
H  24.30000 -9.73700 49.19200
H  22.92000 -10.34200 48.35600
H  27.72500 -8.80300 47.00500
H  26.44800 -9.81000 46.45300
H  28.11500 -10.80500 48.48100
H  26.37500 -11.07700 48.31000
H  26.99800 -9.81200 49.42100
H  29.86400 -4.16300 47.72000
H  30.75500 -4.24300 46.22000
H  30.03100 -5.71800 46.89600
H  27.78500 -1.88600 42.58400
H  29.38300 2.08700 42.41300
H  28.55900 2.26600 43.98900
H  27.64900 2.48000 42.47500
Mg 40.24600 10.33500 29.47800
C  42.22700 11.31300 32.03000
C  37.97800 9.10600 31.93200
C  38.20800 9.40300 26.98600
C  42.62300 11.26500 27.08400
N  40.21500 10.04300 31.77200
C  41.00200 10.86800 32.53800
C  40.58500 10.89300 34.01800
C  39.28600 10.00400 33.91700
C  39.14500 9.71600 32.43400
C  39.36200 8.74400 34.84700
C  40.34900 12.31900 34.56400
C  39.87000 12.29800 36.05600
H  40.52600 13.20900 37.04300
N  38.38000 9.40600 29.45600
C  37.65200 8.87700 30.53100
C  36.46500 8.30900 30.12300
C  36.44400 8.40000 28.69100
C  37.69000 9.06700 28.28600
C  35.42200 7.73800 31.08100
C  35.32100 7.91800 27.75400
O  35.40900 8.16200 26.57600
C  34.13300 7.13600 28.31400
N  40.53100 10.11700 27.27100
C  39.42500 9.79500 26.53900
C  39.71300 10.16000 24.99100
C  41.04300 10.91800 25.03900
C  41.39900 10.83400 26.55600
C  39.83600 8.92300 24.06300
C  40.99700 12.39400 24.51900
C  39.78100 13.30400 24.90300
N  42.08400 10.94200 29.47900
C  42.94600 11.26900 28.47400
C  44.20700 11.73200 29.06300
C  43.93500 11.86000 30.41200
C  42.66000 11.32600 30.69600
C  45.48500 12.14400 28.45000
C  44.47200 12.31500 31.74500
O  45.55100 12.84900 31.96300
C  43.39700 11.87400 32.79200
C  44.01800 10.97900 33.84500
O  43.99700 9.73600 33.91000
O  44.37600 11.76300 34.95200
C  44.83600 11.02800 36.12100
H  37.24400 8.76300 32.66400
H  37.50200 9.30300 26.15900
H  43.35000 11.71300 26.40300
H  41.37400 10.48800 34.65200
H  38.48100 10.70300 34.14400
H  40.40900 8.62000 35.12400
H  38.88900 7.90900 34.33000
H  38.79900 8.98600 35.74900
H  39.59000 12.74000 33.90500
H  41.24900 12.93300 34.51800
H  39.88100 11.25500 36.37300
H  38.80600 12.53500 36.05100
H  34.87100 6.88100 30.69400
H  34.75500 8.54400 31.38700
H  35.84100 7.30000 31.98700
H  33.65000 7.61800 29.16300
H  34.40000 6.10800 28.56000
H  33.34500 7.19100 27.56300
H  39.06600 10.93600 24.58200
H  41.83000 10.40800 24.48400
H  38.80900 8.84500 23.70700
H  40.16100 8.00800 24.55800
H  40.55000 9.08700 23.25700
H  41.03800 12.44700 23.43100
H  41.91700 12.88400 24.83800
H  38.89800 12.84000 25.34200
H  39.52700 13.73600 23.93500
H  40.02300 14.09200 25.61500
H  45.88500 13.00700 28.98200
H  45.43700 12.39500 27.39100
H  46.22400 11.34300 28.48000
H  43.21100 12.81200 33.31400
H  45.71000 10.40000 35.94800
H  44.08500 10.28700 36.39700
H  44.92200 11.67100 36.99700

