158

Mg 35.27000 2.53600 30.55700
C  32.68500 3.36100 32.72900
C  37.53800 2.95100 33.20200
C  37.84400 2.00200 28.35800
C  33.14400 2.48200 27.84600
N  35.12400 3.13400 32.72700
C  33.94300 3.29500 33.40000
C  34.20800 3.31100 34.94800
C  35.73800 3.74700 34.93900
C  36.16800 3.20600 33.53400
C  36.26300 5.16100 35.14700
C  33.96900 1.97100 35.65500
C  33.77400 1.94200 37.16500
H  34.60500 3.00700 37.92200
N  37.37000 2.39100 30.72800
C  38.13100 2.51700 31.94600
C  39.50100 2.26200 31.65500
C  39.50200 1.81700 30.28700
C  38.21600 2.06700 29.68800
C  40.63300 2.20200 32.66300
C  40.64000 1.27300 29.48900
O  40.48600 0.68800 28.41500
C  42.03300 1.25500 30.08000
N  35.46900 2.30500 28.42500
C  36.58100 2.02900 27.75500
C  36.40100 1.71300 26.28000
C  34.84500 1.66300 26.20100
C  34.45100 2.17900 27.57900
C  37.13100 2.72900 25.41400
C  34.17200 0.31700 25.83000
C  33.25100 0.31100 24.60500
N  33.31100 2.90100 30.25100
C  32.55000 2.90400 29.13100
C  31.21000 3.21100 29.44200
C  31.16000 3.40900 30.86000
C  32.48600 3.11900 31.27700
C  30.15700 3.32100 28.37500
C  30.35500 3.72100 32.04400
O  29.15300 3.91700 32.14600
C  31.30300 3.65800 33.30200
C  31.32000 4.84100 34.14400
O  31.52800 5.95100 33.69200
O  30.94400 4.57300 35.43400
C  30.85400 5.69400 36.43100
H  38.24300 2.99600 34.03500
H  38.62500 1.97300 27.59500
H  32.47700 2.34500 26.99200
H  33.51700 4.04000 35.37100
H  36.13600 3.07800 35.70200
H  37.05400 5.26400 35.89100
H  35.48800 5.91100 35.30400
H  36.71800 5.57800 34.24900
H  34.73700 1.24800 35.37900
H  32.99400 1.67900 35.26500
H  34.17400 0.97900 37.48300
H  32.71900 2.07100 37.40600
H  40.19400 2.72200 33.51400
H  41.44500 2.83900 32.31300
H  40.93300 1.18600 32.92000
H  42.03300 0.63300 30.97600
H  42.37900 2.27100 30.27000
H  42.70500 0.81000 29.34800
H  36.86400 0.72600 26.28100
H  34.65600 2.38100 25.40300
H  36.45600 2.81600 24.56300
H  38.15900 2.50700 25.12700
H  37.21500 3.70400 25.89400
H  33.80400 -0.06300 26.78300
H  34.95500 -0.36800 25.50700
H  33.71500 -0.26900 23.80700
H  32.82100 1.23900 24.22900
H  32.36100 -0.27400 24.83500
H  29.36700 2.60400 28.59600
H  30.48400 2.88700 27.43100
H  29.94400 4.38900 28.31400
H  31.02100 2.83000 33.95300
H  31.50400 5.50100 37.28400
H  29.88500 5.80400 36.91900
H  31.09500 6.67200 36.01400
Mg 36.13500 49.37400 26.22100
C  36.07200 47.65300 29.45300
C  35.04200 52.11200 27.92700
C  36.11700 50.75100 23.48300
C  36.88600 46.27600 24.83000
N  35.56300 49.82000 28.50700
C  35.60000 48.99900 29.57700
C  35.21900 49.76200 30.88200
C  34.87300 51.22700 30.28100
C  35.11700 51.04900 28.82600
C  33.45000 51.76000 30.52400
C  36.29300 49.74200 31.99700
C  35.89300 49.34200 33.43400
H  35.79800 50.50400 34.49200
N  35.53000 51.16400 25.69200
C  35.19400 52.18700 26.53400
C  35.06500 53.39800 25.78600
C  35.32800 53.04000 24.39900
C  35.66600 51.61900 24.47400
C  34.84500 54.77400 26.35000
C  35.40700 53.95200 23.18900
O  35.75000 53.52400 22.07900
C  34.92000 55.26700 23.25800
N  36.43800 48.60100 24.43600
C  36.38700 49.35000 23.43000
C  36.45300 48.66100 22.08100
C  36.71600 47.21600 22.52000
C  36.69100 47.36700 24.03700
C  35.18100 48.90800 21.28300
C  37.97600 46.58700 21.91100
C  37.68900 46.26000 20.35300
N  36.44500 47.34600 26.97100
C  36.80500 46.18100 26.21200
C  36.98900 45.01400 27.14600
C  36.83700 45.59500 28.44000
C  36.50500 46.99600 28.27900
C  37.35200 43.58500 26.75800
C  36.86400 45.27500 29.78900
O  37.08200 44.19900 30.40600
C  36.40200 46.60500 30.53100
C  35.21700 46.34200 31.34200
O  34.12500 45.94000 30.90600
O  35.54800 46.32000 32.67400
C  34.48000 45.79000 33.54100
H  34.60400 53.02500 28.33600
H  35.95100 51.21600 22.50900
H  36.98300 45.27400 24.40600
H  34.28900 49.28700 31.19500
H  35.59500 51.98400 30.58800
H  32.91500 51.27900 31.34300
H  32.82600 51.53900 29.65800
H  33.49100 52.81500 30.79500
H  36.61100 50.77600 32.13100
H  37.13800 49.08700 31.78700
H  36.74200 48.77300 33.81200
H  34.97300 48.75700 33.42900
H  34.11700 55.29400 25.72800
H  35.81400 55.27300 26.32100
H  34.51800 54.77700 27.39000
H  34.99600 55.72800 22.27300
H  35.56100 55.80800 23.95500
H  33.85500 55.31800 23.48300
H  37.22200 49.07100 21.42600
H  35.81600 46.61800 22.37800
H  34.42200 49.23000 21.99600
H  34.88500 47.95100 20.85400
H  35.28800 49.65900 20.50000
H  38.24000 45.66000 22.42100
H  38.76500 47.33500 21.83900
H  38.49800 46.84500 19.91500
H  36.72900 46.69900 20.08300
H  37.76500 45.20600 20.08500
H  37.71300 43.54000 25.73100
H  36.46200 42.99800 26.98500
H  38.16600 43.19300 27.36700
H  37.26500 46.95300 31.09800
H  34.08600 46.62900 34.11500
H  35.04800 45.20200 34.26200
H  33.59300 45.26100 33.19300

