158

Mg 25.80900 1.13700 28.79900
C  27.84900 1.10900 31.70200
C  23.16100 1.51300 30.68500
C  24.05400 1.08700 26.02700
C  28.72300 0.35500 26.96200
N  25.56500 1.29100 30.97800
C  26.47200 1.29500 31.92900
C  25.85000 1.57200 33.31600
C  24.33100 1.51800 33.02500
C  24.33900 1.42800 31.48200
C  23.58900 0.29100 33.64900
C  26.15900 2.92500 34.05500
C  26.95400 2.79700 35.35400
H  26.58800 3.85500 36.42600
N  23.85600 1.26000 28.43800
C  22.87500 1.48800 29.33100
C  21.65100 1.65300 28.55700
C  21.92200 1.55100 27.16900
C  23.35300 1.29600 27.17200
C  20.33800 1.82400 29.23500
C  21.01700 1.66100 26.04000
O  21.38300 1.51300 24.85700
C  19.52300 2.03000 26.25300
N  26.38100 0.66200 26.79500
C  25.43600 0.86600 25.80000
C  26.04300 0.79400 24.39500
C  27.62700 0.60500 24.67100
C  27.60600 0.57500 26.25400
C  25.32900 -0.25300 23.54700
C  28.58300 1.76000 24.12500
C  29.49400 1.42700 22.89500
N  27.79500 0.67400 29.22600
C  28.84500 0.39300 28.34300
C  30.12300 0.27100 29.15300
C  29.73500 0.51600 30.44800
C  28.32500 0.76300 30.42900
C  31.44800 -0.04700 28.52800
C  30.33600 0.75700 31.77900
O  31.47500 0.69500 32.20000
C  29.09900 1.18900 32.65700
C  29.05400 0.26500 33.82600
O  28.50700 -0.84000 33.81500
O  29.68100 0.90100 34.87800
C  29.77300 0.21100 36.12800
H  22.33700 1.83700 31.32400
H  23.56500 1.32600 25.08000
H  29.53100 0.06100 26.29000
H  26.03500 0.72000 33.97100
H  23.85400 2.44000 33.35800
H  22.72000 0.74400 34.12500
H  24.16600 -0.27900 34.37800
H  23.17600 -0.40600 32.92000
H  25.26400 3.46400 34.36400
H  26.79600 3.45500 33.34600
H  28.01600 2.88500 35.12500
H  26.75500 1.84700 35.84900
H  19.87100 2.79200 29.05700
H  20.50700 1.76900 30.31100
H  19.56000 1.09500 29.00900
H  19.46900 2.88200 26.92900
H  19.08300 1.09800 26.60800
H  18.92800 2.24700 25.36600
H  25.86600 1.77400 23.95100
H  28.07400 -0.26700 24.19500
H  24.51400 -0.71600 24.10300
H  26.02400 -1.04700 23.27700
H  24.94500 0.10100 22.59000
H  29.31700 2.11000 24.85000
H  27.89400 2.57500 23.90700
H  29.26500 2.18000 22.14200
H  29.32000 0.39600 22.58500
H  30.54800 1.52200 23.15500
H  31.40500 -0.01900 27.43900
H  31.70400 -1.03300 28.91600
H  32.11100 0.73600 28.89700
H  29.21200 2.23800 32.93100
H  28.86700 0.48100 36.67100
H  30.68400 0.52600 36.63500
H  29.84700 -0.87500 36.07800
Mg -9.98700 39.55200 40.47100
C  -8.54300 36.32900 39.45500
C  -6.92500 40.93900 39.70600
C  -11.38400 42.67200 40.44400
C  -12.94900 38.01100 40.87500
N  -7.97900 38.73200 39.56200
C  -7.57600 37.43100 39.49600
C  -6.09000 37.33300 39.25100
C  -5.59800 38.74900 39.57500
C  -6.94000 39.53300 39.66800
C  -4.65400 38.90000 40.75100
C  -5.80900 36.87000 37.77200
C  -6.53800 37.67600 36.65000
H  -7.27600 36.85700 35.53500
N  -9.29600 41.49600 40.07100
C  -7.95500 41.82700 39.85100
C  -7.86000 43.20500 39.59600
C  -9.09200 43.76600 39.87800
C  -10.05600 42.65200 40.23900
C  -6.51800 43.87400 39.18800
C  -9.43300 45.26400 39.80200
O  -8.61900 46.08900 39.44700
C  -10.71300 45.72700 40.22400
N  -11.93400 40.29300 40.64900
C  -12.35300 41.61800 40.60100
C  -13.82600 41.72800 41.04900
C  -14.24800 40.20300 41.34400
C  -12.97900 39.46000 40.92500
C  -14.14000 42.70300 42.25800
C  -15.59500 39.71800 40.65200
C  -16.77100 39.12000 41.48300
N  -10.66900 37.59400 40.31700
C  -11.94700 37.10100 40.47500
C  -12.02300 35.68700 40.09400
C  -10.68300 35.34300 39.77000
C  -9.91300 36.48300 39.87800
C  -13.18800 34.78300 40.14000
C  -9.86800 34.26200 39.26800
O  -10.14400 33.11000 38.98900
C  -8.37200 34.80000 39.13800
C  -7.56000 34.12700 40.25600
O  -7.96800 33.70900 41.34700
O  -6.17700 34.08100 39.83900
C  -5.31600 33.25200 40.74100
H  -5.91200 41.32700 39.57800
H  -11.91400 43.61500 40.29300
H  -13.93100 37.54300 40.96900
H  -5.73300 36.61500 39.98900
H  -5.10300 39.09800 38.66900
H  -5.29500 39.21200 41.57600
H  -3.93800 39.66200 40.44000
H  -4.23700 37.90800 40.92500
H  -5.89900 35.79700 37.60200
H  -4.74800 37.09200 37.65900
H  -5.78200 38.18900 36.05700
H  -7.03200 38.55200 37.07100
H  -6.75700 44.33800 38.23100
H  -5.64100 43.30400 38.88200
H  -6.20400 44.63500 39.90200
H  -10.99600 45.45500 41.24100
H  -11.46400 45.31800 39.54800
H  -10.85500 46.79400 40.05100
H  -14.27700 42.10200 40.13000
H  -14.28500 40.05100 42.42300
H  -14.87800 43.43700 41.93500
H  -13.29200 43.28100 42.62700
H  -14.67400 42.13300 43.01800
H  -15.32200 39.02600 39.85600
H  -15.97900 40.47500 39.96800
H  -17.65000 39.72700 41.26200
H  -16.45200 39.34300 42.50100
H  -16.91000 38.04200 41.40900
H  -14.06300 35.20800 40.63100
H  -12.90100 33.84300 40.61200
H  -13.52800 34.63900 39.11400
H  -7.79600 34.63700 38.22700
H  -5.79000 32.50400 41.37800
H  -4.83900 33.95500 41.42400
H  -4.54300 32.78600 40.13000

