158

Mg 44.91500 1.89200 47.79700
C  42.88400 4.52800 46.68700
C  42.42700 -0.29700 47.37000
C  47.07300 -0.65200 48.39700
C  47.70200 4.14100 47.45800
N  42.92900 2.11600 47.12300
C  42.28900 3.26700 46.77800
C  40.78500 3.00800 46.51800
C  40.63900 1.59500 47.21900
C  42.11400 1.04600 47.10900
C  40.21500 1.67200 48.72100
C  40.37000 3.02600 45.05400
C  39.38000 4.11700 44.57900
H  39.94800 5.10500 43.43300
N  44.76500 -0.20800 47.89800
C  43.61000 -0.86000 47.61900
C  43.82100 -2.27600 47.68000
C  45.25900 -2.48200 47.97800
C  45.79500 -1.05600 48.08600
C  42.76100 -3.31900 47.43000
C  46.01100 -3.86300 48.15900
O  45.46500 -4.90300 48.03800
C  47.47300 -3.96000 48.48100
N  47.12400 1.68200 47.63700
C  47.69400 0.58700 48.23300
C  49.11600 0.77900 48.53100
C  49.32600 2.25300 47.99700
C  47.93700 2.76400 47.69000
C  49.47600 0.48500 50.01800
C  50.26700 2.30700 46.77700
C  51.79100 2.80500 47.03400
N  45.26900 3.93200 47.21200
C  46.40000 4.79300 47.21200
C  46.00300 6.22400 47.07300
C  44.59100 6.11600 46.91500
C  44.22500 4.75200 46.87200
C  46.83700 7.43200 46.96400
C  43.43000 6.92700 46.68700
O  43.16600 8.12100 46.61300
C  42.28900 5.95600 46.71700
C  41.42400 6.17700 47.88400
O  41.87900 6.05100 49.04500
O  40.11500 6.52100 47.56900
C  39.13500 6.65100 48.65600
H  41.54200 -0.91600 47.20600
H  47.74500 -1.42900 48.76600
H  48.46500 4.90500 47.61900
H  40.20500 3.78200 47.01900
H  40.02700 0.91200 46.63000
H  40.97200 1.26200 49.39100
H  39.31000 1.06400 48.74200
H  39.90800 2.67200 49.02700
H  39.89600 2.08800 44.76600
H  41.29200 3.15500 44.48800
H  39.12900 4.71800 45.45400
H  38.40500 3.79700 44.21100
H  43.10400 -3.91200 46.58200
H  41.80400 -2.86000 47.18200
H  42.62400 -3.84100 48.37700
H  47.58300 -3.72700 49.54100
H  47.92400 -3.27500 47.76300
H  47.84000 -4.98000 48.36800
H  49.69900 0.09400 47.91700
H  49.67300 2.89200 48.80900
H  49.86300 -0.50300 50.26700
H  48.62600 0.78300 50.63200
H  50.29000 1.16200 50.27800
H  49.92700 2.98800 45.99600
H  50.31300 1.39000 46.19000
H  52.47500 1.96300 46.92300
H  51.93600 3.27500 48.00600
H  52.05500 3.58900 46.32500
H  46.51900 7.95400 46.06100
H  47.92200 7.33000 46.97900
H  46.56700 8.03900 47.82800
H  41.72800 6.00600 45.78400
H  39.46100 6.40100 49.66500
H  38.27700 5.98500 48.55800
H  38.82900 7.69700 48.66000
Mg 25.39900 51.29300 26.22400
C  23.49600 52.57800 28.82800
C  27.78200 50.17700 28.53800
C  27.65400 50.83400 23.70500
C  23.22200 52.64500 23.95900
N  25.55300 51.36300 28.38800
C  24.63000 51.88600 29.27800
C  25.06000 51.63100 30.71600
C  26.49500 51.00900 30.56400
C  26.63100 50.86800 29.05200
C  27.73500 51.78400 31.18100
C  24.06100 50.77400 31.54600
C  23.72200 51.33700 32.90900
H  24.96800 51.45200 33.84100
N  27.38500 50.55900 26.15300
C  28.16600 50.07100 27.16400
C  29.19200 49.33400 26.67200
C  29.24700 49.60800 25.22000
C  28.03600 50.40600 24.97700
C  30.01300 48.38600 27.47500
C  30.16000 48.99900 24.18800
O  30.07100 49.20300 22.97200
C  31.14400 47.95000 24.58900
N  25.46500 51.80500 24.13500
C  26.48600 51.45000 23.31300
C  26.19700 51.86800 21.89200
C  24.71700 52.18500 21.95600
C  24.38200 52.17700 23.43700
C  26.98100 53.06500 21.23100
C  23.87400 51.33700 21.01300
C  23.13600 50.07500 21.63600
N  23.56900 52.31800 26.30000
C  22.83500 52.86800 25.35100
C  21.58700 53.53000 25.88300
C  21.77900 53.39100 27.26200
C  23.06300 52.74400 27.42400
C  20.49400 54.20800 25.14700
C  21.26100 53.68300 28.55200
O  20.29300 54.33000 28.92700
C  22.31200 53.22500 29.55400
C  22.67200 54.23700 30.48800
O  23.59500 55.04700 30.33200
O  21.75900 54.33300 31.46000
C  21.72000 55.64900 32.27000
H  28.57900 49.96400 29.25500
H  28.16300 50.46200 22.81300
H  22.52200 52.98900 23.19500
H  25.01400 52.58100 31.24800
H  26.58600 50.13500 31.20900
H  27.16100 52.61000 31.60100
H  28.43700 52.12400 30.42000
H  28.30600 51.12000 31.83000
H  24.48600 49.78100 31.69500
H  23.21400 50.49600 30.91900
H  22.90500 50.82200 33.41500
H  23.34200 52.34500 32.74000
H  31.05200 48.70900 27.53300
H  30.05300 47.34300 27.16400
H  29.74300 48.33000 28.53000
H  31.71000 48.25900 25.46800
H  31.82100 47.66300 23.78500
H  30.58900 47.05700 24.87700
H  26.38300 51.08100 21.16200
H  24.57200 53.24800 21.76200
H  27.79800 52.69000 20.61500
H  27.37800 53.69100 22.03000
H  26.45500 53.65700 20.48300
H  24.39300 51.04700 20.10000
H  23.08500 51.95500 20.58300
H  22.09100 50.31900 21.82700
H  23.64800 49.76500 22.54700
H  23.19600 49.20800 20.97700
H  20.45100 53.90900 24.09900
H  20.82500 55.24600 25.15600
H  19.46800 54.05000 25.47900
H  21.93900 52.40300 30.16600
H  21.98300 56.49300 31.63200
H  22.39200 55.50800 33.11600
H  20.72800 55.76200 32.70800

