158

Mg 44.61100 4.46700 47.25700
C  42.27600 7.21000 46.64800
C  41.77700 2.41800 47.06100
C  46.56100 1.82500 46.85700
C  47.19000 6.64500 46.47600
N  42.35700 4.86300 46.84100
C  41.64600 5.94500 46.68200
C  40.18300 5.64500 46.49700
C  40.01500 4.22900 46.94300
C  41.46600 3.76300 46.97700
C  39.32000 4.01200 48.27800
C  39.63700 5.91500 45.01800
C  38.69900 7.02000 44.66300
H  39.15600 8.09600 43.64800
N  44.15200 2.37600 47.11500
C  42.97000 1.73200 47.14700
C  43.15500 0.31400 47.05200
C  44.56900 0.10300 46.91500
C  45.19000 1.47800 46.96900
C  42.01900 -0.69700 46.97800
C  45.28200 -1.24300 46.79700
O  44.57500 -2.23100 46.94200
C  46.66000 -1.40700 46.43800
N  46.52000 4.29600 46.58400
C  47.11300 3.05100 46.71400
C  48.69400 3.15600 46.53100
C  48.78900 4.72000 46.17500
C  47.41500 5.25000 46.54600
C  49.50500 2.80200 47.85100
C  49.22200 4.98400 44.72800
C  50.73100 4.76600 44.38300
N  44.74900 6.59700 46.86700
C  45.92900 7.33700 46.62700
C  45.59900 8.67900 46.48300
C  44.15300 8.66200 46.58500
C  43.68700 7.36900 46.62700
C  46.61000 9.82500 46.27000
C  42.93000 9.53200 46.66500
O  42.85100 10.75200 46.67900
C  41.72700 8.61100 46.57400
C  40.75600 8.96500 47.68300
O  40.59400 8.25500 48.66300
O  39.94100 10.01600 47.29400
C  38.88900 10.38400 48.20700
H  40.84000 1.85800 47.01100
H  47.32000 1.04000 46.87000
H  48.05700 7.28000 46.28600
H  39.58500 6.26500 47.16400
H  39.48800 3.61200 46.21500
H  39.24900 4.95900 48.81100
H  39.73900 3.28600 48.97400
H  38.36000 3.58000 47.99400
H  39.03300 5.05500 44.72900
H  40.58600 6.03400 44.49500
H  38.48300 7.61600 45.55000
H  37.71100 6.72800 44.30700
H  42.12300 -1.09400 45.96800
H  40.95800 -0.45500 47.04500
H  42.16800 -1.48200 47.71900
H  46.73600 -0.73800 45.58000
H  46.71500 -2.42600 46.05600
H  47.29300 -1.15800 47.28900
H  49.01600 2.52500 45.70200
H  49.45000 5.27700 46.83900
H  49.94700 3.71000 48.26100
H  50.21800 2.00600 47.63600
H  48.82600 2.41000 48.60700
H  49.08100 6.04000 44.50100
H  48.60900 4.31100 44.12800
H  50.87800 4.15600 43.49200
H  51.19100 4.16800 45.17000
H  51.25500 5.71800 44.31000
H  46.28000 10.75500 46.73300
H  46.73200 9.97600 45.19700
H  47.58500 9.58100 46.68900
H  41.18500 8.74900 45.63900
H  39.28800 10.73700 49.15800
H  38.19600 9.59100 48.48700
H  38.31900 11.21700 47.79600
Mg 49.70000 46.39000 43.34300
C  46.57700 47.20500 42.39500
C  49.44200 43.29500 41.73700
C  53.05800 45.86900 43.82100
C  50.21400 49.72600 44.42200
N  48.19100 45.47300 42.11700
C  47.00600 45.99300 41.89000
C  46.11800 45.09200 40.93700
C  46.98500 43.75200 40.94000
C  48.24500 44.13400 41.66700
C  46.28100 42.60700 41.76600
C  45.84300 45.69400 39.54500
C  44.41500 45.32000 38.93000
H  44.46500 44.27700 37.77200
N  51.08500 44.68700 42.93600
C  50.73900 43.53900 42.25700
C  51.80300 42.58800 42.32400
C  52.89200 43.23500 43.05800
C  52.36900 44.66900 43.33600
C  51.76500 41.29000 41.69600
C  54.24100 42.61800 43.36400
O  54.51100 41.47800 43.04000
C  55.27600 43.41400 44.02200
N  51.34200 47.61200 44.02500
C  52.63700 47.15800 44.16700
C  53.61500 48.26400 44.60000
C  52.63600 49.38300 45.02000
C  51.28700 48.87900 44.42500
C  54.64600 47.79300 45.76400
C  53.06000 50.80300 44.49700
C  52.71500 52.02000 45.37900
N  48.57100 48.10600 43.61100
C  48.85900 49.37300 44.05700
C  47.68200 50.20200 43.95700
C  46.75500 49.38900 43.36400
C  47.33300 48.11300 43.10800
C  47.43800 51.60500 44.50000
C  45.33700 49.27000 43.06200
O  44.39500 50.00500 43.32900
C  45.21300 47.86300 42.31300
C  44.13600 47.09800 42.90100
O  43.94900 46.92400 44.12000
O  43.31000 46.70700 41.91200
C  42.12100 46.04100 42.25200
H  49.38300 42.30000 41.29100
H  54.04100 45.65700 44.24500
H  50.40200 50.75100 44.74800
H  45.15900 44.83700 41.38900
H  47.21900 43.33300 39.96100
H  46.29900 41.71600 41.14000
H  45.25600 42.92300 41.95700
H  46.65700 42.38700 42.76500
H  46.67100 45.43900 38.88400
H  45.84200 46.77400 39.69200
H  43.91900 46.25300 38.66300
H  43.80400 44.90100 39.73000
H  52.64400 41.14400 41.06800
H  50.92300 41.06900 41.04100
H  51.74400 40.50500 42.45200
H  56.04500 42.71700 44.35400
H  54.74700 43.79500 44.89500
H  55.59700 44.24200 43.39000
H  54.14000 48.54500 43.68700
H  52.61300 49.41400 46.10900
H  54.65100 46.76300 46.12100
H  54.54400 48.46000 46.61900
H  55.65700 47.95100 45.38900
H  52.41100 50.85000 43.62200
H  54.12200 50.85400 44.25700
H  52.32900 51.67000 46.33700
H  51.92400 52.56000 44.85900
H  53.63500 52.58400 45.52600
H  47.77600 52.28200 43.71500
H  47.97000 51.71600 45.44600
H  46.41000 51.84700 44.76700
H  45.00600 48.25200 41.31600
H  42.29000 44.96500 42.29800
H  41.29000 46.09500 41.54800
H  41.60700 46.37500 43.15400

