158

Mg 48.82400 35.21300 26.45500
C  46.87400 34.26600 29.17300
C  49.27500 38.35100 27.85700
C  50.42300 36.28400 23.47500
C  47.57600 32.39000 24.66300
N  48.22700 36.18000 28.27900
C  47.53900 35.51000 29.31600
C  47.41700 36.39300 30.52700
C  48.02300 37.80700 30.04100
C  48.58300 37.43100 28.66000
C  47.10400 39.13100 29.97300
C  48.25100 35.80200 31.78500
C  47.48100 35.83300 33.04600
H  47.43000 37.05400 33.93400
N  49.76700 37.03300 25.82400
C  49.82900 38.19300 26.55000
C  50.42600 39.23100 25.71100
C  50.95600 38.57900 24.53900
C  50.39000 37.24900 24.54200
C  50.71900 40.63300 26.03200
C  51.85300 39.05300 23.37400
O  52.06200 38.49700 22.27600
C  52.62500 40.36600 23.58000
N  49.03600 34.41000 24.37700
C  49.78600 35.05700 23.41600
C  49.94500 34.11000 22.25400
C  49.27300 32.75400 22.67500
C  48.53100 33.18900 23.95700
C  49.48100 34.64800 20.90500
C  50.18100 31.43200 22.89700
C  49.64600 30.16800 22.24500
N  47.56500 33.60200 26.81100
C  47.14300 32.54400 25.99900
C  46.29600 31.71300 26.73500
C  46.08500 32.40900 27.97800
C  46.91100 33.52500 27.94500
C  45.76300 30.40500 26.17200
C  45.27900 32.37900 29.19400
O  44.32900 31.63500 29.50700
C  45.86000 33.61100 30.11400
C  46.36100 33.00700 31.38000
O  47.35400 32.30800 31.45800
O  45.52100 33.36500 32.40100
C  45.66900 32.98700 33.81300
H  49.47400 39.36300 28.21700
H  50.91200 36.49000 22.52100
H  47.30300 31.48600 24.11400
H  46.34500 36.52300 30.67500
H  48.81700 38.16200 30.69800
H  47.40700 39.78600 30.79000
H  46.06800 38.83900 30.14700
H  47.09200 39.47500 28.93800
H  49.15600 36.38900 31.94000
H  48.48200 34.75700 31.57900
H  47.86600 35.10800 33.76300
H  46.42100 35.60500 32.93600
H  51.79600 40.79800 26.05700
H  50.20000 40.72500 26.98600
H  50.14000 41.34500 25.44500
H  51.93700 41.17900 23.81200
H  53.16200 40.65800 22.67700
H  53.37500 40.12800 24.33500
H  51.02100 33.95100 22.18600
H  48.44300 32.62700 21.98000
H  49.26300 33.72600 20.36600
H  50.30600 35.20100 20.45700
H  48.63400 35.33000 20.98400
H  50.44300 31.21400 23.93200
H  51.11500 31.70100 22.40300
H  49.28600 29.42200 22.95300
H  50.34900 29.54400 21.69200
H  48.87000 30.39500 21.51400
H  46.43100 29.55600 26.31200
H  45.40400 30.30500 25.14800
H  44.90500 30.18800 26.80900
H  44.94300 34.15200 30.34500
H  46.70700 33.16500 34.09200
H  45.38700 31.95600 34.02500
H  45.10300 33.57900 34.53200
Mg -12.84300 16.34700 41.92900
C  -9.82900 14.64300 41.71300
C  -11.23500 19.14000 40.53800
C  -15.86100 17.87900 41.47100
C  -14.45600 13.29000 42.52300
N  -10.78000 16.74900 40.98900
C  -9.68900 15.93500 41.19600
C  -8.43000 16.63700 40.59400
C  -8.92100 18.09400 40.19900
C  -10.41500 18.01300 40.63000
C  -8.06400 19.22700 40.73100
C  -8.07500 15.82000 39.33800
C  -6.59700 15.64400 38.98000
H  -6.20400 16.57700 37.77600
N  -13.46200 18.28400 41.21700
C  -12.61000 19.27900 40.73900
C  -13.37900 20.48300 40.55800
C  -14.75100 20.10800 40.75600
C  -14.75500 18.70800 41.17600
C  -12.81400 21.80300 40.07600
C  -15.89000 21.03300 40.54000
O  -15.71000 22.20600 40.18600
C  -17.30400 20.62200 40.68700
N  -14.82500 15.63900 41.98600
C  -15.86100 16.54300 41.93300
C  -17.18600 15.87800 42.16000
C  -16.82700 14.37700 42.43200
C  -15.33200 14.37900 42.29500
C  -17.92900 16.57300 43.37200
C  -17.36400 13.33400 41.40800
C  -18.93500 13.11800 41.40900
N  -12.29800 14.44800 42.16600
C  -13.00300 13.32000 42.52900
C  -12.16600 12.21200 42.93400
C  -10.90500 12.63500 42.63900
C  -11.02700 14.00300 42.08800
C  -12.55200 10.81900 43.34500
C  -9.51600 12.30700 42.72700
O  -8.85800 11.33200 43.11900
C  -8.80600 13.58400 42.00100
C  -7.67400 14.13900 42.83800
O  -7.66200 14.68900 43.92400
O  -6.50100 13.97700 42.11800
C  -5.42600 14.80200 42.57400
H  -10.69400 19.95000 40.04500
H  -16.86200 18.25900 41.25600
H  -14.95900 12.36500 42.81200
H  -7.68800 16.85000 41.36300
H  -8.92800 18.24000 39.11900
H  -7.92200 19.87600 39.86600
H  -7.10000 18.94300 41.15200
H  -8.65400 19.78300 41.46000
H  -8.59500 16.31600 38.51800
H  -8.45900 14.81000 39.48500
H  -6.31100 14.60800 38.79400
H  -5.97200 15.92400 39.82700
H  -13.10300 21.90900 39.03100
H  -11.72800 21.74100 40.14300
H  -13.10600 22.64300 40.70600
H  -17.55900 19.81100 40.00500
H  -17.98800 21.47100 40.66000
H  -17.54400 20.17200 41.65100
H  -17.79200 16.03400 41.26700
H  -17.10200 14.07400 43.44300
H  -17.36500 17.42200 43.75700
H  -18.05500 15.91900 44.23400
H  -18.83600 16.98600 42.92900
H  -16.88700 12.39700 41.69500
H  -17.06600 13.65200 40.40800
H  -19.25200 12.20200 41.90700
H  -19.12200 12.92000 40.35400
H  -19.50700 13.96300 41.79300
H  -13.27300 10.95500 44.15100
H  -11.74800 10.32500 43.89000
H  -13.18100 10.15300 42.75400
H  -8.30500 13.28500 41.08000
H  -5.27600 14.73400 43.65200
H  -5.51800 15.85400 42.30700
H  -4.51900 14.39900 42.12400

