158

Mg -1.88900 17.54100 25.60800
C  -2.31300 15.30600 28.36500
C  -2.70100 20.10100 27.72200
C  -2.16000 19.52400 22.89300
C  -1.83300 14.78100 23.53200
N  -2.52400 17.61700 27.74200
C  -2.38600 16.63400 28.75100
C  -2.47400 17.25200 30.19700
C  -2.73500 18.77100 29.90200
C  -2.68800 18.82300 28.37000
C  -4.12800 19.24400 30.51300
C  -1.13100 16.94100 31.07400
C  -0.94900 17.70000 32.39800
H  -1.19000 16.89700 33.63900
N  -2.12500 19.50600 25.36300
C  -2.38100 20.42800 26.36300
C  -2.49500 21.74200 25.79200
C  -2.14200 21.57100 24.40800
C  -2.16100 20.15100 24.13400
C  -2.78600 23.03700 26.56500
C  -1.82900 22.67300 23.35000
O  -1.55400 22.37400 22.17100
C  -1.80300 24.05200 23.75100
N  -2.16200 17.18700 23.53000
C  -2.09100 18.17000 22.57500
C  -2.12600 17.60000 21.16100
C  -1.56500 16.13400 21.42900
C  -1.84200 15.99000 22.90600
C  -3.54100 17.61200 20.44100
C  -0.03200 15.93700 21.12400
C  0.93600 16.76500 21.94200
N  -1.93300 15.48500 25.86600
C  -1.93900 14.48800 24.88600
C  -2.03900 13.18100 25.50800
C  -2.11800 13.47000 26.84400
C  -2.08600 14.85900 27.00300
C  -1.92300 11.90700 24.78300
C  -2.28200 12.84300 28.09300
O  -2.22500 11.67900 28.45000
C  -2.34600 14.00000 29.16600
C  -1.28600 13.79800 30.18500
O  -0.08900 13.91400 29.91000
O  -1.75600 13.35400 31.45400
C  -0.79700 13.22800 32.48200
H  -2.75600 20.80100 28.55900
H  -2.30600 20.13200 21.99800
H  -1.60200 13.89600 22.93500
H  -3.24600 16.78000 30.80600
H  -1.94500 19.29000 30.44400
H  -4.76400 19.67800 29.74200
H  -3.94100 19.95600 31.31600
H  -4.70000 18.43700 30.97100
H  -0.22200 16.88600 30.47500
H  -1.29200 15.89700 31.34100
H  -1.63400 18.54800 32.38100
H  0.05300 18.12500 32.46100
H  -1.91500 23.69000 26.59700
H  -2.99100 22.80800 27.61100
H  -3.71100 23.42600 26.13800
H  -2.80200 24.25700 24.13600
H  -1.67500 24.72600 22.90400
H  -1.00700 24.19800 24.48100
H  -1.37000 18.06300 20.52700
H  -2.12500 15.41800 20.82700
H  -3.45600 17.87300 19.38600
H  -4.15100 18.38400 20.91000
H  -4.07400 16.67400 20.59600
H  0.18500 16.08800 20.06600
H  0.29300 14.90800 21.27400
H  0.49600 17.74700 22.11300
H  1.81500 17.06400 21.37000
H  1.18000 16.19100 22.83600
H  -1.14100 12.15700 24.06600
H  -2.82300 11.67200 24.21400
H  -1.62600 11.08200 25.43000
H  -3.34100 13.77900 29.55100
H  -1.05800 14.06600 33.12800
H  0.26500 13.32600 32.25700
H  -0.90000 12.25200 32.95600
Mg 16.08900 51.72100 25.60900
C  18.00600 50.70700 28.39500
C  13.83700 53.14100 27.69600
C  14.33500 52.48300 22.95800
C  18.60600 50.20400 23.62300
N  16.11100 52.01400 27.83200
C  16.86800 51.45500 28.76800
C  16.40500 51.80200 30.29600
C  14.93700 52.37800 30.02200
C  14.94000 52.51300 28.38600
C  13.70000 51.47000 30.48900
C  17.36500 52.74600 31.02800
C  17.69500 52.40500 32.48300
H  16.72500 51.52100 33.26100
N  14.38500 52.86500 25.31900
C  13.57800 53.33200 26.32400
C  12.46900 54.03500 25.70300
C  12.54500 53.88600 24.24900
C  13.78700 53.01500 24.12500
C  11.37900 54.63500 26.54100
C  11.59300 54.26100 23.15200
O  11.89900 53.97100 21.99400
C  10.42500 55.13700 23.47600
N  16.40900 51.28800 23.59400
C  15.51000 51.82000 22.63200
C  15.98400 51.49400 21.24000
C  17.45200 50.86000 21.46900
C  17.52000 50.87000 22.97600
C  15.09400 50.46300 20.48900
C  18.61100 51.72600 20.90000
C  19.30400 51.15000 19.63200
N  17.85700 50.67500 25.90300
C  18.78400 50.15200 25.00600
C  19.88300 49.44400 25.75400
C  19.57900 49.67400 27.06900
C  18.37900 50.40100 27.06400
C  20.99000 48.65700 25.15200
C  20.03600 49.38600 28.45400
O  21.00500 48.82400 28.88400
C  19.03700 50.10700 29.34800
C  18.60300 49.03700 30.20400
O  17.81100 48.17800 29.82100
O  19.24500 49.09300 31.45600
C  19.08500 47.91900 32.33800
H  13.08900 53.57400 28.36400
H  13.85300 52.84100 22.04600
H  19.36900 49.63700 23.08400
H  16.37900 50.86200 30.84800
H  14.84300 53.40100 30.38700
H  14.06800 50.51200 30.85500
H  13.04700 51.31200 29.63000
H  13.06200 51.90000 31.26100
H  16.98600 53.75800 30.88200
H  18.28100 52.74600 30.43700
H  17.85200 53.27500 33.12000
H  18.61800 51.83300 32.38600
H  11.12900 55.65700 26.26000
H  11.77600 54.80300 27.54200
H  10.60800 53.86500 26.49800
H  10.83700 56.10600 23.75800
H  9.80500 54.78400 24.30000
H  9.72900 55.35400 22.66500
H  16.10700 52.47600 20.78200
H  17.37900 49.80600 21.20200
H  14.52300 49.95400 21.26600
H  15.64400 49.84500 19.78000
H  14.47300 51.05300 19.81500
H  19.41900 51.81800 21.62400
H  18.32000 52.75200 20.67400
H  20.36100 51.35000 19.81200
H  19.04500 51.74100 18.75400
H  19.16100 50.08700 19.43800
H  20.56800 47.96300 24.42500
H  21.33500 48.03300 25.97700
H  21.71800 49.32600 24.69400
H  19.51900 50.78100 30.05600
H  18.98800 46.94200 31.86400
H  18.17700 47.97900 32.93800
H  19.90600 47.88000 33.05400

