158

Mg 49.55500 45.74900 41.86800
C  46.20100 46.26300 41.11900
C  49.42000 42.75800 40.56300
C  52.96800 45.62100 42.32100
C  49.75800 49.22000 42.76900
N  48.09000 44.80000 40.67100
C  46.79500 45.15900 40.48500
C  45.97300 44.07300 39.72300
C  46.93900 42.84400 39.85200
C  48.20600 43.46300 40.48800
C  46.30000 41.70200 40.64600
C  45.59100 44.57100 38.31800
C  44.20100 44.25400 37.66400
H  44.13200 43.21000 36.64300
N  50.97700 44.35100 41.51000
C  50.70600 43.12300 40.99500
C  52.00900 42.31600 40.84000
C  53.05600 43.07000 41.47100
C  52.38600 44.41700 41.86100
C  52.13400 41.04300 40.14900
C  54.46600 42.61600 41.61100
O  54.80300 41.48200 41.21900
C  55.52000 43.48300 42.23500
N  51.14100 47.28600 42.36400
C  52.44000 46.89000 42.58200
C  53.29600 48.06800 43.05800
C  52.27900 49.28900 42.99900
C  50.97300 48.58100 42.67100
C  54.01500 47.95000 44.44200
C  52.61600 50.49600 42.16400
C  51.92400 51.88900 42.61400
N  48.29500 47.39700 42.02400
C  48.48800 48.72200 42.53700
C  47.18400 49.31200 42.66000
C  46.27300 48.37900 42.21800
C  46.98100 47.23500 41.76800
C  46.87300 50.71300 43.12000
C  44.84600 48.05300 42.01100
O  43.87100 48.62900 42.50000
C  44.76200 46.76300 41.18000
C  43.76000 45.76700 41.79600
O  42.86200 45.17800 41.16600
O  43.88900 45.78500 43.20200
C  42.88200 44.91600 43.81200
H  49.20700 41.76300 40.16600
H  54.05700 45.66000 42.39000
H  49.65800 50.25200 43.11100
H  45.07400 43.94300 40.32600
H  47.19900 42.50800 38.84800
H  46.41100 41.69500 41.73100
H  46.62500 40.74800 40.23100
H  45.21300 41.77700 40.65300
H  46.29700 44.20100 37.57400
H  45.78700 45.64200 38.26300
H  43.68400 45.18600 37.43700
H  43.62800 43.85100 38.49900
H  52.90600 40.99700 39.38000
H  51.20100 40.75300 39.66500
H  52.36800 40.25400 40.86300
H  55.12800 43.95500 43.13600
H  55.93800 44.18500 41.51300
H  56.29100 42.77200 42.53100
H  54.10400 48.16000 42.33300
H  52.10200 49.61700 44.02400
H  53.76600 48.82800 45.03700
H  55.09400 47.84000 44.33300
H  53.74900 47.01100 44.92800
H  52.29800 50.23500 41.15500
H  53.68400 50.71100 42.11700
H  52.70600 52.64700 42.65700
H  51.53500 51.76200 43.62400
H  51.13800 52.21200 41.93200
H  47.17400 51.54600 42.48400
H  47.41400 50.81500 44.06100
H  45.80300 50.68200 43.32400
H  44.31900 47.13300 40.25500
H  42.99800 43.93300 43.35500
H  41.88300 45.27200 43.56000
H  43.14600 44.85000 44.86700
Mg 25.91600 50.55100 26.24400
C  24.26100 52.20400 28.64000
C  28.27800 49.50700 28.66800
C  28.13700 49.34800 23.74400
C  24.01600 52.00100 23.76800
N  26.25800 50.90300 28.31000
C  25.32300 51.43300 29.14100
C  25.61600 51.02500 30.61200
C  27.06500 50.53400 30.57500
C  27.23400 50.19600 29.09400
C  28.11400 51.56100 31.02700
C  24.59200 50.09900 31.25700
C  24.43800 50.26400 32.78900
H  25.51100 50.77000 33.72300
N  27.87900 49.49900 26.18400
C  28.58600 49.21800 27.26600
C  29.75800 48.45900 26.83100
C  29.73400 48.42000 25.44800
C  28.55200 49.14600 25.04200
C  30.82000 47.94400 27.78800
C  30.68700 47.61000 24.52200
O  30.62100 47.65400 23.28500
C  31.70900 46.63000 24.99900
N  26.06400 50.55900 24.13900
C  26.93700 49.88500 23.31300
C  26.71100 50.23600 21.79400
C  25.18800 50.74600 21.94500
C  25.05900 51.11500 23.43100
C  27.77700 51.19100 21.27700
C  24.05000 49.81900 21.46300
C  23.31900 48.87900 22.48800
N  24.40900 51.90500 26.16600
C  23.73600 52.51500 25.09000
C  22.73300 53.41700 25.60100
C  22.88300 53.37900 27.03100
C  23.89000 52.42400 27.29500
C  21.77300 54.25800 24.88400
C  22.43800 53.88500 28.26500
O  21.56800 54.72500 28.52800
C  23.21200 53.07300 29.35200
C  23.74900 54.02900 30.27100
O  24.54200 54.89400 29.96300
O  23.32800 53.79100 31.52000
C  24.00900 54.44700 32.59300
H  28.86400 48.93600 29.39100
H  28.78100 48.91700 22.97500
H  23.39900 52.45600 22.99100
H  25.54500 51.93300 31.20900
H  27.29900 49.61700 31.11700
H  28.95400 51.64400 30.33700
H  28.43800 51.44700 32.06200
H  27.70700 52.55600 31.20300
H  25.02100 49.09900 31.20400
H  23.61300 49.99700 30.78800
H  24.05500 49.28100 33.06600
H  23.61600 50.97700 32.84700
H  30.83500 48.67300 28.59800
H  31.78700 48.12800 27.32100
H  30.71900 46.87400 27.97100
H  31.94700 45.84900 24.27800
H  31.20000 46.17600 25.84900
H  32.54000 47.30300 25.21000
H  26.67200 49.43100 21.06100
H  25.11300 51.67500 21.37900
H  28.67000 51.17400 21.90100
H  27.43200 52.17100 20.94600
H  28.21300 50.69300 20.41100
H  24.37600 49.17400 20.64700
H  23.28800 50.45700 21.01500
H  23.77000 48.83700 23.47900
H  23.43400 47.89100 22.04100
H  22.28900 49.17600 22.68800
H  22.22100 54.55400 23.93500
H  21.45900 55.06100 25.55200
H  20.82100 53.77300 24.66900
H  22.36900 52.55300 29.80700
H  23.84900 55.51500 32.44800
H  25.03000 54.08300 32.47500
H  23.60500 54.25600 33.58700

