158

Mg 2.55100 -0.40100 43.84700
C  5.88100 0.73400 43.31400
C  1.42500 2.26600 42.10600
C  -0.44800 -1.99700 43.49800
C  3.95300 -3.45800 45.00600
N  3.57200 1.28600 42.87300
C  4.91500 1.67200 42.81200
C  5.08100 3.09700 42.42300
C  3.62700 3.54500 42.07000
C  2.78600 2.25800 42.39600
C  3.08000 4.65500 42.96000
C  6.10000 3.17100 41.23400
C  5.90300 2.22100 40.07100
H  6.15300 2.69600 38.64300
N  0.68600 0.08900 42.97000
C  0.47500 1.24100 42.33900
C  -0.91100 1.23600 42.00400
C  -1.56900 0.10900 42.48100
C  -0.43200 -0.70300 42.92000
C  -1.57600 2.46200 41.31300
C  -3.03300 -0.09800 42.59500
O  -3.77200 0.88000 42.35800
C  -3.54900 -1.39300 43.13100
N  1.81200 -2.44100 44.15000
C  0.52700 -2.76100 44.06900
C  0.25600 -4.23900 44.55000
C  1.62700 -4.61600 45.25000
C  2.55600 -3.42700 44.78400
C  -1.15200 -4.49000 45.34900
C  2.14200 -6.02800 44.92600
C  2.29600 -7.14400 46.04600
N  4.52200 -1.23200 44.24000
C  4.86200 -2.51800 44.70100
C  6.33500 -2.54500 44.86500
C  6.78200 -1.31200 44.30200
C  5.61800 -0.57500 43.90000
C  7.19100 -3.54600 45.56700
C  7.93200 -0.49900 43.98300
O  9.12600 -0.77700 44.13800
C  7.38100 0.86200 43.49200
C  7.59800 1.98100 44.49000
O  7.40800 1.88300 45.68700
O  8.36300 3.03200 43.94500
C  8.80700 4.10300 44.87400
H  1.10800 3.15600 41.55800
H  -1.44700 -2.40300 43.66800
H  4.36000 -4.39300 45.39700
H  5.51200 3.60300 43.28700
H  3.44700 3.69800 41.00500
H  3.20100 5.60600 42.44200
H  3.72500 4.63300 43.83900
H  2.05000 4.56900 43.30600
H  7.13800 3.08200 41.55700
H  6.05100 4.21000 40.91000
H  4.87100 1.90200 39.92400
H  6.68400 1.47200 40.20100
H  -2.03600 3.02300 42.12600
H  -2.27200 2.22500 40.50800
H  -0.87400 3.15200 40.84500
H  -4.63000 -1.24700 43.14100
H  -3.27200 -1.71600 44.13500
H  -3.25400 -2.12500 42.38000
H  0.07500 -4.78600 43.62500
H  1.46000 -4.52000 46.32300
H  -1.74400 -3.58000 45.44400
H  -0.96800 -4.77100 46.38600
H  -1.75800 -5.26200 44.87600
H  3.14200 -6.03200 44.49200
H  1.48400 -6.30000 44.10200
H  1.89200 -6.81700 47.00500
H  3.36100 -7.25300 46.24900
H  1.64800 -7.98200 45.78900
H  6.92700 -4.51400 45.14200
H  7.00600 -3.44200 46.63600
H  8.25400 -3.33300 45.45100
H  7.84800 1.12500 42.54300
H  9.10100 4.99300 44.31800
H  9.74800 3.91600 45.39200
H  8.11900 4.46800 45.63700
Mg 1.14600 42.08500 25.22800
C  1.97600 42.23400 28.72300
C  -1.89000 40.72100 26.31300
C  0.42200 41.71300 22.14400
C  4.32500 43.11700 24.58400
N  0.08600 41.71500 27.28100
C  0.61500 41.89900 28.49100
C  -0.43800 41.83500 29.63200
C  -1.62200 41.25100 28.79900
C  -1.12500 41.15100 27.35700
C  -2.32100 39.96900 29.40500
C  -0.78800 43.17100 30.38100
C  -1.35200 43.08900 31.80700
H  -1.97000 41.73000 32.22300
N  -0.53900 41.36700 24.34500
C  -1.68500 40.88300 24.90300
C  -2.57700 40.43500 23.93500
C  -1.97100 40.69400 22.63700
C  -0.66200 41.34200 23.00300
C  -3.85600 39.65900 24.10400
C  -2.43700 40.39700 21.21200
O  -1.83600 40.74800 20.25200
C  -3.72900 39.75800 20.97300
N  2.23600 42.22900 23.63700
C  1.69500 42.23500 22.38600
C  2.69100 42.44000 21.27000
C  3.89300 43.09500 22.07000
C  3.48900 42.81000 23.56200
C  3.11400 41.18400 20.50200
C  4.05200 44.64400 21.74400
C  2.85500 45.57400 21.91300
N  2.86200 42.63600 26.37000
C  4.12100 42.97300 25.91000
C  5.01300 43.22400 26.95600
C  4.21200 42.90400 28.09100
C  2.88500 42.59200 27.70000
C  6.51700 43.56700 26.78100
C  4.21100 42.68700 29.59000
O  5.10900 42.82600 30.43500
C  2.76900 42.25200 30.02400
C  2.72500 40.85300 30.55600
O  3.22900 39.94800 30.00700
O  1.93300 40.87500 31.71700
C  1.75000 39.49500 32.33700
H  -2.83800 40.30500 26.65900
H  0.13800 41.49200 21.11300
H  5.31100 43.46900 24.27500
H  -0.17200 41.03600 30.32400
H  -2.35400 42.05700 28.75000
H  -2.32100 39.11700 28.72400
H  -3.33800 40.30700 29.60800
H  -1.80500 39.68900 30.32400
H  -1.35600 43.84900 29.74500
H  0.17000 43.68700 30.31900
H  -2.26500 43.68300 31.78200
H  -0.74100 43.58200 32.56300
H  -3.91500 39.30200 25.13200
H  -3.94900 38.70100 23.59100
H  -4.76700 40.19500 23.83700
H  -4.65500 40.24800 21.27300
H  -3.70000 38.74200 21.36600
H  -3.89500 39.61400 19.90600
H  2.40900 43.15200 20.49400
H  4.87000 42.63100 21.93200
H  2.88300 41.37300 19.45400
H  2.60900 40.25300 20.75900
H  4.18900 41.09300 20.66200
H  4.59800 44.86000 20.82500
H  4.64400 44.97000 22.59900
H  1.86600 45.17500 22.13900
H  2.70900 46.03700 20.93700
H  3.10400 46.32300 22.66400
H  6.69000 43.97500 25.78600
H  7.12400 42.69700 27.03400
H  6.70100 44.35500 27.51100
H  2.28300 42.87700 30.77400
H  1.24800 38.81100 31.65300
H  1.06700 39.41500 33.18300
H  2.72600 39.11000 32.63100

