158

Mg 47.82800 34.35000 27.16800
C  46.06100 32.72500 29.82200
C  48.00800 37.17400 29.34500
C  48.57900 36.30900 24.52100
C  47.02600 31.74000 25.08100
N  46.95800 34.93600 29.38000
C  46.47100 33.97900 30.21200
C  46.63800 34.54500 31.68000
C  47.01700 36.01200 31.47800
C  47.36300 36.06900 29.92700
C  45.92600 37.02100 31.84000
C  47.58400 33.66900 32.58400
C  48.26000 34.27800 33.83600
H  47.39500 35.06400 34.82800
N  48.44600 36.30100 27.02500
C  48.44600 37.27000 28.00200
C  49.04100 38.46800 27.45200
C  49.40900 38.19000 26.08800
C  48.70900 36.90100 25.82600
C  49.39100 39.58600 28.27900
C  50.13200 39.10700 25.03000
O  50.33300 38.70000 23.91700
C  50.62200 40.39100 25.44900
N  47.71800 34.12400 25.04100
C  48.14400 35.04800 24.17500
C  48.38000 34.42700 22.79500
C  48.05200 32.90500 23.01300
C  47.62000 32.87300 24.46400
C  47.52600 35.15600 21.69400
C  49.25700 31.94900 22.75800
C  50.55200 32.31200 23.61100
N  46.95600 32.53600 27.37300
C  46.62200 31.62300 26.39100
C  45.84300 30.56500 26.95000
C  45.62500 30.98100 28.30100
C  46.25800 32.22100 28.47800
C  45.45000 29.16900 26.33300
C  45.01000 30.55400 29.51600
O  44.42100 29.53100 29.83100
C  45.06500 31.81100 30.45900
C  45.14600 31.40000 31.87500
O  45.64300 30.33100 32.28900
O  44.44500 32.21300 32.68300
C  44.51300 32.06200 34.16500
H  48.19800 37.84900 30.18200
H  48.86500 36.83600 23.60800
H  46.98800 30.81100 24.50800
H  45.62000 34.51800 32.07000
H  47.89200 36.20600 32.09800
H  45.71800 37.63400 30.96300
H  46.30400 37.69100 32.61200
H  45.00700 36.55200 32.19100
H  48.38600 33.20800 32.00800
H  46.96500 32.88800 33.02700
H  49.20600 34.74300 33.55700
H  48.54700 33.39100 34.40000
H  50.47200 39.72000 28.28100
H  48.99000 39.56700 29.29300
H  48.94400 40.46400 27.81200
H  51.43800 40.16600 26.13600
H  49.80000 41.01400 25.80300
H  51.03000 40.87800 24.56300
H  49.43000 34.56100 22.53600
H  47.21400 32.70600 22.34500
H  47.58500 34.63700 20.73800
H  47.81000 36.15900 21.37400
H  46.48400 35.12300 22.01000
H  49.46300 31.85900 21.69200
H  48.91500 30.93600 22.97200
H  51.49500 32.14300 23.09000
H  50.51000 31.72400 24.52700
H  50.55800 33.37600 23.84700
H  45.15200 28.49000 27.13200
H  46.31500 28.73900 25.82900
H  44.68600 29.25300 25.56000
H  44.12200 32.35700 30.44300
H  43.63400 31.59000 34.60400
H  44.63100 33.06500 34.57500
H  45.38900 31.48700 34.46600
Mg -12.23100 37.49900 41.96200
C  -9.87300 34.86500 41.39700
C  -10.01900 39.62600 40.46100
C  -14.59000 39.78600 42.10700
C  -14.42500 34.98500 43.09200
N  -10.30800 37.21100 40.87400
C  -9.49100 36.15200 40.81800
C  -8.20400 36.44100 40.07400
C  -8.11400 38.00700 40.16000
C  -9.56900 38.29500 40.47300
C  -7.09800 38.60100 41.13900
C  -8.38500 35.94900 38.60100
C  -7.08000 35.25500 38.09100
H  -6.21200 36.02200 37.10700
N  -12.27100 39.45300 41.43700
C  -11.28900 40.17200 40.89600
C  -11.66400 41.52300 40.79000
C  -12.99900 41.63100 41.21400
C  -13.35700 40.24900 41.63600
C  -10.84800 42.69700 40.29800
C  -13.89300 42.91300 41.21700
O  -13.55700 44.00000 40.76100
C  -15.22900 42.83500 41.84000
N  -14.29000 37.37400 42.38500
C  -15.02300 38.49600 42.46000
C  -16.50300 38.11300 42.84500
C  -16.34100 36.58400 43.28300
C  -14.96600 36.28500 42.76800
C  -17.08900 39.02000 43.92700
C  -17.43800 35.59400 42.62100
C  -18.12700 34.69700 43.58700
N  -12.30000 35.29600 42.17000
C  -13.27100 34.45300 42.69000
C  -12.72700 33.16000 42.84100
C  -11.41700 33.19600 42.34100
C  -11.16900 34.58200 42.00400
C  -13.56900 31.92400 43.34600
C  -10.17800 32.47000 41.94800
O  -9.80900 31.31500 42.03500
C  -9.09900 33.55700 41.46800
C  -8.16100 33.63100 42.62900
O  -8.52600 34.01800 43.74700
O  -6.93600 33.18600 42.26400
C  -6.04500 32.96100 43.41700
H  -9.22700 40.26400 40.06500
H  -15.46900 40.43300 42.11800
H  -15.08100 34.27400 43.60000
H  -7.36000 35.99800 40.60300
H  -7.83600 38.44500 39.20200
H  -7.58700 39.50900 41.49300
H  -6.23100 38.88800 40.54500
H  -6.92800 37.86300 41.92300
H  -8.58400 36.82800 37.98800
H  -9.25000 35.28700 38.66200
H  -7.38300 34.35300 37.55900
H  -6.43600 34.95800 38.91900
H  -11.47300 43.19700 39.55800
H  -9.87700 42.34800 39.94700
H  -10.60900 43.48300 41.01500
H  -15.85700 42.37600 41.07700
H  -15.44600 43.90100 41.91100
H  -15.25000 42.33200 42.80700
H  -17.14700 38.16300 41.96700
H  -16.23700 36.48000 44.36300
H  -17.71900 39.78600 43.47400
H  -16.28100 39.46000 44.51300
H  -17.72000 38.38600 44.54900
H  -16.92500 34.94300 41.91300
H  -18.06600 36.22200 41.99000
H  -17.85600 33.66800 43.35000
H  -19.17700 34.98600 43.53300
H  -17.87900 35.01800 44.59800
H  -14.38000 31.63000 42.68000
H  -13.86700 31.95400 44.39400
H  -12.96600 31.01600 43.31700
H  -8.52900 33.38900 40.55400
H  -6.61200 32.36200 44.13100
H  -5.69500 33.94500 43.72700
H  -5.11300 32.44900 43.17900

