158

Mg 53.24300 24.37200 45.41800
C  50.50300 26.19600 44.37100
C  51.61800 21.50300 44.28600
C  56.15700 22.84400 45.72200
C  54.82600 27.46500 46.34000
N  51.40700 23.98500 44.10000
C  50.41600 24.87800 43.96200
C  49.19700 24.17500 43.37800
C  49.37300 22.70600 43.82200
C  50.90700 22.66600 44.12200
C  48.59000 22.09600 45.06600
C  48.74600 24.45300 41.84100
C  47.19600 24.48700 41.43600
H  46.80500 23.36200 40.52200
N  53.79700 22.46900 45.05500
C  52.97400 21.46500 44.60600
C  53.79000 20.24800 44.47600
C  54.99200 20.52800 45.13100
C  55.05900 21.96600 45.33800
C  53.26600 18.89500 43.90000
C  56.05200 19.48800 45.61800
O  55.84800 18.28100 45.62400
C  57.45100 19.95800 45.91900
N  55.32600 25.15200 45.65500
C  56.28500 24.26400 45.78900
C  57.58300 24.89300 46.42900
C  57.17500 26.38200 46.60200
C  55.68500 26.33100 46.17500
C  58.10300 24.28400 47.78800
C  58.04600 27.37700 45.79800
C  58.16000 28.86600 46.28200
N  52.84400 26.47800 45.28900
C  53.48600 27.56800 45.89900
C  52.52900 28.70800 45.92100
C  51.33700 28.18700 45.32300
C  51.58400 26.84200 44.99400
C  52.81900 30.11200 46.33400
C  49.97600 28.53100 44.94900
O  49.26200 29.57400 45.07800
C  49.36800 27.18400 44.39600
C  48.80900 27.64500 43.09400
O  49.45100 28.13100 42.20200
O  47.44500 27.66500 43.04800
C  46.78500 28.33800 41.92500
H  51.15300 20.52500 44.14500
H  57.19800 22.55400 45.88000
H  55.19800 28.32900 46.89400
H  48.40000 24.70600 43.89900
H  49.20700 22.11700 42.92000
H  48.23700 21.08600 44.85700
H  47.68900 22.70900 45.05900
H  49.13900 22.23200 45.99800
H  49.25800 23.65500 41.30400
H  49.25700 25.39800 41.65900
H  46.88300 25.45000 41.03100
H  46.57600 24.25000 42.30100
H  52.77200 19.03800 42.93900
H  52.53600 18.47900 44.59300
H  54.05600 18.16100 43.74000
H  57.92500 20.39600 45.04100
H  58.05300 19.11800 46.26700
H  57.22900 20.63700 46.74200
H  58.35300 24.76900 45.66800
H  57.27600 26.73400 47.62800
H  57.23600 23.78100 48.21700
H  58.35200 25.06500 48.50700
H  59.00700 23.68900 47.66200
H  57.66400 27.47200 44.78100
H  59.06500 27.06200 45.57500
H  59.03300 29.28300 45.78000
H  58.38900 28.84200 47.34800
H  57.32600 29.52800 46.04900
H  53.07300 30.82500 45.55000
H  53.66400 29.94100 47.00000
H  51.98800 30.55400 46.88300
H  48.45300 26.94000 44.93600
H  46.90900 27.71600 41.03800
H  47.17100 29.34700 41.78300
H  45.71800 28.39000 42.14300
Mg 16.56000 52.15500 24.80800
C  18.46800 51.31000 27.72600
C  13.81700 52.60300 26.90600
C  14.74100 52.46900 22.13900
C  19.43800 50.96100 22.87500
N  16.23600 51.98900 26.99400
C  17.20500 51.75800 28.00400
C  16.56300 51.99300 29.40900
C  15.06500 52.30800 29.13300
C  15.04500 52.40300 27.56900
C  13.90200 51.35400 29.58100
C  17.41200 53.15500 30.14000
C  17.69000 52.87900 31.64300
H  16.89400 51.91700 32.41300
N  14.51400 52.55900 24.55300
C  13.53400 52.66800 25.53100
C  12.26100 52.95800 24.85000
C  12.57500 53.06000 23.45100
C  13.98100 52.77000 23.30900
C  11.01200 53.17900 25.59000
C  11.61600 53.38800 22.25000
O  12.04000 53.43700 21.09200
C  10.07400 53.66600 22.48000
N  16.98600 51.63700 22.87300
C  16.08000 52.02400 21.87900
C  16.65600 51.95100 20.47500
C  18.20300 51.76600 20.75800
C  18.26600 51.46600 22.31000
C  16.01900 50.83300 19.65300
C  19.05400 53.04900 20.40900
C  20.46300 52.86000 19.99600
N  18.52300 51.18400 25.19600
C  19.59000 50.82500 24.36500
C  20.68600 50.38400 25.15200
C  20.29200 50.57900 26.46800
C  18.93800 51.01600 26.45300
C  22.01700 50.08900 24.60200
C  20.69600 50.47800 27.82600
O  21.79100 50.18000 28.27600
C  19.50600 50.92100 28.74400
C  19.10200 49.71600 29.43200
O  18.55500 48.75200 28.90200
O  19.55400 49.68100 30.72600
C  19.37700 48.45300 31.51900
H  13.03700 52.94100 27.59100
H  14.44500 52.82300 21.15000
H  20.29100 50.94300 22.19400
H  16.74900 51.05300 29.92900
H  14.93300 53.30200 29.55900
H  13.23400 51.85400 30.28200
H  14.41400 50.59300 30.17000
H  13.33700 50.89300 28.77100
H  16.83800 54.08100 30.09600
H  18.30300 53.38800 29.55700
H  17.70500 53.84600 32.14600
H  18.71800 52.52400 31.71800
H  10.41500 52.31000 25.31400
H  10.45700 54.09900 25.40300
H  11.10800 53.14000 26.67500
H  9.63900 54.08800 21.57400
H  9.95900 54.47400 23.20200
H  9.55100 52.78900 22.86100
H  16.45700 52.88500 19.94900
H  18.61100 50.91200 20.21800
H  15.49200 51.32800 18.83700
H  15.25900 50.39800 20.30200
H  16.79700 50.13300 19.34900
H  19.01600 53.70900 21.27600
H  18.46700 53.54100 19.63400
H  20.79700 53.52200 19.19600
H  20.68800 51.84500 19.67000
H  21.19000 52.92300 20.80500
H  22.01900 50.15100 23.51400
H  22.23700 49.02300 24.66400
H  22.75100 50.72400 25.09800
H  19.88500 51.60100 29.50700
H  18.35700 48.30800 31.87800
H  19.95300 48.52000 32.44200
H  19.66000 47.61100 30.88800

