158

Mg 26.33300 50.25100 25.54100
C  24.22200 51.83800 28.07200
C  28.49500 49.47300 27.97800
C  28.34600 49.12800 23.13300
C  24.58600 52.36100 23.14100
N  26.23100 50.60400 27.71800
C  25.29900 51.13200 28.58700
C  25.67600 50.95300 30.03900
C  27.18100 50.43200 29.95900
C  27.33900 50.18700 28.44300
C  28.23800 51.38200 30.54400
C  24.75100 50.00200 30.76500
C  24.19500 50.54200 32.00800
H  25.09700 50.94000 33.18700
N  28.07200 49.25300 25.53800
C  28.83000 49.01800 26.64700
C  29.97300 48.17900 26.32300
C  29.88100 47.93600 24.91500
C  28.73600 48.74800 24.45100
C  31.01100 47.73000 27.31800
C  30.70100 46.96200 24.03300
O  30.58100 46.97200 22.79600
C  31.57100 45.91100 24.60200
N  26.25700 50.48800 23.46000
C  27.31700 50.00900 22.72100
C  27.13400 50.40900 21.24200
C  26.10900 51.46700 21.21300
C  25.62300 51.51500 22.66800
C  28.45300 50.67300 20.47600
C  24.97300 51.31700 20.16400
C  23.80900 50.22000 20.39300
N  24.70000 51.73300 25.54300
C  24.10900 52.45800 24.46200
C  23.07200 53.30200 25.02300
C  23.06400 53.10200 26.37700
C  24.04600 52.10800 26.70500
C  22.14200 54.21400 24.29500
C  22.33200 53.41300 27.55800
O  21.28600 54.03700 27.77100
C  23.18400 52.72300 28.73800
C  23.72700 53.87500 29.62600
O  24.59400 54.68000 29.29000
O  23.18000 53.77300 30.88300
C  23.58800 54.85700 31.83600
H  29.20500 49.21600 28.76700
H  28.95300 48.67900 22.34400
H  24.10500 52.99800 22.39500
H  25.62200 51.95500 30.46400
H  27.30900 49.43500 30.38200
H  28.89800 50.88200 31.25300
H  27.73700 52.20200 31.05800
H  28.81300 51.74200 29.69000
H  25.29400 49.10200 31.05200
H  23.85400 49.63000 30.27100
H  23.43800 49.81100 32.29100
H  23.56500 51.40500 31.78900
H  30.83200 46.75900 27.77800
H  31.20500 48.49900 28.06600
H  31.94400 47.68900 26.75700
H  32.51900 46.25600 25.01400
H  31.78500 45.22900 23.78000
H  30.97000 45.28800 25.26500
H  26.84100 49.39600 20.96600
H  26.60400 52.40200 20.95300
H  28.37200 50.48100 19.40600
H  29.35500 50.20700 20.87500
H  28.85000 51.66900 20.66900
H  25.41100 51.06000 19.20000
H  24.42500 52.22000 19.89600
H  23.58000 49.86700 19.38700
H  23.02200 50.68600 20.98600
H  24.13100 49.35400 20.97000
H  21.29200 53.62200 23.95600
H  22.69200 54.62900 23.45000
H  21.67000 54.92700 24.97200
H  22.47800 52.10000 29.28600
H  23.78500 55.86900 31.48000
H  24.44800 54.49900 32.40100
H  22.77600 54.88900 32.56200
Mg 9.45500 48.11500 24.56400
C  7.33900 49.14700 27.17600
C  12.16100 49.58100 26.31300
C  11.38400 47.79100 21.72500
C  6.67700 47.42300 22.64400
N  9.72700 49.27900 26.46500
C  8.69200 49.42200 27.42600
C  9.29100 49.78300 28.75200
C  10.67200 50.37000 28.28900
C  10.93200 49.65600 26.95000
C  10.57900 51.93100 28.09700
C  9.44200 48.53100 29.73000
C  8.76500 48.81500 31.06100
H  8.25100 47.59600 31.86400
N  11.47700 48.48900 24.23700
C  12.36500 49.02500 25.06000
C  13.66200 48.86200 24.46600
C  13.45200 48.38600 23.11500
C  12.01200 48.24600 22.96700
C  14.87400 49.19100 25.21200
C  14.51900 48.20700 22.03500
O  14.34800 47.91200 20.87100
C  15.94600 48.24100 22.49100
N  9.10500 47.63400 22.50800
C  10.01900 47.64100 21.55400
C  9.43900 46.96700 20.24100
C  7.96300 46.70200 20.62600
C  7.91700 47.25100 22.03500
C  9.64300 47.82400 19.00200
C  7.41900 45.23000 20.52000
C  8.27900 44.08300 21.05500
N  7.39600 48.16700 24.80600
C  6.36700 47.84000 23.95300
C  5.11800 48.11000 24.59400
C  5.51000 48.62000 25.82400
C  6.84500 48.65600 25.95200
C  3.69500 47.93100 24.07900
C  4.93500 49.18300 26.97900
O  3.72500 49.28500 27.23100
C  6.08600 49.25400 28.00100
C  5.82800 48.06500 28.92500
O  6.46000 46.98900 29.00900
O  4.86200 48.45700 29.77000
C  4.20600 47.50100 30.64600
H  13.05100 49.97900 26.80500
H  12.04000 47.52500 20.89300
H  5.82400 47.24400 21.98500
H  8.83900 50.63700 29.25600
H  11.49600 50.19800 28.98200
H  10.99500 52.36800 27.18900
H  11.12500 52.40600 28.91100
H  9.53500 52.21700 28.22600
H  10.48500 48.34000 29.98200
H  9.08300 47.57400 29.35300
H  8.08900 49.66900 31.11200
H  9.60600 49.08300 31.70000
H  15.50500 48.32200 25.02600
H  14.81800 49.30300 26.29400
H  15.30300 50.08500 24.76000
H  16.66800 47.96400 21.72200
H  15.95300 47.36200 23.13600
H  16.18100 49.15400 23.03900
H  9.94700 46.02500 20.03600
H  7.28800 47.29600 20.00900
H  9.30700 47.31500 18.09800
H  10.65400 48.20400 18.85700
H  9.02900 48.71900 19.09600
H  7.41900 45.05700 19.44300
H  6.42800 45.11100 20.95800
H  8.97000 44.42800 21.82400
H  9.01700 43.75500 20.32300
H  7.67900 43.29900 21.51800
H  3.61200 47.58500 23.04800
H  3.20900 48.90400 24.02400
H  3.31800 47.29300 24.87800
H  6.08300 50.20700 28.52900
H  3.45800 46.90700 30.12000
H  3.72000 48.08100 31.43100
H  4.88800 46.90900 31.25600

