158

Mg -1.97300 17.29400 26.22000
C  -1.90000 15.06200 28.96900
C  -2.61000 19.86900 28.59400
C  -2.24200 19.50300 23.69900
C  -1.94300 14.67100 24.04700
N  -2.23800 17.38900 28.47500
C  -2.12500 16.35400 29.38400
C  -2.35600 16.80600 30.87800
C  -2.92500 18.18800 30.61000
C  -2.58100 18.52800 29.13100
C  -4.45800 18.48100 31.09100
C  -1.11400 16.72100 31.72300
C  -1.01600 17.58600 32.95300
H  -0.55800 16.93100 34.30500
N  -2.26200 19.41800 26.14300
C  -2.40400 20.28000 27.20800
C  -2.50800 21.64200 26.66600
C  -2.54000 21.47500 25.24500
C  -2.18400 20.10700 25.00300
C  -2.80400 22.78000 27.56300
C  -2.58400 22.55700 24.17900
O  -2.30700 22.37100 23.05300
C  -2.89000 23.97900 24.61200
N  -2.11200 17.08600 24.19600
C  -2.17000 18.13800 23.35200
C  -2.21600 17.67900 21.93000
C  -2.25000 16.10000 22.05700
C  -1.99400 15.92600 23.52500
C  -3.34800 18.27800 21.04200
C  -1.38900 15.29600 21.15100
C  0.12900 15.35900 21.33100
N  -1.86200 15.27200 26.41600
C  -1.81100 14.27300 25.42100
C  -1.74700 12.96400 26.05800
C  -1.67500 13.21500 27.42900
C  -1.80900 14.67600 27.61600
C  -1.80500 11.67900 25.30000
C  -1.63300 12.59700 28.73500
O  -1.55600 11.36800 29.01400
C  -1.78800 13.76000 29.76100
C  -0.67200 13.68600 30.77800
O  0.34500 14.28000 30.51000
O  -0.98400 13.03400 31.98700
C  0.03400 12.92200 33.03300
H  -2.54200 20.56400 29.43400
H  -2.26700 20.12200 22.80000
H  -2.01700 13.84000 23.34300
H  -3.07000 16.21200 31.44800
H  -2.39600 18.91200 31.22900
H  -5.13000 18.86200 30.32200
H  -4.47600 19.32800 31.77700
H  -4.98400 17.73500 31.68700
H  -0.22400 16.78000 31.09600
H  -1.07100 15.74400 32.20500
H  -1.94100 18.12500 33.16100
H  -0.22700 18.28200 32.67100
H  -3.10200 22.45600 28.56100
H  -3.72800 23.23800 27.21000
H  -1.98200 23.49000 27.47500
H  -2.97500 24.56200 23.69500
H  -2.15700 24.24900 25.37300
H  -3.87800 24.17900 25.02700
H  -1.26000 18.02300 21.53400
H  -3.25900 15.76800 21.81100
H  -3.59700 17.50200 20.31800
H  -2.90900 19.11100 20.49200
H  -4.22000 18.59900 21.61100
H  -1.57500 15.68200 20.14900
H  -1.85700 14.32100 21.00900
H  0.35400 16.22600 21.95200
H  0.58200 15.53800 20.35600
H  0.49300 14.44400 21.79800
H  -1.01300 11.74300 24.55500
H  -2.81400 11.46900 24.94500
H  -1.37200 10.89100 25.91600
H  -2.69900 13.70500 30.35700
H  0.95000 13.38100 32.66100
H  0.33600 11.88600 33.18200
H  -0.37200 13.34400 33.95300
Mg 6.81800 53.99000 40.93100
C  6.21400 50.64000 40.41200
C  10.04200 53.59100 40.09600
C  7.19000 57.38000 40.94500
C  3.29400 54.39300 41.64000
N  7.89700 52.31800 40.14600
C  7.56000 51.04000 40.18900
C  8.72500 50.12700 39.95200
C  9.90500 51.02400 40.13400
C  9.24200 52.38100 40.21900
C  10.93700 50.74700 41.28200
C  8.73900 49.44600 38.46900
C  8.50100 50.41600 37.29600
H  7.35000 50.26800 36.39200
N  8.37800 55.26500 40.63100
C  9.69500 54.91400 40.26800
C  10.44700 56.11600 40.05000
C  9.61500 57.24500 40.35100
C  8.34600 56.62400 40.70800
C  11.89300 55.99000 39.63000
C  10.10900 58.68700 40.37000
O  11.20600 58.99800 39.92100
C  9.27500 59.83200 40.90600
N  5.33700 55.73000 41.06800
C  5.80300 56.99500 41.09700
C  4.69100 58.05400 41.32700
C  3.44700 57.05800 41.56900
C  4.04400 55.65100 41.51300
C  4.87100 59.13400 42.46700
C  2.14200 57.25800 40.72500
C  0.79400 57.56000 41.55900
N  5.06400 52.84000 41.03000
C  3.75600 53.10600 41.42700
C  3.02900 51.86100 41.44000
C  3.93200 50.88100 41.02800
C  5.12600 51.49200 40.87000
C  1.54000 51.70800 41.77400
C  4.11700 49.46400 40.76000
O  3.23900 48.56200 40.85500
C  5.62700 49.22500 40.33600
C  5.41200 48.58200 39.02400
O  4.70200 48.98800 38.17100
O  5.91400 47.31100 39.11300
C  5.62500 46.43200 38.01800
H  11.09700 53.33600 39.97800
H  7.31300 58.46100 41.03500
H  2.21800 54.44700 41.81400
H  8.83000 49.30400 40.65800
H  10.48500 51.08700 39.21400
H  11.91200 50.69900 40.79900
H  10.72200 49.82800 41.82800
H  10.86300 51.60200 41.95400
H  8.13200 48.54100 38.45700
H  9.75900 49.10200 38.29600
H  9.36600 50.36700 36.63500
H  8.45500 51.39300 37.77700
H  12.49500 55.43300 40.34800
H  12.39400 56.95800 39.65700
H  11.93800 55.55900 38.63000
H  9.93600 60.68700 41.04600
H  8.99300 59.49100 41.90200
H  8.40500 60.09500 40.30400
H  4.73200 58.66800 40.42700
H  3.21100 57.19100 42.62500
H  5.66200 58.83400 43.15300
H  4.01300 59.28400 43.12300
H  5.13900 60.03000 41.90500
H  1.90600 56.38800 40.11300
H  2.35700 58.11400 40.08600
H  0.63300 58.63000 41.42600
H  0.92800 57.34600 42.61900
H  -0.12300 57.11100 41.17700
H  1.41700 51.55600 42.84700
H  1.21700 50.80500 41.25700
H  1.09100 52.62500 41.39000
H  6.17200 48.52000 40.96400
H  5.71400 47.02400 37.10700
H  4.57300 46.16600 38.12900
H  6.38200 45.66200 37.86500

