158

Mg 26.19200 -0.27600 29.11600
C  27.85800 -0.65100 32.08100
C  23.17700 0.16600 30.83700
C  24.54100 -0.27900 26.14100
C  29.22600 -0.87600 27.34800
N  25.53100 -0.50300 31.18200
C  26.44900 -0.41200 32.21900
C  25.63200 -0.08100 33.57200
C  24.12900 0.19700 33.04500
C  24.27100 -0.08600 31.56700
C  23.04400 -0.72700 33.81700
C  26.15100 1.04500 34.54000
C  26.46800 0.47200 35.94800
H  27.30100 1.39900 36.82600
N  24.16500 -0.03100 28.60100
C  23.06700 0.16300 29.43900
C  21.84800 0.37200 28.63100
C  22.24600 0.27200 27.22200
C  23.70100 -0.00900 27.27500
C  20.48000 0.55300 29.28100
C  21.45600 0.33300 25.92700
O  21.90300 0.24900 24.79800
C  19.98100 0.49900 26.11200
N  26.81500 -0.49100 27.08900
C  25.95000 -0.52300 26.04100
C  26.60500 -0.90100 24.72200
C  28.10800 -0.66600 25.01800
C  28.07900 -0.66900 26.62500
C  26.22300 -2.34900 24.37300
C  28.74500 0.72400 24.61800
C  29.12300 0.86900 23.06500
N  28.08700 -0.70700 29.60700
C  29.21800 -0.92000 28.78500
C  30.31700 -1.22400 29.67300
C  29.89500 -1.06200 30.96500
C  28.51200 -0.83900 30.84600
C  31.71000 -1.52300 29.28900
C  30.24100 -0.97700 32.34000
O  31.33500 -1.00900 32.96700
C  28.95000 -0.70600 33.13300
C  28.72300 -1.93200 34.05700
O  28.43200 -3.08400 33.77000
O  29.10400 -1.55700 35.33500
C  29.14100 -2.70400 36.30700
H  22.36800 0.49800 31.49100
H  24.09400 -0.38700 25.15100
H  30.14300 -1.04400 26.78000
H  25.68200 -1.04500 34.07900
H  23.90400 1.26100 33.11700
H  22.47400 -1.37700 33.15200
H  22.30600 -0.19100 34.41400
H  23.64500 -1.37900 34.45100
H  25.46200 1.88900 34.57200
H  27.14500 1.29800 34.17200
H  26.88900 -0.52600 35.82500
H  25.47500 0.35700 36.38200
H  20.07900 1.54000 29.05400
H  20.65000 0.54900 30.35700
H  19.83000 -0.27800 29.00600
H  19.51000 0.58100 25.13200
H  19.84100 1.40100 26.70800
H  19.57400 -0.42600 26.52000
H  26.22200 -0.36700 23.85200
H  28.73400 -1.49800 24.69400
H  25.28600 -2.62200 24.85800
H  26.98500 -3.04800 24.71800
H  26.00100 -2.53400 23.32200
H  29.69900 0.99000 25.07400
H  27.99400 1.47600 24.86200
H  28.45900 1.55300 22.53700
H  28.92100 -0.08500 22.57900
H  30.13700 1.22300 22.87900
H  31.91200 -1.22100 28.26100
H  31.89300 -2.59700 29.27600
H  32.44300 -1.13700 29.99700
H  29.06900 0.17600 33.76200
H  28.37300 -2.58000 37.07100
H  30.11500 -2.83400 36.78000
H  28.99000 -3.69600 35.88100
Mg 43.82100 4.11100 48.06400
C  41.74700 6.74000 47.08800
C  41.17500 1.91500 47.66200
C  45.85400 1.41600 48.85400
C  46.46000 6.17000 48.22400
N  41.74900 4.34900 47.39800
C  41.03900 5.54100 47.06600
C  39.64400 5.24200 46.44300
C  39.45000 3.70200 46.90300
C  40.90800 3.24600 47.37300
C  38.38500 3.49200 48.02400
C  39.76000 5.43200 44.87500
C  38.51800 6.10100 44.15900
H  38.12400 5.62800 42.75100
N  43.54300 1.92400 48.27100
C  42.34600 1.30100 48.20100
C  42.51900 -0.06600 48.51900
C  43.85500 -0.24800 48.70700
C  44.48400 1.08900 48.65900
C  41.47000 -1.16500 48.43100
C  44.49100 -1.61700 49.03400
O  43.80200 -2.65500 48.80600
C  45.81500 -1.79700 49.49400
N  45.96800 3.75900 48.23700
C  46.52300 2.58100 48.58200
C  48.02300 2.80200 48.73700
C  48.20700 4.34900 48.80100
C  46.76800 4.80000 48.46200
C  48.71400 2.16100 50.00100
C  49.26100 5.05800 47.83600
C  50.11700 6.16200 48.42600
N  44.09800 6.03500 47.64900
C  45.27100 6.74700 47.82400
C  45.05800 8.13300 47.39700
C  43.65700 8.17100 47.15600
C  43.11100 6.83200 47.32200
C  46.09300 9.29900 47.32700
C  42.53000 9.03400 46.79500
O  42.44700 10.24000 46.52200
C  41.21800 8.15400 46.65500
C  40.21700 8.67800 47.53000
O  40.01900 8.30600 48.66200
O  39.36800 9.57300 46.85200
C  38.13600 9.95700 47.63500
H  40.24700 1.33800 47.65800
H  46.46200 0.56100 49.15800
H  47.32000 6.83100 48.35300
H  38.95200 5.94900 46.90200
H  39.12900 3.07900 46.06800
H  38.85700 3.05800 48.90500
H  37.62000 2.96400 47.45500
H  37.96500 4.44600 48.34300
H  39.98100 4.43400 44.49600
H  40.67100 5.97500 44.62400
H  38.61600 7.18600 44.18400
H  37.67200 5.87800 44.80800
H  41.49400 -1.85700 49.27300
H  41.72800 -1.63800 47.48300
H  40.45900 -0.78100 48.29900
H  46.54400 -1.48200 48.74800
H  45.93900 -2.85800 49.71000
H  45.93400 -1.21100 50.40500
H  48.51000 2.51700 47.80500
H  48.35700 4.66500 49.83300
H  49.25500 2.97900 50.47700
H  49.44700 1.43000 49.66000
H  47.97600 1.80900 50.72200
H  48.69000 5.49300 47.01600
H  49.90000 4.25100 47.47700
H  49.95000 6.33900 49.48800
H  49.88700 7.06200 47.85700
H  51.18900 5.97100 48.36500
H  45.80500 9.96100 48.14400
H  45.97500 9.79200 46.36200
H  47.14900 9.07400 47.47600
H  40.89600 8.14100 45.61400
H  37.36600 10.18300 46.89600
H  38.22900 10.89000 48.19000
H  37.63200 9.11600 48.11300

