158

Mg -1.24400 17.61300 26.87300
C  -1.92400 15.35000 29.54200
C  -2.38100 20.08800 29.01300
C  -1.10400 19.74700 24.31000
C  -0.90100 14.97000 24.85600
N  -1.88200 17.70900 29.06400
C  -1.95400 16.68600 30.00800
C  -2.43700 17.22700 31.42000
C  -2.78900 18.75900 31.07000
C  -2.30400 18.84800 29.62800
C  -4.26600 19.08800 31.26500
C  -1.37900 17.01900 32.57000
C  -1.82300 16.32400 33.85100
H  -0.79100 16.15500 34.93700
N  -1.57400 19.64800 26.73900
C  -1.98100 20.50600 27.69100
C  -1.92900 21.81400 27.16800
C  -1.54700 21.70200 25.78200
C  -1.36400 20.29700 25.56500
C  -2.29300 23.13800 27.96700
C  -1.27900 22.83900 24.77300
O  -0.99000 22.69800 23.57900
C  -1.43000 24.29200 25.23200
N  -0.93200 17.47800 24.83400
C  -0.80600 18.40500 23.92100
C  -0.61400 17.91200 22.48400
C  -0.33700 16.37700 22.80600
C  -0.69900 16.26600 24.30900
C  -1.71700 18.29200 21.47100
C  1.13600 15.87000 22.56200
C  1.30400 14.39500 22.45300
N  -1.28700 15.58000 27.14600
C  -1.20300 14.61300 26.17800
C  -1.53400 13.29400 26.68500
C  -1.69400 13.51600 28.09700
C  -1.61500 14.91500 28.29400
C  -1.69400 12.09300 25.96700
C  -2.04300 12.97200 29.36800
O  -2.21500 11.83300 29.69200
C  -2.04000 14.11800 30.37900
C  -0.84500 13.91700 31.27300
O  0.30000 14.24200 30.92400
O  -1.24600 13.48700 32.51700
C  -0.14600 13.26200 33.52100
H  -2.83000 20.92100 29.55800
H  -0.99100 20.42100 23.45800
H  -0.79500 14.19000 24.09900
H  -3.29700 16.57800 31.58200
H  -2.27000 19.41600 31.76800
H  -4.82000 18.24700 31.68200
H  -4.77000 19.34100 30.33200
H  -4.42500 19.92800 31.94100
H  -1.01700 18.01100 32.83800
H  -0.52700 16.39700 32.29400
H  -2.31600 15.36800 33.67400
H  -2.56800 16.99900 34.27200
H  -2.91800 23.73900 27.30700
H  -1.39000 23.71400 28.16500
H  -2.80400 22.88600 28.89600
H  -1.19400 24.91600 24.37100
H  -0.77200 24.54200 26.06400
H  -2.48100 24.54200 25.38100
H  0.32800 18.31000 22.10700
H  -1.05200 15.83700 22.18500
H  -2.28700 19.10200 21.92600
H  -2.31800 17.40200 21.28300
H  -1.32500 18.61700 20.50700
H  1.63100 16.08400 23.51000
H  1.58300 16.50000 21.79400
H  1.95900 14.27700 21.59000
H  0.41300 13.79200 22.27900
H  1.89000 13.97300 23.26900
H  -1.76800 12.36500 24.91400
H  -2.59500 11.54700 26.24600
H  -0.78900 11.50000 26.09600
H  -2.99800 14.14200 30.89900
H  0.51200 12.43100 33.26900
H  -0.56500 12.94500 34.47600
H  0.45900 14.16800 33.57200
Mg 45.32100 4.60200 48.69000
C  43.31400 7.35500 48.18400
C  42.53500 2.69900 48.34900
C  47.27700 1.81800 48.73800
C  48.18500 6.61100 48.46800
N  43.17100 4.97600 48.28400
C  42.58800 6.19600 48.17200
C  41.10200 6.06000 47.72800
C  40.78900 4.60500 48.21000
C  42.23200 4.05800 48.47300
C  39.82800 4.49800 49.35200
C  40.91600 6.36600 46.25500
C  39.81100 7.41000 45.91800
H  39.06900 7.28800 44.62600
N  44.95800 2.57800 48.45500
C  43.75700 2.00700 48.22000
C  43.97000 0.64100 47.90700
C  45.36400 0.28200 47.99700
C  45.92300 1.53700 48.50500
C  42.86800 -0.32700 47.52400
C  45.94600 -1.04000 47.78000
O  45.29000 -1.99700 47.43900
C  47.43500 -1.28400 47.93800
N  47.47300 4.27900 48.46200
C  47.98500 3.00200 48.65100
C  49.50300 3.16500 48.90500
C  49.72300 4.68800 48.86800
C  48.40600 5.25500 48.54500
C  50.17600 2.38300 50.12100
C  50.76100 5.23300 47.72900
C  51.77500 6.19000 48.40100
N  45.69000 6.52300 48.50800
C  46.89200 7.22300 48.51600
C  46.63900 8.67700 48.41800
C  45.22500 8.69500 48.19700
C  44.70800 7.41500 48.33600
C  47.67400 9.83300 48.35700
C  44.16500 9.61900 47.85700
O  44.32100 10.80800 47.62800
C  42.84900 8.80700 47.96100
C  42.18900 9.41700 49.09400
O  42.24600 8.98400 50.18500
O  41.28800 10.44900 48.80500
C  40.18500 10.58400 49.74600
H  41.69000 2.02900 48.17900
H  48.00800 1.03000 48.93000
H  49.10700 7.13300 48.73200
H  40.47200 6.64200 48.40000
H  40.45100 3.88600 47.46300
H  39.49000 5.49200 49.64500
H  40.11600 4.02600 50.29100
H  38.95200 3.91400 49.07100
H  40.64600 5.46900 45.69800
H  41.86700 6.79200 45.93700
H  40.38100 8.33700 45.85600
H  39.14100 7.54400 46.76700
H  43.22300 -0.85900 46.64100
H  41.94500 0.14700 47.19200
H  42.59000 -0.92300 48.39300
H  47.71800 -1.27000 48.99000
H  47.95800 -0.50600 47.38000
H  47.67700 -2.25500 47.50600
H  49.83300 2.57200 48.05200
H  49.97500 4.98500 49.88700
H  50.72600 1.49300 49.81800
H  49.42500 1.98800 50.80500
H  50.67600 3.21300 50.62000
H  50.29400 5.71000 46.86700
H  51.24800 4.35200 47.31200
H  52.79200 5.80700 48.48500
H  51.54300 6.41000 49.44300
H  51.81800 7.12900 47.84900
H  47.23900 10.72100 47.90000
H  48.43100 9.54800 47.62600
H  48.08300 10.03700 49.34700
H  42.32100 8.85600 47.00900
H  39.62600 11.51900 49.70700
H  40.57800 10.43700 50.75200
H  39.55000 9.72300 49.53900

