158

Mg 46.18300 45.88900 43.96400
C  42.85800 44.74600 43.34500
C  47.22800 42.85200 42.94600
C  49.09600 47.30500 43.18100
C  44.73000 49.16800 44.08100
N  45.19000 44.05800 43.21200
C  43.84400 43.81400 42.98200
C  43.62500 42.37800 42.55500
C  44.94600 41.68000 42.94400
C  45.89100 42.90400 43.12900
C  44.82700 40.85900 44.37200
C  43.24400 42.56100 41.10400
C  41.88600 41.98100 40.70500
H  41.81900 41.16200 39.43100
N  48.01900 45.15800 43.27500
C  48.22300 43.89600 42.94200
C  49.65500 43.68600 42.53000
C  50.25700 45.02700 42.49500
C  49.14600 45.92500 42.99300
C  50.26200 42.34700 42.12700
C  51.62700 45.38800 41.94600
O  52.39800 44.44600 41.71100
C  52.10400 46.73000 41.66800
N  46.83500 47.94400 43.53500
C  48.13200 48.25800 43.40500
C  48.45500 49.74300 43.70600
C  47.03200 50.32800 43.93600
C  46.11900 49.05300 43.82400
C  49.44300 49.77600 44.89300
C  46.38300 51.50900 43.15400
C  47.23200 52.64600 42.46100
N  44.17500 46.75600 44.08600
C  43.77000 48.07900 44.09600
C  42.29800 48.11500 44.12600
C  41.90800 46.79200 43.80700
C  43.09500 46.05100 43.74800
C  41.40100 49.30700 44.24800
C  40.78300 45.93600 43.53800
O  39.60200 46.21700 43.35200
C  41.37900 44.57500 43.22600
C  40.81000 43.74300 44.29600
O  40.18300 42.69400 44.12300
O  41.30900 44.18500 45.48100
C  40.93300 43.39300 46.66500
H  47.61600 41.85000 42.75000
H  50.06900 47.78200 43.04800
H  44.27500 50.13400 44.30500
H  42.77400 41.87800 43.01800
H  45.27600 41.06600 42.10700
H  45.08900 39.84100 44.08700
H  43.76900 40.94600 44.62000
H  45.39300 41.27700 45.20500
H  43.95300 41.97200 40.52100
H  43.24200 43.58100 40.71900
H  41.14400 42.74800 40.48100
H  41.58300 41.31800 41.51500
H  50.55100 42.44000 41.08100
H  49.46900 41.59900 42.11100
H  51.12400 42.00700 42.70100
H  51.38700 47.25000 41.03300
H  53.07000 46.67100 41.16600
H  52.28400 47.28300 42.59000
H  48.99100 50.07100 42.81500
H  46.99400 50.55300 45.00100
H  50.42500 49.46700 44.53300
H  48.94200 49.05400 45.53800
H  49.30300 50.71600 45.42500
H  45.65100 51.91400 43.85300
H  45.97600 51.03100 42.26200
H  47.47200 53.28500 43.31100
H  46.76500 53.10500 41.59000
H  48.22400 52.36500 42.10700
H  41.29900 49.53400 45.30900
H  40.39600 49.05700 43.90900
H  41.75800 50.21700 43.76400
H  41.02300 44.24300 42.25100
H  41.08000 43.99000 47.56500
H  41.56900 42.51100 46.73600
H  39.86300 43.21200 46.56100
Mg 40.72000 41.38000 27.83700
C  39.60100 44.12300 29.99600
C  41.32800 39.56100 30.53900
C  41.58000 39.17700 25.73300
C  40.39700 43.93200 25.26500
N  40.49600 41.83600 29.98200
C  39.90400 42.88400 30.63000
C  39.90300 42.61700 32.19900
C  40.55900 41.18800 32.38100
C  40.80200 40.77600 30.86800
C  41.71100 41.13800 33.43000
C  38.49700 42.84100 32.90700
C  38.09700 42.09100 34.21900
H  37.65500 42.83300 35.45900
N  41.29200 39.53800 28.03000
C  41.67300 38.94100 29.27300
C  42.23600 37.59900 29.00800
C  42.35000 37.52200 27.59100
C  41.70100 38.76000 27.07900
C  42.66400 36.63200 30.08700
C  42.97600 36.38500 26.82800
O  43.02900 36.42200 25.63000
C  43.56700 35.22100 27.52400
N  40.93700 41.51600 25.80800
C  41.23500 40.42400 25.12100
C  41.09800 40.65600 23.67600
C  40.54500 42.15000 23.47300
C  40.53600 42.56000 24.94700
C  42.57400 40.46100 23.10900
C  39.11200 42.13100 22.87900
C  38.12100 41.20300 23.48100
N  40.36500 43.61700 27.64000
C  40.23900 44.44900 26.53800
C  39.83800 45.76500 26.91200
C  39.50800 45.67700 28.26200
C  39.81900 44.35400 28.63600
C  39.69700 46.89900 26.03900
C  38.96000 46.44300 29.40900
O  38.50600 47.58200 29.49700
C  38.99300 45.39100 30.60200
C  39.76400 46.03600 31.73100
O  40.97800 46.29700 31.75400
O  38.80800 46.38400 32.68900
C  39.34200 47.00700 33.95700
H  41.47600 38.93800 31.42300
H  41.88000 38.50000 24.93100
H  40.27600 44.59300 24.40500
H  40.65900 43.35900 32.45400
H  39.77100 40.50500 32.69900
H  42.72400 40.93500 33.08200
H  41.55600 40.58300 34.35500
H  41.89000 42.16700 33.74100
H  37.72800 42.63100 32.16400
H  38.34800 43.87800 33.20700
H  39.01700 41.69100 34.64400
H  37.39200 41.32600 33.89200
H  42.58700 37.19700 31.01600
H  43.69000 36.27900 29.98300
H  41.99000 35.78400 30.20800
H  44.42100 35.51200 28.13500
H  44.04000 34.60500 26.75900
H  42.81300 34.64000 28.05500
H  40.45700 39.88600 23.24600
H  41.10700 42.64400 22.68100
H  42.85200 41.41600 22.66400
H  42.49400 39.67000 22.36300
H  43.30200 40.13000 23.85000
H  39.15300 41.87300 21.82100
H  38.70600 43.14000 22.95700
H  38.55300 40.77900 24.38800
H  37.57400 40.57800 22.77400
H  37.35100 41.84000 23.91600
H  38.70300 47.01600 25.60800
H  40.34700 46.94900 25.16500
H  39.81800 47.81400 26.61800
H  37.99200 45.11700 30.93800
H  39.34700 46.30100 34.78800
H  38.63900 47.77700 34.27600
H  40.36000 47.39000 33.88400

