158

Mg -0.41800 7.56600 26.16200
C  0.48900 9.53500 28.87900
C  -0.22000 4.78300 28.17900
C  -0.66000 5.56300 23.39500
C  0.07000 10.34100 24.07200
N  0.04400 7.24200 28.31700
C  0.30500 8.20500 29.18900
C  0.35400 7.60700 30.68000
C  0.35000 6.00800 30.39400
C  -0.04300 6.00200 28.83300
C  1.73100 5.34100 30.65400
C  -0.89200 8.19900 31.41400
C  -1.04200 7.80300 32.87300
H  0.25800 7.62700 33.79100
N  -0.40500 5.40900 25.84000
C  -0.27800 4.50400 26.80900
C  -0.38300 3.17600 26.26900
C  -0.57700 3.32800 24.81800
C  -0.61400 4.81800 24.61600
C  -0.29300 1.88400 27.12300
C  -0.78200 2.17900 23.74200
O  -1.03800 2.42800 22.55600
C  -0.74500 0.77900 24.19500
N  -0.43900 7.85400 24.10600
C  -0.60200 6.90600 23.14800
C  -0.60100 7.45800 21.73500
C  -0.74400 9.05300 21.99800
C  -0.32600 9.14700 23.49400
C  0.77300 7.09400 20.97000
C  -2.15800 9.56100 21.64300
C  -2.33800 10.30600 20.38000
N  -0.00100 9.54300 26.39000
C  0.22000 10.57500 25.46800
C  0.70700 11.78100 26.18900
C  0.68400 11.32400 27.48600
C  0.42700 9.96500 27.59700
C  0.94300 13.13500 25.58400
C  0.96600 11.87100 28.82900
O  1.38800 12.99600 29.11600
C  0.69400 10.74100 29.80400
C  1.96700 10.57700 30.61400
O  2.90700 9.86100 30.31500
O  1.88700 11.35200 31.75200
C  3.18500 11.51700 32.42200
H  -0.15100 3.94800 28.88000
H  -0.72500 4.83500 22.58300
H  0.30000 11.23200 23.48400
H  1.25700 7.85900 31.23600
H  -0.40400 5.52600 31.01600
H  2.56300 6.03700 30.55100
H  2.02000 4.62300 29.88600
H  1.75900 4.93600 31.66500
H  -1.78800 7.80300 30.93600
H  -0.98200 9.27800 31.28700
H  -1.71800 6.94800 32.84900
H  -1.63300 8.50700 33.45900
H  0.63900 1.38600 26.85600
H  -1.10400 1.18300 26.92800
H  -0.41000 2.11700 28.18200
H  -0.69500 0.08800 23.35300
H  -1.69300 0.65000 24.71700
H  0.17100 0.63800 24.76900
H  -1.53500 7.19700 21.23900
H  0.12600 9.30600 21.39200
H  1.61100 7.06100 21.66600
H  1.02900 7.90300 20.28400
H  0.45300 6.12600 20.58400
H  -2.28400 10.27400 22.45800
H  -2.91400 8.78800 21.78400
H  -1.41000 10.31000 19.80700
H  -2.57100 11.35000 20.59000
H  -3.08400 9.81700 19.75400
H  1.84300 13.44500 26.11600
H  0.10800 13.75400 25.91100
H  1.10200 13.11000 24.50600
H  -0.14700 11.05600 30.42200
H  4.03000 11.68300 31.75500
H  3.38600 10.60300 32.98100
H  3.20700 12.36200 33.11000
Mg 6.52500 54.43300 41.16900
C  3.91800 52.22800 41.06000
C  8.59000 52.16200 39.79400
C  8.93400 56.83800 40.91700
C  4.27000 56.94100 42.33600
N  6.13200 52.54300 40.17000
C  5.02400 51.76000 40.30100
C  5.18200 50.39000 39.60900
C  6.74600 50.23800 39.48000
C  7.20600 51.72300 39.79300
C  7.53100 49.33200 40.45500
C  4.52600 50.32800 38.17300
C  3.96400 49.01100 37.83300
H  4.50000 48.20800 36.66500
N  8.50300 54.44300 40.45200
C  9.19000 53.37000 40.01700
C  10.54000 53.72800 39.69300
C  10.55300 55.15900 39.64900
C  9.30100 55.57300 40.31500
C  11.53500 52.77700 39.13200
C  11.67000 55.99800 39.15400
O  12.72800 55.45600 38.77900
C  11.48100 57.49200 39.00700
N  6.58700 56.59700 41.47600
C  7.74600 57.32900 41.46900
C  7.57600 58.71400 42.21200
C  5.99700 58.73100 42.32800
C  5.60400 57.33900 42.10800
C  8.38700 58.92200 43.55800
C  5.31000 59.63100 41.30600
C  4.37900 60.75800 41.84400
N  4.52900 54.61700 41.56000
C  3.67500 55.64500 41.98000
C  2.38100 55.18900 42.28800
C  2.43800 53.84000 42.00900
C  3.76300 53.51500 41.58000
C  1.13900 55.91200 42.73200
C  1.68900 52.65600 41.95200
O  0.47800 52.50600 42.16900
C  2.64400 51.49900 41.61600
C  2.02200 50.63500 40.66400
O  1.50000 51.09700 39.65300
O  1.94800 49.31800 41.20500
C  0.92700 48.53200 40.45000
H  9.20300 51.33800 39.42100
H  9.82000 57.44800 41.10700
H  3.53900 57.56900 42.85000
H  4.77100 49.63400 40.27700
H  6.99400 49.98000 38.45100
H  7.41700 48.27100 40.23400
H  7.28200 49.41400 41.51300
H  8.59900 49.52400 40.35900
H  5.21500 50.70800 37.41800
H  3.70300 51.04200 38.13000
H  2.91100 49.19600 37.61700
H  4.04900 48.47300 38.77700
H  11.42000 52.57600 38.06700
H  11.38900 51.79100 39.57400
H  12.50400 53.08500 39.52600
H  10.42700 57.76300 38.93700
H  11.99300 57.84000 38.11100
H  11.93000 57.83700 39.93900
H  7.75100 59.59300 41.59200
H  5.71800 59.12300 43.30600
H  7.70600 58.82900 44.40400
H  9.07700 59.76600 43.56800
H  8.98000 58.03000 43.76000
H  4.56900 59.04500 40.76300
H  5.95200 60.17400 40.61200
H  4.38700 60.69700 42.93200
H  3.34600 60.59600 41.53800
H  4.83500 61.65500 41.42300
H  0.83500 56.72300 42.06900
H  1.40700 56.39500 43.67200
H  0.37300 55.28000 43.18200
H  2.85100 50.91400 42.51200
H  1.36200 47.56900 40.18000
H  0.65000 48.89800 39.46100
H  0.03300 48.32100 41.03600

