158

Mg -0.85100 17.77400 27.77800
C  -1.72600 15.63800 30.43700
C  -1.67500 20.31000 29.77800
C  -0.77900 19.67800 25.05700
C  -0.63400 14.99900 25.68400
N  -1.66200 17.99400 29.93400
C  -1.91100 16.98600 30.79100
C  -2.09400 17.54600 32.19400
C  -2.18900 19.05300 31.91500
C  -1.87100 19.10400 30.44200
C  -3.61600 19.61600 32.32100
C  -0.96200 17.12100 33.17300
C  -0.51900 18.22000 34.29500
H  0.45100 17.70200 35.30400
N  -1.04100 19.76100 27.55700
C  -1.31700 20.69400 28.49300
C  -1.17700 21.98300 27.90600
C  -0.99300 21.86600 26.50300
C  -0.93700 20.38400 26.34000
C  -1.45400 23.26200 28.65800
C  -0.72500 22.87600 25.37900
O  -0.67100 22.49900 24.21900
C  -0.71700 24.33200 25.70800
N  -0.69600 17.40900 25.71100
C  -0.61400 18.39900 24.77200
C  -0.50400 17.86900 23.32400
C  -0.08600 16.42400 23.63800
C  -0.50900 16.24900 25.10300
C  -1.77400 18.16300 22.52200
C  1.34700 16.21500 23.36800
C  2.40500 16.62200 24.38900
N  -1.13700 15.78300 27.99400
C  -0.95200 14.77200 27.02400
C  -1.25800 13.40700 27.60000
C  -1.53200 13.67800 28.97900
C  -1.42700 15.15900 29.13000
C  -1.36600 12.18200 26.82600
C  -1.82800 13.09900 30.25400
O  -1.89200 11.91500 30.53500
C  -1.91900 14.34400 31.32400
C  -0.68500 14.12200 32.21100
O  0.38800 14.64000 32.03600
O  -1.10600 13.43200 33.34500
C  -0.15300 13.46100 34.43700
H  -1.91300 21.09800 30.49500
H  -0.95100 20.23300 24.13300
H  -0.52700 14.15000 25.00500
H  -3.07700 17.16300 32.46800
H  -1.44300 19.59100 32.50100
H  -4.28000 19.39300 31.48600
H  -3.46100 20.67900 32.50900
H  -4.05300 19.19000 33.22400
H  -0.05100 16.93200 32.60400
H  -1.26200 16.28000 33.79800
H  -1.39600 18.75800 34.65500
H  0.18200 18.93400 33.86200
H  -2.10800 23.84500 28.00900
H  -0.47800 23.72100 28.81400
H  -1.98700 23.00100 29.57200
H  -0.22400 24.94400 24.95300
H  -0.15900 24.53300 26.62200
H  -1.74000 24.68700 25.82800
H  0.34800 18.41500 22.92100
H  -0.70100 15.64300 23.19100
H  -2.24100 17.21000 22.27500
H  -1.46300 18.80200 21.69500
H  -2.51300 18.78000 23.03300
H  1.62400 16.69600 22.43100
H  1.45200 15.15300 23.14300
H  2.89300 17.50500 23.97600
H  2.92500 15.67100 24.50700
H  2.02800 16.97500 25.34800
H  -0.52300 12.02400 26.15300
H  -2.31400 12.15700 26.28700
H  -1.33900 11.34600 27.52500
H  -2.89900 14.37500 31.79900
H  0.11900 12.51300 34.90100
H  -0.70500 14.01100 35.20000
H  0.80200 13.94400 34.23000
Mg 1.68500 8.10300 27.91200
C  2.35500 10.57100 30.46400
C  1.58500 5.76700 30.27000
C  1.15900 5.99600 25.42200
C  2.21100 10.74400 25.60300
N  2.01500 8.17400 30.12600
C  2.04400 9.26800 30.94200
C  1.64600 8.87500 32.43100
C  1.83200 7.30300 32.31500
C  1.72900 7.03900 30.83200
C  3.07000 6.79200 32.90700
C  0.15400 9.28000 32.87600
C  -0.14500 9.50000 34.28000
H  0.97800 9.11100 35.29500
N  1.54500 6.15900 27.85400
C  1.60700 5.32100 28.92600
C  1.58100 3.96100 28.51700
C  1.29300 3.98500 27.09900
C  1.34400 5.40600 26.72800
C  1.84700 2.78100 29.38900
C  1.06100 2.83200 26.11800
O  1.10300 3.05300 24.92700
C  1.05800 1.41200 26.62200
N  1.57500 8.37800 25.85300
C  1.38300 7.32900 25.00800
C  1.22900 7.79100 23.55500
C  1.67800 9.35000 23.60200
C  1.87900 9.49300 25.13400
C  2.03100 7.00600 22.51700
C  0.73900 10.23600 22.80700
C  -0.77900 10.24800 23.36900
N  2.19600 10.29000 27.94500
C  2.38500 11.16400 26.98200
C  2.72200 12.49700 27.56800
C  2.64100 12.30800 28.93500
C  2.39000 10.94500 29.10800
C  2.87900 13.69400 26.83100
C  2.75800 12.96000 30.25600
O  3.08600 14.08800 30.57000
C  2.48100 11.79500 31.28900
C  3.39900 11.67400 32.39300
O  4.61200 11.38400 32.35100
O  2.64700 12.02900 33.50000
C  3.41800 12.11800 34.70900
H  1.50000 5.03000 31.07100
H  0.87900 5.33200 24.60100
H  2.48700 11.45600 24.82200
H  2.43200 9.31600 33.04300
H  0.96900 6.79100 32.74000
H  3.72600 7.55900 33.32000
H  3.64800 6.17600 32.21800
H  2.74800 6.08200 33.66900
H  -0.40300 8.42500 32.49500
H  -0.15400 10.17200 32.33100
H  -0.99800 8.86700 34.52400
H  -0.42200 10.54200 34.44200
H  2.56600 2.20700 28.80500
H  0.97400 2.13300 29.46300
H  2.32100 3.00700 30.34400
H  0.48600 0.85200 25.88200
H  0.45600 1.45500 27.52900
H  2.11700 1.20300 26.77900
H  0.18300 7.59300 23.32000
H  2.69800 9.50700 23.25300
H  2.43800 6.10100 22.96700
H  2.77300 7.61100 21.99500
H  1.39500 6.65400 21.70500
H  0.74000 9.88300 21.77600
H  1.06000 11.27500 22.73000
H  -1.45100 9.89200 22.58800
H  -0.99900 11.25600 23.72000
H  -0.86600 9.59100 24.23500
H  2.10700 13.70800 26.06200
H  3.90100 13.66800 26.45400
H  2.62700 14.58500 27.40700
H  1.47600 11.90100 31.69700
H  2.86000 12.38100 35.60800
H  4.20100 12.86300 34.56900
H  3.89300 11.14700 34.84900

