158

Mg 17.67900 -1.36400 27.93100
C  16.51800 0.37500 30.68000
C  19.77100 -3.10300 30.00000
C  19.26400 -2.65100 25.16000
C  15.77900 0.68600 25.89700
N  18.24800 -1.24100 30.14300
C  17.43400 -0.56500 31.10800
C  17.91300 -0.93800 32.46800
C  19.16200 -1.85700 32.18400
C  19.08500 -2.09600 30.71100
C  20.56100 -1.37200 32.62100
C  16.74900 -1.44300 33.42100
C  16.83900 -0.84000 34.90200
H  18.18000 -0.36900 35.52400
N  19.04700 -2.82000 27.64500
C  19.68200 -3.49300 28.66000
C  20.40600 -4.51900 28.06900
C  20.20700 -4.45800 26.68200
C  19.54000 -3.22500 26.43300
C  21.43700 -5.43000 28.75200
C  20.75600 -5.42800 25.55100
O  20.50800 -5.23900 24.39500
C  21.59200 -6.67000 25.90700
N  17.57500 -1.00300 25.79000
C  18.37000 -1.64300 24.88800
C  18.00200 -1.16200 23.45000
C  16.91400 -0.12500 23.75300
C  16.69000 -0.15700 25.24700
C  19.11900 -0.55200 22.71700
C  15.56700 -0.34800 22.90700
C  15.31500 0.80500 21.93700
N  16.42000 0.12800 28.18500
C  15.70300 0.89300 27.29300
C  14.86400 1.78000 27.89900
C  15.09000 1.68100 29.25400
C  16.06000 0.62900 29.40200
C  13.86700 2.75300 27.23000
C  14.82000 2.16400 30.55200
O  14.06200 3.08100 30.98900
C  15.64400 1.25900 31.49000
C  16.40300 2.23300 32.34300
O  17.36200 2.89200 31.93500
O  15.80500 2.30500 33.59200
C  16.38700 3.26100 34.60200
H  20.29800 -3.74700 30.70700
H  19.68100 -3.13000 24.27100
H  15.06300 1.25500 25.30100
H  18.22400 0.02900 32.86100
H  19.08600 -2.70100 32.87100
H  21.03100 -2.08300 33.30100
H  20.49000 -0.41200 33.13100
H  21.20100 -1.16700 31.76300
H  16.71800 -2.52900 33.50800
H  15.78700 -1.28100 32.93400
H  16.51000 -1.65900 35.54200
H  16.13100 -0.01200 34.86200
H  20.98800 -6.37000 29.07000
H  21.78900 -4.90800 29.64200
H  22.38000 -5.56700 28.22300
H  21.03000 -7.23500 26.65100
H  22.55600 -6.39800 26.33700
H  21.74600 -7.37900 25.09300
H  17.74900 -2.00800 22.81200
H  17.30000 0.88600 23.61800
H  19.79500 -0.08400 23.43300
H  18.83400 0.23700 22.02100
H  19.71400 -1.26700 22.14900
H  14.67600 -0.43800 23.52900
H  15.70700 -1.25700 22.32200
H  16.28600 1.25600 21.73800
H  14.59700 1.52100 22.33600
H  15.03800 0.32300 20.99900
H  13.08700 2.84000 27.98600
H  13.42600 2.39100 26.30100
H  14.25600 3.75700 27.05900
H  14.95900 0.75200 32.17000
H  16.20400 2.86500 35.60100
H  15.80700 4.18200 34.54200
H  17.46300 3.42100 34.54000
Mg 47.74600 35.67900 26.93800
C  45.84400 34.33600 29.55200
C  48.27400 38.53300 28.71900
C  49.36800 36.99900 24.21100
C  47.11300 32.74100 25.11800
N  47.19400 36.29200 28.89400
C  46.50000 35.53000 29.91900
C  46.43200 36.25800 31.21700
C  46.92100 37.73800 30.72800
C  47.46200 37.49900 29.34000
C  45.84700 38.88700 30.86900
C  47.44900 35.53500 32.11500
C  47.28300 35.42700 33.63700
H  46.39800 36.46700 34.23300
N  48.81900 37.50100 26.55000
C  48.94300 38.57000 27.42400
C  49.83500 39.60100 26.78600
C  50.24000 39.08300 25.48100
C  49.46500 37.77200 25.38300
C  50.29400 40.86400 27.48100
C  51.12700 39.65700 24.45800
O  51.46400 39.07000 23.46500
C  51.89100 40.90200 24.71900
N  47.92700 35.12400 24.81100
C  48.75800 35.74900 23.95300
C  48.83100 34.97500 22.60900
C  48.55400 33.49100 23.12300
C  47.80300 33.76900 24.45100
C  47.81000 35.55000 21.61600
C  49.90800 32.64900 23.25100
C  50.16900 31.60100 22.12500
N  46.55900 34.02800 27.10900
C  46.44600 32.84700 26.34400
C  45.40700 32.00800 26.88800
C  45.15400 32.50000 28.17700
C  45.90600 33.77500 28.26300
C  45.00100 30.68400 26.27800
C  44.56100 32.19000 29.39700
O  43.78300 31.30400 29.76100
C  44.92100 33.42500 30.38500
C  45.41200 32.83600 31.66600
O  46.48300 32.25300 31.77000
O  44.48000 32.88400 32.70500
C  44.73400 31.98000 33.89300
H  48.49300 39.46800 29.23800
H  49.81100 37.44500 23.31800
H  46.93600 31.81600 24.56700
H  45.40600 36.21300 31.58400
H  47.71400 37.97600 31.43700
H  46.44600 39.69600 31.28800
H  45.02500 38.49600 31.46900
H  45.48300 39.18700 29.88600
H  48.41000 35.99200 31.87700
H  47.38200 34.48000 31.84900
H  48.28800 35.58500 34.02900
H  46.90800 34.51600 34.10300
H  50.05800 40.89900 28.54400
H  49.98800 41.81600 27.04600
H  51.37400 40.72800 27.52500
H  51.32300 41.82400 24.59100
H  52.75000 40.87900 24.04900
H  52.32500 41.07600 25.70400
H  49.84100 35.01600 22.20200
H  47.95200 33.07500 22.31600
H  47.55800 34.71800 20.95900
H  48.09800 36.45900 21.08700
H  46.82100 35.81800 21.98800
H  49.83700 32.16900 24.22700
H  50.81800 33.24600 23.31000
H  49.54200 31.71900 21.24200
H  50.13800 30.59600 22.54600
H  51.22900 31.75800 21.92400
H  43.93300 30.68800 26.05900
H  45.08400 29.95200 27.08100
H  45.54100 30.34100 25.39500
H  43.96800 33.90800 30.60300
H  44.27300 31.07900 33.48800
H  44.25300 32.44400 34.75400
H  45.79500 31.75600 34.00200

