158

Mg 54.04100 23.58700 44.18700
C  51.71500 26.18900 43.44500
C  51.82600 21.27900 43.11200
C  56.50000 21.50000 44.07500
C  56.34000 26.20000 44.70400
N  52.09100 23.70200 43.33000
C  51.34800 24.86600 43.01500
C  49.97100 24.51400 42.28300
C  49.91000 22.99800 42.57200
C  51.36600 22.62300 43.10600
C  48.76300 22.51400 43.55400
C  49.86300 24.84800 40.75100
C  51.05300 24.58400 39.75800
H  51.30500 25.48000 38.49000
N  54.09900 21.59500 43.67400
C  53.06700 20.77300 43.26600
C  53.58600 19.45200 43.34200
C  54.92600 19.44900 43.82700
C  55.26400 20.87000 43.84800
C  52.82100 18.26000 42.92800
C  55.79600 18.15500 44.01100
O  55.42100 17.12400 43.50100
C  57.18200 18.16200 44.61000
N  56.19800 23.86600 44.38500
C  57.00700 22.75400 44.27600
C  58.50500 23.04200 44.26200
C  58.47900 24.54900 44.66300
C  56.95600 24.91800 44.62600
C  59.56400 22.17300 45.04700
C  59.36200 25.38500 43.66900
C  60.24600 26.48700 44.25100
N  54.02000 25.72900 44.38700
C  54.99700 26.61600 44.58500
C  54.49400 27.99500 44.68700
C  53.16600 27.83100 44.24900
C  52.94400 26.43600 44.03300
C  55.20900 29.32200 45.22600
C  51.85800 28.52300 44.01100
O  51.51700 29.72800 44.13500
C  50.92000 27.56900 43.38100
C  50.77800 28.05100 41.95900
O  51.65600 28.27700 41.13800
O  49.43200 28.22700 41.73700
C  49.15800 29.19200 40.66900
H  51.01400 20.59200 42.86300
H  57.26000 20.74300 43.87100
H  56.97100 27.06900 44.90500
H  49.16400 24.97000 42.85500
H  49.61000 22.48400 41.65900
H  48.58300 23.30400 44.28300
H  49.15400 21.57500 43.94700
H  47.84800 22.27900 43.01000
H  49.58400 25.89100 40.59700
H  49.15200 24.15000 40.30900
H  50.95600 23.58400 39.33500
H  51.99400 24.48400 40.29800
H  53.18000 17.96100 41.94300
H  51.78000 18.58400 42.89600
H  52.92600 17.64600 43.82200
H  57.33700 18.82800 45.45800
H  57.92600 18.54000 43.90900
H  57.37100 17.14900 44.96600
H  58.73500 23.00200 43.19700
H  58.82900 24.72000 45.68100
H  60.37900 21.75300 44.45700
H  58.94300 21.43200 45.55200
H  59.92300 22.76700 45.88700
H  58.64700 25.74800 42.93100
H  60.08500 24.77000 43.13300
H  61.28300 26.60600 43.93600
H  60.33600 26.33800 45.32700
H  59.82300 27.47700 44.08300
H  55.65900 29.97800 44.48000
H  56.00500 28.91400 45.84900
H  54.44200 29.74000 45.87700
H  49.96900 27.44600 43.89900
H  49.29700 28.84600 39.64400
H  49.80300 30.06600 40.74400
H  48.09500 29.43200 40.69100
Mg 35.63800 49.65800 25.58300
C  36.10200 47.86800 28.59500
C  34.24600 52.15700 27.39100
C  34.81500 51.05700 22.62900
C  36.66400 46.78100 23.87800
N  35.26200 49.99200 27.74300
C  35.61000 49.18700 28.79500
C  35.29900 49.83300 30.19300
C  34.31900 51.02900 29.77700
C  34.69700 51.17100 28.24900
C  32.74900 50.69800 30.05500
C  36.53900 50.29300 30.98100
C  36.67400 49.62900 32.36300
H  35.47400 49.65100 33.32000
N  34.79100 51.42900 25.09300
C  34.34500 52.35700 25.98100
C  33.90100 53.55400 25.25700
C  33.98100 53.21200 23.90900
C  34.54400 51.83100 23.77500
C  33.44700 54.85500 25.95800
C  33.50500 54.07300 22.67300
O  33.76700 53.80800 21.50100
C  32.84900 55.38600 22.93800
N  35.69300 48.96200 23.62000
C  35.37200 49.77400 22.55800
C  35.56900 49.08200 21.17100
C  36.42200 47.82600 21.63000
C  36.22300 47.83200 23.16100
C  34.20000 48.76700 20.48500
C  37.89600 47.66900 21.11700
C  39.03400 48.40500 21.82100
N  36.24400 47.68900 26.04600
C  36.57700 46.64900 25.26500
C  37.03800 45.49300 26.09500
C  36.89800 45.94600 27.41700
C  36.35100 47.25700 27.37700
C  37.65200 44.17100 25.51800
C  37.11100 45.58800 28.79700
O  37.66200 44.64800 29.36900
C  36.51800 46.86800 29.61400
C  35.37200 46.29900 30.40200
O  34.27500 46.09800 29.90500
O  35.80300 45.93000 31.62800
C  34.81200 45.20000 32.47100
H  33.80600 53.00600 27.91800
H  34.49500 51.44200 21.65900
H  36.88000 45.95500 23.19700
H  34.78900 49.10600 30.82400
H  34.51200 51.91800 30.37700
H  32.20800 51.03500 29.17100
H  32.43400 51.26100 30.93400
H  32.60600 49.65100 30.32400
H  36.52300 51.36300 31.18500
H  37.42700 50.04100 30.40100
H  37.43500 50.20400 32.88900
H  37.08000 48.62800 32.21600
H  33.94600 55.71300 25.50600
H  33.78400 54.86800 26.99500
H  32.36400 54.96600 26.00600
H  31.94000 55.32600 23.53600
H  32.63600 55.88100 21.99000
H  33.63700 55.92900 23.46000
H  36.13400 49.74200 20.51300
H  35.80100 47.01800 21.24200
H  33.46500 48.57300 21.26600
H  34.35600 47.88700 19.86200
H  33.95900 49.62800 19.86000
H  37.99500 47.91700 20.06000
H  38.19700 46.62200 21.09000
H  39.49900 47.83600 22.62600
H  38.54300 49.25300 22.29800
H  39.77300 48.83400 21.14400
H  38.69600 44.34900 25.25900
H  37.04200 43.77600 24.70500
H  37.62800 43.27300 26.13500
H  37.27800 47.21700 30.31300
H  33.84100 45.69200 32.53300
H  35.14600 45.10100 33.50400
H  34.75200 44.17500 32.10400

