158

Mg -10.53100 40.15500 43.17000
C  -9.94400 36.91500 42.29600
C  -7.63500 41.25000 41.58900
C  -11.65900 43.43600 43.21400
C  -13.87700 39.27900 44.15700
N  -9.02900 39.20300 42.01800
C  -8.91600 37.80100 41.82100
C  -7.68300 37.49700 41.02000
C  -6.87900 38.85400 41.00700
C  -7.90300 39.84100 41.60100
C  -5.47800 38.86100 41.69900
C  -7.93800 36.84400 39.59100
C  -6.90000 35.83600 39.17400
H  -5.73500 36.29200 38.35800
N  -9.68400 42.06900 42.60600
C  -8.49300 42.27600 42.00100
C  -8.34300 43.67300 41.73400
C  -9.49900 44.33100 42.14300
C  -10.32800 43.27700 42.69200
C  -7.04700 44.26000 41.08300
C  -9.75400 45.84400 42.14600
O  -8.89300 46.54500 41.64000
C  -10.92000 46.52000 42.69300
N  -12.50700 41.17200 43.78800
C  -12.62300 42.51900 43.70900
C  -14.04000 42.95700 43.98900
C  -14.82500 41.61000 44.53800
C  -13.71300 40.61600 44.10500
C  -14.26700 44.20400 44.84900
C  -16.28200 41.30000 43.91900
C  -16.37900 40.53400 42.68300
N  -11.69800 38.47200 43.32000
C  -12.96800 38.27500 43.74900
C  -13.32100 36.82200 43.62200
C  -12.11600 36.28800 43.04800
C  -11.19400 37.30500 42.81800
C  -14.62600 36.27200 44.00900
C  -11.42100 35.02200 42.72600
O  -11.87000 33.88100 42.79300
C  -10.06000 35.45400 42.00700
C  -8.98400 34.64000 42.60700
O  -8.34100 34.82800 43.62200
O  -8.80300 33.58200 41.75600
C  -7.64900 32.68100 42.02100
H  -6.79000 41.60000 40.99200
H  -12.20700 44.37900 43.16700
H  -14.88200 39.04500 44.51300
H  -7.12100 36.81300 41.65700
H  -6.69500 39.12700 39.96800
H  -4.83800 38.01800 41.43900
H  -5.42800 39.05000 42.77100
H  -5.09700 39.72500 41.15400
H  -8.02700 37.67800 38.89500
H  -8.93800 36.41200 39.64200
H  -7.40800 35.04400 38.62400
H  -6.47200 35.36100 40.05700
H  -6.25800 44.57300 41.76700
H  -7.35300 45.08300 40.43700
H  -6.59500 43.61900 40.32600
H  -10.79800 47.60300 42.68400
H  -11.09100 46.27700 43.74200
H  -11.73600 46.24000 42.02600
H  -14.50600 43.15100 43.02200
H  -14.93700 41.54800 45.62000
H  -13.40600 44.48200 45.45600
H  -14.88800 43.88700 45.68700
H  -14.75100 45.04300 44.34700
H  -16.81300 42.23200 43.72800
H  -16.98700 40.84500 44.61600
H  -17.02000 41.07500 41.98700
H  -16.75300 39.57300 43.03700
H  -15.48700 40.25700 42.12200
H  -14.87400 35.29800 43.58800
H  -15.41400 37.00700 43.84300
H  -14.58100 36.11600 45.08700
H  -10.08800 35.23800 40.93900
H  -7.53200 31.96700 41.20600
H  -7.86800 32.04100 42.87600
H  -6.69300 33.15900 42.23500
Mg -9.84500 18.07300 42.75500
C  -6.40800 17.60600 42.81800
C  -9.25800 21.36300 42.18500
C  -13.09900 18.35300 41.94900
C  -10.12100 14.50000 42.59500
N  -8.02200 19.28900 42.54700
C  -6.69600 18.89900 42.60800
C  -5.71600 20.11100 42.61800
C  -6.76700 21.31100 42.83400
C  -8.09300 20.63700 42.51400
C  -6.73200 21.90500 44.29400
C  -4.98700 20.21000 41.23000
C  -5.77500 20.30400 39.95600
H  -5.68200 19.11800 39.00500
N  -11.02700 19.65600 42.06100
C  -10.58600 20.89600 41.83500
C  -11.64300 21.75300 41.38600
C  -12.84600 20.99300 41.56200
C  -12.44100 19.60200 41.87200
C  -11.45300 23.32200 40.94800
C  -14.23100 21.58200 41.28300
O  -14.45900 22.75500 41.04400
C  -15.40000 20.69800 41.52300
N  -11.38100 16.64700 42.17500
C  -12.65600 17.02900 42.08900
C  -13.71000 15.81200 42.20400
C  -12.68900 14.61300 42.33500
C  -11.29700 15.26400 42.32500
C  -14.75500 16.00100 43.32000
C  -12.75200 13.47400 41.18200
C  -13.22200 12.09100 41.58800
N  -8.56900 16.38000 42.80500
C  -8.83500 14.99000 42.78800
C  -7.58500 14.26600 42.99100
C  -6.58700 15.28500 43.03400
C  -7.23800 16.52100 42.87100
C  -7.35600 12.76000 43.00400
C  -5.19500 15.43900 43.22300
O  -4.33200 14.60200 43.43900
C  -5.01900 17.01000 43.11800
C  -4.43100 17.42600 44.36700
O  -3.34100 18.01900 44.54500
O  -5.38600 17.30000 45.43100
C  -5.08600 17.76000 46.79000
H  -9.08800 22.43200 42.33000
H  -14.18900 18.28800 41.91200
H  -10.23400 13.41300 42.59400
H  -5.04500 19.86200 43.44100
H  -6.40100 22.09200 42.16800
H  -7.73600 21.68000 44.65400
H  -6.70300 22.99200 44.37300
H  -5.92200 21.52700 44.91800
H  -4.25100 19.41000 41.15900
H  -4.28900 21.03500 41.37500
H  -5.42200 21.16700 39.39100
H  -6.82600 20.55600 40.09500
H  -11.89000 23.45400 39.95900
H  -10.38400 23.52700 40.88600
H  -11.84100 24.00400 41.70500
H  -15.32900 19.78500 40.93000
H  -16.34300 21.22300 41.36800
H  -15.56200 20.33700 42.53800
H  -14.20900 15.70000 41.24200
H  -12.80600 14.18300 43.33000
H  -14.53400 16.79900 44.02900
H  -14.79900 15.04200 43.83700
H  -15.75700 16.20800 42.94500
H  -11.83700 13.41900 40.59200
H  -13.49300 13.92200 40.52000
H  -12.85100 11.82300 42.57700
H  -12.80100 11.33600 40.92400
H  -14.30300 11.94800 41.60900
H  -7.56700 12.45700 44.02900
H  -6.35500 12.42900 42.72500
H  -8.15300 12.35700 42.37900
H  -4.40000 17.19300 42.23900
H  -4.07900 18.17500 46.84500
H  -4.97500 16.92800 47.48500
H  -5.80100 18.52600 47.08900

