158

Mg 24.41300 -5.14200 46.05600
C  26.43500 -2.74700 44.36900
C  21.87500 -4.46000 43.85400
C  22.96700 -8.21600 46.70500
C  27.48000 -6.38800 47.45600
N  24.17500 -3.72900 44.38000
C  25.12000 -2.78000 43.93900
C  24.63200 -2.02000 42.67300
C  23.11200 -2.43600 42.76500
C  23.01100 -3.66500 43.70700
C  22.07100 -1.34000 43.10000
C  25.25200 -2.36900 41.32300
C  26.00800 -1.22800 40.54300
H  25.56400 -1.14100 39.03800
N  22.57200 -6.10900 45.49400
C  21.66100 -5.61000 44.63200
C  20.52900 -6.46300 44.69600
C  20.81600 -7.49900 45.63600
C  22.19700 -7.29700 46.00200
C  19.35900 -6.22000 43.78400
C  19.78400 -8.62700 46.11000
O  18.62300 -8.62300 45.66500
C  20.09900 -9.63300 47.19900
N  25.01500 -6.91600 47.00100
C  24.25900 -8.05700 47.16600
C  24.95400 -9.12600 47.99200
C  26.35800 -8.53000 48.25200
C  26.28800 -7.16700 47.54700
C  24.13200 -9.29500 49.28500
C  27.53200 -9.48700 47.71500
C  28.83300 -9.73500 48.43800
N  26.45200 -4.48100 46.23400
C  27.53500 -5.12400 46.78900
C  28.76900 -4.35200 46.54500
C  28.39900 -3.36500 45.51100
C  27.01400 -3.54500 45.37700
C  30.02300 -4.66200 47.19000
C  28.81700 -2.39100 44.67300
O  29.95700 -1.94600 44.46200
C  27.56400 -1.89300 43.78600
C  27.38400 -0.49100 44.19000
O  26.92400 -0.08400 45.25500
O  27.92100 0.31100 43.16800
C  27.72000 1.81900 43.21500
H  21.02000 -3.99200 43.36100
H  22.53300 -9.19500 46.92100
H  28.40400 -6.72700 47.92800
H  24.82400 -0.95700 42.82100
H  22.76500 -2.85400 41.82000
H  21.62200 -0.77900 42.28100
H  22.61500 -0.61800 43.70800
H  21.15700 -1.69800 43.57400
H  24.43600 -2.84300 40.77800
H  25.90400 -3.21800 41.52700
H  27.08200 -1.38500 40.63600
H  25.87200 -0.24700 40.99900
H  19.68100 -6.36400 42.75200
H  18.98700 -5.21400 43.97900
H  18.54400 -6.90100 44.02600
H  20.67300 -9.17200 48.00300
H  20.65600 -10.42800 46.70300
H  19.20800 -10.05200 47.66600
H  24.98800 -9.99600 47.33700
H  26.68400 -8.36300 49.27800
H  24.72400 -9.16100 50.19000
H  23.68400 -10.28900 49.29300
H  23.28200 -8.61300 49.30000
H  27.77400 -9.11200 46.72100
H  27.22400 -10.53300 47.68700
H  28.67900 -9.44700 49.47800
H  29.51900 -9.01200 47.99600
H  29.29500 -10.71700 48.33700
H  30.78300 -3.98600 46.80000
H  30.18100 -5.69500 46.87700
H  30.00500 -4.57500 48.27700
H  27.61700 -2.01700 42.70500
H  28.66800 2.23900 43.55200
H  26.98000 2.19300 43.92300
H  27.37200 2.06300 42.21100
Mg 42.26600 41.59500 27.10500
C  41.30400 43.63200 29.66200
C  43.31300 39.24700 29.61100
C  43.36800 39.56900 24.68500
C  41.41700 43.98700 24.78800
N  42.40000 41.51800 29.46100
C  41.78200 42.47400 30.20100
C  41.82200 42.02100 31.71800
C  42.58400 40.58100 31.61400
C  42.67800 40.35800 30.14900
C  43.83400 40.57000 32.51000
C  40.36500 42.00600 32.30600
C  40.20100 42.74700 33.64200
H  39.57800 41.96700 34.85100
N  43.10000 39.65900 27.13800
C  43.47900 38.90600 28.24600
C  44.13200 37.70000 27.75600
C  44.17200 37.76100 26.31300
C  43.53200 39.05200 25.97600
C  44.63700 36.52800 28.70600
C  44.54400 36.75100 25.26600
O  44.60100 36.91600 24.06800
C  44.91200 35.33900 25.74500
N  42.45800 41.73400 25.04200
C  42.88700 40.75700 24.25800
C  42.77000 41.01200 22.73800
C  41.98800 42.36600 22.77600
C  41.83600 42.74500 24.28900
C  44.16700 41.00800 22.06500
C  40.58100 42.24400 22.26600
C  39.63600 41.23000 22.97200
N  41.63900 43.47000 27.09400
C  41.35100 44.34700 26.10200
C  40.88500 45.64600 26.68600
C  40.73300 45.32700 28.03900
C  41.30400 44.02600 28.27900
C  40.37000 46.90000 25.91800
C  40.37300 45.87000 29.23900
O  39.98200 47.00700 29.51000
C  40.80900 44.81700 30.39800
C  41.89100 45.58300 31.13000
O  42.88200 46.15700 30.61400
O  41.51500 45.69700 32.40000
C  42.59800 46.16200 33.36200
H  43.61000 38.52500 30.37400
H  43.76300 38.95000 23.87700
H  41.02400 44.71900 24.08000
H  42.42000 42.78700 32.21100
H  42.06100 39.73300 32.05600
H  44.72000 40.64200 31.87900
H  43.87800 39.68800 33.14900
H  44.00500 41.39400 33.20300
H  40.10700 40.96200 32.48400
H  39.79500 42.48200 31.50800
H  39.56100 43.61300 33.47300
H  41.16400 43.09300 34.01800
H  43.80700 35.82500 28.77900
H  45.08400 36.82200 29.65600
H  45.51400 36.17500 28.16400
H  44.18600 35.02600 26.49600
H  45.93100 35.49500 26.10000
H  44.83100 34.67000 24.88800
H  42.10100 40.26400 22.31200
H  42.50900 43.12300 22.19000
H  44.86800 40.29000 22.49000
H  44.47700 42.04700 21.95600
H  44.16700 40.78600 20.99800
H  40.50500 41.95500 21.21800
H  40.11900 43.22400 22.38400
H  40.15200 40.28400 23.13800
H  38.85800 40.91100 22.27800
H  39.12600 41.66600 23.83100
H  39.56300 46.60800 25.24700
H  41.14000 47.58600 25.56500
H  39.88000 47.39800 26.75500
H  39.91700 44.59400 30.98400
H  43.50700 46.47200 32.84600
H  43.05100 45.47000 34.07100
H  42.27000 47.01800 33.95200

