158

Mg 16.39300 53.15600 27.00500
C  18.59200 51.64300 29.20300
C  14.22400 53.63700 29.66200
C  14.29900 54.37300 24.82900
C  18.67000 52.37400 24.42600
N  16.43200 52.70200 29.16800
C  17.46500 52.13000 29.82800
C  17.20600 52.23100 31.36800
C  15.68000 52.30200 31.39400
C  15.35700 52.88000 29.97700
C  15.01000 50.82500 31.65600
C  17.98900 53.40000 32.09300
C  18.23300 53.10400 33.60000
H  17.19500 52.23400 34.40600
N  14.62200 54.08900 27.25900
C  13.86700 54.21800 28.40400
C  12.63000 54.88100 28.08700
C  12.71200 55.25400 26.67000
C  13.91100 54.55600 26.20500
C  11.64500 55.39300 29.14900
C  11.73500 56.17700 25.79100
O  12.00800 56.52400 24.64700
C  10.49600 56.71500 26.46800
N  16.42300 53.29200 24.92800
C  15.37000 53.82600 24.18500
C  15.73200 54.05100 22.66500
C  17.17900 53.41700 22.69400
C  17.45100 53.00800 24.13200
C  14.86300 53.24300 21.62400
C  18.28800 54.27400 21.90100
C  19.44000 54.79300 22.72600
N  18.29500 52.12100 26.79000
C  19.05100 51.75900 25.65900
C  20.17300 51.01100 26.04500
C  20.03900 50.94800 27.42700
C  18.84800 51.64100 27.83200
C  21.18800 50.45800 25.08100
C  20.65000 50.37100 28.64100
O  21.51100 49.54500 28.79100
C  19.75600 50.92600 29.83900
C  19.36300 49.83200 30.77800
O  18.51100 48.99200 30.51700
O  19.96700 49.95700 31.97100
C  19.57500 48.98700 32.99000
H  13.48300 53.75600 30.45600
H  13.53800 54.71900 24.12700
H  19.38500 52.25000 23.61000
H  17.48100 51.30200 31.86700
H  15.25500 52.92700 32.17900
H  15.73300 50.12300 32.07300
H  14.75500 50.44300 30.66700
H  14.18300 50.99800 32.34400
H  17.37700 54.27900 31.88800
H  18.95400 53.51000 31.59800
H  18.39600 54.07700 34.06300
H  19.18400 52.58600 33.72000
H  11.64000 56.48100 29.22800
H  11.93500 55.00600 30.12600
H  10.61500 55.10200 28.93900
H  10.02600 57.40400 25.76600
H  10.93100 57.30500 27.27500
H  9.88400 55.86200 26.76100
H  15.80300 55.11200 22.42200
H  17.13100 52.43800 22.21700
H  15.14600 52.19100 21.60800
H  14.91800 53.68100 20.62800
H  13.84700 53.34600 22.00600
H  17.79300 55.11400 21.41300
H  18.80900 53.69200 21.14100
H  19.11200 54.85300 23.76400
H  19.75000 55.82900 22.58800
H  20.36900 54.22200 22.72600
H  21.28400 49.38400 25.23900
H  22.12300 51.01400 25.14600
H  20.78500 50.57700 24.07500
H  20.40300 51.62900 30.36300
H  18.57500 49.22400 33.35600
H  20.33200 49.09900 33.76600
H  19.62100 47.94900 32.66300
Mg 9.68900 48.32600 25.85900
C  7.15100 48.39400 28.35000
C  11.81600 49.71700 28.29200
C  11.98200 48.61500 23.50300
C  7.21900 47.69300 23.52600
N  9.42400 48.94300 28.11000
C  8.38400 48.67700 28.91000
C  8.70900 49.01300 30.38300
C  10.21400 49.50300 30.26900
C  10.52600 49.43600 28.81600
C  10.59500 50.76100 31.03000
C  8.52900 47.77300 31.29500
C  9.55700 47.41100 32.48400
H  8.88600 46.78300 33.70900
N  11.70100 49.05100 25.83600
C  12.31500 49.57700 26.93700
C  13.65200 49.89400 26.50500
C  13.78600 49.44800 25.10600
C  12.45500 49.06600 24.72700
C  14.73100 50.45100 27.47300
C  14.97000 49.52600 24.25200
O  14.99600 49.20300 23.09300
C  16.29800 49.88500 24.85200
N  9.59700 48.21400 23.79100
C  10.69900 48.28800 23.04800
C  10.37100 47.89200 21.62400
C  8.83400 47.58800 21.64800
C  8.51800 47.87800 23.06900
C  10.97900 48.95300 20.62700
C  8.53000 46.14300 21.26900
C  8.98000 45.03700 22.20300
N  7.53900 48.20600 25.87200
C  6.72400 47.92000 24.84000
C  5.40200 47.62900 25.34100
C  5.47100 47.84100 26.73000
C  6.82900 48.22700 26.97400
C  4.25100 47.05700 24.49100
C  4.78300 47.90700 27.99000
O  3.58300 47.68900 28.16800
C  5.79900 48.23800 29.05600
C  5.68100 47.05000 30.05400
O  6.21800 45.93900 29.92300
O  4.91600 47.54200 31.12300
C  4.70400 46.71300 32.26600
H  12.55400 49.98200 29.05100
H  12.67600 48.72100 22.66600
H  6.49700 47.38800 22.76500
H  8.02300 49.74500 30.81000
H  10.83700 48.73400 30.72400
H  10.82900 51.52300 30.28700
H  11.47400 50.68400 31.67100
H  9.74500 51.08500 31.63000
H  8.35600 46.90200 30.66300
H  7.56800 47.92100 31.78800
H  10.13300 48.32400 32.63600
H  10.22200 46.60900 32.16500
H  14.42100 50.71600 28.48300
H  15.22800 51.32100 27.04300
H  15.45900 49.65000 27.60200
H  16.45300 50.95700 24.97200
H  17.05600 49.56100 24.13900
H  16.47300 49.26100 25.72900
H  11.01000 47.03800 21.40000
H  8.22000 48.30600 21.10400
H  10.29400 49.33500 19.87100
H  11.84000 48.51600 20.12000
H  11.29100 49.84800 21.16500
H  9.11200 46.06500 20.35100
H  7.47200 45.98600 21.05900
H  9.34900 45.49200 23.12300
H  9.77900 44.46000 21.73800
H  8.19500 44.35100 22.52200
H  3.43000 46.73500 25.13200
H  4.56600 46.17300 23.93600
H  3.82700 47.88000 23.91600
H  5.54500 49.20100 29.50000
H  5.09800 45.69900 32.19400
H  3.65600 46.58700 32.53500
H  5.23400 47.23400 33.06300

