158

Mg -3.00500 17.42600 27.77200
C  -3.63800 15.17000 30.42600
C  -3.42500 20.04200 29.86600
C  -2.85400 19.41900 25.14600
C  -3.11600 14.62500 25.59200
N  -3.39400 17.53500 29.89100
C  -3.44000 16.48000 30.84000
C  -3.65200 17.12500 32.24800
C  -3.89400 18.65700 31.92200
C  -3.55200 18.78400 30.43000
C  -5.27200 19.30200 32.28200
C  -2.39700 16.82200 33.16200
C  -2.28300 17.56300 34.55600
H  -2.25900 16.76000 35.82000
N  -2.93400 19.48400 27.57300
C  -3.20300 20.39600 28.51300
C  -2.93900 21.69400 27.95700
C  -2.62800 21.53200 26.57400
C  -2.86300 20.08000 26.34300
C  -3.02800 22.87500 28.79400
C  -2.10200 22.49800 25.61400
O  -1.91100 22.24000 24.40900
C  -1.62900 23.77800 26.00200
N  -2.99300 17.07600 25.65500
C  -2.91300 18.07400 24.79300
C  -2.88000 17.64400 23.34500
C  -2.92800 16.09300 23.45700
C  -3.00500 15.89900 24.99100
C  -4.05500 18.16800 22.45900
C  -1.81500 15.29800 22.72800
C  -0.46700 15.24500 23.42100
N  -3.33200 15.32000 27.87400
C  -3.40000 14.35100 26.94600
C  -3.86300 13.12200 27.59900
C  -3.96000 13.37500 28.91900
C  -3.57800 14.70400 29.06900
C  -4.10300 11.80500 26.83600
C  -4.30600 12.77000 30.21800
O  -4.70100 11.65200 30.50900
C  -4.04800 13.92700 31.27800
C  -3.01200 13.32000 32.19500
O  -1.74700 13.36700 32.04200
O  -3.62000 12.69600 33.28200
C  -2.79100 12.12100 34.29500
H  -3.43500 20.91300 30.52400
H  -2.83500 20.05800 24.26000
H  -3.09300 13.74600 24.94400
H  -4.55800 16.73900 32.71500
H  -3.13200 19.29000 32.37800
H  -5.17500 20.00200 33.11200
H  -6.08400 18.62900 32.55900
H  -5.67800 20.02500 31.57400
H  -1.47700 16.91900 32.58600
H  -2.51100 15.74800 33.31200
H  -3.09100 18.28900 34.65400
H  -1.41800 18.22500 34.55600
H  -2.97900 23.75500 28.15200
H  -2.18300 22.82400 29.48000
H  -3.94200 22.94500 29.38500
H  -0.90000 23.50600 26.76500
H  -2.37800 24.54400 26.20400
H  -0.98800 24.20300 25.23000
H  -1.93900 18.00100 22.92500
H  -3.94900 15.82500 23.18500
H  -4.88300 18.53000 23.06800
H  -4.37000 17.44500 21.70700
H  -3.54400 19.00300 21.97700
H  -1.70800 15.73900 21.73600
H  -2.09700 14.27500 22.47600
H  -0.44500 15.65200 24.43300
H  0.26700 15.81200 22.84800
H  -0.09100 14.22500 23.50200
H  -3.19700 11.22300 27.00600
H  -4.25400 12.11900 25.80300
H  -5.01700 11.33600 27.20000
H  -4.98100 14.09500 31.81500
H  -3.21900 11.17900 34.64000
H  -2.80500 12.82200 35.13000
H  -1.77300 11.89900 33.97700
Mg 26.91200 50.66900 26.21300
C  24.86300 51.96400 28.76700
C  29.14800 49.69400 28.57900
C  29.00700 49.89000 23.84200
C  24.68800 52.11800 23.91800
N  26.89600 50.73700 28.44200
C  25.96900 51.29200 29.29900
C  26.34700 51.01800 30.75700
C  27.72700 50.18900 30.66700
C  27.89400 50.14400 29.09200
C  28.88000 50.87700 31.39100
C  25.16800 50.50000 31.68600
C  25.61900 49.90200 33.03100
H  25.64900 50.73800 34.41700
N  28.89900 49.98900 26.24200
C  29.59800 49.61300 27.27300
C  30.87500 49.15600 26.87500
C  30.90100 49.17900 25.47500
C  29.60800 49.71800 25.09400
C  31.82300 48.64500 27.89300
C  31.91600 48.64200 24.42000
O  31.65500 48.73500 23.25500
C  33.29500 48.25400 24.81600
N  26.97700 51.18200 24.18200
C  27.80800 50.45400 23.38700
C  27.43400 50.41300 21.89600
C  26.00800 51.05300 21.96000
C  25.85200 51.49000 23.44600
C  28.45400 51.21300 21.09700
C  24.93800 50.06100 21.50200
C  23.81500 50.60300 20.58900
N  25.12500 51.82500 26.25500
C  24.36200 52.39500 25.23300
C  23.25700 53.13500 25.78500
C  23.43800 53.01400 27.21100
C  24.56200 52.15700 27.42300
C  22.16200 53.79300 24.99800
C  22.93400 53.40800 28.51900
O  22.03000 54.15800 28.83900
C  23.84200 52.75900 29.55900
C  24.25700 53.91700 30.42400
O  25.23900 54.61600 30.14600
O  23.50900 54.01800 31.55000
C  23.88600 54.90600 32.64000
H  29.62300 49.12300 29.37900
H  29.52300 49.41300 23.00700
H  23.87100 52.43300 23.26500
H  26.60100 52.00700 31.13900
H  27.60200 49.20800 31.12600
H  29.50000 51.49000 30.73600
H  29.50400 50.19300 31.96600
H  28.41100 51.51700 32.13800
H  24.52600 49.80400 31.14600
H  24.70600 51.45500 31.93500
H  26.62200 49.49100 32.92300
H  25.04600 48.99400 33.22300
H  31.48000 49.09900 28.82200
H  32.84100 48.93700 27.63300
H  31.85900 47.56400 28.02700
H  33.79000 48.97500 25.46600
H  33.84800 48.26000 23.87700
H  33.13600 47.24500 25.19800
H  27.40500 49.38700 21.52800
H  26.04700 51.95600 21.35200
H  28.94300 52.05000 21.59400
H  27.95200 51.61600 20.21700
H  29.27300 50.51500 20.92200
H  24.55500 49.53100 22.37400
H  25.40800 49.18500 21.05600
H  23.47600 49.79300 19.94200
H  24.18600 51.42500 19.97800
H  22.88200 50.83900 21.10000
H  21.28000 53.61300 25.61200
H  21.98700 53.26000 24.06300
H  22.46400 54.83300 24.87900
H  23.17800 52.03600 30.03400
H  24.56900 55.71300 32.37800
H  24.48400 54.29300 33.31500
H  23.10400 55.34300 33.26200

