158

Mg 16.88800 -2.84200 27.55500
C  16.23900 -0.46100 30.02000
C  19.19200 -4.31400 29.58200
C  18.51200 -4.03000 24.87400
C  15.38400 -0.47200 25.34700
N  17.59300 -2.45000 29.57100
C  17.09200 -1.52400 30.50600
C  17.74700 -1.76800 31.90900
C  18.68900 -2.97700 31.66800
C  18.55900 -3.20400 30.18500
C  20.18500 -2.86700 32.00100
C  16.54900 -2.11700 32.88200
C  16.57500 -1.25100 34.14500
H  17.93600 -0.78500 34.74200
N  18.28500 -4.27500 27.23200
C  19.15300 -4.74200 28.26700
C  19.88900 -5.88300 27.69400
C  19.61600 -5.87300 26.32900
C  18.73600 -4.71900 26.03400
C  20.63700 -6.87800 28.61500
C  20.21200 -6.79500 25.26100
O  19.80700 -6.77000 24.10500
C  21.25900 -7.70600 25.72800
N  16.75100 -2.50000 25.37800
C  17.56100 -3.06900 24.50900
C  17.43500 -2.53200 23.04500
C  16.16700 -1.66100 23.21600
C  16.09700 -1.49600 24.72700
C  18.63800 -1.84000 22.39900
C  14.85600 -2.30400 22.73600
C  13.84900 -1.22000 22.28300
N  15.76600 -1.05800 27.68300
C  15.18700 -0.28700 26.74800
C  14.53300 0.84300 27.27200
C  14.84400 0.79700 28.59500
C  15.68200 -0.35500 28.76600
C  13.84000 1.94200 26.56000
C  14.73800 1.57500 29.83300
O  14.27200 2.63400 30.09800
C  15.53900 0.62200 30.89600
C  16.46600 1.49100 31.65500
O  17.61900 1.67100 31.41200
O  15.72600 2.04400 32.69300
C  16.49500 3.06800 33.43700
H  19.99000 -4.73100 30.19900
H  19.01200 -4.49300 24.02000
H  14.88500 0.24900 24.69600
H  18.35300 -0.96200 32.32400
H  18.27700 -3.85400 32.16700
H  20.77000 -2.64600 31.10900
H  20.48100 -3.80100 32.48000
H  20.16800 -2.05500 32.72900
H  16.53700 -3.13600 33.26800
H  15.64200 -1.84400 32.34200
H  16.04900 -1.76900 34.94700
H  16.04800 -0.31000 33.98300
H  20.33000 -6.75700 29.65400
H  21.70000 -6.65900 28.51200
H  20.50600 -7.91000 28.29200
H  21.89400 -7.09400 26.36900
H  21.90900 -8.11700 24.95600
H  20.86100 -8.53000 26.32000
H  17.14200 -3.37200 22.41400
H  16.23100 -0.69200 22.72300
H  19.45500 -1.86200 23.12000
H  18.44800 -0.79100 22.16800
H  18.92500 -2.50200 21.58300
H  14.39500 -2.85100 23.55800
H  15.02100 -2.97300 21.89100
H  13.27500 -1.65700 21.46600
H  14.26600 -0.33700 21.80000
H  13.04800 -1.03000 22.99700
H  13.08500 2.33500 27.24200
H  13.40300 1.71200 25.58900
H  14.67300 2.64100 26.48400
H  14.81900 0.14200 31.55800
H  17.42100 2.61300 33.79000
H  15.83900 3.22100 34.29400
H  16.62200 3.93200 32.78600
Mg 0.59200 42.72600 26.10100
C  2.87000 42.69500 28.77100
C  -1.80400 41.61700 28.26200
C  -1.31500 42.04100 23.52100
C  3.42800 43.02200 23.90800
N  0.60000 42.08600 28.27900
C  1.56500 42.32200 29.16400
C  0.98800 42.29700 30.59500
C  -0.52900 41.90700 30.43700
C  -0.54800 41.82400 28.87700
C  -0.88000 40.50300 31.17000
C  1.15600 43.69500 31.41600
C  1.58900 43.64000 32.89800
H  1.29600 42.34300 33.66100
N  -1.39100 42.04900 25.96600
C  -2.22900 41.70300 26.93400
C  -3.43200 41.19500 26.40800
C  -3.29200 41.28700 24.98400
C  -1.97900 41.78100 24.74700
C  -4.64400 40.72300 27.17900
C  -4.34100 40.92100 23.86500
O  -3.97900 41.15200 22.68000
C  -5.73900 40.32900 24.24000
N  0.99100 42.79800 23.97700
C  0.02100 42.38400 23.18800
C  0.45900 42.36400 21.69600
C  1.90900 42.83200 21.73200
C  2.16300 42.85700 23.25200
C  0.29700 40.89500 21.08500
C  2.20200 44.07900 20.90300
C  2.15600 45.37900 21.63200
N  2.69600 42.95400 26.28100
C  3.70600 43.09900 25.29600
C  4.95100 43.32300 25.92600
C  4.71100 43.17800 27.38100
C  3.33900 42.95000 27.44900
C  6.22800 43.72000 25.30300
C  5.27100 43.15800 28.67800
O  6.40900 43.37300 29.10800
C  4.16200 42.84500 29.64800
C  4.61500 41.61900 30.34500
O  4.38500 40.49500 29.90000
O  5.19100 41.88400 31.55900
C  5.48600 40.83500 32.49000
H  -2.66600 41.45300 28.91100
H  -1.87900 41.81400 22.61400
H  4.23100 43.29500 23.22000
H  1.49800 41.44300 31.04200
H  -1.29900 42.63500 30.69200
H  -1.91500 40.66100 31.47200
H  -0.25500 40.34600 32.05000
H  -0.84000 39.71200 30.42100
H  0.18900 44.18200 31.29200
H  1.75300 44.42200 30.86400
H  0.85700 44.37000 33.24400
H  2.57100 44.02800 33.16800
H  -5.48300 41.41500 27.10700
H  -4.52300 40.64100 28.25900
H  -4.94000 39.77000 26.73800
H  -6.11200 40.79200 25.15400
H  -5.70700 39.29500 24.58200
H  -6.40700 40.54100 23.40600
H  -0.22700 43.04000 21.18600
H  2.58100 42.09200 21.29700
H  1.20700 40.29700 21.13800
H  0.15000 41.14800 20.03500
H  -0.50600 40.33600 21.56600
H  1.70500 44.04100 19.93400
H  3.27000 44.01900 20.69300
H  3.08100 45.69800 22.11400
H  1.29300 45.39500 22.29700
H  1.87600 46.13400 20.89700
H  7.06700 43.05900 25.52000
H  6.43100 44.66100 25.81500
H  6.10800 43.91200 24.23700
H  4.11200 43.60600 30.42600
H  6.56900 40.73300 32.56000
H  5.01600 39.91000 32.15400
H  5.08200 41.18900 33.43900

