158

Mg 25.72800 1.70900 29.51400
C  27.84000 1.31400 32.24000
C  23.07600 1.77900 31.65500
C  23.56900 1.65600 26.85000
C  28.47400 1.14700 27.42400
N  25.48100 1.52400 31.65700
C  26.54200 1.65300 32.51000
C  25.98400 1.87200 33.92600
C  24.40600 1.88100 33.76900
C  24.28000 1.68100 32.29200
C  23.66400 0.79800 34.57600
C  26.60500 3.03300 34.70900
C  27.26200 2.62900 36.02300
H  26.36700 2.92600 37.18500
N  23.60700 1.85300 29.25100
C  22.68400 1.82900 30.31300
C  21.35500 2.01600 29.75300
C  21.50600 2.11100 28.32400
C  22.92600 1.80400 28.09100
C  20.10100 2.25100 30.66500
C  20.44700 2.17800 27.22500
O  20.70800 2.21900 26.01300
C  19.03100 2.10600 27.73500
N  25.98100 1.34600 27.40500
C  24.93900 1.50900 26.54900
C  25.51100 1.83900 25.06300
C  27.16000 1.70700 25.25400
C  27.25400 1.33800 26.78800
C  24.94700 1.10000 23.78500
C  27.98600 2.90900 24.91400
C  27.47700 4.24700 25.40100
N  27.70500 1.21100 29.69200
C  28.72100 1.01600 28.81400
C  29.97600 0.67800 29.53000
C  29.66600 0.83900 30.87400
C  28.32700 1.13700 30.92100
C  31.30500 0.29100 29.00300
C  30.27000 0.75200 32.20600
O  31.42700 0.48400 32.47600
C  29.06300 1.08800 33.21400
C  28.99100 -0.02500 34.18900
O  28.26400 -0.97800 34.10100
O  29.83800 0.17500 35.18700
C  29.88800 -0.64200 36.35700
H  22.20300 1.74100 32.31000
H  23.02700 1.82200 25.91700
H  29.33600 1.23600 26.75900
H  26.27900 0.99300 34.49900
H  23.97100 2.84500 34.03000
H  23.25200 0.03600 33.91400
H  22.86800 1.27100 35.15200
H  24.42600 0.32800 35.19800
H  25.84700 3.79600 34.88600
H  27.43500 3.40200 34.10500
H  28.17700 3.21200 36.12600
H  27.61200 1.59700 36.04800
H  19.87900 3.31700 30.61100
H  20.11100 2.02900 31.73200
H  19.28400 1.64100 30.28000
H  18.81000 3.00300 28.31500
H  18.82100 1.20400 28.30900
H  18.30100 2.12400 26.92500
H  25.25100 2.88100 24.87500
H  27.43800 0.95500 24.51600
H  24.31200 0.24800 24.02900
H  25.76100 0.84100 23.10700
H  24.35600 1.76100 23.15200
H  27.89200 2.81000 23.83300
H  28.98700 2.65900 25.26800
H  26.72700 4.24600 26.19200
H  27.03000 4.73000 24.53300
H  28.27700 4.88700 25.77500
H  31.96400 1.06900 28.61900
H  31.09600 -0.42300 28.20700
H  31.75500 -0.38300 29.73200
H  29.33600 2.03900 33.67100
H  29.84800 -1.70500 36.12200
H  29.22400 -0.25500 37.13000
H  30.85800 -0.56300 36.84800
Mg -2.26500 34.25700 25.51800
C  -4.04000 32.79200 28.14900
C  -0.67100 36.28400 27.74400
C  -0.77300 35.80800 22.92200
C  -4.12700 32.28600 23.27500
N  -2.50400 34.67900 27.68800
C  -3.16900 33.80600 28.54700
C  -2.74400 34.05400 30.04500
C  -1.93700 35.44100 29.96000
C  -1.68600 35.49300 28.44500
C  -2.46400 36.74100 30.55100
C  -1.97700 32.83600 30.76000
C  -2.77100 32.14400 31.92000
H  -2.04500 31.89700 33.27300
N  -0.97000 35.80400 25.32700
C  -0.35200 36.44400 26.38700
C  0.66500 37.39800 25.89600
C  0.69600 37.13900 24.51700
C  -0.34800 36.20100 24.17200
C  1.55300 38.20200 26.76100
C  1.71600 37.60300 23.53500
O  1.75800 37.26500 22.33900
C  2.82000 38.50800 23.91000
N  -2.47100 34.11200 23.39500
C  -1.67000 34.80500 22.54500
C  -1.94500 34.37700 21.05500
C  -2.88400 33.21000 21.17600
C  -3.21900 33.22300 22.65200
C  -2.37400 35.50200 20.07600
C  -2.37800 31.76600 20.70100
C  -1.54600 30.86900 21.56700
N  -3.82000 32.89600 25.62100
C  -4.36500 32.08700 24.64600
C  -5.34300 31.17000 25.32400
C  -5.21000 31.45500 26.73000
C  -4.33200 32.44800 26.84400
C  -6.24700 30.15600 24.60400
C  -5.71600 31.11800 27.98800
O  -6.52200 30.28900 28.33700
C  -4.91900 31.93300 28.98800
C  -5.87800 32.67700 29.82000
O  -6.18200 33.79200 29.56400
O  -6.08800 32.03400 30.98500
C  -6.83900 32.80100 32.03600
H  -0.05300 36.66500 28.56000
H  -0.25700 36.23200 22.05800
H  -4.80200 31.75600 22.60000
H  -3.64000 34.14400 30.65900
H  -0.93500 35.33800 30.37600
H  -3.34400 36.56900 31.17000
H  -2.67100 37.44300 29.74300
H  -1.69400 37.18300 31.18400
H  -1.01400 33.23200 31.08400
H  -1.65900 32.22300 29.91700
H  -3.05600 31.15200 31.56800
H  -3.69300 32.69000 32.11600
H  2.55500 37.78500 26.66200
H  1.26400 38.20400 27.81200
H  1.62800 39.28000 26.62200
H  2.44900 39.28000 24.58500
H  3.13200 39.11700 23.06100
H  3.75700 38.05800 24.23700
H  -1.05200 33.90000 20.65000
H  -3.81800 33.42600 20.65700
H  -1.58800 35.99300 19.50300
H  -2.85600 36.31900 20.61300
H  -3.18000 35.24900 19.38800
H  -1.76200 31.99900 19.83200
H  -3.23700 31.27100 20.24800
H  -0.67600 30.64200 20.95100
H  -2.04500 29.93100 21.81000
H  -1.27500 31.37600 22.49300
H  -5.79000 30.01600 23.62500
H  -7.20700 30.59200 24.32800
H  -6.28500 29.26200 25.22700
H  -4.27300 31.24900 29.53800
H  -6.49400 33.81000 32.26000
H  -6.72500 32.32800 33.01200
H  -7.88300 32.83300 31.72400

