158

Mg 50.42000 46.03800 41.47700
C  47.41500 47.44800 40.52200
C  49.43600 43.04400 40.27300
C  53.62300 44.81000 42.00400
C  51.65400 49.20800 42.08500
N  48.69900 45.38200 40.31900
C  47.47300 46.06500 40.23400
C  46.27000 45.08500 39.87500
C  46.98000 43.72900 39.99700
C  48.49100 44.05600 40.25300
C  46.42800 42.65000 41.01100
C  45.70200 45.44700 38.50800
C  44.18700 45.01700 38.30400
H  44.00500 43.98900 37.14300
N  51.36100 44.15200 41.15300
C  50.72800 43.05700 40.72100
C  51.70900 42.00200 40.79100
C  52.98700 42.55700 41.03000
C  52.67400 43.89900 41.43100
C  51.33900 40.57700 40.19400
C  54.32900 41.85200 40.89400
O  54.38900 40.66100 40.61900
C  55.64300 42.56800 41.11100
N  52.40000 46.92700 42.04200
C  53.46400 46.14300 42.25500
C  54.66000 47.02800 42.61900
C  53.97800 48.39700 42.79800
C  52.56700 48.19400 42.25200
C  55.60800 46.53100 43.75400
C  54.80500 49.58800 42.21800
C  55.58300 50.53800 43.20400
N  49.76000 47.88700 41.27900
C  50.31200 49.07300 41.63700
C  49.38800 50.18000 41.56200
C  48.16700 49.58400 41.13100
C  48.47900 48.20900 41.02700
C  49.57100 51.59300 42.11700
C  46.76100 49.78000 40.89900
O  46.02500 50.73500 41.09300
C  46.28700 48.40800 40.38300
C  45.03600 47.89800 41.18600
O  44.96700 47.55600 42.35000
O  43.95900 48.00600 40.36500
C  42.72300 47.36100 40.92700
H  49.01700 42.04800 40.11500
H  54.62600 44.44700 42.23600
H  51.90900 50.22400 42.39200
H  45.50800 45.20200 40.64600
H  47.13600 43.21800 39.04700
H  46.34600 41.63500 40.62100
H  45.49600 43.00100 41.45300
H  47.20300 42.46800 41.75600
H  46.30600 44.99000 37.72400
H  45.91100 46.50100 38.32300
H  43.64700 45.93500 38.07200
H  43.84200 44.53100 39.21600
H  51.36700 40.70500 39.11200
H  50.33600 40.30100 40.52200
H  51.99400 39.76200 40.50400
H  56.04100 42.37300 42.10700
H  55.75800 43.63600 40.92700
H  56.38500 42.01700 40.53300
H  55.28200 47.01400 41.72400
H  53.90100 48.53100 43.87700
H  55.64500 47.13100 44.66300
H  56.63300 46.65500 43.40500
H  55.42700 45.52500 44.13400
H  54.13000 50.24600 41.67200
H  55.57300 49.21800 41.53900
H  55.44900 51.58700 42.94000
H  56.61700 50.20800 43.29500
H  55.12100 50.33700 44.17100
H  49.63700 52.25300 41.25100
H  50.49900 51.74400 42.66700
H  48.73200 51.97000 42.70300
H  46.02600 48.44800 39.32500
H  43.06600 46.40100 41.31400
H  42.11100 47.16400 40.04800
H  42.15700 47.93200 41.66300
Mg 26.71900 49.22000 26.40900
C  24.79900 50.52700 29.17300
C  29.01600 48.16000 28.88400
C  28.73800 48.23400 24.01500
C  24.50200 50.76900 24.27100
N  26.79700 49.24800 28.81300
C  25.85100 49.80800 29.63500
C  26.23500 49.55000 31.13000
C  27.63500 48.93100 31.01400
C  27.85900 48.70500 29.48900
C  28.86600 49.58800 31.83000
C  25.18000 48.80600 31.95200
C  24.53900 49.41300 33.19700
H  24.02100 48.54400 34.26700
N  28.62100 48.30900 26.38600
C  29.42000 47.89400 27.52500
C  30.60700 47.17000 27.01900
C  30.52500 47.19400 25.62700
C  29.30600 47.98400 25.26700
C  31.74400 46.61100 27.92100
C  31.52000 46.67300 24.55200
O  31.42900 46.94400 23.34900
C  32.69900 45.80000 25.02900
N  26.55000 49.35800 24.44500
C  27.53500 48.88000 23.64500
C  27.25800 49.32400 22.18500
C  25.84800 49.89700 22.24700
C  25.57400 50.02500 23.71500
C  28.20800 50.33000 21.67500
C  24.75500 48.93900 21.62500
C  23.63700 49.68400 20.90200
N  25.01900 50.47400 26.66200
C  24.23500 50.95800 25.64500
C  23.14900 51.77400 26.26700
C  23.32900 51.62900 27.62200
C  24.44100 50.75100 27.79900
C  22.00100 52.38900 25.47000
C  22.83700 51.95500 28.90600
O  21.88900 52.71800 29.18400
C  23.66400 51.18500 29.98700
C  24.16300 52.23900 30.87100
O  25.17200 52.96500 30.79100
O  23.23900 52.37300 31.86100
C  23.43100 53.46800 32.76600
H  29.83400 47.77900 29.50000
H  29.41300 48.04300 23.17800
H  23.75200 51.23600 23.63000
H  26.32300 50.53700 31.58500
H  27.70600 47.91400 31.40000
H  29.26700 48.85600 32.53200
H  28.53300 50.47800 32.36400
H  29.67900 49.91100 31.17900
H  25.54200 47.80500 32.18600
H  24.35200 48.68300 31.25400
H  23.65600 49.99300 32.92900
H  25.26400 50.10800 33.62100
H  32.70800 46.83500 27.46400
H  31.72400 45.52200 27.86700
H  31.79100 47.14500 28.87000
H  32.31400 44.99900 25.66100
H  33.32900 46.44800 25.63900
H  33.34000 45.48000 24.20900
H  27.27000 48.48600 21.48900
H  25.71700 50.88500 21.80600
H  28.81100 50.83100 22.43200
H  27.76400 51.09100 21.03300
H  28.84000 49.84900 20.92800
H  24.32000 48.35500 22.43600
H  25.07100 48.16400 20.92700
H  23.56700 49.42100 19.84600
H  23.80400 50.75900 20.83700
H  22.63500 49.57400 21.31700
H  21.10000 52.39500 26.08200
H  21.67300 51.83100 24.59200
H  22.33800 53.39900 25.23600
H  22.98000 50.49600 30.48300
H  23.43800 54.40500 32.20900
H  24.34400 53.39000 33.35500
H  22.60400 53.55000 33.47100

