158

Mg 41.44100 40.86200 27.38000
C  40.72200 43.18400 29.82900
C  42.66500 38.59700 29.76200
C  42.71600 38.74100 24.89100
C  40.81500 43.39200 24.98700
N  41.49400 40.83500 29.56600
C  41.12400 41.88700 30.39600
C  41.16900 41.51400 31.90400
C  41.76300 40.06800 31.84800
C  42.08800 39.81100 30.26200
C  43.09500 39.89800 32.60400
C  39.76400 41.53400 32.69600
C  39.82700 42.14100 34.11600
H  38.94000 41.54600 35.25400
N  42.42500 38.91600 27.35500
C  42.83300 38.17600 28.43200
C  43.31800 36.88600 28.01400
C  43.21000 36.88200 26.57900
C  42.80600 38.27800 26.23300
C  43.63600 35.78700 29.00400
C  43.46100 35.73100 25.59900
O  43.10700 35.76200 24.41300
C  44.01900 34.44000 26.13900
N  41.70900 41.08000 25.28000
C  42.21800 40.00700 24.44900
C  41.98700 40.37900 22.95900
C  41.55500 41.90400 23.03100
C  41.28400 42.17800 24.54400
C  43.00400 40.18900 21.86900
C  40.34100 42.20100 22.14000
C  38.90400 41.82800 22.62500
N  40.89400 42.92600 27.36400
C  40.74700 43.82700 26.34000
C  40.44700 45.12000 26.86600
C  40.36900 44.89200 28.25500
C  40.67800 43.54900 28.47900
C  40.25300 46.39000 26.11100
C  40.16800 45.52300 29.56900
O  39.90700 46.67400 29.94900
C  40.40500 44.39300 30.63600
C  41.54100 44.91900 31.47200
O  42.67400 45.27900 31.20700
O  41.00800 45.16800 32.74000
C  41.75300 45.97700 33.71500
H  42.92800 37.92500 30.58100
H  43.04900 38.13100 24.04800
H  40.60900 43.99000 24.09800
H  41.88100 42.18900 32.37900
H  40.99100 39.34200 32.10600
H  42.94600 39.19100 33.42000
H  43.42300 40.86100 32.99700
H  43.85000 39.53500 31.90700
H  39.40600 40.53600 32.94900
H  39.05400 41.97700 31.99700
H  39.64200 43.21400 34.06200
H  40.88100 42.13100 34.39400
H  43.09300 34.86400 28.79900
H  43.39100 36.03500 30.03600
H  44.70300 35.56400 29.00200
H  43.22800 33.92900 26.68800
H  44.90500 34.53500 26.76600
H  44.23100 33.80200 25.28200
H  41.06300 39.87600 22.67500
H  42.38000 42.52400 22.68200
H  43.25500 41.14000 21.39800
H  42.63800 39.50100 21.10800
H  43.88900 39.78800 22.36300
H  40.54500 41.63400 21.23200
H  40.34500 43.24400 21.82300
H  38.81200 41.19700 23.51000
H  38.54200 41.18000 21.82700
H  38.23700 42.69000 22.63800
H  40.74000 46.34600 25.13600
H  40.68000 47.16300 26.75000
H  39.17600 46.51400 26.00600
H  39.49300 44.22500 31.20900
H  42.03900 45.22100 34.44700
H  41.11900 46.74500 34.15600
H  42.73000 46.29900 33.35300
Mg 27.69200 50.32500 25.35100
C  25.72700 51.70500 27.74800
C  29.80300 49.26400 27.74400
C  29.69200 49.23700 22.77500
C  25.71500 51.86200 22.87400
N  27.77700 50.62800 27.43900
C  26.80500 51.09600 28.28600
C  27.12400 50.76800 29.76700
C  28.66500 50.28900 29.75700
C  28.78300 50.08300 28.19900
C  29.66100 51.31100 30.37700
C  26.09600 49.98600 30.58100
C  25.47900 50.62000 31.81100
H  26.41600 50.92800 33.05300
N  29.50200 49.34800 25.28300
C  30.19100 48.99400 26.41700
C  31.25400 48.07100 26.00900
C  31.12100 47.99800 24.55600
C  30.12200 48.93900 24.12100
C  32.36100 47.60300 26.98100
C  31.87800 47.10400 23.57500
O  31.78000 47.15900 22.33800
C  32.62700 45.93500 24.13400
N  27.68300 50.52000 23.14500
C  28.57100 49.95000 22.28900
C  28.35300 50.26300 20.76200
C  26.89400 50.80900 20.85700
C  26.79700 51.16300 22.33400
C  29.35900 51.37600 20.33000
C  25.74900 49.90100 20.32900
C  25.69500 48.40500 20.71000
N  26.06700 51.58300 25.31300
C  25.38100 52.13700 24.23100
C  24.32300 52.93100 24.71800
C  24.37500 52.76400 26.09200
C  25.46000 51.96300 26.41600
C  23.27900 53.62500 23.88500
C  23.75300 53.14500 27.41900
O  22.80800 53.90900 27.65200
C  24.61500 52.38400 28.50400
C  24.98900 53.46800 29.44400
O  25.89400 54.24400 29.40300
O  24.07000 53.47400 30.50900
C  24.26900 54.52800 31.56900
H  30.47000 48.89400 28.52500
H  30.38600 48.83600 22.03300
H  25.00200 52.18100 22.11100
H  27.25500 51.70300 30.31200
H  28.74700 49.30900 30.22500
H  30.49200 51.50000 29.69700
H  30.18500 50.71200 31.12200
H  29.28500 52.27500 30.71900
H  26.66700 49.11600 30.90600
H  25.22800 49.67500 29.99900
H  24.77100 49.84700 32.11000
H  24.95800 51.53200 31.52000
H  32.37300 48.00500 27.99400
H  33.34500 47.82500 26.56800
H  32.32100 46.51600 27.04200
H  32.94000 45.27300 23.32700
H  31.98500 45.44100 24.86300
H  33.51700 46.26600 24.67100
H  28.44800 49.33200 20.20300
H  26.93700 51.83100 20.48100
H  28.90100 52.30000 20.68400
H  29.56000 51.45000 19.26100
H  30.28600 51.23300 20.88500
H  25.53300 50.04100 19.27000
H  24.88200 50.29700 20.85700
H  25.23700 47.78800 19.93700
H  25.00900 48.26700 21.54500
H  26.64500 47.96200 21.01000
H  22.57300 52.90000 23.48000
H  23.58800 54.23600 23.03800
H  22.64700 54.27500 24.49100
H  24.02500 51.61700 29.00400
H  25.29300 54.29400 31.86300
H  23.41000 54.38000 32.22200
H  24.29100 55.58500 31.30300

