158

Mg 54.51500 23.55900 45.15800
C  52.01500 25.94200 44.53400
C  52.41100 21.14200 43.87000
C  57.20500 21.63100 44.62300
C  56.67200 26.14800 46.21800
N  52.51700 23.61300 44.38600
C  51.66400 24.65100 44.14300
C  50.40900 24.16400 43.45000
C  50.39200 22.60700 43.91600
C  51.87500 22.40000 44.11300
C  49.45200 22.21800 45.15800
C  50.49000 24.45100 41.81900
C  49.41000 23.69900 40.94600
H  48.85700 24.41100 39.73600
N  54.72600 21.67800 44.39000
C  53.79400 20.81600 43.91400
C  54.36300 19.49900 43.60200
C  55.75500 19.62000 43.80600
C  55.96000 21.06000 44.19600
C  53.58200 18.19500 43.25300
C  56.80100 18.47800 43.75800
O  56.46500 17.33900 43.43900
C  58.25800 18.65200 44.14000
N  56.58500 23.83000 45.39200
C  57.41800 22.79100 45.29600
C  58.82300 23.21000 45.81900
C  58.62000 24.54400 46.44000
C  57.15800 24.90400 46.02500
C  59.41900 22.04800 46.84700
C  59.63500 25.61000 46.15400
C  59.82800 26.54300 47.37800
N  54.35500 25.65200 45.45900
C  55.34800 26.60600 45.87700
C  54.77300 27.88500 45.78600
C  53.48500 27.67300 45.22600
C  53.25700 26.33000 45.13500
C  55.44400 29.20700 46.11800
C  52.22000 28.36600 44.86800
O  51.87100 29.51700 44.94700
C  51.25900 27.28200 44.40400
C  50.77900 27.61000 43.03500
O  51.51000 27.93700 42.09600
O  49.40300 27.50400 42.98500
C  48.68800 27.88100 41.75900
H  51.68500 20.36800 43.61200
H  58.12700 21.06800 44.46100
H  57.33500 26.92900 46.59700
H  49.58400 24.70600 43.91300
H  50.03000 22.02500 43.06800
H  48.80800 21.36100 44.96100
H  48.93800 23.05600 45.62800
H  50.07100 22.03200 46.03600
H  51.48000 24.06800 41.56800
H  50.34200 25.51800 41.65200
H  48.53600 23.35000 41.49600
H  49.89200 22.77000 40.64400
H  53.78900 17.94300 42.21300
H  52.53800 18.48400 43.13700
H  53.57200 17.47100 44.06900
H  58.71600 19.33800 43.42800
H  58.68400 17.64900 44.13300
H  58.26200 19.08400 45.14100
H  59.47000 23.35500 44.95300
H  58.39700 24.33700 47.48700
H  59.77300 22.39500 47.81700
H  60.24800 21.53400 46.36200
H  58.62400 21.30900 46.95100
H  59.27500 26.14800 45.27800
H  60.63400 25.21800 45.96400
H  60.88900 26.73500 47.53500
H  59.17400 26.34300 48.22700
H  59.35600 27.47800 47.07300
H  56.03200 29.05900 47.02400
H  54.81200 30.06500 46.34300
H  56.01300 29.37200 45.20400
H  50.43300 27.28600 45.11600
H  47.80500 28.33300 42.21300
H  48.40100 26.96600 41.24100
H  49.24000 28.64800 41.21600
Mg 48.33300 34.64900 27.17900
C  46.33200 33.33800 29.63700
C  48.90800 37.47600 29.06400
C  50.08400 35.91100 24.52600
C  47.32600 31.89200 25.04200
N  47.82700 35.22800 29.11900
C  47.05700 34.47900 30.07100
C  47.06900 35.13000 31.43700
C  47.38900 36.63000 31.00100
C  48.14300 36.51400 29.66700
C  46.25800 37.65400 30.97000
C  48.07600 34.53100 32.40600
C  47.67500 34.53600 33.91600
H  46.68200 35.62000 34.51700
N  49.50300 36.38700 26.90900
C  49.61500 37.38800 27.85800
C  50.60500 38.37900 27.34000
C  50.97000 37.94500 25.99800
C  50.18200 36.71300 25.72300
C  51.05100 39.50700 28.10900
C  51.87700 38.61500 24.95800
O  52.06200 38.13800 23.85200
C  52.70300 39.80600 25.34600
N  48.53800 34.08300 24.97700
C  49.35900 34.74400 24.12000
C  49.43000 34.03600 22.79300
C  48.62000 32.75700 23.02500
C  48.04200 32.93100 24.44400
C  49.09800 34.89200 21.60900
C  49.39300 31.41200 22.84800
C  49.39100 30.96100 21.41900
N  47.08900 32.98000 27.21800
C  46.85500 31.95700 26.38400
C  46.02400 31.02700 27.03600
C  45.63700 31.59700 28.23900
C  46.42300 32.71100 28.34800
C  45.37700 29.81900 26.39900
C  44.84800 31.41800 29.43300
O  43.91000 30.62100 29.60200
C  45.18700 32.62400 30.37200
C  45.52500 32.10700 31.66600
O  46.22100 31.09700 31.75200
O  44.70700 32.63300 32.63900
C  44.46400 31.85000 33.82700
H  48.94700 38.43100 29.59300
H  50.72100 36.24600 23.70500
H  47.07200 30.92300 24.60800
H  46.12100 35.27900 31.95300
H  48.20100 37.12400 31.53300
H  46.07900 38.06900 29.97800
H  46.60700 38.51900 31.53300
H  45.28100 37.32600 31.32400
H  49.06600 34.91000 32.14800
H  48.02700 33.47800 32.12800
H  48.55300 34.60000 34.55800
H  47.31400 33.57600 34.28500
H  50.35000 39.81700 28.88400
H  51.28500 40.40500 27.53600
H  51.95600 39.15500 28.60500
H  53.25000 39.58000 26.26100
H  52.14100 40.70200 25.61000
H  53.35800 39.96800 24.49000
H  50.49500 33.83000 22.68800
H  47.79700 32.83700 22.31600
H  48.52000 35.75200 21.95000
H  48.62500 34.28900 20.83400
H  50.05000 35.22200 21.19300
H  48.95900 30.63800 23.47900
H  50.41900 31.56500 23.18100
H  49.12800 31.78100 20.75100
H  48.73800 30.09500 21.30400
H  50.40800 30.59700 21.27300
H  46.06700 29.09400 25.96800
H  44.80800 30.06800 25.50400
H  44.64800 29.34300 27.05500
H  44.40000 33.37700 30.34100
H  43.85100 32.55400 34.38900
H  45.32000 31.52800 34.42000
H  43.81400 31.01400 33.56800

