158

Mg 0.60300 7.64200 26.75200
C  1.42900 9.76900 29.55300
C  0.67100 5.03100 29.04100
C  -0.23100 5.58600 24.31100
C  1.13100 10.29100 24.63200
N  1.01900 7.45400 29.06100
C  1.21700 8.42300 29.94600
C  1.11700 7.93700 31.47600
C  1.24000 6.40900 31.21500
C  0.86500 6.26300 29.69500
C  2.66100 5.77200 31.55100
C  -0.28500 8.42400 32.01900
C  -0.47700 8.33900 33.54300
H  0.60500 7.62700 34.32100
N  0.18200 5.52800 26.63200
C  0.26200 4.65500 27.67000
C  0.06100 3.29100 27.20600
C  -0.27400 3.42700 25.84400
C  -0.18700 4.85500 25.53500
C  0.09200 2.04300 28.07800
C  -0.34000 2.41200 24.71700
O  -0.52500 2.68700 23.49900
C  -0.19300 0.95200 25.15400
N  0.54900 7.89700 24.77500
C  0.09800 6.89800 23.97200
C  0.12300 7.41100 22.52000
C  0.35200 8.96900 22.58600
C  0.76200 9.13400 24.06500
C  1.04900 6.71900 21.55100
C  -0.93900 9.79500 22.22300
C  -0.78900 11.23800 21.71700
N  1.22400 9.55900 26.95200
C  1.31600 10.52500 26.02400
C  1.59500 11.76800 26.68400
C  1.67400 11.47800 28.02400
C  1.43000 10.15000 28.17600
C  1.64000 13.07200 25.95900
C  2.00900 12.05600 29.33500
O  2.44700 13.16900 29.66500
C  1.69400 10.92000 30.38700
C  2.84400 10.90600 31.31000
O  3.86500 10.28000 31.17800
O  2.59700 11.73700 32.34000
C  3.42800 11.77200 33.51500
H  0.67900 4.20000 29.74900
H  -0.60100 5.14400 23.38400
H  1.32400 11.18600 24.03700
H  2.03800 8.28500 31.94400
H  0.49400 5.94900 31.86400
H  3.35700 6.43100 32.07000
H  3.09400 5.49400 30.59000
H  2.68600 4.77700 31.99400
H  -1.06100 7.74100 31.67300
H  -0.56600 9.40200 31.62700
H  -1.42400 7.81600 33.67100
H  -0.51400 9.31900 34.01900
H  -0.83000 1.46500 28.01000
H  0.32000 2.24200 29.12500
H  0.89100 1.36900 27.76700
H  -0.92300 0.67400 25.91300
H  0.83900 0.83000 25.48200
H  -0.12400 0.23400 24.33600
H  -0.87600 7.15200 22.17100
H  1.18600 9.19900 21.92300
H  1.86800 7.34900 21.20400
H  0.57900 6.10900 20.78000
H  1.62500 5.95800 22.07800
H  -1.56100 9.82000 23.11900
H  -1.35200 9.22400 21.39200
H  -0.94600 11.28100 20.64000
H  0.24200 11.53200 21.91500
H  -1.48400 11.79600 22.34400
H  1.27400 12.96000 24.93800
H  2.63400 13.51900 25.96700
H  0.91000 13.67400 26.49900
H  0.78900 11.07400 30.97600
H  4.19500 12.51800 33.30600
H  3.80100 10.78000 33.77100
H  2.68900 12.01700 34.27800
Mg 49.31600 47.27000 42.98100
C  45.97900 47.59500 42.24000
C  49.21200 44.25400 41.04200
C  52.60900 46.85100 43.36600
C  49.43300 50.61600 44.06300
N  47.71200 46.01200 41.71000
C  46.41700 46.41300 41.58800
C  45.60300 45.45500 40.57300
C  46.74300 44.42500 40.25600
C  47.96400 44.88000 41.07800
C  46.45400 42.89300 40.22700
C  44.89400 46.16200 39.35100
C  43.38500 45.90100 39.29900
H  42.80300 45.76400 37.92500
N  50.69600 45.75000 42.31400
C  50.44100 44.59800 41.66500
C  51.61300 43.78500 41.65400
C  52.66800 44.46700 42.29000
C  52.01700 45.76100 42.67900
C  51.59600 42.37600 41.14200
C  54.10300 43.96000 42.55500
O  54.43200 42.86200 42.15000
C  55.19100 44.78800 43.34900
N  50.85500 48.63700 43.42700
C  52.12500 48.18900 43.69300
C  53.00600 49.31400 44.22900
C  51.98900 50.40900 44.56100
C  50.66100 49.87400 44.03900
C  54.01100 48.93600 45.39300
C  52.42200 51.82400 43.97900
C  52.07800 52.17800 42.58200
N  48.01700 48.84500 43.25900
C  48.16300 50.18400 43.72400
C  46.90600 50.86200 43.76700
C  45.99000 49.89600 43.15600
C  46.72000 48.62700 42.96400
C  46.72400 52.25200 44.29500
C  44.61300 49.70200 42.84200
O  43.58200 50.28600 43.00000
C  44.52700 48.25100 42.25300
C  43.51700 47.41600 43.02000
O  43.75100 46.72200 44.05000
O  42.31600 47.32600 42.33500
C  41.55300 46.10000 42.71800
H  49.32300 43.41900 40.34700
H  53.65100 46.80100 43.68800
H  49.40900 51.63700 44.45100
H  44.86600 44.96000 41.20600
H  47.07400 44.70500 39.25600
H  46.39100 42.40200 39.25600
H  45.65200 42.83100 40.96200
H  47.36700 42.44200 40.61400
H  45.45400 46.08300 38.41900
H  44.99100 47.22700 39.56000
H  43.02200 46.76500 39.85700
H  43.04700 44.99000 39.79300
H  51.74200 42.48200 40.06700
H  50.67900 41.81300 41.31600
H  52.40000 41.76200 41.54800
H  55.42800 45.77000 42.93900
H  56.18300 44.35500 43.47800
H  54.76400 44.89100 44.34600
H  53.59900 49.52100 43.33800
H  51.89400 50.50500 45.64200
H  54.63500 49.81900 45.25500
H  54.62600 48.05900 45.19100
H  53.50100 49.00100 46.35400
H  53.49700 51.91400 44.13700
H  51.89800 52.54200 44.61000
H  51.57300 51.32900 42.12000
H  53.00700 52.32500 42.03200
H  51.51400 53.10600 42.48700
H  45.66100 52.48500 44.36200
H  47.13800 52.92800 43.54800
H  47.13000 52.39500 45.29700
H  43.98300 48.24800 41.30800
H  40.86400 45.75400 41.94700
H  40.94400 46.34600 43.58700
H  42.07700 45.21100 43.06800

