158

Mg 44.09600 4.01900 47.61700
C  41.64000 6.65900 47.12800
C  41.40700 1.80900 47.37300
C  46.27800 1.47200 47.41100
C  46.56500 6.32100 46.96000
N  41.75400 4.29000 47.29000
C  41.03800 5.46400 47.09600
C  39.55300 5.13100 46.89700
C  39.54000 3.56900 47.15200
C  41.02800 3.14700 47.28300
C  38.70300 3.11900 48.34900
C  39.09700 5.57400 45.49800
C  37.82100 6.44000 45.36200
H  37.88200 7.75200 44.43900
N  43.92300 1.87500 47.50800
C  42.72600 1.26800 47.41800
C  42.99600 -0.14600 47.45900
C  44.43400 -0.35600 47.54200
C  44.95500 0.99100 47.53500
C  41.97000 -1.28700 47.41900
C  45.13200 -1.71200 47.77200
O  44.48000 -2.74700 47.89400
C  46.62300 -1.75900 47.84300
N  46.07200 3.96100 47.23100
C  46.78600 2.79600 47.30900
C  48.32500 3.09300 47.24100
C  48.38700 4.63900 46.99300
C  46.90000 4.97500 46.98400
C  49.19600 2.54100 48.49700
C  49.18400 5.11600 45.78100
C  50.35500 4.31100 45.27600
N  44.17200 6.13500 47.25200
C  45.27500 6.86800 47.07300
C  44.87000 8.32700 47.01900
C  43.44300 8.25500 47.10900
C  43.04600 6.93600 47.12300
C  45.73700 9.55800 46.87600
C  42.23500 9.02700 47.07500
O  42.12700 10.24200 46.87000
C  41.01400 8.02200 47.02100
C  40.06500 8.27300 48.13900
O  39.98000 7.58800 49.18200
O  39.21600 9.23500 47.82500
C  38.09200 9.50500 48.73400
H  40.63600 1.06100 47.18100
H  47.07200 0.72600 47.34100
H  47.37900 7.04800 46.90900
H  38.80000 5.54200 47.57000
H  39.18700 3.05700 46.25700
H  37.68700 3.48400 48.19800
H  39.09400 3.56400 49.26400
H  38.57300 2.05400 48.53900
H  38.95700 4.63900 44.95700
H  39.87200 6.08900 44.93000
H  37.52700 6.79900 46.34900
H  37.01400 5.84400 44.93700
H  40.96900 -0.85600 47.45000
H  42.00000 -1.91900 48.30600
H  42.02000 -1.89000 46.51200
H  47.03500 -1.24800 46.97300
H  46.88400 -2.81800 47.82300
H  47.05700 -1.35200 48.75600
H  48.71400 2.56500 46.37000
H  48.71500 5.08900 47.93000
H  49.83900 1.73300 48.14900
H  48.65300 1.97200 49.25100
H  49.62900 3.44700 48.92200
H  49.44500 6.12700 46.09600
H  48.55400 5.14900 44.89200
H  51.24400 4.93600 45.35900
H  50.18000 4.00900 44.24300
H  50.43000 3.35800 45.80000
H  46.19500 9.95500 47.78200
H  45.13000 10.35700 46.45000
H  46.53200 9.37600 46.15300
H  40.41400 8.22600 46.13400
H  38.37600 9.34000 49.77400
H  37.31600 8.79200 48.45900
H  37.74700 10.53500 48.64900
Mg 35.48100 2.28200 30.17000
C  33.18500 3.09900 32.58900
C  38.01600 2.41400 32.73900
C  37.89200 2.03000 27.86800
C  33.02900 2.71700 27.71300
N  35.56000 2.76000 32.45600
C  34.44900 3.01400 33.14500
C  34.79200 3.11500 34.58600
C  36.37500 3.13700 34.64600
C  36.74500 2.79400 33.20200
C  36.95400 4.50100 35.10100
C  34.18800 1.87000 35.42200
C  34.03500 2.00600 36.98500
H  34.49300 3.32600 37.56100
N  37.59500 1.94900 30.29600
C  38.44900 2.10900 31.39200
C  39.76000 1.67400 31.08000
C  39.81700 1.69600 29.66900
C  38.41700 1.92900 29.20800
C  40.75500 1.35700 32.15200
C  40.93000 1.46000 28.75000
O  40.79300 1.36000 27.54800
C  42.30300 1.32400 29.25500
N  35.49300 2.24300 28.06600
C  36.61500 2.17700 27.37500
C  36.25000 2.22600 25.87100
C  34.72500 2.34100 25.80900
C  34.36800 2.47000 27.27600
C  36.96800 3.43100 25.13900
C  33.96400 1.11000 25.20800
C  33.74600 -0.18700 26.00300
N  33.50300 2.78500 30.09100
C  32.64400 2.85200 29.04700
C  31.32600 3.13900 29.55200
C  31.52000 3.31600 30.91700
C  32.85800 3.04200 31.23400
C  30.12500 3.31300 28.66600
C  30.82900 3.65300 32.13800
O  29.68400 3.91200 32.34600
C  31.83200 3.50400 33.29300
C  31.78900 4.84500 34.07300
O  32.44300 5.82400 33.78800
O  31.00400 4.81700 35.18100
C  31.22700 5.96100 36.12600
H  38.76500 2.52600 33.52500
H  38.62500 1.93600 27.06400
H  32.29300 2.92800 26.93400
H  34.41000 4.08700 34.89900
H  36.87600 2.41700 35.29400
H  36.26400 5.31600 35.32100
H  37.57600 4.81200 34.26200
H  37.53300 4.43100 36.02200
H  34.84900 1.01100 35.31400
H  33.31100 1.44400 34.93400
H  34.54500 1.21000 37.52700
H  32.96600 1.90500 37.17500
H  41.16800 2.32000 32.45100
H  41.62800 0.85000 31.74200
H  40.33600 0.90500 33.05200
H  42.85500 1.10300 28.34200
H  42.40400 0.43300 29.87600
H  42.59600 2.18300 29.85900
H  36.53100 1.27700 25.41500
H  34.28100 3.20300 25.31300
H  36.40500 4.24400 24.68200
H  37.58000 3.04200 24.32400
H  37.63100 3.85900 25.89000
H  34.45500 0.83800 24.27400
H  32.93700 1.33100 24.91700
H  32.71700 -0.54300 26.03200
H  33.97900 0.06900 27.03600
H  34.30300 -1.00200 25.54000
H  30.21500 2.59600 27.85000
H  30.03700 4.35900 28.37300
H  29.20600 2.96000 29.13500
H  31.53500 2.70900 33.97700
H  30.60300 5.71000 36.98300
H  30.86900 6.83500 35.58100
H  32.30400 5.94800 36.29200

