158

Mg 34.53400 2.06900 29.29000
C  32.42000 3.02200 31.86100
C  37.12200 1.87600 31.65100
C  36.76400 1.94200 26.77000
C  32.12700 3.06600 26.85600
N  34.72600 2.57000 31.48800
C  33.71400 2.71800 32.36700
C  34.18400 2.67000 33.83300
C  35.69100 2.38400 33.63700
C  35.89100 2.32400 32.12400
C  36.63300 3.31100 34.43900
C  33.38900 1.67500 34.67600
C  32.89100 1.98500 36.13800
H  33.61600 3.10700 36.87400
N  36.62000 1.75000 29.16700
C  37.44200 1.74700 30.23400
C  38.78300 1.53700 29.74700
C  38.81400 1.41100 28.34200
C  37.37300 1.73900 28.01500
C  40.09400 1.30600 30.61700
C  39.95800 1.15500 27.39500
O  39.75800 1.16200 26.18000
C  41.41700 0.99500 27.67400
N  34.38200 2.27600 27.13400
C  35.46600 2.14900 26.31600
C  35.10600 2.41300 24.83900
C  33.60800 2.60900 24.81900
C  33.36300 2.73700 26.35300
C  35.84700 3.57600 24.03600
C  32.78800 1.44700 24.07700
C  32.64700 -0.02500 24.71300
N  32.65400 2.81900 29.29600
C  31.77000 3.08300 28.24500
C  30.56300 3.57900 28.83800
C  30.68500 3.56000 30.25400
C  32.01700 3.11700 30.45900
C  29.30400 3.86100 28.09800
C  30.05200 3.77800 31.49500
O  28.95000 4.14600 31.79300
C  31.17800 3.51600 32.57000
C  31.29800 4.83400 33.27900
O  31.71400 5.88100 32.80500
O  30.83000 4.68500 34.59500
C  30.94100 5.89500 35.46700
H  37.99800 1.76800 32.29500
H  37.50000 2.00000 25.96500
H  31.39400 3.34100 26.09600
H  33.97900 3.56400 34.42200
H  35.89700 1.36000 33.94900
H  36.06600 4.14700 34.85000
H  37.26500 3.87700 33.75500
H  37.22500 2.85000 35.22900
H  34.03200 0.80500 34.81400
H  32.62000 1.26100 34.02300
H  32.86300 1.12000 36.80000
H  31.88200 2.36800 35.98500
H  40.91100 1.79100 30.08300
H  40.20400 0.22200 30.63100
H  40.07700 1.74300 31.61500
H  41.82000 1.98000 27.91300
H  41.89000 0.70300 26.73600
H  41.58600 0.26400 28.46400
H  35.34800 1.49400 24.30500
H  33.29900 3.54100 24.34300
H  35.12100 4.29500 23.65900
H  36.50600 3.13900 23.28500
H  36.52400 4.17100 24.64900
H  33.26300 1.42500 23.09600
H  31.77100 1.73400 23.81100
H  33.64400 -0.38200 24.97200
H  32.35200 -0.78700 23.99200
H  32.00300 0.03100 25.59100
H  29.35900 4.17200 27.05500
H  28.71400 4.70300 28.46200
H  28.71700 2.94500 28.16400
H  30.81100 2.73700 33.23900
H  31.44300 6.74500 35.00500
H  31.43200 5.62300 36.40100
H  29.93200 6.26800 35.64000
Mg 42.01900 41.63900 27.97300
C  40.89000 44.02200 30.47500
C  43.11800 39.67000 30.44300
C  43.25900 39.69100 25.66000
C  41.41000 44.16600 25.52900
N  41.84600 41.82500 30.15600
C  41.40600 42.83200 30.98300
C  41.54400 42.40000 32.45000
C  42.38600 41.04000 32.46600
C  42.50400 40.85800 30.90700
C  43.75400 41.31400 33.11900
C  40.06900 42.28000 33.05100
C  39.92700 43.15000 34.32700
H  39.26900 42.42300 35.54400
N  42.99800 39.82100 28.03200
C  43.35700 39.18300 29.13400
C  43.99500 37.93400 28.78300
C  43.89300 37.86900 27.33500
C  43.32800 39.14900 26.96500
C  44.49900 36.92600 29.83400
C  44.38100 36.75900 26.36100
O  44.54300 36.96000 25.19200
C  44.66100 35.39400 26.92700
N  42.50500 41.98500 25.92600
C  42.92300 40.94300 25.21500
C  42.96000 41.30100 23.71800
C  42.37600 42.70600 23.65900
C  42.12900 43.03000 25.15800
C  44.36300 41.23400 23.03000
C  41.06500 42.81300 22.87200
C  39.87700 42.11800 23.41600
N  41.26200 43.67500 27.98000
C  41.04300 44.49800 26.89100
C  40.34400 45.63100 27.33900
C  40.25900 45.53100 28.73700
C  40.92600 44.36000 29.08700
C  39.74500 46.75500 26.50100
C  39.81400 46.13700 30.02100
O  39.08800 47.08300 30.22300
C  40.30100 45.22200 31.17800
C  41.33500 45.86800 31.94500
O  42.46100 46.19900 31.54900
O  40.89800 45.97100 33.25100
C  41.69300 46.75100 34.26100
H  43.49900 39.00500 31.22100
H  43.48300 39.01200 24.83500
H  41.25200 44.93100 24.76500
H  42.12900 43.19500 32.91300
H  41.95400 40.11800 32.85700
H  43.95300 40.53000 33.85100
H  43.74200 42.25100 33.67600
H  44.50500 41.16100 32.34500
H  39.88000 41.25400 33.36700
H  39.32700 42.67600 32.35800
H  39.30500 43.99200 34.02300
H  40.90700 43.50000 34.65100
H  45.54900 36.84800 29.55400
H  43.97600 35.97100 29.78900
H  44.46400 37.25700 30.87200
H  43.77000 35.01200 27.42500
H  45.43800 35.45700 27.68800
H  44.98800 34.68600 26.16500
H  42.26100 40.58700 23.28200
H  43.02600 43.52900 23.36000
H  44.72000 42.26300 23.06200
H  44.23300 40.81500 22.03200
H  44.96400 40.55700 23.63800
H  41.17800 42.44200 21.85300
H  40.84700 43.85700 22.64300
H  39.19900 42.95300 23.59500
H  39.98700 41.45700 24.27500
H  39.44800 41.58700 22.56600
H  39.16100 46.29500 25.70300
H  40.56600 47.32100 26.06000
H  39.11000 47.34200 27.16400
H  39.46700 44.81200 31.74800
H  41.10800 47.64900 34.46200
H  42.66300 47.17200 33.99500
H  41.85600 46.07400 35.09900

