158

Mg 47.10700 24.65300 27.81000
C  48.11700 26.85100 30.32600
C  46.12300 22.43500 30.19900
C  46.29600 22.63700 25.24800
C  48.03300 27.11500 25.44100
N  47.04900 24.76000 29.95200
C  47.45100 25.74500 30.79500
C  47.02200 25.42700 32.28700
C  46.51000 23.97800 32.23400
C  46.53000 23.67600 30.70000
C  47.31200 22.98500 33.17100
C  46.09900 26.53300 32.95600
C  46.58800 26.91600 34.36600
H  45.68500 27.44100 35.48800
N  46.55100 22.79300 27.75500
C  46.16000 21.97000 28.84400
C  45.77400 20.64400 28.25600
C  45.78400 20.74200 26.84600
C  46.18300 22.15600 26.56400
C  45.45400 19.48600 29.09700
C  45.47100 19.71900 25.76300
O  45.65600 19.91200 24.58700
C  44.69300 18.44100 26.03700
N  47.43300 24.72500 25.65100
C  46.85900 23.78900 24.84700
C  46.80500 24.24000 23.42600
C  47.14300 25.73400 23.43200
C  47.62700 25.88400 24.92700
C  47.70700 23.43800 22.46000
C  45.93600 26.61700 23.23200
C  46.18600 28.06300 22.55800
N  48.02900 26.51100 27.76800
C  48.29100 27.41900 26.82400
C  48.92000 28.52900 27.33800
C  48.91400 28.39300 28.71900
C  48.29600 27.12300 28.94100
C  49.56400 29.61000 26.45400
C  49.23500 28.98400 29.92300
O  49.77200 30.06000 30.15400
C  48.57700 28.09300 31.02700
C  49.67500 27.87000 32.08800
O  50.61300 27.16700 32.02200
O  49.38800 28.70800 33.16200
C  50.18400 28.54100 34.38500
H  45.77000 21.65200 30.87400
H  45.92400 22.05400 24.40300
H  48.30500 27.87800 24.71000
H  47.97600 25.50600 32.80800
H  45.46200 23.96900 32.53400
H  47.81700 22.20800 32.59700
H  46.67500 22.46000 33.88300
H  48.01100 23.54400 33.79400
H  45.06800 26.18500 33.01300
H  46.10500 27.44900 32.36400
H  47.19900 27.81300 34.26300
H  47.11200 26.03900 34.74700
H  46.03600 19.64400 30.00500
H  45.87200 18.58700 28.64500
H  44.38100 19.29700 29.11800
H  43.91700 18.66800 26.76800
H  45.34500 17.79400 26.62400
H  44.38600 17.91100 25.13500
H  45.75900 24.05700 23.18300
H  47.91300 26.07400 22.73900
H  48.71600 23.38800 22.86900
H  47.89200 23.99800 21.54300
H  47.16900 22.51600 22.23900
H  45.37800 26.61600 24.16800
H  45.21300 26.13600 22.57300
H  45.94900 28.18500 21.50200
H  47.20400 28.44400 22.63900
H  45.53300 28.71000 23.14400
H  49.18000 29.76700 25.44500
H  50.55700 29.16100 26.46100
H  49.57300 30.48600 27.10200
H  47.80800 28.70900 31.49300
H  49.76400 27.69000 34.92100
H  50.02600 29.46200 34.94600
H  51.21900 28.23200 34.23800
Mg -9.63300 38.86300 39.80200
C  -8.77500 35.54300 39.30300
C  -6.28600 39.75300 39.06000
C  -10.59700 42.06000 39.21600
C  -13.01300 37.92200 40.15800
N  -7.69100 37.77700 39.35500
C  -7.64800 36.49000 39.13600
C  -6.20100 36.05000 38.89800
C  -5.36600 37.33500 39.15000
C  -6.43600 38.42200 39.22900
C  -4.53500 37.30300 40.44100
C  -5.86700 35.28200 37.58200
C  -6.18300 36.11100 36.30100
H  -7.32500 35.63200 35.44200
N  -8.59900 40.62900 39.30400
C  -7.25400 40.74600 39.04200
C  -6.99700 42.13400 38.67700
C  -8.19300 42.90300 38.68800
C  -9.23200 41.85300 39.01100
C  -5.62400 42.64100 38.38100
C  -8.41100 44.35100 38.32100
O  -7.47200 45.07500 38.14100
C  -9.80600 44.87000 38.08700
N  -11.53600 39.82100 39.73600
C  -11.61700 41.16400 39.53700
C  -13.03600 41.64100 39.37900
C  -13.93500 40.25000 39.74800
C  -12.77500 39.22900 39.90100
C  -13.37600 42.86900 40.36400
C  -15.02000 39.80600 38.73300
C  -16.39800 39.89600 39.41500
N  -10.64800 37.10100 39.94100
C  -12.07900 36.83300 40.05600
C  -12.29900 35.36700 40.11600
C  -11.04400 34.83700 39.75300
C  -10.09200 35.91500 39.67400
C  -13.64200 34.63000 40.44000
C  -10.31100 33.56100 39.42000
O  -10.74300 32.43600 39.38600
C  -8.92800 33.97600 39.00200
C  -7.89300 33.13700 39.75000
O  -7.73400 33.10100 40.95500
O  -7.11700 32.36100 38.88200
C  -5.97300 31.63000 39.50500
H  -5.21800 39.94000 38.92900
H  -11.05500 43.05100 39.24200
H  -14.04000 37.55900 40.23700
H  -5.97800 35.30100 39.65800
H  -4.73000 37.42800 38.26900
H  -3.50500 37.12500 40.13200
H  -4.86500 36.52700 41.13100
H  -4.67800 38.29200 40.87800
H  -6.48500 34.38700 37.49900
H  -4.81600 34.99500 37.53000
H  -5.29300 36.24300 35.68600
H  -6.44100 37.10700 36.66000
H  -5.67700 43.39400 37.59400
H  -4.89800 41.88500 38.08200
H  -5.20000 43.08200 39.28300
H  -10.25700 45.04900 39.06300
H  -10.19700 44.10500 37.41700
H  -9.85500 45.82100 37.55600
H  -13.21000 42.03500 38.37800
H  -14.28900 40.37800 40.77100
H  -13.30400 43.85200 39.89900
H  -12.59800 42.87600 41.12800
H  -14.33800 42.72500 40.85600
H  -14.93800 38.73800 38.53200
H  -15.02900 40.26500 37.74400
H  -17.01800 40.55800 38.81000
H  -16.44300 40.20600 40.45900
H  -16.91300 38.93600 39.37000
H  -13.64500 33.55100 40.28300
H  -14.54600 35.05400 40.00300
H  -13.70900 34.67100 41.52700
H  -8.81600 33.59600 37.98700
H  -4.99500 31.96200 39.15600
H  -5.93600 30.56000 39.30000
H  -5.87000 31.79100 40.57800

