158

Mg 1.01000 7.99300 26.59700
C  1.68200 10.13000 29.38800
C  1.57100 5.38700 28.67200
C  0.85600 6.07000 23.82300
C  0.89700 10.87900 24.59600
N  1.48600 7.84800 28.76900
C  1.69300 8.79700 29.73700
C  1.80500 8.33500 31.12500
C  2.03500 6.79300 30.76500
C  1.68500 6.62900 29.29800
C  3.55400 6.16000 30.97900
C  0.60200 8.54000 31.96100
C  0.69000 8.38500 33.54300
H  1.94000 7.77500 34.23000
N  1.06900 5.99700 26.36500
C  1.35100 5.09300 27.30100
C  1.41200 3.78500 26.63300
C  1.09800 3.91000 25.31100
C  0.97300 5.44300 25.07800
C  1.82300 2.58800 27.42400
C  0.85600 2.87000 24.18100
O  0.29000 3.22400 23.17900
C  1.18800 1.41500 24.33400
N  0.74300 8.38000 24.52000
C  0.74900 7.41800 23.53400
C  0.49500 8.00700 22.15800
C  0.46300 9.57500 22.49000
C  0.55400 9.64800 24.04000
C  1.38600 7.58300 21.05100
C  -0.76500 10.34000 21.98000
C  -0.50100 11.70500 21.27800
N  1.19400 10.09500 26.85500
C  1.13500 11.13000 25.95800
C  1.41600 12.40600 26.63100
C  1.61200 12.02400 27.98400
C  1.41500 10.64600 28.09600
C  1.52700 13.64700 25.96800
C  1.87700 12.57000 29.26900
O  2.14900 13.70900 29.60800
C  1.79300 11.36600 30.28500
C  2.97300 11.48300 31.21900
O  4.07900 11.00400 31.00900
O  2.50400 12.20800 32.29900
C  3.43400 12.22500 33.37000
H  1.64100 4.57900 29.40300
H  0.77300 5.59800 22.84200
H  0.89800 11.76600 23.95900
H  2.60100 8.94300 31.55400
H  1.39000 6.33400 31.51400
H  4.26700 6.91000 31.32000
H  3.97000 5.67800 30.09400
H  3.57000 5.48200 31.83300
H  -0.14500 7.83000 31.60700
H  0.21400 9.53000 31.71900
H  -0.18100 7.78700 33.81200
H  0.48300 9.37600 33.94700
H  2.60800 2.70900 28.17100
H  2.16200 1.80300 26.74700
H  0.96900 2.22900 27.99700
H  0.66000 1.03000 25.20600
H  2.25800 1.54800 24.49500
H  1.07200 0.83900 23.41600
H  -0.50100 7.74300 21.80100
H  1.34000 9.92100 21.94200
H  0.81800 6.74700 20.64100
H  2.39500 7.27400 21.32200
H  1.52500 8.33400 20.27400
H  -1.43400 10.51600 22.82200
H  -1.31500 9.83000 21.18900
H  -0.65600 12.58000 21.90900
H  -1.17600 11.83300 20.43200
H  0.57300 11.78600 21.10600
H  1.06900 14.53200 26.41000
H  1.30900 13.58300 24.90200
H  2.53600 14.04400 26.07700
H  0.87300 11.51200 30.85100
H  3.21900 13.01700 34.08800
H  4.47800 12.25300 33.05900
H  3.37200 11.25700 33.86700
Mg 46.03300 34.82700 28.22000
C  44.43300 32.80600 30.58800
C  46.07200 37.41000 30.46800
C  47.29200 36.93300 25.78700
C  45.84100 32.22700 25.88100
N  45.40500 35.00700 30.33700
C  44.85000 34.03100 31.12900
C  44.89500 34.47200 32.63100
C  45.10800 36.01900 32.47100
C  45.58500 36.16300 31.01800
C  43.79400 36.84100 32.69600
C  46.16200 33.77200 33.33100
C  46.19800 33.61600 34.86000
H  45.28500 34.59200 35.64600
N  46.78100 36.85400 28.20600
C  46.62100 37.79200 29.20900
C  47.21000 39.05900 28.85700
C  47.58100 38.91600 27.45600
C  47.23900 37.53100 27.09800
C  47.33800 40.23200 29.78200
C  48.29200 39.89100 26.46300
O  48.63000 39.50200 25.35600
C  48.52000 41.35600 26.90000
N  46.43800 34.60400 26.18000
C  46.87600 35.63500 25.45500
C  47.05000 35.19200 23.94100
C  46.71400 33.65200 23.98900
C  46.34600 33.41900 25.44900
C  46.37900 36.06600 22.87000
C  47.80600 32.64800 23.47800
C  47.47800 31.71100 22.30700
N  45.27900 32.89300 28.16500
C  45.36400 31.94900 27.16900
C  44.77000 30.70600 27.61100
C  44.38600 30.93900 29.00900
C  44.69700 32.30600 29.26900
C  44.73000 29.36500 26.84400
C  43.90400 30.39900 30.25000
O  43.53000 29.24600 30.46200
C  43.54500 31.65500 31.18600
C  43.85100 31.25800 32.58900
O  44.83400 30.73100 33.01400
O  42.82000 31.68200 33.36900
C  42.86500 31.28300 34.80400
H  46.08900 38.21800 31.20200
H  47.48500 37.55500 24.91000
H  45.83300 31.44800 25.11600
H  44.00300 34.17500 33.18200
H  45.82300 36.38000 33.21000
H  43.10300 36.27300 33.31900
H  43.20000 37.09100 31.81700
H  43.78300 37.77000 33.26700
H  47.11800 34.08900 32.91300
H  46.13500 32.77900 32.88400
H  47.24300 33.84500 35.06600
H  46.02400 32.57700 35.14200
H  46.66900 41.04800 29.50900
H  48.41800 40.37700 29.76700
H  47.15000 39.85700 30.78800
H  48.86500 41.30200 27.93200
H  47.56600 41.88400 26.92700
H  49.17800 41.84100 26.17900
H  48.11600 35.31200 23.74700
H  45.77200 33.39800 23.50500
H  47.17200 36.44500 22.22500
H  45.85600 36.92200 23.29600
H  45.66400 35.52200 22.25200
H  48.28300 32.04100 24.24700
H  48.66900 33.22100 23.13900
H  48.20700 31.90400 21.52100
H  46.45300 31.86700 21.96900
H  47.48500 30.63900 22.50100
H  45.41100 29.27400 25.99800
H  43.74200 29.13400 26.44600
H  44.97500 28.63500 27.61500
H  42.49800 31.86800 30.96800
H  43.48800 30.40500 34.97300
H  41.89800 31.25600 35.30700
H  43.21200 32.07800 35.46500

