158

Mg 47.46300 24.82400 28.34600
C  48.10700 27.19700 30.66900
C  46.52900 22.63400 30.84300
C  46.61600 22.56800 25.94100
C  48.57600 27.03000 25.88200
N  47.00900 25.03900 30.43400
C  47.43000 26.08300 31.23100
C  47.12200 25.83500 32.75200
C  46.78300 24.30800 32.73600
C  46.78000 23.94400 31.22900
C  47.55800 23.32800 33.64900
C  46.01800 26.80100 33.29800
C  46.38700 27.51500 34.57100
H  45.40100 27.71300 35.67300
N  46.77500 22.83300 28.31300
C  46.50100 22.14500 29.45200
C  46.09300 20.83400 29.12900
C  45.86200 20.86100 27.65000
C  46.41200 22.15000 27.24700
C  45.70100 19.81100 30.19900
C  45.28600 19.86500 26.72700
O  45.23700 19.93800 25.49700
C  44.70200 18.57100 27.26900
N  47.64600 24.79000 26.27200
C  47.04500 23.83100 25.49400
C  47.02300 24.20100 23.98300
C  47.69500 25.64500 23.91600
C  48.04900 25.81100 25.43800
C  47.77000 23.20300 23.03800
C  46.75800 26.72400 23.19500
C  47.48900 27.77300 22.24800
N  48.38900 26.63200 28.23700
C  48.77800 27.45500 27.22700
C  49.33100 28.75000 27.71700
C  49.17500 28.61700 29.13200
C  48.45200 27.40500 29.32300
C  49.90500 29.86900 26.94100
C  49.30900 29.32600 30.44000
O  49.65200 30.47900 30.66200
C  48.62400 28.36100 31.46400
C  49.63800 28.15200 32.51700
O  50.55700 27.35800 32.59300
O  49.28600 28.90000 33.66700
C  50.14500 28.66400 34.78300
H  46.48400 21.92700 31.67400
H  46.23600 21.84400 25.21700
H  48.83500 27.80300 25.15600
H  48.05700 26.02000 33.28100
H  45.77800 24.22000 33.15000
H  48.10100 23.95500 34.35600
H  48.18700 22.65600 33.06600
H  46.79500 22.74800 34.16700
H  45.18900 26.20100 33.67400
H  45.70000 27.54500 32.56800
H  46.52700 28.56800 34.32400
H  47.31400 27.19400 35.04600
H  45.92500 18.76900 29.96800
H  44.70400 19.95700 30.61400
H  46.18800 20.02800 31.15000
H  45.44900 18.29100 28.01200
H  44.67500 17.84600 26.45500
H  43.80200 18.78600 27.84500
H  46.01800 24.29000 23.57200
H  48.64600 25.62200 23.38300
H  48.14300 22.32200 23.56100
H  48.59300 23.70300 22.52900
H  47.07100 22.82700 22.29000
H  46.28500 27.32100 23.97500
H  46.01800 26.16300 22.62500
H  47.15900 27.67300 21.21400
H  48.52800 27.48700 22.41300
H  47.17500 28.77000 22.55600
H  50.05200 29.58000 25.90000
H  50.80600 30.16200 27.47900
H  49.17500 30.67000 27.05800
H  47.83800 28.96800 31.91200
H  50.13600 29.56600 35.39400
H  51.21100 28.55100 34.58600
H  49.82100 27.70700 35.19100
Mg 9.42800 47.84000 25.60900
C  6.94700 48.22100 28.22700
C  11.71200 48.82100 28.14700
C  11.72100 47.87800 23.36200
C  6.88200 47.59400 23.30200
N  9.29500 48.53000 27.92300
C  8.22300 48.44900 28.74800
C  8.62600 48.64800 30.23100
C  10.14500 49.07400 30.15000
C  10.43900 48.71300 28.68800
C  10.37500 50.56500 30.60000
C  8.42700 47.32800 31.05800
C  9.30600 46.87400 32.21000
H  8.55700 46.27800 33.41300
N  11.41200 48.23800 25.74400
C  12.19100 48.61800 26.81300
C  13.56100 48.72700 26.45700
C  13.65700 48.24300 25.11800
C  12.24500 48.09800 24.65800
C  14.57800 49.20700 27.39500
C  14.82200 47.91800 24.25600
O  14.76700 47.63300 23.07600
C  16.21700 48.06400 24.83800
N  9.36700 47.67700 23.63900
C  10.39400 47.74900 22.84300
C  10.12500 47.29100 21.41100
C  8.56500 47.20000 21.38700
C  8.15700 47.50200 22.87800
C  10.71100 48.14900 20.21500
C  8.16000 45.75800 20.97300
C  8.34800 44.64400 22.04300
N  7.38000 47.96600 25.69300
C  6.46600 47.74300 24.65400
C  5.06600 47.58900 25.16300
C  5.24600 47.80600 26.57200
C  6.62000 48.04300 26.83200
C  3.81600 47.38400 24.41100
C  4.51500 47.88000 27.79700
O  3.29300 47.80500 28.00100
C  5.55800 48.13300 28.88700
C  5.49100 46.92200 29.73900
O  5.95700 45.83600 29.51500
O  4.59900 47.23200 30.74000
C  4.40700 46.23900 31.85200
H  12.40900 49.11500 28.93400
H  12.42100 47.82500 22.52500
H  6.07700 47.50000 22.57100
H  8.00500 49.37100 30.75900
H  10.75000 48.36700 30.71800
H  9.40900 51.06300 30.52700
H  10.96600 51.11000 29.86400
H  10.81400 50.51400 31.59600
H  8.55600 46.51000 30.34900
H  7.42900 47.43500 31.48200
H  9.92200 47.71700 32.52500
H  9.96600 46.08600 31.84900
H  15.31600 49.89400 26.98100
H  15.00200 48.48500 28.09300
H  14.10100 49.96000 28.02300
H  17.06800 48.02400 24.15800
H  16.33800 47.24700 25.55100
H  16.55900 48.95500 25.36500
H  10.56600 46.29800 21.32500
H  8.19300 47.93400 20.67300
H  11.31300 48.96500 20.61500
H  9.94000 48.52100 19.54000
H  11.43100 47.52500 19.68500
H  8.76100 45.35100 20.16000
H  7.12300 45.90600 20.67200
H  7.35500 44.28700 22.31700
H  8.82400 45.09400 22.91400
H  8.98300 43.80100 21.76900
H  3.80100 46.40900 23.92500
H  3.76300 48.06800 23.56400
H  2.99000 47.59200 25.09100
H  5.26200 49.03800 29.41600
H  3.53900 45.60400 31.67900
H  4.19600 46.75100 32.79000
H  5.34100 45.69800 32.00700

