158

Mg 36.37900 49.43100 26.20300
C  36.78900 47.12000 28.86700
C  35.52100 51.76400 28.33200
C  35.58600 51.25900 23.56700
C  36.90200 46.60200 23.96600
N  36.35000 49.44400 28.37000
C  36.46000 48.49100 29.21100
C  36.38200 49.01700 30.67600
C  35.52700 50.35700 30.46900
C  35.83300 50.55400 28.94900
C  34.05500 50.07600 30.59200
C  37.74400 49.36600 31.26800
C  37.89400 49.15900 32.73500
H  37.57700 50.32300 33.62800
N  35.75500 51.29900 25.97300
C  35.53800 52.13600 26.96800
C  35.11200 53.43100 26.46300
C  35.03500 53.32900 25.01000
C  35.51900 51.96300 24.79200
C  34.62500 54.63100 27.41200
C  34.56500 54.23200 23.97400
O  34.34200 53.83300 22.87200
C  34.27800 55.56600 24.38800
N  36.05000 48.86800 24.06400
C  35.85000 49.92700 23.21000
C  36.15000 49.55700 21.74100
C  36.74500 48.13700 21.90600
C  36.51300 47.77500 23.35200
C  34.88500 49.79300 20.75500
C  38.17000 47.94900 21.44900
C  38.34100 47.33300 20.04300
N  36.78600 47.31500 26.32100
C  36.95700 46.34700 25.32600
C  37.31400 45.13600 25.92800
C  37.21700 45.35600 27.32800
C  36.91700 46.69000 27.50600
C  37.62800 43.82400 25.25800
C  37.19500 44.73700 28.65000
O  37.40700 43.59100 28.98100
C  36.95400 45.91900 29.74700
C  35.63700 45.71100 30.45300
O  34.54600 45.60800 29.97200
O  35.92200 45.84300 31.78600
C  34.65700 46.03500 32.64400
H  35.23300 52.52900 29.05600
H  35.47700 51.75000 22.59800
H  37.20000 45.83200 23.25200
H  35.84900 48.35900 31.36300
H  35.77200 51.24500 31.05200
H  33.93500 49.30300 31.35000
H  33.57700 49.78100 29.65700
H  33.59800 50.98800 30.97600
H  38.18400 50.32500 30.99500
H  38.40800 48.63700 30.80300
H  38.89800 48.85300 33.02900
H  37.25700 48.34400 33.08000
H  34.31300 54.29600 28.40000
H  33.72700 55.15100 27.07900
H  35.49500 55.28600 27.47800
H  35.03000 55.93200 25.08600
H  33.26700 55.54600 24.79400
H  34.23200 56.16600 23.47800
H  36.89600 50.24000 21.33300
H  36.10700 47.50000 21.29400
H  34.05300 50.11700 21.38000
H  34.47800 48.89000 20.30000
H  35.12000 50.56400 20.02100
H  38.58700 47.21000 22.13300
H  38.66900 48.91600 21.51100
H  38.84000 46.36500 20.07300
H  38.91700 48.09600 19.51800
H  37.45100 47.25100 19.41900
H  38.04300 43.90000 24.25200
H  36.66800 43.31300 25.19100
H  38.37700 43.41300 25.93400
H  37.72100 45.98100 30.51900
H  34.84700 46.98300 33.14700
H  34.45600 45.27800 33.40300
H  33.71500 46.33000 32.18200
Mg -4.60900 25.51400 26.57100
C  -3.16900 26.63700 29.64000
C  -6.64200 23.50100 28.33000
C  -5.38100 24.02200 23.63400
C  -2.27500 27.60200 24.90100
N  -4.64900 24.98000 28.74000
C  -4.15800 25.62200 29.82700
C  -4.91700 25.20600 31.08900
C  -5.79100 24.03300 30.65000
C  -5.73500 24.14100 29.12400
C  -5.23500 22.63700 31.06100
C  -5.59300 26.41700 31.80200
C  -5.32800 26.50700 33.32000
H  -4.64600 25.34200 34.07400
N  -5.94700 24.03800 26.02200
C  -6.71800 23.30600 26.92600
C  -7.64600 22.37800 26.19300
C  -7.27900 22.56700 24.81300
C  -6.15600 23.52600 24.76800
C  -8.69200 21.60500 26.75700
C  -7.93800 21.88200 23.58400
O  -7.47600 22.05100 22.46900
C  -9.25700 21.19900 23.74400
N  -3.88400 25.71700 24.50300
C  -4.34700 25.00000 23.50800
C  -3.64600 25.37400 22.16000
C  -2.88400 26.66000 22.57300
C  -3.04700 26.72300 24.08500
C  -2.84600 24.25500 21.49700
C  -3.44300 27.92400 21.89100
C  -2.73400 28.35500 20.56800
N  -3.14800 26.89800 27.09100
C  -2.28700 27.68800 26.30200
C  -1.50900 28.52000 27.14000
C  -1.83900 28.14600 28.45000
C  -2.80200 27.13300 28.39200
C  -0.52800 29.41700 26.78900
C  -1.55500 28.37200 29.81600
O  -0.69800 29.09900 30.36800
C  -2.44400 27.43800 30.65700
C  -1.54800 26.60400 31.51100
O  -0.69700 25.80700 31.15700
O  -1.56300 27.20000 32.78400
C  -0.49400 26.90100 33.71800
H  -7.28100 22.77300 28.83400
H  -5.44900 23.43700 22.71500
H  -1.64700 28.24800 24.28400
H  -4.21000 24.75700 31.78600
H  -6.80200 24.20500 31.02000
H  -4.89000 22.55300 32.09100
H  -4.31500 22.49000 30.49500
H  -6.02400 21.93100 30.80200
H  -6.66900 26.37900 31.63100
H  -5.26500 27.28900 31.23600
H  -6.26100 26.60100 33.87600
H  -4.71300 27.36200 33.60100
H  -8.55900 21.46900 27.83100
H  -8.71100 20.55600 26.46300
H  -9.63900 22.12800 26.62500
H  -9.83800 21.08100 22.83000
H  -9.92200 21.82900 24.33600
H  -9.02200 20.23500 24.19400
H  -4.41400 25.68200 21.45100
H  -1.81400 26.58300 22.37800
H  -1.79000 24.52500 21.49400
H  -3.19800 24.14700 20.47100
H  -3.00300 23.28400 21.96600
H  -3.50000 28.73000 22.62300
H  -4.46900 27.72500 21.58100
H  -1.89100 27.66600 20.49800
H  -2.42600 29.39800 20.63500
H  -3.46200 28.26600 19.76200
H  -0.37000 29.64900 25.73600
H  0.41500 29.00400 27.14800
H  -0.74400 30.35800 27.29400
H  -3.10900 28.05100 31.26600
H  -0.65800 25.83200 33.85500
H  -0.72700 27.43600 34.63800
H  0.43700 27.06500 33.17500

