158

Mg 47.15500 44.73500 43.06600
C  43.70200 43.80300 42.60500
C  48.06600 41.41200 42.47200
C  50.34700 45.71300 42.82400
C  46.09000 48.08900 42.99800
N  46.00600 42.86200 42.69000
C  44.64600 42.67700 42.61600
C  44.25900 41.25000 42.65900
C  45.63800 40.47200 42.84600
C  46.60600 41.60800 42.65700
C  45.74700 39.59900 44.10300
C  43.47300 40.90300 41.36100
C  43.92400 41.68200 40.07700
H  43.59600 41.04000 38.71400
N  48.99500 43.73600 42.61800
C  49.14300 42.39000 42.48900
C  50.63500 42.13300 42.35500
C  51.26600 43.40600 42.41700
C  50.18100 44.35800 42.61900
C  51.26900 40.65200 42.21300
C  52.72100 43.55900 42.16000
O  53.43700 42.55000 42.01200
C  53.38000 44.93000 41.94900
N  48.07800 46.61600 43.02700
C  49.43200 46.76300 43.03400
C  49.95600 48.25500 43.12900
C  48.53800 48.99000 43.02700
C  47.47700 47.82500 42.92700
C  50.68800 48.53500 44.44000
C  48.56700 49.94000 41.77200
C  48.99400 51.33700 42.09100
N  45.31100 45.77900 42.93000
C  45.02600 47.11900 42.83500
C  43.62200 47.45000 42.70900
C  42.99300 46.14300 42.70700
C  44.11200 45.15800 42.80400
C  42.93300 48.79300 42.67100
C  41.82700 45.36100 42.65300
O  40.60400 45.70000 42.66000
C  42.24600 43.86600 42.71900
C  41.78700 43.38700 44.00900
O  41.00600 42.42300 44.09400
O  42.27600 44.09000 45.09400
C  41.93700 43.56400 46.35100
H  48.34100 40.36100 42.58300
H  51.41300 45.94900 42.80900
H  45.68200 49.09700 42.90000
H  43.64600 41.07400 43.54200
H  45.76100 39.83300 41.97100
H  44.75500 39.28200 44.42200
H  46.25900 40.31000 44.75100
H  46.32700 38.69400 43.92200
H  42.46600 41.27200 41.55200
H  43.44600 39.82200 41.22600
H  45.01300 41.63800 40.09200
H  43.41000 42.64300 40.11500
H  52.15000 40.46100 41.60000
H  50.41300 40.05900 41.89200
H  51.47100 40.31600 43.23000
H  52.80400 45.51600 41.23300
H  54.37700 44.76400 41.54100
H  53.40200 45.51800 42.86700
H  50.55300 48.55200 42.26700
H  48.33000 49.56100 43.93200
H  51.75900 48.62000 44.25600
H  50.65000 47.65300 45.07900
H  50.37400 49.46500 44.91500
H  47.64400 49.86800 41.19600
H  49.26300 49.50800 41.05200
H  49.08500 51.48500 43.16700
H  48.12400 51.89100 41.73800
H  49.86300 51.62200 41.49900
H  43.61200 49.61400 42.43800
H  42.34500 49.09400 43.53800
H  42.30200 48.78500 41.78300
H  41.78500 43.32900 41.89000
H  41.81100 42.48100 46.36200
H  40.96600 43.95400 46.65700
H  42.63100 43.84600 47.14200
Mg 29.83800 58.94500 38.80900
C  26.86400 57.36500 37.68200
C  31.56700 56.19900 37.80000
C  32.63100 60.81300 38.61900
C  27.94300 61.90200 39.13200
N  29.29300 57.02700 37.96300
C  28.01500 56.59500 37.57700
C  28.05800 55.18200 37.10800
C  29.40900 54.71800 37.66100
C  30.18200 56.05900 37.81500
C  29.24700 53.89500 38.95600
C  27.98700 55.13900 35.50200
C  26.76000 54.59400 34.74100
H  26.09300 55.64000 33.75800
N  31.75800 58.54400 38.37800
C  32.32200 57.36200 37.91700
C  33.72500 57.50800 37.68500
C  34.04800 58.78300 38.20100
C  32.79100 59.42800 38.46700
C  34.67100 56.43200 37.24400
C  35.48100 59.24900 38.46100
O  36.43800 58.52000 38.11800
C  35.87500 60.52300 39.15100
N  30.18200 61.12300 38.80700
C  31.47800 61.57300 38.87800
C  31.46700 63.12000 39.08500
C  29.95200 63.44600 39.41500
C  29.30900 62.05500 39.10900
C  32.48200 63.79600 39.99500
C  29.26200 64.66500 38.79400
C  28.14000 65.35100 39.59500
N  27.79200 59.46300 38.73000
C  27.22600 60.67200 38.91000
C  25.73000 60.50900 38.76600
C  25.49000 59.24300 38.23900
C  26.79200 58.65000 38.23100
C  24.69600 61.61600 38.99600
C  24.54600 58.36200 37.77800
O  23.35600 58.51400 37.60200
C  25.36300 57.05800 37.36900
C  24.83200 55.94500 38.23300
O  24.93500 55.80000 39.43400
O  24.12900 55.09800 37.42300
C  23.57100 53.85700 37.95000
H  32.09300 55.31200 37.44000
H  33.47400 61.50200 38.53500
H  27.29400 62.76700 39.28200
H  27.25600 54.52900 37.45300
H  29.87000 54.03900 36.94500
H  29.62400 54.55100 39.74100
H  29.76700 52.94000 39.02000
H  28.21800 53.65600 39.22500
H  28.86600 54.63700 35.09900
H  28.14900 56.15300 35.13600
H  26.05100 54.11400 35.41600
H  27.08100 53.68800 34.22800
H  35.18500 56.06600 38.13300
H  35.44100 56.70900 36.52400
H  34.28900 55.54300 36.74300
H  36.81200 60.56000 39.70700
H  35.13200 60.70000 39.92800
H  35.95000 61.29800 38.38800
H  31.64900 63.57100 38.10900
H  29.94100 63.57800 40.49700
H  31.98200 64.02000 40.93600
H  32.77500 64.72800 39.51000
H  33.28200 63.07800 40.17700
H  28.71000 64.37200 37.90100
H  29.98500 65.42100 38.48700
H  28.13200 64.97100 40.61700
H  27.17300 65.13400 39.14200
H  28.31400 66.42700 39.63900
H  25.04900 62.29100 39.77600
H  23.79600 61.17500 39.42400
H  24.39200 62.19700 38.12500
H  25.21800 56.85800 36.30700
H  22.52100 54.00200 38.20300
H  24.06500 53.36200 38.78700
H  23.76900 53.15000 37.14500

