158

Mg 35.18000 2.95600 30.80200
C  32.85300 4.24100 33.30400
C  37.65000 3.36200 33.38000
C  37.52600 2.15200 28.46400
C  32.75100 3.08300 28.51900
N  35.28400 3.76700 33.07400
C  34.14600 3.97300 33.88100
C  34.54500 4.09700 35.38800
C  36.11500 4.12300 35.33800
C  36.38500 3.71700 33.87700
C  36.83100 5.47300 35.82200
C  33.87600 2.93300 36.22900
C  32.99700 3.38600 37.43200
H  33.36100 4.74300 38.05700
N  37.31900 2.76700 30.89700
C  38.08300 2.97400 31.99900
C  39.43200 2.55500 31.67800
C  39.49600 2.23700 30.27400
C  38.08400 2.36200 29.76100
C  40.53400 2.54300 32.71400
C  40.65200 1.69800 29.37400
O  40.63300 1.64700 28.13200
C  41.87700 1.20100 30.06200
N  35.18100 2.79900 28.77700
C  36.23700 2.41500 27.97300
C  35.77000 2.20600 26.52200
C  34.30800 2.57600 26.52300
C  34.01500 2.70100 28.09300
C  36.59400 2.96100 25.40700
C  33.52500 1.41800 25.76300
C  32.18500 1.88000 25.06400
N  33.11300 3.52600 30.87000
C  32.33700 3.59400 29.78600
C  31.03900 4.02000 30.24000
C  31.20000 4.27200 31.63400
C  32.56800 4.03000 31.93200
C  29.74500 4.20600 29.49100
C  30.52500 4.74200 32.78900
O  29.36600 5.07700 32.96100
C  31.56100 4.62700 33.94700
C  31.57500 5.92300 34.79200
O  32.24900 6.94200 34.54500
O  30.63000 5.83700 35.78800
C  30.39100 7.08700 36.60100
H  38.36500 3.20200 34.18900
H  38.21600 1.88400 27.66200
H  32.16100 3.32200 27.63200
H  34.18400 5.08200 35.68400
H  36.54900 3.45200 36.07900
H  37.20300 5.42400 36.84500
H  36.07700 6.25900 35.87100
H  37.52700 5.79000 35.04600
H  34.70700 2.31300 36.56500
H  33.36500 2.22000 35.58200
H  33.28100 2.67100 38.20400
H  31.93500 3.36500 37.18400
H  40.91600 1.52700 32.81300
H  40.17100 2.94200 33.66100
H  41.35700 3.19800 32.43000
H  42.67000 0.96300 29.35300
H  41.50100 0.39800 30.69500
H  42.36800 1.87500 30.76400
H  35.93900 1.14700 26.32600
H  34.19300 3.58300 26.12200
H  36.39100 4.02300 25.27100
H  36.49200 2.45500 24.44600
H  37.65500 2.84100 25.62600
H  33.36400 0.64500 26.51400
H  34.19000 1.13600 24.94700
H  32.14600 1.52400 24.03500
H  31.96400 2.94400 24.97200
H  31.47400 1.36400 25.70900
H  29.97400 3.88700 28.47400
H  29.54700 5.27800 29.50900
H  28.98100 3.64900 30.03200
H  31.39300 3.80400 34.64200
H  31.14500 7.30900 37.35700
H  29.41200 6.95700 37.06200
H  30.17000 7.96300 35.99100
Mg 16.88900 52.22400 26.74400
C  18.63500 50.81200 29.45900
C  14.37800 53.06200 28.87300
C  15.22000 53.26200 24.11800
C  19.27900 50.73800 24.55100
N  16.43700 51.66800 28.95300
C  17.41600 51.37500 29.92600
C  16.91600 51.60500 31.34800
C  15.41400 52.07600 31.09500
C  15.43600 52.40300 29.58400
C  14.35800 51.01700 31.49600
C  17.99500 52.58100 32.12600
C  18.31000 52.30500 33.59300
H  17.32300 51.61900 34.59800
N  15.00400 53.06300 26.53300
C  14.11300 53.30600 27.54700
C  12.92600 53.84400 27.02600
C  13.14100 53.89300 25.59300
C  14.49500 53.48000 25.37100
C  11.70000 54.25100 27.76700
C  12.32400 54.52600 24.44400
O  12.75500 54.82900 23.32200
C  10.99100 54.97900 24.71100
N  17.02200 51.76200 24.62100
C  16.28400 52.52200 23.74900
C  16.77800 52.40000 22.29800
C  18.25500 51.97700 22.53900
C  18.24800 51.43200 23.96400
C  15.89800 51.33200 21.48400
C  19.19600 53.23700 22.33800
C  20.68000 52.93100 22.16000
N  18.55700 50.93400 26.91200
C  19.45200 50.41800 25.95300
C  20.44600 49.66700 26.61900
C  20.14800 49.88700 27.96500
C  19.02500 50.62800 28.09600
C  21.54300 48.87700 26.03500
C  20.55100 49.50700 29.29800
O  21.44900 48.79800 29.69800
C  19.59800 50.13200 30.30000
C  19.05800 49.03200 31.22500
O  18.18900 48.24800 30.89500
O  19.74800 48.96700 32.38700
C  19.43900 47.90500 33.36400
H  13.59700 53.36800 29.57300
H  14.81300 53.73300 23.22100
H  20.11700 50.45700 23.91000
H  16.98900 50.64100 31.85100
H  15.29600 52.99700 31.66500
H  13.56400 50.85000 30.76700
H  13.79900 51.41800 32.34200
H  14.84400 50.07600 31.75300
H  17.49100 53.54200 32.01700
H  18.97300 52.63900 31.64900
H  18.51500 53.30600 33.97300
H  19.27100 51.81900 33.75600
H  11.69100 54.14500 28.85200
H  10.98400 53.63700 27.22000
H  11.46100 55.29400 27.55700
H  11.06600 55.70600 25.52000
H  10.51000 54.03800 24.97900
H  10.39100 55.32300 23.86800
H  16.64600 53.36000 21.79800
H  18.63800 51.25800 21.81500
H  16.48200 50.41500 21.40300
H  15.70200 51.62200 20.45200
H  14.90200 51.11000 21.86900
H  19.08700 53.84300 23.23800
H  18.83300 53.86000 21.52100
H  20.66700 51.84500 22.24800
H  21.40300 53.30700 22.88400
H  20.94800 53.20700 21.14000
H  22.33600 49.56900 25.75000
H  21.14900 48.43000 25.12200
H  21.87300 48.09200 26.71500
H  20.18900 50.86200 30.85400
H  20.30600 47.59600 33.94800
H  18.97400 47.05000 32.87400
H  18.70100 48.39100 34.00300

