158

Mg 24.01300 -4.88900 45.69100
C  25.88200 -2.46800 44.14900
C  21.32400 -3.71800 43.84000
C  22.35400 -7.61100 46.72700
C  26.85900 -6.02600 47.41000
N  23.67300 -3.44400 43.95800
C  24.62800 -2.50400 43.60600
C  23.92800 -1.43200 42.64100
C  22.45200 -1.62700 43.04500
C  22.43600 -3.05800 43.63900
C  21.99800 -0.59400 44.13400
C  24.30600 -1.74000 41.17200
C  24.87900 -0.64600 40.27400
H  24.95000 -0.97900 38.76200
N  22.12800 -5.57400 45.33900
C  21.11100 -4.98700 44.45500
C  19.93800 -5.83600 44.48600
C  20.27200 -6.90100 45.40100
C  21.65800 -6.74800 45.85300
C  18.69400 -5.47500 43.61600
C  19.26000 -8.01200 45.94200
O  18.10900 -8.06100 45.53600
C  19.57900 -8.90400 47.11400
N  24.55100 -6.52900 47.09100
C  23.62800 -7.52000 47.29100
C  24.29500 -8.68200 48.09700
C  25.68700 -8.10300 48.45300
C  25.75200 -6.81600 47.59900
C  23.47700 -9.23400 49.31400
C  26.83700 -9.04600 48.02300
C  28.20500 -8.99100 48.91800
N  25.97200 -4.44000 45.78000
C  27.00500 -4.89400 46.55600
C  28.17600 -4.07900 46.35500
C  27.78900 -3.15100 45.41100
C  26.41900 -3.32500 45.10800
C  29.48900 -4.20600 47.07200
C  28.25500 -1.97200 44.66500
O  29.34800 -1.49800 44.57500
C  27.02700 -1.54800 43.74600
C  26.73400 -0.13700 44.08700
O  25.90900 0.16100 44.97100
O  27.51100 0.76000 43.23700
C  27.22800 2.10000 43.46100
H  20.36900 -3.30700 43.50600
H  21.86000 -8.56400 46.92800
H  27.78600 -6.38200 47.86300
H  24.24000 -0.41300 42.87000
H  21.75900 -1.54000 42.20800
H  22.84000 -0.05500 44.57000
H  21.46400 -1.17500 44.88600
H  21.26000 -0.00700 43.58900
H  23.37100 -2.06000 40.71300
H  25.07300 -2.51100 41.23900
H  25.87400 -0.45600 40.67600
H  24.39800 0.31800 40.44100
H  18.95400 -5.14200 42.61100
H  18.14900 -4.59300 43.95100
H  18.15000 -6.41900 43.58200
H  18.61200 -9.15800 47.54800
H  20.20900 -8.42100 47.86100
H  19.98700 -9.83900 46.72900
H  24.45500 -9.47200 47.36400
H  25.88700 -7.86700 49.49800
H  23.39700 -10.29600 49.08000
H  22.44700 -8.88200 49.37100
H  23.95300 -8.94900 50.25200
H  27.01600 -8.91400 46.95600
H  26.52700 -10.07700 48.19200
H  28.47900 -9.97900 49.28800
H  28.17600 -8.22700 49.69600
H  29.04800 -8.66900 48.30600
H  30.42600 -3.94000 46.58200
H  29.56400 -5.25900 47.34200
H  29.45200 -3.76500 48.06800
H  27.22300 -1.67800 42.68200
H  27.01500 2.60400 42.51800
H  28.15400 2.59400 43.75700
H  26.48400 2.34100 44.22000
Mg 24.91400 1.65200 29.57400
C  26.83600 1.33600 32.49100
C  22.14200 1.72000 31.50200
C  23.01500 1.61500 26.73300
C  27.76800 1.39000 27.76100
N  24.52600 1.49400 31.78800
C  25.43000 1.46100 32.73300
C  24.75900 1.64700 34.12800
C  23.19200 1.59400 33.79600
C  23.25000 1.57400 32.29900
C  22.30300 0.45700 34.39300
C  25.30400 2.92700 34.89900
C  26.02000 2.68900 36.28300
H  25.61200 3.60600 37.51200
N  22.87700 1.69800 29.15000
C  21.87400 1.80800 30.08300
C  20.68400 2.05400 29.46200
C  20.90100 1.80600 28.08400
C  22.32600 1.65000 27.91200
C  19.36000 2.27700 30.20400
C  19.87600 1.60400 26.94000
O  20.12800 1.42400 25.76100
C  18.43000 1.64300 27.35900
N  25.34400 1.45600 27.60800
C  24.38600 1.55200 26.63800
C  25.08800 1.65000 25.26100
C  26.53200 1.85100 25.59800
C  26.56100 1.66500 27.09400
C  24.74300 0.51800 24.26900
C  27.38900 3.07100 25.04400
C  26.76100 4.48200 25.34700
N  26.93600 1.24000 30.05400
C  27.97800 1.21200 29.14300
C  29.21200 0.93200 29.89300
C  28.81400 0.99800 31.29700
C  27.44800 1.13200 31.28900
C  30.50000 0.84200 29.22200
C  29.27900 1.05000 32.63600
O  30.37000 1.04600 33.15300
C  27.98400 1.32700 33.51100
C  27.94700 0.29600 34.66400
O  27.46900 -0.81100 34.63800
O  28.58400 0.83400 35.72200
C  28.68100 -0.05900 36.94800
H  21.28500 1.63500 32.17300
H  22.52600 1.83900 25.78200
H  28.67800 1.39800 27.15600
H  25.00000 0.82700 34.80500
H  22.71800 2.51500 34.13300
H  21.66100 0.92200 35.14100
H  22.87700 -0.24300 34.99900
H  21.68400 -0.04200 33.64700
H  24.43500 3.56800 35.04800
H  25.89900 3.55500 34.23600
H  27.08000 2.92800 36.19800
H  25.87800 1.66900 36.64100
H  19.56900 2.75300 31.16200
H  18.82800 1.34300 30.38600
H  18.84700 2.97300 29.54100
H  18.24800 0.80600 28.03200
H  17.86500 1.44900 26.44700
H  18.06600 2.58100 27.77800
H  24.72700 2.60700 24.88500
H  27.14700 1.01600 25.26100
H  25.52900 -0.23700 24.25400
H  24.48900 0.82000 23.25300
H  23.89700 -0.03500 24.67500
H  27.56100 3.05800 23.96800
H  28.36300 3.01400 25.52900
H  25.93300 4.34700 26.04400
H  26.40600 4.88200 24.39800
H  27.59400 5.10800 25.66600
H  30.55500 1.43900 28.31100
H  30.61500 -0.23100 29.06700
H  31.27300 1.24900 29.87500
H  27.99900 2.34000 33.91200
H  29.19800 0.34700 37.81700
H  29.02600 -1.05400 36.66600
H  27.66100 -0.06300 37.33400

