158

Mg 47.81200 25.03000 28.06600
C  48.96700 27.27500 30.64800
C  47.35600 22.79600 30.66200
C  46.92100 22.98500 25.67300
C  49.30100 27.17000 25.67400
N  48.23100 25.11600 30.41200
C  48.42600 26.20100 31.20400
C  48.09600 25.94100 32.68100
C  47.58200 24.48100 32.63700
C  47.76300 24.02200 31.11700
C  48.26900 23.57300 33.68700
C  47.07200 26.95300 33.14900
C  46.50400 26.59600 34.55600
H  46.87300 27.43400 35.77200
N  47.23700 23.19200 28.13000
C  46.99200 22.42800 29.25800
C  46.41300 21.15500 28.83100
C  46.19400 21.24000 27.44200
C  46.75200 22.51200 27.01700
C  45.93600 20.06700 29.85900
C  45.43100 20.31100 26.45600
O  45.44600 20.44200 25.22300
C  44.86300 19.06400 27.02700
N  47.90500 25.12300 25.98100
C  47.46600 24.12900 25.12500
C  47.94300 24.35800 23.65700
C  48.47800 25.82300 23.72400
C  48.55300 26.05400 25.19200
C  49.08100 23.46700 23.13100
C  47.61300 26.90600 22.97100
C  48.27800 27.85100 21.87900
N  48.83300 26.81500 28.04900
C  49.49700 27.53700 27.06100
C  50.09200 28.67200 27.55200
C  49.89700 28.64200 28.96000
C  49.13800 27.52100 29.22600
C  50.90900 29.59800 26.73400
C  50.23900 29.35800 30.15900
O  50.84400 30.46500 30.19800
C  49.56300 28.56600 31.31300
C  50.58000 28.25600 32.29100
O  51.45100 27.46100 32.20000
O  50.32300 28.92300 33.42700
C  51.05200 28.48100 34.64500
H  46.96700 22.11600 31.42300
H  46.70600 22.33400 24.82300
H  49.72400 27.74900 24.85000
H  49.04800 26.13300 33.17700
H  46.52000 24.56400 32.87100
H  48.99100 22.87100 33.27000
H  47.59600 22.92500 34.24800
H  48.76800 24.24500 34.38600
H  46.24100 26.83100 32.45400
H  47.46400 27.96900 33.18100
H  46.82200 25.58400 34.80500
H  45.42300 26.47300 34.48500
H  44.88000 19.80700 29.79500
H  45.97100 20.41300 30.89200
H  46.66200 19.26800 29.70700
H  45.57000 18.50100 27.63600
H  44.72600 18.42400 26.15600
H  43.95400 19.31400 27.57400
H  47.12400 24.28700 22.94200
H  49.50600 25.97500 23.39500
H  48.78300 22.53600 22.65000
H  49.74500 23.29000 23.97800
H  49.71100 23.95100 22.38500
H  47.20900 27.55500 23.74900
H  46.84900 26.33300 22.44600
H  47.71700 27.87300 20.94500
H  49.28900 27.47700 21.71200
H  48.51600 28.82700 22.30200
H  50.32900 29.75000 25.82300
H  51.93500 29.29000 26.53100
H  50.98100 30.54800 27.26300
H  48.84500 29.23300 31.78800
H  51.04200 29.30700 35.35600
H  52.06300 28.08400 34.54800
H  50.38700 27.73300 35.07600
Mg 5.99300 54.81500 40.53300
C  3.32800 52.49000 40.40800
C  8.05800 52.37900 39.38100
C  8.34600 57.10300 40.21300
C  3.56500 57.33900 41.21800
N  5.64300 52.73700 39.79400
C  4.55000 51.97700 39.80600
C  4.69300 50.58400 39.15500
C  6.27400 50.52900 39.09200
C  6.68800 51.96300 39.46700
C  7.09400 49.49000 39.85600
C  4.02200 50.53700 37.72200
C  3.32200 49.12500 37.43500
H  3.90400 48.25100 36.39200
N  8.09200 54.71700 40.09400
C  8.69900 53.63300 39.58500
C  10.05700 54.03200 39.41900
C  10.06400 55.44000 39.34100
C  8.80900 55.82600 39.88500
C  11.17800 53.04800 39.12800
C  11.23500 56.32100 38.84200
O  12.27700 55.75700 38.49200
C  11.19500 57.77000 38.86700
N  5.85700 56.92900 40.42600
C  7.07400 57.59300 40.56300
C  6.92400 59.08500 40.96100
C  5.36300 59.17600 41.05300
C  4.89600 57.70600 40.89300
C  7.60500 59.23000 42.30700
C  4.80500 60.27600 40.05900
C  4.00900 59.79500 38.82400
N  3.87600 54.96600 40.87500
C  3.10300 56.02000 41.25200
C  1.82600 55.51400 41.68000
C  1.88900 54.20500 41.35900
C  3.15400 53.85800 40.89600
C  0.71600 56.24200 42.21200
C  1.14800 52.93900 41.30100
O  -0.00100 52.64700 41.59500
C  2.06200 51.85700 40.68100
C  1.32800 51.15200 39.64300
O  0.98200 51.59800 38.58000
O  1.03200 49.89500 40.13100
C  0.03400 49.20800 39.28900
H  8.77500 51.64800 39.00100
H  9.17900 57.80700 40.26000
H  3.01100 58.22900 41.52300
H  4.29600 49.90500 39.91000
H  6.53700 50.38300 38.04500
H  7.58500 48.96900 39.03400
H  6.50800 48.81000 40.47400
H  7.74800 49.93100 40.61000
H  4.84900 50.73500 37.04000
H  3.28600 51.31700 37.52900
H  2.28700 49.31100 37.14500
H  3.34100 48.52400 38.34400
H  10.84400 52.01400 39.21900
H  11.94600 53.16900 39.89100
H  11.66500 53.27200 38.17900
H  10.32400 58.14900 38.33300
H  11.94200 58.17500 38.18400
H  11.22200 58.18100 39.87600
H  7.46100 59.64600 40.19800
H  4.93700 59.45900 42.01600
H  6.89900 59.81300 42.89800
H  8.51800 59.81700 42.20700
H  7.87600 58.29500 42.79800
H  5.55800 60.96900 39.68400
H  4.06100 60.90100 40.55500
H  2.94400 59.95300 38.99300
H  4.22200 58.75500 38.57900
H  4.27600 60.37000 37.93700
H  1.02700 56.77600 43.11000
H  -0.11000 55.53900 42.32100
H  0.44200 57.02200 41.50200
H  2.27500 51.20900 41.53100
H  -0.56000 48.45700 39.81000
H  0.53600 48.79400 38.41400
H  -0.82800 49.82200 39.02800

