158

Mg 27.66800 58.65100 42.21700
C  25.74500 56.15900 40.54200
C  30.42200 57.42300 40.65000
C  29.23900 61.17200 43.55000
C  24.48400 60.07200 43.22600
N  27.97100 57.05500 40.64200
C  27.10400 56.09500 40.18300
C  27.87300 54.94000 39.45000
C  29.33600 55.28400 39.76300
C  29.24900 56.70000 40.44800
C  30.21500 54.17100 40.43900
C  27.54300 54.85200 37.90800
C  27.14600 53.55800 37.17400
H  26.82600 53.55800 35.65100
N  29.63600 59.26900 42.12000
C  30.62900 58.63700 41.41000
C  31.83700 59.31600 41.64200
C  31.60900 60.41000 42.57600
C  30.15700 60.39800 42.80100
C  33.21100 58.89300 41.04500
C  32.60600 61.35400 43.15200
O  33.81900 61.18300 43.05600
C  32.14800 62.61400 43.86800
N  26.94100 60.33600 43.29500
C  27.87300 61.27000 43.58900
C  27.09800 62.50300 44.24700
C  25.58200 62.15900 44.19600
C  25.64700 60.77200 43.50200
C  27.49900 62.90600 45.70300
C  24.63000 63.18500 43.54500
C  23.96100 64.12100 44.51600
N  25.51000 58.21700 42.03600
C  24.38200 58.84900 42.53500
C  23.18700 58.11600 42.15800
C  23.69500 57.11700 41.34800
C  25.09500 57.21900 41.31600
C  21.80300 58.24200 42.66900
C  23.30400 55.90500 40.66000
O  22.17000 55.41300 40.48200
C  24.60200 55.20200 40.17700
C  24.75700 53.87800 40.86900
O  24.98900 53.66300 42.04300
O  24.54800 52.76200 40.00300
C  24.35700 51.43900 40.49400
H  31.37200 57.00600 40.31000
H  29.75500 61.96700 44.09100
H  23.49700 60.49100 43.43100
H  27.54700 54.08600 40.04400
H  29.82400 55.47400 38.80700
H  31.26800 54.30900 40.19400
H  29.89500 53.16300 40.17300
H  30.14900 54.18600 41.52700
H  28.32700 55.34400 37.33200
H  26.62100 55.41500 37.76300
H  26.33300 53.09600 37.73400
H  27.85300 52.73000 37.22600
H  33.78100 58.15400 41.60700
H  33.86000 59.75300 40.88200
H  32.91200 58.49600 40.07500
H  31.49500 63.16500 43.19100
H  32.89200 63.35700 44.15400
H  31.60700 62.35400 44.77800
H  27.35600 63.34200 43.60100
H  25.24900 62.01600 45.22400
H  28.06400 63.83700 45.74500
H  28.06700 62.16000 46.25900
H  26.66100 63.02500 46.38900
H  23.92700 62.67200 42.88900
H  25.13600 63.81500 42.81300
H  24.05500 65.14600 44.16000
H  24.50100 64.03100 45.45900
H  22.97000 63.70100 44.69100
H  21.13300 58.75500 41.97900
H  21.71100 58.79600 43.60300
H  21.37500 57.25100 42.82600
H  24.66700 55.00800 39.10700
H  24.13200 50.73800 39.69000
H  23.49600 51.35700 41.15700
H  25.23100 50.96800 40.94400
Mg 16.91400 51.83500 25.42500
C  19.02800 50.12900 27.80000
C  15.13200 53.00100 28.07700
C  15.21300 53.66300 23.26000
C  18.83900 50.56800 22.92000
N  16.96500 51.32200 27.69400
C  18.03100 50.82600 28.48500
C  17.84000 51.10700 29.99000
C  16.38500 51.86000 30.01700
C  16.09900 52.04300 28.48600
C  15.16700 51.12800 30.64000
C  18.96200 51.90600 30.71000
C  18.96800 51.82900 32.19800
H  18.00400 50.90100 33.02400
N  15.27300 53.09900 25.60700
C  14.64000 53.48900 26.80100
C  13.62500 54.42300 26.55700
C  13.66600 54.73000 25.10200
C  14.74800 53.80000 24.55800
C  12.59900 54.97600 27.57100
C  12.72000 55.51200 24.21500
O  12.85600 55.43700 23.06300
C  11.60300 56.33700 24.83000
N  16.83800 51.82200 23.35600
C  16.16100 52.83400 22.67200
C  16.52400 52.72100 21.11100
C  17.89800 52.05600 21.14400
C  17.84900 51.42200 22.57400
C  15.50900 52.02500 20.27100
C  19.14900 53.00300 20.90300
C  20.13700 52.45200 19.84200
N  18.59700 50.45100 25.32000
C  19.20700 50.03100 24.16700
C  20.21800 49.09100 24.50600
C  20.23200 49.06500 25.93400
C  19.19700 49.97500 26.38600
C  21.28800 48.51200 23.58000
C  20.80900 48.53100 27.13400
O  21.72000 47.72100 27.28700
C  20.15100 49.38600 28.31600
C  19.91300 48.43300 29.46900
O  19.18300 47.48600 29.47900
O  20.78300 48.66800 30.50200
C  20.78700 47.69400 31.59400
H  14.68900 53.56600 28.90000
H  14.71600 54.27600 22.50500
H  19.55600 50.23800 22.16500
H  17.65100 50.12800 30.42900
H  16.45000 52.88800 30.37400
H  15.32300 50.06400 30.81600
H  14.35200 51.15700 29.91700
H  14.94700 51.61900 31.58800
H  18.75800 52.93700 30.42000
H  19.89700 51.56700 30.26400
H  18.88100 52.75900 32.76000
H  19.93700 51.40100 32.45600
H  12.80600 54.44700 28.50200
H  11.57100 54.67900 27.36500
H  12.68800 56.04100 27.78800
H  11.96300 56.86500 25.71200
H  10.68400 55.79700 25.06000
H  11.39000 57.13800 24.12200
H  16.56100 53.71000 20.65500
H  17.90600 51.25400 20.40500
H  15.93400 51.62300 19.35200
H  14.68800 52.62000 19.87000
H  15.12800 51.11200 20.72900
H  19.82800 53.15600 21.74200
H  18.82700 54.00800 20.63100
H  19.96300 52.88200 18.85500
H  20.06200 51.39200 19.60100
H  21.17400 52.68900 20.08200
H  21.05300 49.00900 22.63800
H  21.05900 47.45000 23.49300
H  22.33100 48.78600 23.74200
H  20.94800 50.00600 28.72500
H  20.41100 48.36500 32.36700
H  21.80300 47.35000 31.78600
H  20.15500 46.81100 31.67900

