158

Mg 52.44100 22.70100 43.52100
C  49.66000 24.68100 42.68500
C  50.69000 19.89300 43.09200
C  55.39000 21.01500 43.15600
C  54.34400 25.82400 43.17800
N  50.53800 22.35400 42.66000
C  49.53600 23.27700 42.47000
C  48.20600 22.53400 42.11900
C  48.52800 21.14900 42.69100
C  49.97500 21.11900 42.89100
C  47.80400 20.76100 44.05900
C  47.85900 22.63500 40.58200
C  46.32800 22.28000 40.34600
H  46.03500 21.00900 39.47100
N  52.95300 20.67700 43.39500
C  52.05000 19.67200 43.18400
C  52.78300 18.43600 43.13000
C  54.16300 18.72300 43.20000
C  54.26000 20.19200 43.27100
C  52.06300 17.12300 42.89400
C  55.22800 17.62000 43.18700
O  54.92800 16.42600 43.21700
C  56.68700 17.90000 43.19900
N  54.44500 23.29500 43.07600
C  55.48800 22.38800 43.06200
C  56.83800 23.09000 42.87600
C  56.51200 24.65200 42.84900
C  55.01000 24.63000 42.97400
C  57.92800 22.73400 43.86400
C  57.00900 25.34100 41.53100
C  56.40700 24.76700 40.19100
N  52.07000 24.83200 43.19100
C  52.95300 25.98000 43.24800
C  52.05700 27.17600 43.37200
C  50.77700 26.65400 43.04500
C  50.85000 25.27800 42.95400
C  52.49800 28.63600 43.47100
C  49.38100 27.16200 42.88700
O  48.86800 28.28300 42.84700
C  48.63700 25.87200 42.45100
C  48.27800 26.06500 40.98000
O  49.07000 26.28400 40.09000
O  46.91400 26.12500 40.82600
C  46.33700 26.29000 39.47300
H  50.07300 18.99700 43.18100
H  56.34000 20.50900 42.97300
H  54.92000 26.75100 43.19800
H  47.41200 23.13000 42.56900
H  48.23500 20.33600 42.02700
H  47.15200 21.58800 44.34300
H  48.48300 20.64800 44.90400
H  47.22800 19.83600 44.05400
H  48.47500 21.88400 40.08800
H  47.99500 23.61900 40.13300
H  45.87300 23.07600 39.75600
H  45.71000 22.11100 41.22800
H  52.34900 16.65100 41.95400
H  50.98100 17.20100 42.78900
H  52.27700 16.52300 43.77800
H  57.34100 17.03000 43.25400
H  56.99100 18.60900 43.96900
H  56.85900 18.38300 42.23700
H  57.19200 22.84500 41.87500
H  56.97000 25.22200 43.65700
H  58.56000 23.59700 44.07400
H  58.61800 21.98200 43.48000
H  57.54200 22.37900 44.81900
H  58.08400 25.17300 41.47000
H  56.74500 26.38900 41.67400
H  55.85300 25.61900 39.79700
H  55.73600 23.92500 40.36400
H  57.19000 24.48200 39.48900
H  51.95600 29.33200 44.11100
H  52.56300 29.01700 42.45200
H  53.51800 28.72200 43.84300
H  47.68900 25.72700 42.96900
H  45.57400 25.51200 39.45100
H  46.98400 26.53500 38.63100
H  45.77800 27.22400 39.41200
Mg 30.34700 59.69200 40.05500
C  27.61000 57.88500 38.65500
C  32.36100 56.88200 39.34100
C  33.10400 61.57400 40.63600
C  28.30300 62.48200 40.14300
N  29.99200 57.77300 38.91100
C  28.81500 57.25800 38.51500
C  29.03200 55.89400 37.90100
C  30.33700 55.46700 38.64000
C  30.96500 56.78900 38.96100
C  30.21900 54.62100 39.94300
C  29.15300 55.93900 36.36400
C  28.14100 55.03600 35.57400
H  27.28200 55.91900 34.69100
N  32.43300 59.29100 40.00700
C  33.05300 58.08400 39.78000
C  34.46300 58.31400 39.95300
C  34.65300 59.60900 40.33400
C  33.37700 60.19100 40.37900
C  35.35800 57.11400 39.93600
C  35.96500 60.12100 40.76500
O  37.01000 59.47300 40.56400
C  36.18900 61.36200 41.49800
N  30.67000 61.74900 40.12100
C  31.89500 62.29600 40.48000
C  31.76100 63.80800 40.68700
C  30.24500 64.07200 40.44800
C  29.69700 62.65200 40.27800
C  32.32800 64.44100 42.04500
C  30.00000 65.00400 39.25100
C  29.51300 66.43100 39.51200
N  28.28800 60.05900 39.67700
C  27.62300 61.23400 39.87800
C  26.14700 61.02000 39.52600
C  26.10100 59.68600 39.07100
C  27.44200 59.20500 39.12900
C  25.01400 61.95700 39.65000
C  25.19800 58.67500 38.65500
O  23.98600 58.65000 38.52300
C  26.09700 57.43800 38.37400
C  25.67800 56.27800 39.24300
O  26.34600 55.97500 40.17700
O  24.49800 55.70100 38.78200
C  23.82500 54.80900 39.68000
H  32.91500 55.94900 39.21400
H  33.91500 62.20200 41.01200
H  27.69000 63.38300 40.07300
H  28.21300 55.27200 38.26500
H  30.94000 54.86900 37.95700
H  30.25700 53.54600 39.76900
H  29.23700 54.79900 40.38200
H  30.94100 54.88800 40.71500
H  30.10300 55.61500 35.93800
H  28.83200 56.95000 36.11400
H  27.64700 54.33100 36.24300
H  28.68100 54.31000 34.96600
H  35.01100 56.27400 39.33500
H  35.30600 56.80500 40.98000
H  36.40600 57.26400 39.67700
H  37.19400 61.44000 41.91200
H  35.54400 61.33800 42.37600
H  36.01300 62.25600 40.90000
H  32.41700 64.21900 39.91900
H  29.73800 64.40200 41.35400
H  31.49100 64.75500 42.66900
H  32.91200 65.32800 41.79800
H  32.94400 63.77500 42.64900
H  29.15600 64.51300 38.76600
H  30.85100 65.04500 38.57200
H  28.57400 66.78300 39.08300
H  30.31800 67.08800 39.18400
H  29.34300 66.36500 40.58700
H  24.79600 62.31300 38.64300
H  25.26400 62.85800 40.21000
H  24.17400 61.44700 40.12300
H  25.84700 57.13400 37.35800
H  23.40000 54.14500 38.92600
H  23.09200 55.36300 40.26600
H  24.51300 54.28500 40.34300

