158

Mg 1.09100 7.39700 25.21000
C  1.96000 9.67600 27.94300
C  1.25400 4.94900 27.34100
C  0.49100 5.51800 22.61100
C  1.32100 10.36000 23.04900
N  1.68600 7.32700 27.36800
C  1.90000 8.29300 28.28900
C  1.91000 7.70300 29.72700
C  1.93500 6.19700 29.41000
C  1.57100 6.12600 27.95100
C  3.11900 5.40000 29.91700
C  0.60400 8.08100 30.49100
C  0.63600 8.38900 31.96000
H  1.71400 7.68100 32.86200
N  0.84900 5.49600 25.01300
C  0.96700 4.60900 25.97400
C  0.57500 3.32300 25.41700
C  0.35700 3.40100 24.02100
C  0.48600 4.88000 23.83800
C  0.57500 2.06700 26.25100
C  0.14200 2.29500 23.01000
O  -0.12300 2.53500 21.85100
C  0.04200 0.80900 23.58900
N  0.96100 7.82500 23.09700
C  0.65200 6.87200 22.25300
C  0.59700 7.38400 20.77600
C  0.61200 8.93100 21.01900
C  1.03500 9.08200 22.48800
C  1.71900 6.90800 19.73800
C  -0.80500 9.64100 20.92200
C  -0.95800 11.00500 20.09500
N  1.50900 9.60500 25.38600
C  1.51400 10.66500 24.43800
C  1.75600 11.97900 25.07300
C  1.91200 11.62800 26.45300
C  1.75600 10.18300 26.57600
C  1.81800 13.31700 24.36700
C  2.18800 12.17300 27.78400
O  2.35800 13.31500 28.17900
C  2.00400 10.87100 28.82800
C  3.09100 10.79700 29.88000
O  4.28000 10.40000 29.67900
O  2.57400 11.33000 31.00600
C  3.50200 11.21700 32.12100
H  1.18400 4.09700 28.02000
H  0.27100 4.83000 21.79200
H  1.35900 11.24100 22.40500
H  2.72400 8.15100 30.29700
H  1.11200 5.67300 29.89600
H  3.54900 4.94500 29.02500
H  2.90100 4.68900 30.71400
H  3.88500 6.04200 30.35400
H  -0.10700 7.26200 30.38300
H  0.06700 8.83300 29.91300
H  -0.33700 8.09400 32.35300
H  0.77400 9.46500 32.07000
H  0.50900 2.22700 27.32700
H  1.56200 1.62700 26.10700
H  -0.18700 1.33200 25.99000
H  -0.16400 0.20500 22.70500
H  -0.91300 0.84700 24.11300
H  0.95600 0.45300 24.06300
H  -0.31300 7.03400 20.29000
H  1.21900 9.30500 20.19400
H  1.39400 6.10300 19.07900
H  2.59100 6.63000 20.32900
H  1.93000 7.65100 18.96800
H  -1.12100 9.86700 21.94000
H  -1.44800 8.89200 20.45900
H  -1.86900 10.98600 19.49700
H  0.01800 11.18000 19.64300
H  -1.06400 11.80000 20.83400
H  2.64000 13.22900 23.65700
H  2.01400 14.15300 25.03800
H  0.81100 13.39800 23.95700
H  1.06700 11.04600 29.35600
H  4.42900 10.64400 32.10500
H  2.91300 10.73600 32.90200
H  3.64200 12.24300 32.46200
Mg 35.67900 0.76900 29.98600
C  33.34600 1.85200 32.48100
C  37.98800 0.41100 32.74500
C  37.97800 0.16100 27.80800
C  33.38700 1.52400 27.63800
N  35.62200 1.10700 32.29700
C  34.61000 1.60300 33.02400
C  34.98200 1.61800 34.49200
C  36.58000 1.53900 34.46200
C  36.74000 1.00700 33.05900
C  37.26900 2.91700 34.51400
C  34.38000 0.41600 35.23100
C  34.44700 0.42200 36.81000
H  35.27700 1.50000 37.49300
N  37.68500 0.29600 30.23800
C  38.45600 0.13200 31.39600
C  39.79800 -0.27700 31.03800
C  39.76500 -0.56800 29.63500
C  38.45400 -0.00600 29.15800
C  40.99900 -0.45100 32.02200
C  40.78800 -1.15300 28.71400
O  40.60400 -1.16600 27.46700
C  42.04200 -1.59900 29.27500
N  35.73900 0.91700 27.99100
C  36.77300 0.55100 27.25500
C  36.46500 0.66600 25.72500
C  34.92800 0.95100 25.67500
C  34.61200 1.13800 27.15300
C  37.37500 1.66600 24.87300
C  33.98100 -0.10900 25.07700
C  33.42600 -1.27300 25.93900
N  33.73900 1.49600 29.94300
C  32.85200 1.65400 28.91100
C  31.57100 2.07200 29.41800
C  31.69700 2.13800 30.82400
C  33.02200 1.76400 31.09500
C  30.31400 2.24100 28.55200
C  31.06100 2.43700 32.09600
O  29.86400 2.68900 32.33600
C  32.11000 2.31800 33.21800
C  32.26400 3.73600 33.70800
O  32.57100 4.74700 32.99200
O  31.98700 3.73700 35.05500
C  31.46400 4.97100 35.58700
H  38.78400 0.30900 33.48500
H  38.68700 -0.06600 27.00900
H  32.77100 1.93100 26.83300
H  34.56600 2.48400 35.00700
H  36.95700 0.86500 35.23200
H  36.57700 3.73200 34.72800
H  37.73700 3.07300 33.54200
H  38.05500 2.86500 35.26800
H  34.94300 -0.50400 35.07100
H  33.34400 0.24900 34.93500
H  34.84200 -0.54800 37.11100
H  33.40400 0.55700 37.09800
H  41.83600 0.07500 31.56200
H  41.10400 -1.52400 32.18600
H  40.92400 0.04500 32.98900
H  42.04700 -2.05300 30.26600
H  42.69800 -0.73100 29.33200
H  42.46300 -2.32300 28.57700
H  36.66500 -0.33500 25.34400
H  34.68300 1.85900 25.12300
H  38.19800 1.93600 25.53400
H  36.79800 2.56200 24.64100
H  37.59700 1.11700 23.95800
H  34.62100 -0.60500 24.34800
H  33.13900 0.45300 24.67000
H  33.83200 -2.22200 25.59000
H  32.33700 -1.22100 25.96700
H  33.80400 -1.28000 26.96100
H  30.62300 2.67600 27.60200
H  29.62000 2.93800 29.02200
H  29.98900 1.21200 28.39800
H  31.74400 1.71400 34.04800
H  30.59500 4.80600 36.22300
H  31.14200 5.68300 34.82700
H  32.22300 5.50500 36.15900

