158

Mg 43.78000 42.64800 26.22000
C  42.63200 44.82400 28.90500
C  45.03600 40.59900 28.51700
C  44.61700 40.57700 23.75800
C  42.79700 45.10200 23.90300
N  43.79900 42.75200 28.51700
C  43.25600 43.67400 29.35800
C  43.37600 43.18400 30.87100
C  44.30000 41.90200 30.66900
C  44.42000 41.67000 29.16500
C  45.67300 42.04600 31.42100
C  41.99000 42.92000 31.52300
C  41.63800 43.66200 32.84300
H  42.68900 43.55000 34.02300
N  44.76700 40.92400 26.13000
C  45.24800 40.25100 27.17300
C  46.09900 39.08700 26.74300
C  45.85000 38.98200 25.35800
C  45.04700 40.18000 25.00100
C  46.97900 38.32100 27.69600
C  46.41600 37.96800 24.31500
O  46.27400 38.10100 23.09400
C  47.09800 36.86300 24.89200
N  43.78400 42.86800 24.21500
C  44.13600 41.85100 23.34500
C  44.00800 42.27600 21.87900
C  43.07400 43.51000 22.02700
C  43.19500 43.83500 23.48600
C  45.36700 42.57600 21.15700
C  41.53100 43.20100 21.62100
C  41.03400 41.67800 21.88600
N  42.90700 44.54800 26.32900
C  42.65600 45.45900 25.31800
C  42.10300 46.64600 25.85500
C  42.13800 46.41500 27.21600
C  42.65900 45.16500 27.49000
C  41.49100 47.79900 25.17100
C  41.76000 46.97200 28.44600
O  41.26600 48.08700 28.63100
C  42.01800 45.94500 29.60100
C  43.01000 46.62400 30.54100
O  44.22800 46.63800 30.58400
O  42.31700 47.33100 31.51900
C  43.11800 47.94500 32.53600
H  45.42000 39.91000 29.27200
H  44.74700 39.83800 22.96400
H  42.33300 45.77600 23.18100
H  43.85900 44.04100 31.34000
H  43.84800 40.96600 30.99600
H  46.50700 42.16500 30.73000
H  45.70000 41.15800 32.05200
H  45.65200 42.89700 32.10200
H  41.81600 41.85300 31.66600
H  41.29700 43.22500 30.73900
H  40.71100 43.15800 33.11700
H  41.52600 44.74500 32.78500
H  46.60500 37.33100 27.95600
H  47.07200 38.88800 28.62300
H  47.97000 38.15300 27.27600
H  46.93700 36.06200 24.17100
H  46.58600 36.52000 25.79100
H  48.11500 37.23800 25.01200
H  43.47800 41.45000 21.40400
H  43.37700 44.31200 21.35200
H  45.22000 42.08600 20.19400
H  46.23200 42.17100 21.68100
H  45.47900 43.65500 21.05000
H  41.53300 43.33700 20.54000
H  40.82000 43.84900 22.13600
H  40.84800 41.14600 20.95300
H  40.15500 41.60000 22.52600
H  41.71700 41.07100 22.48000
H  41.99300 48.05100 24.23700
H  41.41700 48.63900 25.86200
H  40.50000 47.48300 24.84500
H  41.07200 45.60900 30.02700
H  43.73300 47.15500 32.96700
H  42.49400 48.31800 33.34800
H  43.69000 48.71600 32.02000
Mg -11.42600 16.26800 41.58800
C  -8.40200 14.31100 41.23300
C  -9.77400 18.79800 39.96000
C  -14.30200 17.61800 40.93400
C  -13.05400 13.30800 42.77700
N  -9.28900 16.45400 40.63400
C  -8.26500 15.56200 40.55900
C  -7.01000 16.12600 39.93500
C  -7.51300 17.62800 39.63100
C  -8.95800 17.67400 40.13200
C  -6.67200 18.70800 40.28500
C  -6.63200 15.37400 38.62200
C  -5.16800 15.74300 38.17300
H  -4.93100 16.70100 36.92600
N  -11.94800 18.06600 40.70600
C  -11.10100 18.98500 40.10600
C  -11.87000 20.12900 39.66100
C  -13.27800 19.73400 39.77600
C  -13.22700 18.41500 40.45600
C  -11.31100 21.38300 39.06000
C  -14.40700 20.55800 39.24400
O  -14.14500 21.65100 38.79800
C  -15.85400 20.12300 39.25500
N  -13.44200 15.59700 41.78200
C  -14.48200 16.43200 41.58000
C  -15.81900 15.79800 42.00000
C  -15.32300 14.37500 42.63900
C  -13.84600 14.42300 42.43900
C  -16.67700 16.71900 42.85300
C  -16.08100 13.22300 41.96300
C  -16.57300 12.06900 42.96800
N  -10.88300 14.28800 41.99500
C  -11.63900 13.19200 42.50700
C  -10.76800 12.11700 42.84100
C  -9.50500 12.51900 42.34500
C  -9.60600 13.84100 41.81400
C  -11.19000 10.80000 43.35100
C  -8.10400 12.11400 42.27500
O  -7.53400 11.05200 42.60600
C  -7.36600 13.25100 41.55000
C  -6.28900 13.76100 42.51000
O  -6.41800 14.26000 43.59600
O  -5.11200 13.49900 41.93500
C  -3.88000 14.05200 42.42400
H  -9.30600 19.73200 39.64100
H  -15.21500 18.19800 40.78600
H  -13.50700 12.37600 43.12200
H  -6.11700 16.10000 40.55800
H  -7.50300 17.82900 38.56000
H  -5.82800 18.26000 40.81000
H  -7.15700 19.41100 40.96200
H  -6.22900 19.24900 39.44900
H  -7.14100 15.57800 37.68000
H  -6.57500 14.29600 38.77300
H  -4.50100 14.88100 38.14100
H  -4.76200 16.34300 38.98700
H  -11.33400 21.32700 37.97200
H  -10.24500 21.44600 39.27900
H  -11.76000 22.32200 39.38400
H  -16.34100 20.78500 38.53900
H  -16.28900 20.23300 40.24900
H  -15.90400 19.06000 39.02300
H  -16.34100 15.64900 41.05500
H  -15.65500 14.31100 43.67500
H  -16.04700 17.41200 43.41100
H  -17.36200 16.14000 43.47400
H  -17.31500 17.33500 42.21900
H  -15.37700 12.75600 41.27400
H  -16.94200 13.50800 41.35900
H  -16.16800 12.23300 43.96700
H  -16.30800 11.03100 42.76500
H  -17.64500 12.17100 43.14000
H  -10.44100 10.36000 44.00800
H  -11.36600 10.08800 42.54500
H  -12.11900 10.91300 43.91100
H  -6.84600 12.81900 40.69500
H  -3.65300 13.65400 43.41400
H  -3.96700 15.13200 42.53500
H  -3.23600 13.82200 41.57500

