158

Mg 54.35600 24.54700 44.66500
C  51.84000 26.91700 43.99400
C  52.13600 22.05100 43.49400
C  56.87600 22.41700 44.53700
C  56.59800 27.18300 45.18100
N  52.27400 24.57800 43.78900
C  51.50900 25.62000 43.62600
C  50.17600 25.15000 42.92800
C  50.11100 23.60000 43.22100
C  51.58000 23.37400 43.56700
C  49.12400 22.97600 44.18400
C  50.28400 25.45100 41.42100
C  48.86500 25.41200 40.73500
H  48.77000 24.38800 39.63700
N  54.48300 22.47600 44.06900
C  53.48000 21.62400 43.71700
C  54.01400 20.27000 43.59900
C  55.35000 20.36700 44.06200
C  55.64200 21.79300 44.22900
C  53.24700 19.10300 43.09100
C  56.28300 19.12900 44.17600
O  55.75800 18.01100 44.01000
C  57.84000 19.15200 44.43000
N  56.44300 24.80300 44.74000
C  57.28300 23.75700 44.77700
C  58.73700 24.08500 45.12200
C  58.63600 25.61900 45.18600
C  57.11800 25.94400 45.01900
C  59.19800 23.37200 46.38800
C  59.58800 26.32200 44.17200
C  60.14400 27.63700 44.75700
N  54.27400 26.62800 44.79100
C  55.22300 27.53800 45.07200
C  54.55400 28.80300 45.34800
C  53.24900 28.60000 44.82300
C  53.09100 27.21500 44.59500
C  55.18300 30.02600 45.81000
C  52.06300 29.27900 44.54000
O  51.73500 30.48900 44.69900
C  51.09000 28.16500 44.00000
C  50.76800 28.60100 42.64100
O  51.51300 28.70400 41.65900
O  49.50700 28.81000 42.51200
C  48.97700 29.39600 41.30400
H  51.40800 21.29700 43.18800
H  57.61800 21.62600 44.41600
H  57.13200 28.09300 45.46200
H  49.30200 25.57900 43.41800
H  50.02700 22.98000 42.32800
H  49.00500 21.92400 43.92700
H  48.16700 23.39000 43.86800
H  49.42700 23.24300 45.19600
H  51.03200 24.79400 40.97800
H  50.74700 26.41700 41.22200
H  48.68600 26.43800 40.41200
H  48.09400 25.19300 41.47400
H  52.19800 19.25900 42.83900
H  53.22700 18.28200 43.80700
H  53.68000 18.68400 42.18300
H  58.40800 19.64900 43.64300
H  58.20900 18.12900 44.50200
H  58.06600 19.52900 45.42700
H  59.32000 23.73800 44.26800
H  59.00400 25.99400 46.14200
H  59.11400 23.99800 47.27600
H  60.21500 22.98200 46.34700
H  58.58200 22.48500 46.53900
H  58.97100 26.43200 43.28000
H  60.47900 25.71700 44.00800
H  59.83000 28.55200 44.25400
H  61.23300 27.64600 44.70700
H  59.84900 27.74400 45.80100
H  54.91100 30.84500 45.14400
H  56.25700 29.85400 45.88200
H  54.72800 30.18300 46.78700
H  50.21800 28.10100 44.65100
H  48.71700 28.61500 40.59000
H  49.61300 30.19100 40.91500
H  48.05900 29.94200 41.52000
Mg 47.76300 25.56400 28.41300
C  48.95000 27.78900 30.85400
C  46.63800 23.46500 30.82800
C  46.92900 23.50800 25.92600
C  49.63200 27.62900 26.01400
N  47.79500 25.64800 30.57300
C  48.34100 26.60000 31.38700
C  47.95000 26.28400 32.86100
C  47.44500 24.75700 32.80900
C  47.28300 24.57500 31.31100
C  48.38100 23.76500 33.46600
C  47.04100 27.42300 33.36500
C  47.69900 27.95400 34.74900
H  46.68400 28.29200 35.87600
N  46.75800 23.70500 28.36000
C  46.43400 23.01900 29.49800
C  45.84800 21.78700 29.05200
C  45.96800 21.74000 27.61600
C  46.59100 23.03800 27.22200
C  45.12800 20.81500 30.01700
C  45.66100 20.64400 26.62700
O  45.70500 20.78300 25.37900
C  45.09500 19.39900 27.10500
N  48.43300 25.50800 26.29500
C  47.77100 24.55400 25.51500
C  48.06300 24.83100 24.04800
C  48.85100 26.19500 24.01400
C  48.99200 26.49200 25.49500
C  48.87400 23.59100 23.29600
C  48.24600 27.38600 23.25100
C  49.24200 28.08200 22.30300
N  49.09800 27.29500 28.41700
C  49.72000 27.97600 27.39000
C  50.40600 29.14400 27.95300
C  50.12800 29.08600 29.32300
C  49.26900 28.00900 29.54300
C  51.31800 30.01700 27.24100
C  50.35300 29.70900 30.58500
O  51.08800 30.65400 30.81900
C  49.65600 28.85300 31.65400
C  50.55200 28.31300 32.68500
O  51.23700 27.30700 32.56100
O  50.50700 29.12700 33.83200
C  51.28500 28.70100 35.05200
H  46.30300 22.65700 31.48200
H  46.56800 22.88000 25.10800
H  50.18900 28.13600 25.22300
H  48.93700 26.32400 33.32300
H  46.47100 24.76400 33.29700
H  47.86200 23.21000 34.24700
H  49.28500 24.26100 33.81900
H  48.74400 22.96200 32.82500
H  45.99900 27.15700 33.54300
H  47.05200 28.18700 32.58800
H  48.22200 28.90500 34.64700
H  48.39500 27.25100 35.20600
H  44.12400 20.69500 29.61100
H  44.92200 21.20000 31.01600
H  45.77200 19.94000 30.10600
H  44.84900 18.68100 26.32300
H  44.18300 19.52100 27.68800
H  45.82400 18.87300 27.72200
H  47.07400 24.94700 23.60400
H  49.88000 26.05800 23.68100
H  49.11500 22.69400 23.86700
H  49.73200 24.10900 22.86800
H  48.16100 23.17600 22.58300
H  47.71000 28.10400 23.87200
H  47.52000 26.82200 22.66700
H  50.29000 27.81600 22.43900
H  49.09800 29.16300 22.29500
H  49.07700 27.85300 21.25000
H  50.69700 30.90600 27.12700
H  51.67900 29.55800 26.32000
H  52.17800 30.32100 27.83800
H  48.97000 29.54600 32.14000
H  52.26100 28.29300 34.78900
H  50.71100 27.86500 35.45100
H  51.25500 29.50900 35.78400

