158

Mg 47.05100 16.05600 27.82300
C  45.20800 15.94900 30.81200
C  49.05800 18.43300 29.28000
C  48.45300 16.52200 24.74400
C  44.54700 14.25100 26.30800
N  47.06000 17.05600 29.84500
C  46.31900 16.74100 30.96800
C  46.84000 17.39400 32.19000
C  47.92100 18.45000 31.62000
C  48.09900 17.89600 30.16900
C  47.57900 19.93400 31.74200
C  47.43400 16.32300 33.19300
C  47.03200 16.52100 34.69900
H  48.15000 16.14000 35.68100
N  48.51900 17.29500 27.10900
C  49.28200 18.14800 27.93000
C  50.24700 18.78900 27.07500
C  50.13400 18.28300 25.71300
C  48.97500 17.32700 25.80200
C  51.07800 19.96900 27.60700
C  50.97100 18.57200 24.42800
O  50.66100 18.06600 23.34800
C  52.17000 19.57500 24.53100
N  46.69200 15.36200 25.86700
C  47.42800 15.60400 24.76700
C  46.98400 14.84200 23.54100
C  45.77200 14.11000 24.07900
C  45.62100 14.62000 25.50300
C  46.63300 15.75600 22.23600
C  45.91300 12.51800 23.85100
C  46.51900 11.72700 24.89200
N  45.30400 15.20700 28.39800
C  44.39700 14.47900 27.64700
C  43.26600 13.95100 28.47400
C  43.57400 14.52800 29.72600
C  44.78300 15.30500 29.65200
C  42.00100 13.20700 28.03900
C  43.06600 14.59700 31.03100
O  42.07600 14.12300 31.50500
C  44.17200 15.44600 31.86000
C  43.46500 16.43100 32.59100
O  42.80800 17.37100 32.09400
O  43.49300 16.15200 33.91600
C  42.70700 17.14100 34.75800
H  49.70100 19.16200 29.77600
H  48.93000 16.46900 23.76400
H  43.75200 13.56400 26.00900
H  46.02300 17.97200 32.62200
H  48.67700 18.25000 32.38000
H  46.58800 20.07400 32.17300
H  47.73400 20.40000 30.76900
H  48.26200 20.20400 32.54800
H  48.52200 16.40000 33.19600
H  47.09900 15.36800 32.78800
H  46.19500 15.89300 35.00400
H  46.74700 17.57000 34.78800
H  50.66800 20.43700 28.50200
H  51.07100 20.74200 26.83900
H  52.12200 19.71300 27.78900
H  51.68100 20.53200 24.35100
H  52.89400 19.32100 23.75700
H  52.73100 19.61300 25.46500
H  47.78000 14.15500 23.25400
H  44.90500 14.37700 23.47500
H  46.08200 15.15100 21.51600
H  47.52300 16.10400 21.71100
H  46.01000 16.61500 22.48700
H  46.38800 12.20200 22.92100
H  44.88900 12.16100 23.74100
H  46.74500 12.29900 25.79200
H  47.53400 11.42600 24.63200
H  46.02800 10.76500 25.03800
H  41.45900 13.77400 27.28200
H  41.33400 12.91000 28.84800
H  42.39100 12.32900 27.52300
H  44.68600 14.76600 32.53900
H  43.21400 18.10400 34.69700
H  42.72200 16.87000 35.81400
H  41.71900 17.37700 34.36300
Mg 0.04100 42.41500 26.48100
C  2.36200 41.89100 29.04900
C  -2.46900 41.52900 28.67800
C  -2.21000 42.27000 23.98900
C  2.67500 42.63600 24.31900
N  -0.01900 41.54100 28.56100
C  0.99700 41.68300 29.37100
C  0.51000 41.81700 30.86700
C  -0.99900 41.32600 30.69300
C  -1.21500 41.42100 29.21800
C  -1.18700 39.84400 31.04700
C  0.72700 43.29500 31.36200
C  0.93500 43.42300 32.87500
H  0.38900 42.41300 33.91300
N  -2.00400 41.92100 26.27500
C  -2.80300 41.71500 27.38600
C  -4.25700 41.74700 26.95900
C  -4.22100 41.85400 25.54900
C  -2.80800 42.00100 25.17200
C  -5.44100 41.65400 27.93400
C  -5.41800 41.91000 24.57800
O  -5.26600 41.95300 23.34800
C  -6.89000 41.90300 25.02800
N  0.22500 42.23700 24.43300
C  -0.85800 42.36600 23.59500
C  -0.39900 42.56000 22.15300
C  1.19300 42.50500 22.33600
C  1.41300 42.49000 23.77000
C  -1.03200 41.57000 21.08500
C  1.89800 43.70500 21.55200
C  1.52100 45.18400 22.04200
N  2.10700 42.39800 26.60900
C  3.04900 42.54900 25.67400
C  4.41100 42.50300 26.20000
C  4.16200 42.24300 27.54300
C  2.73100 42.13000 27.72800
C  5.71100 42.60300 25.40800
C  4.78100 41.93100 28.83000
O  5.99900 41.59400 29.05700
C  3.55300 41.91400 29.84800
C  3.66600 40.69500 30.74300
O  2.94600 39.71600 30.76000
O  4.83700 40.79300 31.46200
C  4.93600 39.81500 32.55400
H  -3.19500 41.57400 29.49300
H  -2.95100 42.38500 23.19500
H  3.54000 42.71300 23.65700
H  0.97200 41.08700 31.53100
H  -1.71700 41.96600 31.20600
H  -0.65700 39.61000 31.97100
H  -0.85600 39.14300 30.28100
H  -2.20800 39.60000 31.33900
H  -0.14400 43.93100 31.20500
H  1.63200 43.70900 30.91800
H  0.47200 44.29500 33.33800
H  2.01000 43.49100 33.03800
H  -5.29100 42.51800 28.58100
H  -5.38500 40.85800 28.67600
H  -6.46500 41.74100 27.56800
H  -7.63600 41.86200 24.23400
H  -7.01000 42.82700 25.59300
H  -7.13400 41.00200 25.59000
H  -0.60200 43.57400 21.80900
H  1.57100 41.60500 21.85000
H  -0.24400 41.00000 20.59400
H  -1.41400 42.25600 20.32800
H  -1.74200 40.88200 21.54400
H  1.60400 43.59500 20.50800
H  2.97700 43.55300 21.58000
H  2.38900 45.81600 22.22900
H  0.82000 45.20000 22.87700
H  1.00200 45.71400 21.24300
H  5.80100 43.64900 25.11600
H  5.65400 41.97000 24.52300
H  6.62200 42.34300 25.94700
H  3.63300 42.77700 30.51000
H  5.95200 39.42200 32.52100
H  4.24100 38.98500 32.68100
H  4.77100 40.32600 33.50300

