158

Mg 24.55600 -5.48700 45.71300
C  26.64700 -3.11200 44.22300
C  21.99000 -4.41100 43.52900
C  22.69900 -8.10400 46.68800
C  27.34500 -6.88800 47.29900
N  24.36800 -3.99400 44.14200
C  25.37600 -3.10100 43.68000
C  24.94400 -2.37200 42.44200
C  23.39000 -2.48900 42.50200
C  23.20500 -3.73500 43.43300
C  22.63900 -1.23000 42.92400
C  25.79300 -2.98700 41.19400
C  26.67300 -2.11600 40.38200
H  26.26500 -1.98300 38.89700
N  22.57300 -6.10400 45.26100
C  21.70100 -5.50300 44.37200
C  20.43300 -6.19000 44.46300
C  20.61200 -7.36500 45.30000
C  22.01600 -7.19600 45.83800
C  19.24000 -5.74400 43.64000
C  19.52300 -8.48800 45.52800
O  18.41600 -8.33300 45.23600
C  19.90000 -9.84000 46.20400
N  25.02500 -7.15200 46.91600
C  24.06200 -8.06100 47.19400
C  24.68600 -9.27600 47.88900
C  26.13900 -8.86100 48.28800
C  26.18500 -7.58000 47.41200
C  23.87300 -9.87800 48.99500
C  27.20800 -9.95300 47.83500
C  28.33100 -10.14300 48.92000
N  26.57500 -4.98800 45.96100
C  27.57800 -5.66100 46.62700
C  28.81300 -4.84800 46.44100
C  28.45000 -3.87600 45.49500
C  27.11000 -3.95700 45.32400
C  30.10200 -5.20700 47.05100
C  29.00800 -2.77000 44.73400
O  30.16100 -2.33900 44.59700
C  27.80100 -2.27200 43.81100
C  27.62900 -0.84800 44.08000
O  26.80100 -0.27300 44.78100
O  28.53600 -0.18600 43.27500
C  28.43200 1.24700 43.34800
H  21.22100 -4.12000 42.81000
H  22.18900 -9.03400 46.95000
H  28.24500 -7.33500 47.72800
H  25.17700 -1.31500 42.57600
H  23.06000 -2.85000 41.52800
H  23.07700 -0.31900 42.51500
H  22.76200 -1.23400 44.00700
H  21.55600 -1.26300 42.81100
H  25.05100 -3.32300 40.47000
H  26.35500 -3.86800 41.50500
H  27.68300 -2.49900 40.23900
H  26.72500 -1.08800 40.74100
H  19.18900 -6.17000 42.63800
H  19.22000 -4.68300 43.39100
H  18.34300 -6.04900 44.18000
H  19.05100 -10.52100 46.15500
H  20.19500 -9.60800 47.22700
H  20.69200 -10.29100 45.60600
H  24.59600 -9.98500 47.06600
H  26.28100 -8.49200 49.30400
H  22.92400 -9.36800 49.16100
H  24.43000 -9.88000 49.93100
H  23.65500 -10.88100 48.62700
H  27.65400 -9.71200 46.87000
H  26.74200 -10.93300 47.73000
H  29.31400 -9.78200 48.61700
H  28.36100 -11.18500 49.23800
H  28.10100 -9.56400 49.81400
H  30.43300 -6.16100 46.64100
H  29.98200 -5.34200 48.12500
H  30.87300 -4.45400 46.88600
H  28.05600 -2.36000 42.75500
H  29.32000 1.69700 42.90400
H  28.38700 1.63500 44.36600
H  27.55500 1.47100 42.74100
Mg -4.38800 25.50100 26.02300
C  -3.48200 27.34900 28.98600
C  -6.32600 23.57200 28.08100
C  -5.01300 23.75800 23.37500
C  -2.23100 27.57000 24.25100
N  -4.78700 25.40900 28.25500
C  -4.32500 26.23900 29.28000
C  -5.03700 25.89300 30.55900
C  -5.75000 24.50000 30.31600
C  -5.54400 24.42100 28.80400
C  -5.08800 23.29700 31.06200
C  -5.89900 27.12700 31.06900
C  -6.51900 26.90600 32.45100
H  -6.02300 25.86500 33.51400
N  -5.56200 23.92100 25.72300
C  -6.35700 23.31100 26.67100
C  -7.15900 22.32700 26.00500
C  -6.71300 22.24900 24.66200
C  -5.70300 23.27700 24.53200
C  -8.17500 21.48100 26.75600
C  -7.26800 21.42400 23.52400
O  -6.85700 21.51000 22.37000
C  -8.40900 20.53500 23.77100
N  -3.66000 25.56400 24.13200
C  -4.10400 24.78200 23.17700
C  -3.35500 25.04800 21.84800
C  -2.77800 26.43600 22.12600
C  -2.87200 26.51700 23.60300
C  -2.31300 23.93700 21.51400
C  -3.63900 27.55000 21.37900
C  -3.04700 27.93300 20.06100
N  -3.15800 27.28300 26.49200
C  -2.24700 27.97100 25.64400
C  -1.61700 29.08200 26.39200
C  -2.04600 28.88300 27.73500
C  -2.91100 27.74700 27.72600
C  -0.71000 30.18300 25.83300
C  -2.00300 29.40200 29.10600
O  -1.42100 30.37700 29.56100
C  -2.89100 28.38500 29.98800
C  -2.02500 27.69200 30.93800
O  -1.02700 27.09200 30.59400
O  -2.54900 27.67400 32.22000
C  -1.87500 26.84000 33.18800
H  -6.92100 22.88100 28.68100
H  -5.28000 23.13600 22.51900
H  -1.64800 28.27000 23.64900
H  -4.24200 25.73400 31.28700
H  -6.81500 24.43900 30.53800
H  -4.32000 22.84500 30.43500
H  -5.80200 22.52200 31.34100
H  -4.67300 23.53600 32.04100
H  -6.69200 27.14700 30.32100
H  -5.25700 28.00300 31.16100
H  -7.58600 26.85400 32.23800
H  -6.32200 27.84400 32.97100
H  -9.10400 21.44600 26.18700
H  -8.45600 21.87500 27.73300
H  -7.76000 20.48300 26.89800
H  -8.31700 19.82400 24.59200
H  -8.41600 19.95800 22.84600
H  -9.34000 21.09600 23.85600
H  -4.10900 25.06500 21.06100
H  -1.74400 26.62900 21.84100
H  -1.24900 24.16400 21.44800
H  -2.71700 23.56100 20.57400
H  -2.36800 23.11500 22.22700
H  -3.76300 28.38600 22.06800
H  -4.60200 27.08300 21.17200
H  -3.73600 27.78400 19.23000
H  -2.27300 27.18500 19.88900
H  -2.70500 28.96700 20.03500
H  -0.24200 29.79200 24.92900
H  0.13300 30.41500 26.48400
H  -1.31400 31.08200 25.71000
H  -3.69400 28.89200 30.52300
H  -2.44000 26.71800 34.11200
H  -0.90900 27.28200 33.43500
H  -1.91500 25.82100 32.80300

