158

Mg 16.10500 -2.09600 27.72600
C  15.02500 -0.16700 30.30000
C  18.16000 -3.93600 29.91000
C  17.34100 -3.62300 25.15400
C  14.23500 0.00300 25.50500
N  16.73900 -1.84500 29.83900
C  15.90600 -1.20300 30.71800
C  16.27200 -1.53500 32.22200
C  17.41800 -2.55800 32.00400
C  17.47300 -2.80400 30.49400
C  18.78900 -1.89500 32.48100
C  15.14500 -2.06300 33.09200
C  15.15100 -1.49000 34.53900
H  16.39700 -0.95000 35.34100
N  17.34800 -3.70600 27.50000
C  18.02400 -4.35800 28.53900
C  18.56700 -5.57300 28.01900
C  18.39500 -5.45700 26.59400
C  17.73100 -4.26100 26.34800
C  19.22500 -6.71600 28.82800
C  18.68700 -6.57500 25.51400
O  18.40700 -6.40800 24.32600
C  19.26400 -7.85500 25.89000
N  15.90400 -1.74700 25.59400
C  16.62200 -2.47100 24.72900
C  16.57700 -1.89500 23.26400
C  15.35900 -0.93400 23.40100
C  15.12900 -0.88900 24.94900
C  17.88300 -1.28100 22.67800
C  14.08900 -1.45700 22.76200
C  13.44000 -0.48400 21.86400
N  14.79700 -0.40700 27.80700
C  14.10100 0.26700 26.84200
C  13.28200 1.31000 27.48600
C  13.58900 1.16300 28.82000
C  14.57400 0.14000 28.96200
C  12.47100 2.30700 26.86500
C  13.30800 1.69500 30.20000
O  12.50000 2.54200 30.57900
C  14.21200 0.76700 31.19100
C  15.11300 1.65400 31.93800
O  16.20600 2.12400 31.56000
O  14.44900 2.16800 32.99500
C  14.99400 3.39000 33.57800
H  18.91500 -4.41000 30.54000
H  17.72500 -4.13700 24.27000
H  13.58100 0.52400 24.80300
H  16.72900 -0.63800 32.64000
H  17.27000 -3.45700 32.60200
H  18.76600 -0.80600 32.44600
H  19.59900 -2.34200 31.90500
H  18.81200 -2.13200 33.54500
H  15.03400 -3.14600 33.14300
H  14.21200 -1.61900 32.74700
H  14.57400 -2.19200 35.14100
H  14.51000 -0.61000 34.48500
H  18.58300 -7.59500 28.90000
H  19.47300 -6.46800 29.86000
H  20.25500 -6.91500 28.53300
H  18.61300 -8.37800 26.59100
H  20.29000 -7.75600 26.24600
H  19.23200 -8.49000 25.00400
H  16.27600 -2.69500 22.58700
H  15.66000 0.03200 22.99500
H  18.48700 -1.58000 23.53500
H  17.82100 -0.22400 22.42000
H  18.12800 -1.93800 21.84400
H  13.43400 -1.86600 23.53100
H  14.34600 -2.22500 22.03400
H  13.83000 0.52700 21.98300
H  12.36800 -0.39200 22.04200
H  13.53000 -0.78000 20.81900
H  11.83600 2.86900 27.55000
H  11.65600 1.89600 26.26900
H  13.08400 2.99200 26.28000
H  13.66200 0.36300 32.04100
H  15.63200 3.96900 32.91000
H  15.56700 3.16700 34.47900
H  14.11200 3.92300 33.93200
Mg 9.97900 47.62400 25.97000
C  8.23900 47.90500 28.96900
C  12.65500 49.17600 27.56200
C  11.71000 47.58000 23.09500
C  7.06800 46.63600 24.40600
N  10.25400 48.59900 28.00400
C  9.48600 48.45500 29.07400
C  10.12500 48.98400 30.41800
C  11.37600 49.74700 29.82200
C  11.45700 49.12700 28.38400
C  11.11600 51.27900 29.79100
C  10.57700 47.84100 31.40600
C  9.96500 47.87200 32.82200
H  10.19100 46.62000 33.76000
N  11.90900 48.18100 25.44700
C  12.86100 48.76800 26.25700
C  14.12800 48.83600 25.56700
C  13.94900 48.37700 24.23100
C  12.44700 48.01200 24.21700
C  15.28400 49.50900 26.25500
C  14.90900 48.13500 23.14100
O  14.69900 47.58800 22.04400
C  16.27500 48.61100 23.36100
N  9.42300 47.39400 24.05000
C  10.37200 47.28500 22.95300
C  9.69400 46.85200 21.69000
C  8.40700 46.33500 22.22100
C  8.23200 46.87300 23.63800
C  9.53700 47.82700 20.43400
C  8.21900 44.81400 21.96200
C  9.18600 44.08400 22.90600
N  8.00100 47.50700 26.44900
C  6.93700 46.99300 25.78800
C  5.73800 46.98800 26.61700
C  6.28400 47.26400 27.87800
C  7.64500 47.58700 27.77000
C  4.37700 46.62700 26.22400
C  5.90800 47.29700 29.28200
O  4.82000 47.11800 29.77000
C  7.17700 47.67300 30.06500
C  7.45400 46.41500 30.83800
O  8.03800 45.41500 30.41600
O  6.93400 46.43200 32.17500
C  7.11500 45.17800 32.95200
H  13.47200 49.49900 28.21000
H  12.34800 47.69000 22.21500
H  6.29400 46.07400 23.87800
H  9.45600 49.68000 30.92300
H  12.19600 49.54500 30.51100
H  11.89200 51.79800 30.35400
H  10.19000 51.50100 30.32200
H  11.13600 51.55100 28.73600
H  11.65700 47.82800 31.55100
H  10.22100 46.89400 31.00200
H  8.90100 48.07600 32.70100
H  10.31900 48.81900 33.22800
H  15.90900 49.92300 25.46300
H  15.77600 48.96900 27.06400
H  15.10500 50.43600 26.79900
H  16.69500 48.15400 24.25600
H  16.25900 49.69800 23.29000
H  17.02200 48.33500 22.61700
H  10.31400 46.00600 21.39500
H  7.58000 46.71500 21.62200
H  9.95300 48.78300 20.75000
H  8.49400 47.88700 20.12300
H  10.11600 47.41400 19.60800
H  8.36200 44.59400 20.90400
H  7.19300 44.58100 22.24600
H  8.62400 43.73100 23.77000
H  10.03700 44.62500 23.31800
H  9.46500 43.19000 22.34800
H  3.97800 47.44900 25.63000
H  3.75700 46.40600 27.09300
H  4.34500 45.79900 25.51700
H  7.00200 48.45200 30.80700
H  7.51400 45.36300 33.95000
H  7.78400 44.47900 32.45100
H  6.18300 44.63400 33.10300

