158

Mg 39.49300 9.38400 29.32800
C  41.31200 10.59100 31.90300
C  37.62100 7.50600 31.60600
C  37.94400 7.94100 26.74000
C  41.97800 10.51800 27.03300
N  39.34800 9.16200 31.43900
C  40.21700 9.86400 32.31100
C  39.79300 9.73000 33.71900
C  38.75400 8.50400 33.70400
C  38.54500 8.34100 32.17200
C  39.28700 7.16200 34.31900
C  39.19300 11.07600 34.22900
C  39.15000 11.10800 35.70900
H  39.60100 12.41100 36.35700
N  37.88400 8.04000 29.21000
C  37.18000 7.37400 30.22400
C  36.10000 6.59100 29.61500
C  36.15900 6.78200 28.19900
C  37.37100 7.61700 28.00000
C  35.16000 5.86900 30.61800
C  35.27000 6.13200 27.07300
O  35.49700 6.41400 25.87500
C  34.22000 5.16000 27.46200
N  39.98400 9.22600 27.18900
C  39.09400 8.61700 26.38700
C  39.44600 8.85400 24.94400
C  40.74900 9.71400 25.00800
C  41.00100 9.81200 26.49300
C  39.67900 7.63300 24.05300
C  40.61300 11.09600 24.27900
C  39.63300 12.11700 24.80900
N  41.29100 10.31500 29.44200
C  42.15600 10.68900 28.42200
C  43.26000 11.33200 29.10000
C  43.01300 11.30200 30.45900
C  41.75800 10.66900 30.60400
C  44.48000 11.91200 28.35400
C  43.46500 11.75500 31.75300
O  44.52000 12.33000 31.99100
C  42.40700 11.40200 32.78000
C  43.07800 10.45500 33.77500
O  43.82300 9.53800 33.56500
O  42.79100 10.85400 35.03300
C  43.09100 10.04500 36.23200
H  37.04900 6.92100 32.33000
H  37.46800 7.50100 25.86100
H  42.68300 10.99500 26.34800
H  40.67100 9.60500 34.35200
H  37.78600 8.75100 34.14000
H  40.27100 7.37100 34.73900
H  39.42500 6.43200 33.52200
H  38.64500 6.77700 35.11100
H  38.21300 11.07600 33.75200
H  39.57500 11.98200 33.75600
H  39.67100 10.25900 36.15200
H  38.09900 11.11400 36.00000
H  35.38700 5.92500 31.68200
H  35.07900 4.81900 30.33400
H  34.16800 6.30700 30.51000
H  33.67500 5.55500 28.31900
H  34.77400 4.25200 27.70400
H  33.60400 5.04000 26.57100
H  38.58200 9.37900 24.53500
H  41.54500 9.20800 24.46100
H  38.88700 7.44600 23.32800
H  39.71200 6.72900 24.66100
H  40.59500 7.60300 23.46300
H  40.28400 10.93100 23.25300
H  41.53700 11.67000 24.20700
H  39.24200 11.92800 25.80900
H  38.75000 12.02000 24.17700
H  40.03200 13.12900 24.88600
H  44.21100 12.15200 27.32600
H  45.33800 11.25700 28.50100
H  44.74800 12.78500 28.95000
H  41.98200 12.30700 33.21400
H  42.94300 9.00300 35.95000
H  42.51400 10.26600 37.13000
H  44.16900 10.12600 36.36800
Mg 6.57800 54.28300 42.18700
C  6.00300 50.81000 41.58700
C  9.57000 53.86200 40.57500
C  6.52800 57.55300 41.71500
C  3.25200 54.42000 43.24500
N  7.51000 52.54600 41.07300
C  7.18000 51.22200 40.99600
C  8.29100 50.37100 40.45200
C  9.56500 51.32000 40.64800
C  8.85000 52.69800 40.86500
C  10.60400 50.97400 41.62800
C  8.04700 49.86100 39.04700
C  7.30400 50.70900 38.06600
H  6.82200 50.19800 36.79500
N  7.95900 55.58100 41.38600
C  9.17900 55.21300 40.87900
C  9.95500 56.42600 40.76000
C  9.08100 57.52400 40.95100
C  7.74700 56.95100 41.30600
C  11.45600 56.46800 40.57800
C  9.38900 58.96200 40.73500
O  10.54700 59.30400 40.36100
C  8.43700 60.02600 40.81300
N  5.09000 55.73900 42.47500
C  5.30500 57.00500 42.19000
C  4.05900 57.91900 42.55500
C  2.98300 56.91300 42.77700
C  3.79600 55.58100 42.89100
C  4.38500 58.94600 43.69400
C  1.81200 56.76700 41.73800
C  0.49400 57.06000 42.34000
N  5.02600 52.92500 42.52500
C  3.80500 53.11300 43.16400
C  3.17400 51.90100 43.58700
C  3.99500 50.95400 42.87700
C  5.02400 51.61300 42.21400
C  2.02400 51.69000 44.53400
C  4.20500 49.57500 42.70500
O  3.56700 48.65800 43.13500
C  5.47400 49.37800 41.76700
C  5.11500 48.63200 40.48600
O  4.30800 48.99500 39.67700
O  5.79700 47.48800 40.32200
C  5.27300 46.53100 39.35700
H  10.61400 53.69500 40.30300
H  6.46200 58.64300 41.74600
H  2.24600 54.36700 43.66700
H  8.35300 49.51000 41.11700
H  10.06200 51.49700 39.69500
H  10.40400 49.99900 42.07300
H  10.56800 51.73800 42.40500
H  11.60600 50.92600 41.20100
H  7.78500 48.80300 39.07700
H  9.05600 49.77800 38.64300
H  7.95000 51.57800 37.93600
H  6.41200 51.10600 38.55000
H  11.65000 57.05500 39.68100
H  11.95200 55.51600 40.38700
H  11.97100 57.00000 41.37700
H  7.55600 59.83500 40.20200
H  8.87600 60.98200 40.52900
H  8.08800 60.04300 41.84600
H  3.71100 58.53200 41.72400
H  2.63200 57.14600 43.78200
H  5.44100 59.02600 43.95200
H  3.83100 58.59300 44.56400
H  3.99400 59.94200 43.48500
H  1.82100 55.80300 41.22900
H  2.10100 57.48800 40.97200
H  0.27500 56.41600 43.19200
H  -0.22600 56.79000 41.56700
H  0.49300 58.08900 42.70000
H  1.87600 52.53900 45.20100
H  2.17200 50.77100 45.10200
H  1.13300 51.67700 43.90600
H  6.19500 48.78000 42.32500
H  5.76000 45.57200 39.53200
H  5.38900 46.90000 38.33800
H  4.23500 46.31500 39.61000

