158

Mg 9.03400 3.68300 27.15000
C  10.52000 2.19700 30.13100
C  7.00600 5.44000 29.16800
C  7.63500 4.83300 24.36800
C  10.75300 1.21600 25.25900
N  8.68200 3.65900 29.40900
C  9.47400 3.11600 30.42000
C  9.06800 3.61800 31.78600
C  7.86800 4.55400 31.42600
C  7.80300 4.53200 29.88000
C  6.47200 4.25500 32.09900
C  10.19500 4.42000 32.44800
C  9.92000 4.69000 33.90500
H  10.98000 4.30100 35.00500
N  7.56400 4.97500 26.78300
C  6.78100 5.61300 27.82000
C  5.95800 6.57900 27.10600
C  6.13400 6.48000 25.73700
C  7.11600 5.35900 25.56800
C  4.93700 7.45200 27.88900
C  5.51800 7.28800 24.66300
O  5.77600 7.14100 23.46300
C  4.48300 8.33500 25.07000
N  9.26900 3.17700 25.05000
C  8.57500 3.82600 24.13300
C  8.96300 3.31600 22.75200
C  10.08400 2.20500 23.02400
C  10.12000 2.20600 24.49000
C  7.66800 2.70800 22.03000
C  11.47500 2.41100 22.37000
C  12.63400 3.02300 23.10500
N  10.29800 2.09800 27.58100
C  10.89900 1.16500 26.67800
C  11.67100 0.19500 27.44600
C  11.58800 0.61600 28.75900
C  10.72900 1.72000 28.79500
C  12.27200 -1.06500 26.83100
C  12.04300 0.36100 30.06100
O  12.84300 -0.51400 30.43600
C  11.34900 1.37500 30.99100
C  10.68700 0.68000 32.11000
O  9.67100 -0.03400 31.97400
O  11.18500 1.14300 33.27300
C  10.68300 0.49600 34.51000
H  6.45400 6.05500 29.88200
H  7.27000 5.07500 23.36800
H  11.29800 0.46200 24.68800
H  8.87100 2.79700 32.47500
H  8.12300 5.56300 31.74800
H  6.70700 3.92700 33.11200
H  5.91700 3.43100 31.65200
H  5.69500 5.02000 32.10600
H  10.31600 5.36700 31.92300
H  11.11300 3.83300 32.46800
H  8.98000 4.18800 34.13400
H  9.68000 5.75300 33.91000
H  5.26200 8.48800 27.79000
H  4.99800 7.18700 28.94500
H  3.90500 7.26400 27.59100
H  3.52800 7.86600 25.30800
H  4.38700 8.99800 24.21000
H  4.96800 8.98500 25.79900
H  9.36300 4.18500 22.22900
H  9.68600 1.28600 22.59400
H  6.86400 2.77600 22.76300
H  7.68800 1.63400 21.84400
H  7.43800 3.19200 21.08100
H  11.37600 3.18000 21.60400
H  11.80600 1.45600 21.96200
H  13.59100 2.78500 22.64000
H  12.62200 2.57200 24.09700
H  12.47600 4.10100 23.13000
H  13.33600 -0.92800 26.63600
H  11.72200 -1.50200 25.99700
H  12.18500 -1.86400 27.56800
H  12.16300 1.93800 31.44800
H  9.84300 -0.19100 34.40200
H  10.65900 1.30700 35.23700
H  11.49800 -0.15300 34.83000
Mg -1.15200 35.28900 26.66700
C  -3.01700 33.60600 29.14700
C  -0.01900 37.43600 28.96600
C  0.36700 36.92900 24.06400
C  -2.59900 33.11100 24.17800
N  -1.45500 35.44800 28.82700
C  -2.23000 34.62200 29.61200
C  -2.15900 35.17200 31.07500
C  -1.33900 36.46900 30.98400
C  -0.85300 36.38500 29.47600
C  -2.21100 37.67600 31.42000
C  -1.44400 33.96500 31.87600
C  -2.18600 33.47700 33.13200
H  -1.34800 33.21600 34.41600
N  -0.01700 37.00800 26.48000
C  0.42800 37.71000 27.59800
C  1.24200 38.85000 27.13600
C  1.27600 38.74200 25.69600
C  0.51700 37.52600 25.33100
C  1.86400 39.80500 28.10900
C  1.78400 39.70700 24.64700
O  1.66600 39.51400 23.46400
C  2.55000 40.97300 25.12100
N  -1.01900 34.98400 24.43000
C  -0.32800 35.83600 23.62200
C  -0.32000 35.37800 22.16700
C  -1.29300 34.13000 22.16500
C  -1.64300 34.02400 23.67200
C  -0.66600 36.50300 21.17400
C  -0.73600 32.78100 21.65800
C  0.35400 32.18200 22.48800
N  -2.46200 33.72400 26.62400
C  -3.00600 32.97800 25.57200
C  -3.94400 31.97900 26.13000
C  -3.91600 32.17700 27.47800
C  -3.04000 33.24700 27.77600
C  -4.69600 30.85500 25.40900
C  -4.42900 31.69400 28.78200
O  -5.29100 30.81900 28.99300
C  -3.83200 32.52900 29.86300
C  -4.84200 33.24300 30.65000
O  -5.32000 34.33800 30.36600
O  -5.14500 32.51500 31.79200
C  -6.40200 32.88300 32.57500
H  0.33700 38.00200 29.83000
H  1.01900 37.33400 23.28600
H  -3.06300 32.54500 23.36800
H  -3.13500 35.37200 31.51700
H  -0.44900 36.32500 31.59700
H  -3.20200 37.47800 31.82900
H  -2.35900 38.25300 30.50800
H  -1.62700 38.29100 32.10400
H  -0.44700 34.22300 32.23400
H  -1.15500 33.16200 31.19900
H  -2.45800 32.43400 32.97000
H  -3.07000 34.08100 33.33900
H  2.94100 39.73600 27.96200
H  1.65600 39.63500 29.16500
H  1.58700 40.82900 27.86100
H  1.97600 41.70300 25.69100
H  2.85100 41.52300 24.22900
H  3.41200 40.67300 25.71500
H  0.68600 35.06800 21.88600
H  -2.23800 34.31500 21.65500
H  -1.13800 37.33500 21.69700
H  -1.26700 36.14100 20.33900
H  0.23000 36.86500 20.67100
H  -0.31100 32.94300 20.66800
H  -1.57900 32.09100 21.62500
H  -0.17600 31.38200 23.00500
H  0.85500 32.84300 23.19600
H  1.11900 31.75700 21.83800
H  -5.00800 30.02300 26.04100
H  -4.09500 30.42900 24.60500
H  -5.62700 31.30900 25.07000
H  -3.24600 31.91900 30.55100
H  -6.20400 33.20900 33.59600
H  -6.91900 31.92500 32.64700
H  -7.01200 33.56300 31.98100

