158

Mg 17.76700 -1.59600 27.99600
C  16.69600 0.25100 30.66300
C  19.86300 -3.32000 30.17600
C  19.33800 -2.93500 25.32800
C  15.80500 0.52200 26.01100
N  18.16500 -1.53400 30.17400
C  17.62200 -0.71500 31.04800
C  18.11100 -0.94000 32.47800
C  19.37700 -1.85700 32.23600
C  19.10300 -2.28600 30.78200
C  20.68000 -1.11500 32.40800
C  17.01200 -1.56700 33.35700
C  17.03400 -1.21900 34.89700
H  18.20200 -0.45100 35.49000
N  19.25700 -2.98700 27.71600
C  19.89800 -3.62500 28.77800
C  20.63400 -4.73600 28.28800
C  20.59400 -4.62000 26.87800
C  19.74300 -3.49900 26.52600
C  21.24500 -5.68800 29.23000
C  21.26600 -5.62200 25.90700
O  21.23600 -5.38900 24.70400
C  22.02500 -6.90700 26.30900
N  17.66500 -1.11900 25.92100
C  18.39700 -1.97100 25.05700
C  18.07600 -1.45100 23.65500
C  16.76900 -0.54000 23.86500
C  16.67300 -0.38200 25.35600
C  19.36200 -0.82600 22.98600
C  15.46700 -0.93300 23.12600
C  14.59000 0.19400 22.44100
N  16.37000 -0.08300 28.21900
C  15.67000 0.68500 27.35700
C  14.88800 1.68400 28.05000
C  15.20800 1.50000 29.36600
C  16.17300 0.50700 29.36500
C  13.88600 2.58700 27.43600
C  14.94200 1.92800 30.64700
O  14.14600 2.77600 30.99000
C  15.91400 1.23600 31.60100
C  16.72800 2.25000 32.33800
O  17.58900 2.91800 31.78800
O  16.33400 2.28000 33.63200
C  16.98700 3.32500 34.43300
H  20.57900 -3.78900 30.85500
H  19.81800 -3.36400 24.44600
H  15.14500 1.02000 25.29700
H  18.34100 0.04200 32.89100
H  19.38100 -2.66700 32.96600
H  21.23700 -1.67200 33.16100
H  20.48400 -0.12900 32.82900
H  21.25500 -1.13400 31.48200
H  16.97300 -2.64800 33.22300
H  16.05800 -1.36100 32.87200
H  16.99900 -2.13400 35.48800
H  16.13100 -0.63900 35.09200
H  20.73700 -5.66100 30.19400
H  22.33200 -5.61300 29.26900
H  21.12900 -6.67700 28.78700
H  21.27900 -7.63400 26.63200
H  22.75900 -6.64200 27.07000
H  22.54700 -7.39600 25.48700
H  17.82400 -2.32300 23.05200
H  16.99800 0.48900 23.58800
H  20.06200 -0.69400 23.81100
H  19.05700 0.14500 22.59400
H  19.80300 -1.40600 22.17600
H  14.75100 -1.37000 23.82200
H  15.76200 -1.73500 22.45000
H  13.57600 0.07700 22.82300
H  14.53400 0.02500 21.36500
H  15.03400 1.18200 22.56300
H  13.49400 3.26000 28.19900
H  13.01600 2.09900 26.99800
H  14.41500 3.04300 26.59900
H  15.23300 0.74800 32.29800
H  16.78000 3.26000 35.50100
H  16.62400 4.31500 34.15600
H  18.07600 3.33100 34.47100
Mg 26.30300 49.97300 25.54000
C  24.48800 51.30300 28.25800
C  28.70900 48.78500 27.74700
C  27.93900 48.68200 22.93300
C  24.04800 51.63700 23.38100
N  26.56400 50.02900 27.78000
C  25.65600 50.61800 28.63700
C  26.19500 50.44400 30.01300
C  27.67000 49.95800 29.87600
C  27.66800 49.55500 28.40300
C  28.67900 51.10600 30.09500
C  25.26200 49.46800 30.83200
C  24.63400 50.14000 32.08900
H  25.52900 50.44800 33.35200
N  27.98500 48.78500 25.36700
C  28.76600 48.40900 26.34500
C  29.93500 47.76500 25.69700
C  29.60900 47.51300 24.38000
C  28.41900 48.32300 24.16000
C  31.27800 47.36000 26.40600
C  30.41400 46.76100 23.30000
O  30.04300 46.51200 22.18200
C  31.79800 46.13100 23.62800
N  26.05400 50.25200 23.42800
C  26.87000 49.56500 22.53900
C  26.52600 49.88600 21.09300
C  25.22700 50.77700 21.25500
C  25.08100 50.92700 22.79300
C  27.63500 50.50300 20.27600
C  23.90900 50.18400 20.61300
C  23.24800 48.92200 21.17800
N  24.55200 51.20100 25.74800
C  23.80100 51.83500 24.78300
C  22.67000 52.47600 25.45600
C  22.91800 52.36700 26.81400
C  24.06400 51.56200 26.96700
C  21.56800 53.19100 24.75300
C  22.44200 52.78300 28.11100
O  21.49600 53.45300 28.44700
C  23.48800 52.14900 29.06000
C  24.07400 53.27500 29.90900
O  25.07300 53.89100 29.67200
O  23.31600 53.53700 31.02700
C  23.80700 54.54300 32.03000
H  29.52000 48.34700 28.33300
H  28.44900 48.29600 22.04800
H  23.37400 52.11300 22.66600
H  26.21100 51.38400 30.56500
H  27.92800 49.12900 30.53400
H  29.33500 50.78200 30.90300
H  28.22100 52.02800 30.45400
H  29.23200 51.29400 29.17500
H  25.91000 48.68000 31.21500
H  24.54000 48.87300 30.27300
H  23.79500 49.53700 32.43700
H  24.12800 51.03400 31.72300
H  31.35700 47.93900 27.32700
H  32.17100 47.48900 25.79500
H  31.44700 46.31600 26.67000
H  31.99100 45.47200 22.78200
H  31.73900 45.49600 24.51200
H  32.65700 46.79800 23.69800
H  25.98000 49.05500 20.64800
H  25.45800 51.78800 20.92000
H  28.60300 50.43100 20.77200
H  27.34900 51.52600 20.03300
H  27.68700 50.08200 19.27200
H  24.22900 50.03800 19.58200
H  23.25300 51.05200 20.55300
H  23.91500 48.35400 21.82600
H  22.99300 48.28700 20.33000
H  22.29500 49.15300 21.65300
H  21.17800 52.61200 23.91600
H  21.80400 54.16800 24.33100
H  20.76300 53.32500 25.47500
H  22.89600 51.57300 29.77200
H  23.02500 54.83300 32.73200
H  24.12600 55.44300 31.50300
H  24.53600 54.08200 32.69600

