158

Mg 50.07600 45.64300 42.72200
C  46.85600 46.13500 41.18500
C  49.67700 42.25700 41.97200
C  53.31600 45.22800 43.29200
C  50.37600 49.01000 43.16100
N  48.38700 44.44500 41.66800
C  47.22600 44.83000 41.18100
C  46.51300 43.65400 40.50300
C  47.18500 42.42700 41.23200
C  48.53600 43.05000 41.67300
C  46.49400 41.70500 42.41800
C  46.60200 43.64300 38.98100
C  45.45300 43.08400 38.18200
H  45.85100 42.17300 36.96400
N  51.32600 43.94800 42.76200
C  50.98900 42.65600 42.34100
C  52.14400 41.81200 42.44100
C  53.25400 42.64000 42.91200
C  52.67300 43.98200 43.02200
C  52.22800 40.37600 42.10400
C  54.65200 42.20300 43.32900
O  54.93800 41.03100 43.19800
C  55.68800 43.17700 43.97300
N  51.67200 46.92900 43.02000
C  52.89300 46.52900 43.35600
C  53.82500 47.68800 43.53300
C  52.90300 48.93900 43.61500
C  51.55700 48.23700 43.25200
C  54.77100 47.57900 44.69500
C  53.23200 50.10200 42.59100
C  53.12900 51.50600 43.00000
N  48.82000 47.25400 42.43100
C  49.12900 48.55200 42.65000
C  47.95400 49.39600 42.18000
C  47.07500 48.46100 41.65400
C  47.67300 47.22600 41.79000
C  47.76900 50.99100 42.42500
C  45.75500 48.31900 41.05300
O  44.89700 49.21600 40.87100
C  45.65900 46.80100 40.62700
C  44.33900 46.21500 41.03400
O  43.58100 45.71100 40.19700
O  43.98800 46.50900 42.30300
C  42.69100 46.06300 42.73400
H  49.55400 41.19400 41.75500
H  54.38800 45.01800 43.32000
H  50.41700 50.08000 43.37600
H  45.45300 43.70000 40.75400
H  47.37500 41.62100 40.52200
H  47.13800 41.73000 43.29600
H  46.18500 40.68400 42.19300
H  45.61800 42.29900 42.68000
H  47.50600 43.12900 38.65200
H  46.71700 44.67300 38.64300
H  44.84800 43.79200 37.61600
H  44.74700 42.55900 38.82600
H  53.08800 40.36700 41.43400
H  51.42000 40.04100 41.45400
H  52.29300 39.72400 42.97600
H  56.10200 43.89200 43.26200
H  56.55100 42.57800 44.26500
H  55.43500 43.79600 44.83400
H  54.39000 47.70300 42.60100
H  52.85400 49.36300 44.61800
H  54.55800 46.71900 45.33000
H  54.91000 48.41600 45.38000
H  55.75400 47.43600 44.24800
H  52.47600 49.88200 41.83700
H  54.15400 49.97800 42.02300
H  52.58700 52.10300 42.26700
H  54.04800 52.08100 43.11600
H  52.56600 51.52700 43.93400
H  46.77100 51.19300 42.03500
H  48.59600 51.55700 41.99600
H  47.81600 51.17900 43.49800
H  45.71500 46.66800 39.54700
H  42.57300 45.00300 42.51000
H  41.84200 46.62600 42.34700
H  42.72800 46.20500 43.81500
Mg 27.28000 50.99900 26.87800
C  25.31400 51.95800 29.65300
C  29.80600 50.16700 29.19900
C  29.43200 50.73700 24.37800
C  24.80000 52.34300 24.77600
N  27.53100 51.01700 29.13100
C  26.55300 51.42800 30.02300
C  26.95800 51.11100 31.41500
C  28.47700 50.66200 31.29200
C  28.62200 50.61100 29.76200
C  29.48900 51.67000 31.93400
C  25.97500 50.03000 32.09800
C  25.07600 50.36500 33.21000
H  25.31400 49.66500 34.58300
N  29.29800 50.27600 26.75300
C  30.12300 50.03700 27.79200
C  31.39400 49.49100 27.23200
C  31.29300 49.66700 25.80400
C  29.94900 50.23700 25.59100
C  32.46900 48.97800 28.01700
C  32.24800 49.41300 24.79200
O  32.07900 49.62100 23.58200
C  33.52400 48.76200 25.07600
N  27.27900 51.86900 24.83800
C  28.18300 51.34700 23.98600
C  27.70700 51.41300 22.55600
C  26.16200 51.69800 22.80100
C  26.08000 52.00900 24.28600
C  28.53300 52.48300 21.65400
C  25.17300 50.60400 22.32500
C  24.05700 50.94600 21.33700
N  25.37100 51.93100 27.04600
C  24.46200 52.31100 26.12100
C  23.30600 52.85800 26.84900
C  23.56600 52.72400 28.19300
C  24.84800 52.13000 28.28900
C  22.12700 53.48600 26.17800
C  22.99500 52.83200 29.42500
O  21.88900 53.24100 29.77200
C  24.05800 52.24400 30.46500
C  24.23700 53.18900 31.53200
O  25.18200 54.00100 31.63900
O  23.28300 52.98100 32.53200
C  23.20800 53.99300 33.66300
H  30.61300 49.73700 29.79500
H  29.94500 50.54900 23.43300
H  23.94200 52.50200 24.12000
H  27.01300 52.06000 31.94800
H  28.56400 49.72200 31.83600
H  29.70200 52.47200 31.22600
H  30.35800 51.09900 32.26300
H  29.01400 52.19600 32.76200
H  26.64200 49.23700 32.43500
H  25.42500 49.57900 31.27200
H  24.03300 50.29700 32.90000
H  25.27600 51.38300 33.54300
H  32.41800 49.26900 29.06600
H  33.42900 49.43400 27.77700
H  32.51600 47.91300 27.79200
H  34.26700 48.56700 24.30200
H  33.44200 47.84000 25.65200
H  34.05300 49.50600 25.67100
H  27.85800 50.38900 22.21400
H  25.92800 52.53900 22.14900
H  28.71000 51.90900 20.74400
H  29.49500 52.83600 22.02400
H  27.94000 53.37500 21.45200
H  24.59500 50.24900 23.17700
H  25.69200 49.69100 22.03200
H  24.13500 51.98500 21.01700
H  23.10400 50.80800 21.84700
H  24.05600 50.43200 20.37600
H  22.58600 54.09000 25.39500
H  21.59700 54.05900 26.94000
H  21.40500 52.88600 25.62500
H  23.69700 51.29600 30.86200
H  23.49600 55.03600 33.52600
H  23.81700 53.58800 34.47200
H  22.18700 53.97000 34.04300

