158

Mg 1.15700 8.09500 25.52000
C  1.72500 9.96700 28.45100
C  1.81600 5.19800 27.29800
C  0.95200 6.42300 22.70100
C  0.96900 11.08500 23.69900
N  1.57200 7.68600 27.68600
C  1.71800 8.61100 28.69300
C  1.74100 7.84300 30.11300
C  2.03100 6.37400 29.63400
C  1.81100 6.41800 28.10200
C  3.53400 5.87400 30.00100
C  0.47600 8.11500 31.01100
C  0.69600 8.54600 32.48500
H  2.00700 8.19200 33.17500
N  1.23500 6.10100 25.07700
C  1.47200 5.06400 25.95100
C  1.07700 3.83100 25.32900
C  0.89000 4.11700 23.95100
C  1.04000 5.57800 23.81100
C  0.92000 2.53700 26.00200
C  0.55200 3.15100 22.81200
O  0.25100 3.49800 21.71200
C  0.69900 1.64200 22.98600
N  0.99600 8.67800 23.54100
C  0.84700 7.73700 22.58000
C  0.73100 8.42700 21.15500
C  0.46000 9.91700 21.54500
C  0.91700 9.93300 22.98500
C  2.05600 8.09900 20.34700
C  -1.05300 10.34300 21.31900
C  -1.13400 11.53900 20.42800
N  1.29800 10.14300 25.93800
C  1.16900 11.22200 25.14000
C  1.40000 12.44600 25.88100
C  1.59300 12.02200 27.15000
C  1.48800 10.56700 27.22000
C  1.50700 13.90500 25.41800
C  1.99200 12.45700 28.47200
O  2.29500 13.56000 28.87800
C  1.92900 11.15400 29.36900
C  3.07100 11.07000 30.30800
O  4.06300 10.32700 30.26800
O  2.86900 12.08700 31.23900
C  3.92500 12.13400 32.25800
H  2.04200 4.31600 27.90100
H  0.76100 5.88600 21.77000
H  0.74200 11.95900 23.08500
H  2.61200 8.27600 30.60500
H  1.33100 5.65800 30.06500
H  4.22000 5.69800 29.17300
H  3.31800 5.00900 30.62900
H  4.03900 6.60800 30.62900
H  -0.19900 7.26200 31.08200
H  -0.04500 8.96100 30.56200
H  -0.07500 8.06800 33.08900
H  0.57300 9.62600 32.55600
H  0.72000 2.69800 27.06200
H  1.89200 2.04400 25.98200
H  0.16600 1.90000 25.54000
H  1.50700 1.38500 23.67100
H  0.95900 1.15700 22.04500
H  -0.22300 1.14900 23.29500
H  0.03600 8.08300 20.39000
H  1.18200 10.54600 21.02500
H  1.87700 7.38400 19.54400
H  2.87600 7.68700 20.93600
H  2.39600 8.99100 19.82200
H  -1.41500 10.46500 22.34000
H  -1.56300 9.55500 20.76600
H  -0.17800 11.59400 19.90800
H  -1.42800 12.31700 21.13200
H  -1.88900 11.31100 19.67600
H  2.42400 13.95700 24.83100
H  1.73500 14.58800 26.23500
H  0.63400 14.20600 24.83900
H  0.99900 11.23400 29.93200
H  3.98200 11.18900 32.79700
H  3.78700 12.91400 33.00800
H  4.88100 12.31400 31.76800
Mg -10.31700 17.67600 42.73100
C  -6.85300 17.77000 43.06800
C  -10.26600 21.11300 42.31100
C  -13.62200 17.52300 41.62200
C  -10.20300 14.14300 42.44300
N  -8.77100 19.17200 42.72800
C  -7.38300 18.99800 42.81400
C  -6.66300 20.29400 42.49800
C  -7.82100 21.30600 42.74400
C  -9.07700 20.51700 42.66700
C  -7.69200 21.95000 44.18500
C  -5.85500 20.25600 41.12800
C  -6.71100 19.63000 39.96600
H  -5.98200 19.46600 38.61700
N  -11.87100 19.15400 42.25300
C  -11.55600 20.46500 42.13800
C  -12.75300 21.18400 41.70900
C  -13.75200 20.21500 41.37000
C  -13.12900 18.87300 41.76800
C  -12.74600 22.73900 41.69800
C  -15.08000 20.39300 40.80200
O  -15.59500 21.49600 40.75900
C  -15.97800 19.30900 40.35100
N  -11.58700 16.10600 41.93200
C  -12.93300 16.31500 41.75100
C  -13.64100 15.02700 41.35000
C  -12.67400 13.92600 41.91100
C  -11.39400 14.76300 42.14800
C  -15.12800 14.78900 41.76000
C  -12.43200 12.68200 40.97100
C  -12.22800 11.32700 41.67900
N  -8.88900 16.26700 42.73800
C  -8.99700 14.86900 42.70500
C  -7.68900 14.28900 43.05000
C  -6.79100 15.42300 43.11700
C  -7.61500 16.56200 42.99100
C  -7.31500 12.86100 43.37000
C  -5.39500 15.80900 43.24500
O  -4.38500 15.11900 43.49500
C  -5.39100 17.35600 43.14800
C  -4.76500 17.79800 44.33000
O  -3.76800 18.54100 44.28900
O  -5.22900 17.19900 45.49400
C  -4.29100 17.33100 46.61000
H  -10.17400 22.19800 42.22700
H  -14.64300 17.35700 41.27100
H  -10.06300 13.06100 42.40800
H  -5.93300 20.33200 43.30600
H  -7.81900 22.13200 42.03300
H  -6.84900 21.57500 44.76500
H  -8.57500 21.66300 44.75600
H  -7.57900 23.01700 43.99100
H  -5.00000 19.66000 41.44600
H  -5.50200 21.25900 40.88500
H  -7.67500 20.12700 39.84900
H  -6.79700 18.58100 40.25000
H  -12.14800 23.13900 40.87900
H  -12.56900 23.23400 42.65300
H  -13.68700 23.27100 41.55900
H  -15.48300 18.52700 39.77400
H  -16.76100 19.78100 39.75700
H  -16.48200 18.88000 41.21700
H  -13.56600 14.88100 40.27200
H  -13.01000 13.65900 42.91300
H  -15.74000 15.08600 40.90800
H  -15.42300 15.44100 42.58200
H  -15.34100 13.74700 41.99800
H  -11.59700 12.83000 40.28600
H  -13.27700 12.50400 40.30500
H  -13.14100 10.80300 41.39500
H  -12.15300 11.47300 42.75600
H  -11.36800 10.76900 41.30900
H  -8.16600 12.20100 43.20400
H  -7.03900 12.70200 44.41300
H  -6.48800 12.53900 42.73700
H  -4.74000 17.61800 42.31400
H  -4.65300 16.76600 47.46800
H  -4.19800 18.32600 47.04600
H  -3.32300 16.91300 46.33100

