158

Mg 9.38000 47.35100 25.05500
C  7.11400 47.83900 27.58500
C  11.85300 48.51100 27.13700
C  11.59800 47.20800 22.37900
C  6.80900 46.67700 22.80500
N  9.45900 48.06100 27.16900
C  8.41800 48.13100 28.07100
C  8.93700 48.45300 29.46300
C  10.34200 49.06100 29.20000
C  10.59100 48.43900 27.80100
C  10.51000 50.56300 29.28000
C  9.04400 47.21000 30.38700
C  8.59300 47.57600 31.80800
H  8.91200 46.59900 32.96500
N  11.46400 47.61800 24.84000
C  12.27100 48.02900 25.83800
C  13.66900 48.05400 25.34600
C  13.62600 47.69400 23.98100
C  12.14100 47.53900 23.67600
C  14.88500 48.30400 26.22500
C  14.81500 47.37800 23.01800
O  14.66300 46.82700 21.94200
C  16.23600 47.79100 23.44200
N  9.24100 46.95300 22.96700
C  10.25500 46.94000 22.10500
C  9.87500 46.64500 20.59100
C  8.37700 46.36000 20.80600
C  8.06800 46.56000 22.31100
C  10.32800 47.63000 19.49800
C  8.05100 44.90000 20.43700
C  8.56700 43.78800 21.34700
N  7.35000 47.29700 25.12900
C  6.40400 46.96400 24.12500
C  5.07200 47.02900 24.70100
C  5.30700 47.35400 26.04500
C  6.70400 47.49700 26.26100
C  3.84200 46.80700 24.00000
C  4.68400 47.58700 27.26700
O  3.48500 47.48400 27.54400
C  5.83800 47.96500 28.29600
C  5.70500 46.87700 29.31300
O  5.98200 45.69800 29.17700
O  5.14100 47.43600 30.43800
C  4.64000 46.45600 31.36000
H  12.65400 48.94600 27.73800
H  12.17900 47.08400 21.46300
H  6.10300 46.47600 21.99700
H  8.37100 49.32300 29.79500
H  11.18300 48.60900 29.72600
H  10.24900 50.92600 28.28600
H  11.56100 50.71300 29.52900
H  9.76000 50.94900 29.97100
H  10.02400 46.74900 30.50600
H  8.45600 46.35000 30.06800
H  7.51000 47.61700 31.69200
H  8.84600 48.62700 31.94200
H  14.51300 48.43400 27.24100
H  15.42200 49.21200 25.95200
H  15.60200 47.50400 26.03700
H  16.79100 47.08700 24.06100
H  16.22700 48.78800 23.88400
H  16.84700 47.88100 22.54400
H  10.39800 45.70200 20.42900
H  7.78400 47.02800 20.18200
H  10.95800 48.31300 20.06800
H  9.47300 48.16800 19.08900
H  10.77500 47.01900 18.71400
H  8.34800 44.72500 19.40300
H  6.97400 44.74000 20.38500
H  9.32700 44.06300 22.07800
H  8.91300 43.01100 20.66500
H  7.75000 43.29400 21.87300
H  4.03600 45.96600 23.33500
H  3.43100 47.72700 23.58500
H  3.02500 46.37200 24.57700
H  5.59300 48.95600 28.67700
H  4.56600 46.88900 32.35800
H  5.23900 45.54600 31.38700
H  3.61200 46.22900 31.07800
Mg -10.53500 39.15200 39.25400
C  -9.99800 35.73800 38.64700
C  -7.06700 39.68400 38.43400
C  -11.13900 42.41800 39.09900
C  -13.92500 38.37400 39.65000
N  -8.81700 37.87900 38.51100
C  -8.90500 36.50700 38.44400
C  -7.48300 35.95900 38.01000
C  -6.50700 37.23500 38.31100
C  -7.54300 38.28700 38.42900
C  -5.80700 37.07900 39.72000
C  -7.40500 35.39400 36.50600
C  -7.68200 36.44500 35.33600
H  -8.70400 36.14400 34.27500
N  -9.27600 40.84400 38.90500
C  -7.92400 40.82600 38.53500
C  -7.48700 42.14300 38.39700
C  -8.62000 42.97100 38.51600
C  -9.74400 42.12200 38.88800
C  -6.12000 42.62500 37.91600
C  -8.65300 44.49800 38.31600
O  -7.61400 45.19500 38.08300
C  -9.96200 45.32400 38.51300
N  -12.31200 40.17700 39.49300
C  -12.22800 41.56800 39.37000
C  -13.63500 42.13000 39.36800
C  -14.56400 40.88600 39.72600
C  -13.52300 39.75000 39.69600
C  -13.86300 43.35100 40.21400
C  -15.78400 40.80100 38.70400
C  -17.09200 40.04700 38.96600
N  -11.75900 37.42900 39.18100
C  -13.10200 37.23100 39.32800
C  -13.59800 35.88100 39.22700
C  -12.36800 35.21400 39.05600
C  -11.30100 36.20800 38.94500
C  -14.99700 35.37100 39.47300
C  -11.71100 33.85300 38.92200
O  -12.09300 32.68300 39.13200
C  -10.27200 34.23800 38.45400
C  -9.25800 33.51100 39.29500
O  -9.07400 33.60500 40.49700
O  -8.43400 32.73700 38.43000
C  -7.27800 32.03700 39.13300
H  -5.99500 39.78300 38.61600
H  -11.42000 43.47100 39.02500
H  -14.96200 38.16800 39.92500
H  -7.17600 35.12200 38.63800
H  -5.84400 37.49700 37.48600
H  -6.03500 37.87800 40.42500
H  -4.72100 37.00200 39.65900
H  -6.20700 36.20800 40.23900
H  -8.03700 34.50700 36.48300
H  -6.39800 34.98000 36.56700
H  -6.66100 36.71800 35.07100
H  -8.00600 37.38100 35.79000
H  -5.45200 41.78600 38.11000
H  -5.85900 43.49300 38.52200
H  -6.02100 42.93100 36.87400
H  -10.26900 45.44000 39.55300
H  -10.67300 44.84000 37.84300
H  -9.69200 46.31400 38.14900
H  -13.88800 42.43800 38.35400
H  -14.91500 40.94200 40.75600
H  -14.73700 43.25100 40.85800
H  -14.04800 44.18200 39.53400
H  -13.02500 43.60700 40.86200
H  -15.31900 40.53000 37.75700
H  -16.17900 41.81700 38.71800
H  -17.38600 39.39100 38.14600
H  -17.92500 40.72800 39.13900
H  -17.00700 39.46900 39.88600
H  -15.23100 34.75800 38.60200
H  -15.77200 36.13000 39.58400
H  -15.04800 34.78700 40.39200
H  -10.28500 33.98600 37.39400
H  -7.48700 30.98000 39.29800
H  -6.95600 32.52100 40.05500
H  -6.33100 32.21900 38.62400

