158

Mg -1.73000 16.61700 25.79700
C  -1.78700 14.59000 28.55700
C  -2.09900 19.35800 28.01900
C  -1.94700 18.73000 23.15600
C  -1.94000 13.77300 23.68900
N  -1.90200 16.87400 28.06000
C  -1.87600 15.87100 28.98800
C  -2.08300 16.42900 30.40500
C  -2.19600 17.96800 30.13600
C  -2.10100 18.03400 28.58700
C  -3.43400 18.68800 30.76000
C  -0.96200 15.96200 31.37400
C  -0.40000 16.99400 32.42300
H  -0.25100 16.37000 33.87900
N  -1.77800 18.72900 25.67400
C  -1.96700 19.68700 26.70100
C  -1.88400 21.05300 26.04600
C  -1.84800 20.82300 24.64600
C  -1.81200 19.37500 24.43800
C  -1.78300 22.31400 26.85400
C  -1.57800 21.77900 23.49800
O  -1.54300 21.50300 22.27900
C  -1.41300 23.20400 23.84800
N  -2.12600 16.38400 23.78400
C  -2.09200 17.34100 22.88200
C  -2.28000 16.74600 21.43700
C  -2.06300 15.21300 21.63200
C  -2.01800 15.10100 23.14600
C  -3.64300 17.21600 20.81000
C  -0.77400 14.63100 21.03700
C  -0.80200 13.24600 20.38900
N  -1.84300 14.58500 25.98300
C  -1.91500 13.57800 25.03800
C  -1.90100 12.31700 25.75200
C  -1.87800 12.64200 27.10700
C  -1.78400 14.04600 27.23000
C  -1.98500 10.94500 25.15600
C  -2.00700 12.03700 28.42500
O  -2.11500 10.87100 28.77000
C  -1.79200 13.28000 29.44900
C  -0.42700 12.93700 30.04400
O  0.66100 13.39600 29.65900
O  -0.63900 12.02800 30.98800
C  0.42000 11.61600 31.83400
H  -1.95600 20.11400 28.79400
H  -1.92200 19.36100 22.26600
H  -1.89700 12.95500 22.96800
H  -3.07100 16.09300 30.71900
H  -1.31000 18.52200 30.44500
H  -4.02600 19.16600 29.97900
H  -3.04000 19.33500 31.54300
H  -4.10200 17.99500 31.27200
H  -0.09100 15.69300 30.77600
H  -1.35300 15.14100 31.97300
H  -0.99800 17.90500 32.47600
H  0.59800 17.25400 32.07000
H  -0.80100 22.78400 26.90800
H  -2.11400 22.08000 27.86600
H  -2.50300 23.05000 26.49400
H  -0.58200 23.26000 24.55100
H  -2.34000 23.68600 24.15700
H  -1.13800 23.82300 22.99400
H  -1.50400 17.13100 20.77600
H  -2.95200 14.60600 21.45900
H  -4.09000 17.96700 21.46200
H  -4.43100 16.46500 20.86500
H  -3.34300 17.63200 19.84800
H  -0.08100 14.59500 21.87700
H  -0.65000 15.38600 20.26000
H  -0.78500 13.19700 19.30000
H  -1.64500 12.62400 20.69200
H  0.00200 12.60200 20.74700
H  -2.86800 10.95600 24.51600
H  -2.06500 10.17300 25.92200
H  -1.05900 10.82400 24.59400
H  -2.54600 13.42300 30.22300
H  0.10300 11.63400 32.87700
H  1.35200 12.12600 31.59200
H  0.64300 10.56200 31.66400
Mg -10.00200 39.15000 42.09900
C  -8.69100 35.96800 41.01400
C  -7.00700 40.43500 40.70400
C  -11.29300 42.17400 42.38400
C  -13.04400 37.58700 42.75700
N  -8.06200 38.28300 40.91800
C  -7.75400 36.95600 40.71700
C  -6.42500 36.73100 39.99300
C  -5.87200 38.23900 40.00600
C  -7.02200 39.07200 40.57000
C  -4.49500 38.52500 40.64300
C  -6.52300 36.03800 38.60200
C  -5.45300 34.95000 38.27700
H  -4.50400 35.13900 37.01700
N  -9.26000 40.98900 41.69100
C  -7.99700 41.31500 41.19500
C  -7.89300 42.80200 41.14700
C  -9.14000 43.30300 41.60200
C  -9.95800 42.13400 41.98400
C  -6.73000 43.55900 40.55700
C  -9.52200 44.82900 41.71500
O  -8.62900 45.63600 41.39600
C  -10.86300 45.48300 42.16200
N  -11.89500 39.78800 42.61300
C  -12.16500 41.09800 42.75600
C  -13.61300 41.37100 43.13000
C  -14.18600 39.87000 43.29200
C  -13.01600 39.02700 42.78400
C  -13.88500 42.23500 44.33000
C  -15.48200 39.56400 42.53100
C  -16.76200 40.35000 43.04900
N  -10.76600 37.19600 42.00900
C  -12.07700 36.69100 42.28200
C  -12.02600 35.26400 42.15500
C  -10.70600 34.95400 41.69900
C  -10.00100 36.16400 41.56900
C  -13.23000 34.41900 42.47700
C  -9.82400 33.82600 41.35200
O  -10.05500 32.60900 41.31700
C  -8.51100 34.42400 40.88300
C  -7.41600 33.95400 41.73600
O  -7.46000 33.79400 42.97000
O  -6.43400 33.47800 40.91000
C  -5.22900 32.93700 41.54100
H  -6.04100 40.87300 40.44400
H  -11.90500 43.06300 42.55200
H  -13.96100 37.00200 42.85600
H  -5.83200 36.11100 40.66600
H  -5.86500 38.57300 38.96900
H  -4.54800 39.40800 41.28000
H  -3.75000 38.61800 39.85300
H  -4.14500 37.62700 41.15200
H  -6.39800 36.77400 37.80700
H  -7.47700 35.55100 38.40100
H  -6.05400 34.04300 38.21600
H  -4.85300 34.78300 39.17100
H  -7.05600 44.29400 39.82100
H  -5.86200 42.95800 40.28800
H  -6.26200 44.12400 41.36300
H  -11.66700 45.66100 41.44800
H  -10.57100 46.49100 42.45700
H  -11.23100 45.01700 43.07600
H  -14.17700 41.77600 42.29000
H  -14.36500 39.56900 44.32500
H  -12.96800 42.38700 44.89900
H  -14.70100 41.80900 44.91400
H  -14.11800 43.18200 43.84400
H  -15.87200 38.54700 42.53100
H  -15.41100 39.80100 41.46900
H  -17.65300 39.75400 42.84900
H  -16.94200 41.36800 42.70300
H  -16.75100 40.40700 44.13700
H  -13.81100 34.34300 41.55800
H  -13.94300 34.74800 43.23300
H  -12.96100 33.39100 42.72100
H  -8.23000 34.29800 39.83800
H  -4.45800 33.69700 41.67000
H  -4.61600 32.24300 40.96600
H  -5.52600 32.47900 42.48400

