158

Mg -1.05200 18.16500 27.45100
C  -1.67500 15.99800 30.18100
C  -1.69600 20.85000 29.57600
C  -0.73900 20.10400 24.87800
C  -1.23400 15.25000 25.40100
N  -1.50000 18.36300 29.74900
C  -1.70900 17.30900 30.65600
C  -1.98000 17.88400 32.05400
C  -2.42300 19.33600 31.68100
C  -1.79100 19.56500 30.25000
C  -3.95600 19.49400 31.82800
C  -0.82900 17.78100 33.09100
C  -1.30000 17.27900 34.46100
H  -0.56100 17.64700 35.67800
N  -1.25500 20.11200 27.26200
C  -1.52300 21.10800 28.20900
C  -1.42900 22.41500 27.62600
C  -1.23200 22.19800 26.24800
C  -1.06500 20.75700 26.06500
C  -1.63400 23.69600 28.36500
C  -1.19700 23.21300 25.12300
O  -1.06100 22.89000 23.95300
C  -1.34200 24.70600 25.37500
N  -1.04900 17.72700 25.39400
C  -0.71100 18.74200 24.51300
C  -0.47000 18.25600 23.10500
C  -0.61300 16.71200 23.22800
C  -0.97400 16.49100 24.76100
C  -1.48300 18.85500 22.05600
C  0.60600 15.82900 22.80700
C  1.75800 15.57900 23.73300
N  -1.29500 16.05500 27.69900
C  -1.27300 15.01000 26.78700
C  -1.46700 13.75200 27.43600
C  -1.63600 14.03800 28.76200
C  -1.53200 15.45700 28.88800
C  -1.42000 12.44500 26.78300
C  -1.86200 13.49200 30.03300
O  -2.12900 12.33800 30.34400
C  -1.91400 14.71000 30.97200
C  -0.92000 14.49000 32.16100
O  0.28000 14.79000 32.10100
O  -1.55400 13.89600 33.28600
C  -0.80100 13.55800 34.44300
H  -1.88000 21.66100 30.28300
H  -0.59900 20.67800 23.95900
H  -1.12100 14.32700 24.82700
H  -2.80700 17.28100 32.43100
H  -1.91300 20.00400 32.37500
H  -4.37400 18.58400 32.26000
H  -4.38000 19.62900 30.83200
H  -4.13500 20.39000 32.42200
H  -0.23000 18.68700 33.18700
H  -0.14400 16.99600 32.77200
H  -1.24700 16.19700 34.58000
H  -2.36300 17.50900 34.52400
H  -0.76300 24.33300 28.21200
H  -1.75900 23.56500 29.43900
H  -2.45500 24.25300 27.91100
H  -2.32400 24.83900 25.83000
H  -1.20400 25.44300 24.58400
H  -0.62500 25.00700 26.14000
H  0.52100 18.56800 22.77600
H  -1.52300 16.45400 22.68600
H  -1.90000 19.84000 22.26600
H  -2.21800 18.12600 21.71300
H  -0.91600 19.08900 21.15500
H  1.00000 16.24100 21.87800
H  0.22100 14.89200 22.40500
H  1.66000 16.24300 24.59100
H  2.71600 15.91600 23.33700
H  1.93900 14.55400 24.05700
H  -0.63700 12.28200 26.04300
H  -2.41000 12.39600 26.33000
H  -1.48500 11.73200 27.60500
H  -2.95500 14.51700 31.22900
H  -0.57800 12.49200 34.48200
H  -1.42800 13.86300 35.28100
H  0.17400 14.03900 34.51000
Mg 48.28100 34.77800 26.96400
C  46.48100 33.43400 29.69500
C  49.00100 37.58600 28.86600
C  49.79400 36.08200 24.28900
C  47.39800 31.94400 25.10000
N  47.86000 35.35400 29.03900
C  47.19300 34.64000 30.02200
C  47.42100 35.24100 31.41200
C  47.92200 36.66800 31.04100
C  48.30900 36.52800 29.54900
C  47.01100 37.80800 31.33000
C  48.49300 34.46400 32.28300
C  48.15000 34.32200 33.74800
H  47.09200 35.32700 34.33700
N  49.22400 36.61900 26.60100
C  49.47500 37.58700 27.52200
C  50.37200 38.54300 26.98100
C  50.63100 38.13600 25.67100
C  49.83600 36.93300 25.44200
C  50.99200 39.78300 27.74800
C  51.45900 38.81700 24.55300
O  51.45100 38.43000 23.42700
C  52.34200 40.00500 24.87700
N  48.48800 34.06900 24.95800
C  49.16400 34.91500 24.08100
C  49.36600 34.19500 22.72100
C  48.70900 32.74800 22.97700
C  48.06700 32.90000 24.40500
C  48.90600 34.95700 21.47500
C  49.65600 31.49600 22.99000
C  49.02800 30.22000 22.50800
N  47.26700 33.00600 27.27300
C  46.98200 31.90100 26.45400
C  46.21700 30.95800 27.16100
C  45.94800 31.53100 28.39500
C  46.61800 32.71900 28.49800
C  45.77800 29.61000 26.66400
C  45.24300 31.27300 29.67000
O  44.57800 30.31600 30.00500
C  45.65200 32.48700 30.65100
C  46.57400 31.86700 31.75300
O  47.64400 31.25900 31.63000
O  45.93100 32.03100 32.90900
C  46.39100 31.04400 34.01600
H  49.28000 38.46300 29.45400
H  50.43600 36.41600 23.47100
H  47.37300 31.02100 24.51700
H  46.48900 35.42100 31.94900
H  48.76900 36.99500 31.64400
H  46.56200 38.25700 30.44400
H  47.67700 38.55200 31.76700
H  46.14400 37.63000 31.96500
H  49.46000 34.96600 32.24100
H  48.71000 33.46500 31.90500
H  49.07500 34.51600 34.29000
H  47.74600 33.34800 34.02300
H  52.07700 39.70700 27.82600
H  50.59600 39.95600 28.74900
H  50.62800 40.62300 27.15600
H  52.78500 40.44200 23.98200
H  53.14300 39.79800 25.58700
H  51.71700 40.80500 25.27300
H  50.45100 34.09500 22.70800
H  47.97700 32.42100 22.23900
H  49.82100 35.16100 20.91800
H  48.32700 35.85700 21.68400
H  48.18700 34.35500 20.91800
H  50.05000 31.36500 23.99800
H  50.57100 31.71300 22.44000
H  49.48000 29.91100 21.56600
H  47.97300 30.32600 22.25200
H  49.03800 29.43600 23.26600
H  46.57800 29.13500 26.09600
H  44.96600 29.81300 25.96500
H  45.48100 29.10600 27.58300
H  44.80400 33.06500 31.01800
H  46.41800 30.00700 33.68100
H  45.87700 31.10000 34.97600
H  47.43100 31.32500 34.17600

