158

Mg 49.38300 47.03300 43.11000
C  45.98300 47.42000 42.53200
C  49.18000 43.94700 41.59400
C  52.73500 46.97800 43.01600
C  49.35800 50.48200 44.08900
N  47.72900 45.85400 42.08300
C  46.40900 46.18900 42.09200
C  45.56400 45.13600 41.47000
C  46.62000 43.90500 41.44300
C  47.91700 44.57000 41.74200
C  46.34300 42.75300 42.44800
C  44.86500 45.41100 40.10400
C  43.75700 44.44800 39.57800
H  44.23000 43.51800 38.50500
N  50.77700 45.60800 42.52200
C  50.46800 44.37400 42.02400
C  51.65200 43.58700 41.93600
C  52.72600 44.41700 42.31500
C  52.10200 45.75800 42.58500
C  51.65200 42.06100 41.57500
C  54.15600 44.05800 42.40300
O  54.50400 42.88200 42.13200
C  55.30500 45.02300 42.68600
N  50.81200 48.56700 43.45500
C  52.14700 48.26600 43.38400
C  52.99100 49.40500 43.84200
C  51.91700 50.54300 44.11200
C  50.58900 49.82500 43.88700
C  53.93100 49.01600 45.09200
C  52.13600 51.81600 43.19600
C  51.54800 53.09400 43.70400
N  47.96400 48.63100 43.42800
C  48.09500 49.94500 43.86100
C  46.77400 50.57400 43.94800
C  45.92700 49.62300 43.43200
C  46.71600 48.45100 43.15000
C  46.55400 52.02300 44.41800
C  44.53600 49.36600 43.06400
O  43.49000 50.04800 43.15600
C  44.55900 47.99800 42.40200
C  43.66200 47.20500 43.25400
O  43.80800 47.00900 44.43300
O  42.82600 46.50800 42.43500
C  42.12900 45.47600 43.14400
H  49.06100 42.90400 41.29600
H  53.79900 47.03200 43.25400
H  49.41200 51.52000 44.42400
H  44.84100 44.84300 42.23100
H  46.71400 43.49000 40.44000
H  45.40900 42.85500 43.00000
H  47.09400 42.57900 43.21800
H  46.15500 41.85300 41.86300
H  45.69600 45.42200 39.39900
H  44.52700 46.44200 40.21300
H  42.96700 45.07000 39.15800
H  43.31800 43.87800 40.39700
H  52.13800 42.06600 40.59900
H  50.64900 41.63800 41.63400
H  52.21300 41.56500 42.36700
H  55.26500 45.39700 43.71000
H  55.28700 45.78800 41.91000
H  56.22200 44.50500 42.40600
H  53.67400 49.69000 43.04200
H  52.09100 50.78600 45.16000
H  54.89800 48.93900 44.59400
H  53.69500 48.10000 45.63300
H  54.08500 49.82200 45.80900
H  51.70600 51.58300 42.22200
H  53.21100 51.96700 43.09800
H  51.15500 53.02200 44.71800
H  50.79100 53.47900 43.02100
H  52.36500 53.80900 43.79600
H  45.52100 52.21400 44.12500
H  47.17800 52.71000 43.84700
H  46.75300 52.04600 45.48900
H  44.07100 48.21500 41.45200
H  41.41700 45.73500 43.92800
H  42.85200 44.73300 43.48000
H  41.54600 45.01600 42.34500
Mg 28.38200 56.99800 41.39700
C  25.75100 54.99800 40.42300
C  30.55200 54.85700 39.62500
C  30.81100 59.39300 41.54900
C  26.06900 59.27900 42.81800
N  28.19300 55.11000 40.14900
C  26.99200 54.53800 39.88300
C  27.08400 53.37800 38.84700
C  28.61400 53.04200 39.11400
C  29.17300 54.44700 39.55800
C  28.82800 51.99000 40.26300
C  26.88900 54.00100 37.45300
C  26.48000 53.06500 36.27300
H  27.04500 53.42500 34.90800
N  30.44300 57.11200 40.76100
C  31.16200 56.07100 40.19100
C  32.56400 56.47700 40.02100
C  32.60300 57.74800 40.51700
C  31.27100 58.13200 40.96400
C  33.59400 55.67000 39.42600
C  33.82000 58.61200 40.56500
O  34.94600 58.14100 40.29200
C  33.83400 60.04300 41.03400
N  28.35200 59.02500 42.07100
C  29.53200 59.71300 42.04600
C  29.26800 61.15600 42.61400
C  27.90000 61.02200 43.39400
C  27.37000 59.69000 42.70900
C  30.40000 61.84000 43.49100
C  26.89100 62.18200 43.35300
C  26.15700 62.54900 44.64500
N  26.30000 57.10100 41.67600
C  25.54200 58.08100 42.26300
C  24.13900 57.62900 42.25800
C  24.16200 56.43400 41.48300
C  25.49500 56.17700 41.15800
C  22.99800 58.08400 43.04000
C  23.35700 55.36700 40.85400
O  22.16400 55.14400 40.87200
C  24.36100 54.34600 40.20600
C  24.31300 53.05600 40.91200
O  24.99000 52.69000 41.89200
O  23.39800 52.20600 40.33900
C  23.49600 50.85900 40.82200
H  31.29700 54.28100 39.07400
H  31.53000 60.21400 41.53300
H  25.40500 60.01300 43.27900
H  26.36200 52.60200 39.10200
H  28.94200 52.58100 38.18200
H  29.29200 52.39600 41.16200
H  29.43700 51.18100 39.85900
H  27.96900 51.49100 40.71400
H  27.82700 54.46100 37.14100
H  26.17900 54.82800 37.45700
H  25.39900 53.16600 36.18000
H  26.54600 52.02200 36.58000
H  33.57900 55.72100 38.33800
H  33.37000 54.62200 39.63000
H  34.58900 55.81100 39.84800
H  33.17800 60.63700 40.39800
H  34.82500 60.48400 40.92500
H  33.64700 59.95600 42.10400
H  29.04900 61.78300 41.75000
H  28.13200 60.80600 44.43700
H  30.45800 62.87900 43.17000
H  31.39800 61.45700 43.27800
H  30.19800 61.94400 44.55700
H  26.11700 61.89300 42.64200
H  27.34400 63.10500 42.99500
H  25.10700 62.30000 44.49300
H  26.11800 63.63800 44.66100
H  26.57600 62.05400 45.52100
H  23.15000 57.92600 44.10800
H  22.06500 57.62700 42.70800
H  22.87100 59.15200 42.86400
H  24.05300 54.25300 39.16500
H  23.18100 50.81000 41.86400
H  24.43800 50.34400 40.63500
H  22.83400 50.33100 40.13600

