158

Mg 0.93700 7.82000 26.21200
C  1.85200 9.81100 28.88500
C  1.20200 5.03500 28.09200
C  0.19100 6.06800 23.36300
C  0.94000 10.68300 24.14700
N  1.46100 7.48400 28.27600
C  1.63900 8.46100 29.23800
C  1.50600 7.87800 30.62600
C  1.70800 6.34600 30.31500
C  1.48600 6.25500 28.76600
C  3.01300 5.69300 30.79500
C  0.15900 8.17500 31.19200
C  0.01300 7.81600 32.65000
H  1.17200 7.67200 33.55600
N  0.84500 5.81800 25.78700
C  0.97900 4.78500 26.68600
C  0.76200 3.50600 26.02300
C  0.42200 3.83500 24.65500
C  0.42700 5.33800 24.54100
C  1.00400 2.21800 26.82100
C  0.04700 2.84500 23.49600
O  -0.21500 3.21200 22.40500
C  0.00900 1.35700 23.80200
N  0.44600 8.34500 24.09600
C  0.21700 7.39200 23.15900
C  0.26700 8.01200 21.80700
C  0.18100 9.50700 22.10900
C  0.56500 9.54100 23.56000
C  1.55600 7.70100 21.02400
C  -1.28800 10.09400 22.05300
C  -1.32400 11.45300 21.20900
N  1.33300 9.84400 26.42100
C  1.28300 10.84500 25.48700
C  1.66300 12.08000 26.11600
C  1.88500 11.75800 27.43700
C  1.66200 10.37500 27.59300
C  1.75300 13.47200 25.58500
C  2.15000 12.21600 28.78400
O  2.45100 13.38400 29.08400
C  2.01800 11.01300 29.82400
C  3.20800 11.03900 30.67600
O  4.28200 10.57100 30.38400
O  3.03600 11.76600 31.87000
C  3.97400 11.64400 33.02400
H  1.20300 4.20800 28.80500
H  -0.12900 5.49800 22.48800
H  1.06500 11.45800 23.38700
H  2.32200 8.19600 31.27500
H  0.98800 5.64800 30.74200
H  2.77900 4.91100 31.51700
H  3.63600 6.40500 31.33700
H  3.54600 5.18100 29.99300
H  -0.58500 7.59300 30.64900
H  -0.11500 9.18600 30.89100
H  -0.56900 6.89600 32.71600
H  -0.65400 8.51200 33.15900
H  0.07300 1.67900 26.99800
H  1.53100 2.39200 27.75900
H  1.60600 1.59400 26.16000
H  -0.57200 1.32200 24.72300
H  1.02800 1.02900 24.00800
H  -0.26200 0.80000 22.90500
H  -0.59900 7.57500 21.31100
H  0.92100 10.00200 21.48100
H  2.17700 6.88800 21.39800
H  2.11300 8.61100 20.80000
H  1.34100 7.39300 20.00100
H  -1.78600 10.29500 23.00200
H  -1.88900 9.37600 21.49300
H  -0.73300 11.54900 20.29800
H  -0.89500 12.30100 21.74500
H  -2.37800 11.65000 21.01500
H  2.08100 14.13600 26.38400
H  0.88600 13.87000 25.05700
H  2.56800 13.55400 24.86500
H  1.10700 11.19300 30.39400
H  3.37400 11.40600 33.90200
H  4.28300 12.67500 33.19100
H  4.81300 10.99300 32.77800
Mg 17.67200 -1.30300 27.29400
C  16.60200 0.71200 30.03000
C  19.86400 -3.01700 29.33900
C  19.14300 -2.55700 24.46700
C  15.81900 0.90400 25.21900
N  18.28800 -1.02800 29.37200
C  17.55700 -0.29700 30.35600
C  17.98100 -0.85600 31.78600
C  19.11100 -1.85100 31.49500
C  19.13700 -1.93100 30.00600
C  20.49200 -1.50000 32.06000
C  16.86500 -1.46700 32.65500
C  16.53000 -0.76900 33.96400
H  17.68800 -0.29200 34.91000
N  19.12400 -2.72000 26.95800
C  19.85600 -3.34100 27.91900
C  20.49900 -4.49600 27.32700
C  20.35000 -4.39500 25.90400
C  19.49600 -3.18700 25.68700
C  20.98100 -5.72100 28.12800
C  20.99900 -5.14000 24.80900
O  20.79700 -4.94000 23.60000
C  21.95200 -6.21600 25.23100
N  17.47200 -0.90000 25.16000
C  18.28000 -1.49000 24.22100
C  18.05000 -0.89400 22.77500
C  16.73800 0.04700 23.02500
C  16.66900 0.00400 24.55500
C  19.32800 -0.14700 22.24400
C  15.42800 -0.39500 22.31400
C  14.89800 0.32700 21.10500
N  16.44100 0.51200 27.51000
C  15.79200 1.20700 26.61000
C  15.03200 2.29600 27.20300
C  15.26300 2.10100 28.57000
C  16.12700 1.01100 28.67200
C  14.14000 3.32700 26.56700
C  14.97400 2.57900 29.95200
O  14.28500 3.54800 30.32400
C  15.88500 1.74200 30.92300
C  16.89500 2.65400 31.71600
O  18.06800 2.78300 31.41400
O  16.46100 3.16400 32.90600
C  17.18500 4.26700 33.45800
H  20.53200 -3.60300 29.97300
H  19.49600 -3.03400 23.55000
H  15.14900 1.41900 24.52800
H  18.19300 0.11200 32.24000
H  18.78600 -2.87800 31.66300
H  20.96600 -2.37300 32.50900
H  20.30600 -0.92600 32.96700
H  21.07500 -0.85400 31.40300
H  17.06900 -2.45800 33.06100
H  15.96700 -1.52800 32.04100
H  15.79000 -1.31400 34.55000
H  15.97400 0.13900 33.73200
H  22.06300 -5.84300 28.16300
H  20.42100 -6.53400 27.66600
H  20.59800 -5.72700 29.14800
H  21.41500 -7.04700 25.68900
H  22.72500 -5.76300 25.85200
H  22.49200 -6.47900 24.32200
H  17.80000 -1.72900 22.12100
H  16.88700 1.08400 22.72500
H  19.50400 -0.53700 21.24100
H  20.11700 -0.33900 22.97000
H  19.08500 0.91300 22.16500
H  14.65400 -0.21000 23.05900
H  15.35600 -1.46500 22.12000
H  14.28000 1.18500 21.37000
H  14.17400 -0.35200 20.65400
H  15.66800 0.64800 20.40400
H  13.08000 3.14900 26.75100
H  14.32100 3.30000 25.49300
H  14.28900 4.33300 26.95800
H  15.22200 1.25600 31.63900
H  16.72300 4.47600 34.42300
H  17.04500 5.14700 32.83000
H  18.24700 4.04900 33.57000

