158

Mg 36.50100 49.77900 25.69400
C  36.84300 47.66700 28.33800
C  35.48400 52.36100 27.60200
C  36.11700 51.70200 22.79300
C  37.39500 47.07600 23.51500
N  36.10000 49.96400 27.76200
C  36.52000 49.05200 28.67400
C  36.37700 49.67800 30.07800
C  35.71200 51.08900 29.80000
C  35.76000 51.15600 28.27900
C  34.42000 51.28000 30.60800
C  37.74700 49.67700 30.83000
C  37.76700 49.71900 32.32600
H  36.53100 49.85900 33.27200
N  35.91200 51.76400 25.28700
C  35.60800 52.70200 26.24100
C  35.53000 53.95600 25.63800
C  35.74800 53.80200 24.25800
C  35.96300 52.33400 24.03600
C  35.30900 55.17900 26.51300
C  35.78900 54.92200 23.16000
O  36.06100 54.73800 21.96100
C  35.38700 56.22900 23.47400
N  36.70800 49.43300 23.48300
C  36.47600 50.36000 22.48400
C  36.58700 49.76800 21.07100
C  37.08900 48.27300 21.30700
C  37.00500 48.23800 22.81600
C  35.31300 49.81000 20.21900
C  38.54100 47.98400 20.78600
C  38.81700 46.60100 20.27900
N  37.08300 47.76800 25.84700
C  37.44700 46.76900 24.93800
C  37.66800 45.55400 25.55700
C  37.45300 45.79900 26.95700
C  37.08800 47.17400 27.04300
C  37.86300 44.26300 24.81400
C  37.33400 45.24500 28.29300
O  37.45600 44.08000 28.69300
C  37.09000 46.48400 29.30300
C  35.83500 46.09200 29.98400
O  34.70000 46.10100 29.51200
O  36.07500 45.94900 31.31500
C  34.91500 45.80100 32.22100
H  35.14700 53.17600 28.24700
H  36.09600 52.29200 21.87500
H  37.76100 46.29300 22.84800
H  35.77400 48.96600 30.64100
H  36.36100 51.88600 30.16300
H  34.39000 50.69800 31.52900
H  33.57100 51.29100 29.92500
H  34.46600 52.30300 30.98300
H  38.35200 50.49300 30.43500
H  38.36300 48.81800 30.56400
H  38.53900 50.44600 32.57900
H  38.25100 48.78300 32.60600
H  36.02900 55.96700 26.29400
H  35.55000 55.06300 27.57000
H  34.32300 55.59100 26.29600
H  35.95700 56.50900 24.36000
H  34.32500 56.12900 23.69600
H  35.56800 56.90500 22.63800
H  37.39400 50.24000 20.51100
H  36.43200 47.52000 20.87000
H  34.98800 48.93200 19.66200
H  35.31100 50.73100 19.63600
H  34.46200 50.01800 20.86700
H  39.13000 47.97600 21.70300
H  38.90400 48.68300 20.03300
H  38.96000 46.66500 19.20000
H  38.03900 45.86800 20.49300
H  39.71300 46.33200 20.83900
H  38.17300 44.35100 23.77300
H  36.96400 43.65200 24.73100
H  38.50700 43.66000 25.45400
H  37.91000 46.69000 29.99100
H  35.21900 45.56600 33.24100
H  34.29200 44.97800 31.87100
H  34.43200 46.77800 32.23400
Mg 1.60500 43.36600 26.92000
C  3.34400 43.34000 29.98400
C  -1.04900 41.95600 28.67100
C  0.13400 42.87100 23.93500
C  4.49700 44.52500 25.49600
N  1.22800 42.77600 29.12100
C  2.02900 43.03100 30.14800
C  1.28600 42.76100 31.50700
C  -0.10300 41.97600 30.99500
C  -0.00700 42.30500 29.49500
C  -0.01000 40.55400 31.36200
C  1.06100 43.90800 32.50600
C  1.60500 43.64900 34.00700
H  0.60300 43.26400 35.07400
N  -0.23100 42.65200 26.41400
C  -1.19800 42.16600 27.30900
C  -2.45900 41.82300 26.54300
C  -2.15900 42.20700 25.15600
C  -0.71900 42.64600 25.15200
C  -3.72600 41.18400 27.09500
C  -3.06900 42.10000 23.92300
O  -2.61800 42.54000 22.86200
C  -4.57300 41.71400 24.02400
N  2.24800 43.55700 25.00100
C  1.47300 43.32800 23.87500
C  2.29300 43.63500 22.55100
C  3.48500 44.43300 23.10000
C  3.40000 44.24600 24.60900
C  2.58800 42.36300 21.66600
C  3.52100 45.99200 22.63200
C  4.54800 46.28400 21.46500
N  3.56200 43.90100 27.51600
C  4.59400 44.28500 26.82900
C  5.74700 44.28600 27.61100
C  5.35000 43.90500 28.86300
C  3.99700 43.73700 28.77300
C  7.18200 44.63700 27.14600
C  5.77300 43.66000 30.18200
O  6.90000 43.79700 30.61300
C  4.46100 43.30500 31.04100
C  4.69100 42.06200 31.85000
O  4.74900 40.89700 31.40800
O  4.85600 42.42800 33.20200
C  4.93200 41.37900 34.21400
H  -1.96300 41.68800 29.20500
H  -0.42300 42.66800 23.01800
H  5.38700 44.93400 25.01200
H  1.99900 42.13800 32.04700
H  -0.92100 42.49500 31.49400
H  0.56700 40.12300 30.54300
H  -1.03100 40.18100 31.28200
H  0.36600 40.38600 32.37100
H  -0.02300 43.94400 32.60800
H  1.39400 44.81800 32.00600
H  2.17000 44.51700 34.34800
H  2.30000 42.81000 33.99500
H  -3.76700 41.20000 28.18400
H  -3.81500 40.14500 26.77900
H  -4.55700 41.78800 26.73000
H  -4.69400 40.68300 24.35500
H  -5.01300 41.78900 23.03000
H  -4.98900 42.46000 24.70200
H  1.72100 44.35800 21.96800
H  4.37300 44.01900 22.62200
H  3.66400 42.23900 21.54400
H  2.22200 42.31600 20.64000
H  2.14600 41.54300 22.23300
H  3.83400 46.47900 23.55600
H  2.50200 46.29700 22.39300
H  5.09900 47.22400 21.46900
H  4.08100 46.18600 20.48500
H  5.28200 45.47800 21.46400
H  7.88200 44.42100 27.95200
H  7.15100 45.68600 26.85200
H  7.57500 44.10300 26.28100
H  4.34200 44.08700 31.79100
H  4.76100 40.41900 33.72600
H  4.24000 41.69500 34.99400
H  5.92300 41.32000 34.66300

