158

Mg 0.00100 8.05500 26.51900
C  0.62500 9.55800 29.63200
C  0.00500 4.97800 27.85900
C  0.39100 6.67200 23.36600
C  0.53500 11.16600 24.97400
N  0.19400 7.45500 28.56900
C  0.41000 8.15000 29.72500
C  0.02900 7.35300 30.96500
C  0.10500 5.91000 30.39300
C  0.06500 6.09400 28.78400
C  1.46300 5.19200 30.79600
C  -1.28100 7.79800 31.58100
C  -1.32300 7.79400 33.13400
H  -0.26700 6.96700 33.88400
N  -0.13100 6.15000 25.75100
C  -0.11500 5.01100 26.45000
C  -0.32200 3.84100 25.62200
C  -0.23900 4.39300 24.26900
C  0.02900 5.79900 24.40000
C  -0.44700 2.48700 26.11200
C  -0.38700 3.66700 22.91400
O  -0.47600 4.29800 21.82500
C  -0.54700 2.20100 22.90300
N  0.24900 8.82300 24.43100
C  0.55400 8.04600 23.38100
C  0.93700 8.81200 22.18400
C  0.52800 10.25300 22.59300
C  0.43200 10.12600 24.08400
C  2.48400 8.82500 21.75600
C  -0.69600 10.87700 21.84700
C  -2.05300 10.63100 22.53600
N  0.46700 9.96000 27.09300
C  0.58100 11.12200 26.36300
C  0.77700 12.23100 27.27800
C  0.85800 11.63000 28.55800
C  0.64900 10.29100 28.39400
C  1.10400 13.64100 26.81900
C  0.96600 11.95500 29.97200
O  1.21300 13.01100 30.55700
C  0.66800 10.61500 30.72700
C  1.63600 10.41300 31.78800
O  2.75800 10.00200 31.60000
O  1.23400 11.05000 32.89700
C  2.26600 11.33700 33.99000
H  -0.11500 4.02100 28.37100
H  0.71300 6.25600 22.40900
H  0.56500 12.21100 24.65700
H  0.84200 7.45700 31.68400
H  -0.67700 5.21800 30.70700
H  1.16000 4.43200 31.51700
H  2.16800 5.76400 31.40000
H  2.04800 4.70200 30.01800
H  -2.13700 7.26700 31.16300
H  -1.49800 8.78000 31.16100
H  -2.29800 7.37400 33.37900
H  -1.21700 8.79700 33.54700
H  0.04500 1.70700 25.53100
H  -1.50700 2.26400 26.23300
H  0.01900 2.47900 27.09700
H  0.25200 1.71900 23.46600
H  -0.44300 1.93300 21.85200
H  -1.52400 1.97000 23.32700
H  0.33500 8.48500 21.33700
H  1.32800 10.98700 22.49800
H  3.17700 9.10600 22.54900
H  2.59800 9.58300 20.98100
H  2.62900 7.80700 21.39300
H  -0.60400 10.43000 20.85800
H  -0.54400 11.95700 21.83700
H  -2.02000 9.77500 23.21000
H  -2.89600 10.49300 21.85900
H  -2.28100 11.52000 23.12500
H  1.86200 13.64400 26.03600
H  1.45700 14.27800 27.63000
H  0.24100 14.19400 26.44900
H  -0.27100 10.61600 31.28200
H  2.32400 12.41700 34.12900
H  3.30300 11.06900 33.78500
H  1.85700 10.99200 34.93900
Mg 9.86700 48.61800 25.69600
C  7.94300 48.36100 28.70400
C  12.53900 49.61000 27.75400
C  11.61600 49.10100 22.96300
C  7.07100 47.79700 23.98600
N  10.07600 49.18200 27.92100
C  9.22300 48.91600 28.91600
C  9.80300 49.25800 30.31500
C  11.09100 49.98600 29.84400
C  11.29500 49.56000 28.40400
C  11.17500 51.54400 30.03800
C  10.03500 48.16000 31.41000
C  9.36900 48.28400 32.81100
H  10.03100 49.08200 33.99900
N  11.82000 49.13200 25.35200
C  12.81500 49.45700 26.35100
C  14.03000 49.50300 25.70900
C  13.76900 49.54700 24.30500
C  12.30900 49.29600 24.13500
C  15.35600 49.72900 26.38100
C  14.80900 49.49900 23.08600
O  14.37800 49.48800 21.91600
C  16.29900 49.48400 23.27300
N  9.32900 48.67300 23.71700
C  10.26100 48.83900 22.75800
C  9.64900 48.74200 21.35100
C  8.32600 48.06200 21.72600
C  8.21400 48.10000 23.21600
C  9.49400 50.05400 20.56400
C  8.17400 46.60800 21.08000
C  8.82100 45.46600 21.87800
N  7.80300 48.30300 26.15800
C  6.77600 47.98800 25.32800
C  5.61100 47.65200 26.16000
C  6.03200 47.89200 27.49700
C  7.34800 48.20100 27.44500
C  4.35900 47.08700 25.75800
C  5.61800 47.82000 28.83000
O  4.51300 47.49700 29.27200
C  6.86700 48.04100 29.73100
C  7.04400 46.79100 30.54200
O  7.68400 45.81000 30.12100
O  6.50300 46.96800 31.83400
C  6.51600 45.86800 32.77800
H  13.39300 49.83900 28.39600
H  12.16100 49.23400 22.02600
H  6.27500 47.36400 23.37700
H  9.13100 50.03500 30.67800
H  11.86300 49.64900 30.53600
H  11.52400 51.86000 29.05500
H  12.05200 51.73700 30.65600
H  10.30800 52.08400 30.41900
H  11.10200 48.08200 31.61900
H  9.64400 47.24200 30.96900
H  9.02800 47.29700 33.12400
H  8.49500 48.92800 32.71000
H  16.10200 48.93900 26.28800
H  15.25500 49.91800 27.44900
H  15.75500 50.65400 25.96500
H  16.70800 50.40400 23.69200
H  16.71100 49.45400 22.26400
H  16.47100 48.56900 23.84000
H  10.27000 48.15000 20.67900
H  7.47500 48.51600 21.21900
H  9.89200 50.93400 21.07100
H  8.43100 50.25300 20.43100
H  9.93700 49.92100 19.57700
H  8.54900 46.49300 20.06300
H  7.09500 46.45500 21.09400
H  7.98300 44.96900 22.36600
H  9.50700 45.89600 22.60700
H  9.43100 44.83900 21.22600
H  4.65600 46.21200 25.18000
H  3.85900 47.82500 25.13200
H  3.64200 46.83100 26.53800
H  6.71600 48.90500 30.37800
H  6.29500 44.84400 32.47800
H  5.79700 46.18800 33.53200
H  7.47500 45.81300 33.29400

