158

Mg 9.94800 47.97500 25.63700
C  7.85400 48.43000 28.51300
C  12.46100 49.22600 27.37400
C  11.73300 47.58200 22.86400
C  6.88300 47.93000 23.67700
N  10.03200 48.82900 27.63800
C  9.20700 48.72300 28.71800
C  9.90700 49.05600 30.03200
C  11.27300 49.69800 29.59900
C  11.25900 49.25900 28.08300
C  11.27400 51.22900 29.62100
C  10.09500 47.88000 30.97800
C  10.45700 48.16400 32.46100
H  9.81600 47.33000 33.68900
N  11.94700 48.22100 25.21100
C  12.83200 48.81400 26.04700
C  14.12500 48.65500 25.51000
C  13.97800 48.18400 24.19400
C  12.52100 47.98600 24.01200
C  15.34700 48.83300 26.29900
C  14.96200 47.83400 23.13600
O  14.58000 47.54500 22.01200
C  16.41800 47.92400 23.33500
N  9.35900 47.84300 23.56900
C  10.29500 47.49700 22.61900
C  9.57900 46.97400 21.38100
C  8.15100 47.60400 21.50700
C  8.09900 47.78000 23.00900
C  10.14900 47.33800 19.97200
C  7.06100 46.69400 20.92200
C  6.02100 47.49900 20.08000
N  7.77000 48.13200 25.97800
C  6.71500 48.04100 25.09500
C  5.43300 47.95900 25.85700
C  5.88100 48.09700 27.16500
C  7.26400 48.17100 27.20300
C  4.04300 47.77200 25.30100
C  5.39300 48.16500 28.52000
O  4.22700 48.05500 28.89000
C  6.65100 48.42600 29.42800
C  6.52400 47.36400 30.40600
O  7.06400 46.28100 30.40600
O  5.77400 47.84400 31.46700
C  5.56100 47.00100 32.67800
H  13.31000 49.61800 27.93800
H  12.27000 47.28300 21.96100
H  5.99100 47.91800 23.04800
H  9.28200 49.79700 30.53100
H  12.12400 49.25300 30.11300
H  10.62200 51.47000 30.46000
H  10.81500 51.57300 28.69400
H  12.28300 51.62600 29.72700
H  10.76200 47.18300 30.47000
H  9.23700 47.21700 31.08500
H  10.10100 49.16900 32.69000
H  11.54000 48.04700 32.51700
H  15.15800 49.11400 27.33500
H  15.96500 49.61600 25.86000
H  15.94500 47.93400 26.44300
H  16.67800 48.50300 24.22100
H  16.94800 48.41100 22.51600
H  16.79600 46.90400 23.39100
H  9.47100 45.89200 21.45000
H  8.19600 48.58900 21.04300
H  10.89900 48.11100 20.14300
H  9.52200 47.85100 19.24200
H  10.71900 46.54700 19.48400
H  6.65000 46.08900 21.73000
H  7.45700 45.88100 20.31500
H  6.41500 48.48400 19.82900
H  5.12100 47.50200 20.69600
H  5.84200 47.01600 19.12000
H  3.33400 48.32700 25.91600
H  3.93900 46.68900 25.36800
H  3.76000 48.18100 24.33100
H  6.53800 49.36600 29.96800
H  4.89800 46.13700 32.62800
H  5.22200 47.72500 33.41900
H  6.53100 46.57000 32.92800
Mg -12.68900 15.80400 42.47400
C  -9.66100 14.08800 42.15400
C  -11.08300 18.47000 41.05000
C  -15.81100 17.15100 41.64500
C  -14.25500 12.92100 43.39600
N  -10.54400 16.20700 41.76000
C  -9.50600 15.33000 41.62500
C  -8.23300 16.06100 41.07300
C  -8.65700 17.56300 41.12000
C  -10.18100 17.44300 41.30900
C  -7.96500 18.50800 42.14400
C  -7.78000 15.47200 39.69700
C  -6.39400 15.50300 39.32000
H  -6.14100 16.32100 38.11300
N  -13.34000 17.68800 41.47400
C  -12.45800 18.65600 41.02900
C  -13.26400 19.76100 40.61800
C  -14.66700 19.48900 40.97000
C  -14.66800 18.05900 41.35800
C  -12.65000 21.04900 40.03100
C  -15.84600 20.36700 40.82100
O  -15.72100 21.54000 40.35600
C  -17.20800 20.09900 41.26300
N  -14.72500 15.10600 42.34000
C  -15.85100 15.83000 42.16700
C  -17.16800 15.08500 42.44300
C  -16.56600 13.81600 43.21700
C  -15.09000 13.95800 42.94100
C  -18.34600 15.88900 43.11200
C  -17.17600 12.38100 42.63200
C  -17.94700 11.50100 43.68800
N  -12.05700 13.85800 42.87600
C  -12.81900 12.81600 43.32600
C  -11.98400 11.76600 43.64600
C  -10.69200 12.20200 43.20400
C  -10.79100 13.51700 42.74300
C  -12.28000 10.42600 44.24600
C  -9.28800 11.77900 43.05600
O  -8.62800 10.80300 43.45100
C  -8.58600 12.97400 42.31900
C  -7.38600 13.38900 43.01400
O  -7.35900 14.11500 44.05300
O  -6.31300 12.96900 42.30900
C  -4.99900 13.69500 42.68600
H  -10.44300 19.29300 40.72500
H  -16.79100 17.54800 41.37000
H  -14.73900 12.19600 44.05200
H  -7.49200 15.90000 41.85600
H  -8.43100 18.08900 40.19300
H  -7.81300 17.94900 43.06700
H  -8.65500 19.32600 42.35100
H  -7.01200 18.95000 41.85200
H  -8.37500 16.06500 39.00300
H  -8.16100 14.45100 39.73100
H  -5.98800 14.49600 39.22200
H  -5.73400 15.92300 40.07900
H  -12.56200 21.85800 40.75600
H  -13.21400 21.41700 39.17400
H  -11.62800 20.77000 39.77300
H  -17.75600 19.53000 40.51200
H  -17.69100 21.06000 41.44000
H  -17.14000 19.52300 42.18600
H  -17.51300 14.72500 41.47400
H  -16.87700 13.91800 44.25600
H  -18.11800 16.95200 43.02800
H  -18.53200 15.68500 44.16700
H  -19.32300 15.71000 42.66300
H  -16.38000 11.80200 42.16300
H  -17.79700 12.43700 41.73800
H  -17.44500 10.54300 43.82300
H  -18.98300 11.42800 43.35500
H  -17.96800 11.99900 44.65700
H  -13.03200 10.50300 45.03100
H  -11.40500 10.00600 44.74200
H  -12.49500 9.59200 43.57800
H  -8.35400 12.65000 41.30400
H  -4.30300 13.35800 41.91700
H  -4.63700 13.56400 43.70500
H  -5.14800 14.77300 42.62600

