158

Mg 2.70200 -1.26200 44.86200
C  5.96400 -0.39000 44.43300
C  1.76100 1.15900 42.48500
C  -0.49800 -2.40500 44.97200
C  3.74500 -4.29000 46.54700
N  3.77500 0.05100 43.39500
C  5.16800 0.32000 43.58900
C  5.59700 1.42000 42.55900
C  4.27800 2.06900 42.20000
C  3.19200 1.04500 42.74200
C  4.15200 3.52900 42.67100
C  6.40000 0.74300 41.36400
C  7.85600 1.31700 41.24500
H  8.22600 1.72300 39.77900
N  0.85800 -0.65400 43.94000
C  0.74300 0.40400 43.05700
C  -0.69200 0.58500 42.81500
C  -1.41600 -0.50600 43.44000
C  -0.34900 -1.24800 44.15500
C  -1.23300 1.77600 42.06900
C  -2.92400 -0.53200 43.54500
O  -3.57000 0.25000 42.91600
C  -3.71000 -1.39100 44.45600
N  1.76300 -3.13700 45.63200
C  0.45800 -3.28200 45.58300
C  -0.06200 -4.54900 46.38300
C  1.35500 -5.21300 46.68300
C  2.38100 -4.18400 46.30800
C  -0.89800 -4.17800 47.65600
C  1.75300 -6.56500 46.05100
C  2.10500 -7.64900 47.08300
N  4.42400 -2.13900 45.56100
C  4.65900 -3.31600 46.28600
C  6.09100 -3.37800 46.53400
C  6.68300 -2.26300 45.89900
C  5.61800 -1.58800 45.19000
C  6.74800 -4.50500 47.36100
C  7.83200 -1.48000 45.62400
O  9.00800 -1.66200 46.03300
C  7.42000 -0.30200 44.65500
C  7.63300 0.99600 45.37600
O  7.47000 1.20500 46.59800
O  8.28300 1.85300 44.45200
C  8.42000 3.23800 44.94600
H  1.49000 1.82800 41.66600
H  -1.48900 -2.82400 44.78600
H  4.09500 -5.23100 46.97700
H  6.24000 2.06100 43.16200
H  4.23500 2.04800 41.11100
H  3.78400 4.16600 41.86700
H  5.14900 3.88000 42.93600
H  3.45400 3.80100 43.46400
H  5.82100 0.85600 40.44700
H  6.48400 -0.31200 41.62300
H  8.57200 0.60600 41.65600
H  8.01000 2.28600 41.71900
H  -2.17800 2.27600 42.28000
H  -1.10400 1.59300 41.00200
H  -0.50300 2.54800 42.31300
H  -4.68600 -0.97900 44.71200
H  -3.09800 -1.63200 45.32600
H  -3.87900 -2.32200 43.91700
H  -0.63000 -5.09000 45.62500
H  1.45400 -5.30400 47.76500
H  -1.87300 -3.91200 47.25000
H  -0.53100 -3.25700 48.11000
H  -0.92700 -5.07700 48.27200
H  2.62100 -6.42200 45.40700
H  0.90800 -6.90800 45.45300
H  3.17300 -7.87100 47.08600
H  1.62900 -8.60700 46.87300
H  1.81600 -7.41100 48.10700
H  6.64900 -5.39400 46.73800
H  6.26800 -4.54400 48.33900
H  7.83100 -4.42000 47.45700
H  7.99400 -0.30000 43.72900
H  7.44800 3.71800 45.06700
H  8.87200 3.85000 44.16600
H  9.15400 3.27900 45.75100
Mg 48.96500 36.04200 26.39900
C  47.30800 34.47600 28.93100
C  49.26200 38.85500 28.09400
C  51.04900 37.35300 23.90200
C  48.46300 33.22900 24.43400
N  48.35600 36.57300 28.33000
C  47.79700 35.75500 29.26200
C  47.46900 36.55200 30.60200
C  47.76200 37.98800 30.18300
C  48.58500 37.85100 28.81400
C  46.57400 38.85900 30.13900
C  48.29000 36.07100 31.86800
C  47.34500 35.59600 33.11700
H  46.18400 36.58500 33.52000
N  50.04200 37.79400 26.12600
C  49.98600 38.89200 26.88300
C  50.86200 39.95600 26.47300
C  51.28600 39.60800 25.14100
C  50.72700 38.18000 24.97300
C  50.87700 41.29900 27.19000
C  52.06800 40.47700 24.13100
O  52.37900 40.09700 23.01100
C  52.46300 41.90400 24.63300
N  49.49600 35.46000 24.47400
C  50.47200 36.08500 23.69500
C  50.98800 35.17200 22.59600
C  50.17200 33.91500 22.74100
C  49.31800 34.19600 23.94700
C  50.93000 35.79200 21.20000
C  51.00300 32.63000 22.93500
C  50.81400 31.57100 21.78500
N  47.89900 34.27900 26.55500
C  47.76800 33.19600 25.67900
C  46.85400 32.21400 26.19900
C  46.59600 32.65200 27.49700
C  47.40400 33.87200 27.68000
C  46.55100 30.90000 25.54800
C  45.87800 32.42400 28.74200
O  45.05100 31.57400 29.01200
C  46.37900 33.55400 29.75600
C  47.19900 32.84200 30.81700
O  48.41200 32.78000 30.85600
O  46.32500 32.15100 31.55300
C  46.75500 31.53600 32.83200
H  49.34100 39.74900 28.71700
H  51.88000 37.51900 23.21200
H  48.28700 32.35700 23.80100
H  46.41000 36.34900 30.76400
H  48.44500 38.57300 30.79900
H  46.25000 38.87300 29.09900
H  46.85800 39.83200 30.54100
H  45.79700 38.31400 30.67600
H  48.89300 36.88600 32.26900
H  48.90400 35.20600 31.61700
H  48.02400 35.36300 33.93700
H  46.92600 34.59300 33.03900
H  51.83900 41.61800 27.59100
H  50.26800 41.33700 28.09400
H  50.39900 41.99700 26.50300
H  51.52800 42.46500 24.61400
H  53.07100 42.28700 23.81400
H  52.96900 41.96100 25.59700
H  52.02900 34.87100 22.71000
H  49.46600 33.78800 21.92000
H  50.24800 36.64000 21.26200
H  50.65400 35.08500 20.41700
H  51.90800 36.15400 20.88100
H  50.83600 32.04000 23.83700
H  52.08500 32.74000 23.00400
H  50.32800 32.00600 20.91200
H  50.01300 30.98100 22.23100
H  51.70800 30.99100 21.55800
H  45.46100 30.89200 25.53000
H  46.92600 30.04500 26.11000
H  46.85900 30.94800 24.50400
H  45.60800 34.05800 30.33900
H  47.82100 31.31300 32.78600
H  46.18700 30.61500 32.96500
H  46.50900 32.10400 33.72900

