158

Mg 24.07400 -4.97000 45.66400
C  26.20500 -2.52400 44.25600
C  21.62700 -3.87500 43.60900
C  22.45100 -8.01000 46.17200
C  26.89400 -6.28500 47.29300
N  23.94000 -3.32300 44.20600
C  24.88900 -2.48400 43.79300
C  24.40400 -1.52900 42.62600
C  22.76900 -1.77800 42.79500
C  22.74400 -3.04500 43.61900
C  22.12400 -0.61300 43.59000
C  24.96700 -2.04100 41.26100
C  25.10300 -0.94400 40.18100
H  24.73700 -1.23900 38.69900
N  22.25700 -5.79900 45.03200
C  21.35600 -5.15400 44.21800
C  20.14100 -5.99500 44.14000
C  20.35000 -7.10300 45.01500
C  21.76300 -7.02000 45.47600
C  19.07600 -5.63000 43.30500
C  19.23200 -8.06200 45.37900
O  18.12000 -7.90300 44.90200
C  19.35900 -9.08300 46.41000
N  24.60600 -7.00400 46.46400
C  23.72000 -7.95300 46.70000
C  24.43400 -9.11600 47.45900
C  25.88200 -8.54400 47.78500
C  25.80900 -7.15500 47.19200
C  23.52800 -9.66100 48.61400
C  27.12000 -9.38000 47.31200
C  27.92700 -9.90600 48.49400
N  26.12500 -4.46100 45.88700
C  27.06200 -5.09600 46.63900
C  28.21900 -4.27600 46.62300
C  28.02400 -3.26500 45.61200
C  26.69700 -3.44600 45.19100
C  29.53900 -4.42100 47.50800
C  28.52300 -2.12500 44.92000
O  29.56400 -1.50600 45.06400
C  27.38100 -1.70400 43.82700
C  27.23800 -0.23600 43.82100
O  26.96300 0.53000 44.73600
O  27.41500 0.17900 42.54900
C  27.16300 1.64600 42.43300
H  20.70500 -3.46100 43.19300
H  22.05500 -9.02700 46.21800
H  27.72200 -6.70200 47.86900
H  24.62700 -0.46200 42.66100
H  22.24300 -1.99500 41.86600
H  21.41300 -0.11800 42.92900
H  22.83200 0.04000 44.10100
H  21.56500 -1.03000 44.42800
H  24.36500 -2.81700 40.78800
H  25.91400 -2.57000 41.37100
H  26.16300 -0.72200 40.29800
H  24.58500 -0.04500 40.51500
H  19.40400 -5.74000 42.27200
H  18.87300 -4.56100 43.36500
H  18.19300 -6.26900 43.26600
H  18.36300 -9.40100 46.72100
H  19.90300 -8.68900 47.26900
H  19.94700 -9.87600 45.94800
H  24.67200 -10.01200 46.88600
H  25.98100 -8.55800 48.87100
H  23.97900 -9.41400 49.57500
H  23.36300 -10.73800 48.59800
H  22.52600 -9.25200 48.48000
H  27.80500 -8.78900 46.70400
H  26.82500 -10.23500 46.70500
H  27.49300 -10.84700 48.83300
H  27.95200 -9.18700 49.31200
H  28.91800 -10.20000 48.14900
H  30.39700 -4.47600 46.83800
H  29.47300 -5.32200 48.11800
H  29.77400 -3.59800 48.18200
H  27.74400 -2.08200 42.87100
H  27.29200 2.25100 43.33000
H  26.19800 1.73700 41.93300
H  27.98000 1.97600 41.79100
Mg -12.05700 16.63700 41.57200
C  -9.07000 14.87100 40.81900
C  -10.43400 19.47900 40.00700
C  -14.95100 18.17700 41.63200
C  -13.47500 13.66200 42.75900
N  -10.00400 17.15700 40.60300
C  -8.99700 16.27900 40.42900
C  -7.73400 16.91200 39.80000
C  -8.12500 18.38400 39.48900
C  -9.61800 18.35100 40.05100
C  -7.23100 19.48700 40.20900
C  -7.24100 16.17400 38.48500
C  -5.72200 16.15600 38.18800
H  -5.23100 16.97000 37.02700
N  -12.58100 18.52200 40.98600
C  -11.81900 19.57100 40.39500
C  -12.71100 20.62400 40.11400
C  -13.94500 20.41000 40.66300
C  -13.88300 19.00200 41.10600
C  -12.24800 21.79400 39.26700
C  -15.14200 21.38900 40.96000
O  -15.16100 22.56800 40.44300
C  -16.33600 21.05000 41.78900
N  -13.94700 15.98700 42.11000
C  -14.99300 16.85500 42.08500
C  -16.35500 16.01900 42.38200
C  -15.75600 14.54900 42.68800
C  -14.25800 14.75600 42.60200
C  -17.24900 16.71400 43.44400
C  -16.40400 13.46200 41.81100
C  -17.29400 12.53200 42.58200
N  -11.41700 14.72800 42.01100
C  -12.08600 13.60700 42.53100
C  -11.18800 12.53100 42.61200
C  -10.00700 13.02500 42.01600
C  -10.24600 14.29500 41.52400
C  -11.30500 11.20400 43.21500
C  -8.63200 12.53300 41.66800
O  -8.21000 11.40300 41.86100
C  -7.96800 13.80000 40.87400
C  -6.82100 14.24100 41.68900
O  -6.78200 14.58500 42.87800
O  -5.81200 14.28900 40.76700
C  -4.48500 14.48000 41.41800
H  -10.02400 20.32200 39.44800
H  -15.82600 18.68200 41.21800
H  -13.97700 12.82800 43.25400
H  -6.89300 16.86900 40.49200
H  -8.26900 18.71800 38.46200
H  -7.83000 20.16500 40.81700
H  -6.56900 20.00900 39.51900
H  -6.47400 19.03100 40.84700
H  -7.61900 16.66800 37.58900
H  -7.51500 15.12300 38.38800
H  -5.32600 15.14100 38.21700
H  -5.18300 16.49500 39.07300
H  -13.06400 21.96300 38.56400
H  -11.37800 21.46400 38.69900
H  -11.99200 22.68300 39.84400
H  -16.79600 22.00900 42.02800
H  -16.10300 20.54000 42.72400
H  -16.94600 20.51700 41.06000
H  -16.91700 15.99600 41.44800
H  -15.95400 14.27000 43.72300
H  -17.24500 17.79800 43.32600
H  -17.05900 16.41000 44.47300
H  -18.27600 16.50500 43.14400
H  -15.65400 12.85600 41.30300
H  -16.96400 13.95600 41.01700
H  -18.33400 12.61800 42.26800
H  -17.29000 12.84800 43.62500
H  -16.92400 11.51000 42.49600
H  -12.01900 11.32500 44.03000
H  -10.35500 10.90100 43.65600
H  -11.65200 10.43000 42.53000
H  -7.69800 13.25000 39.97300
H  -3.75700 14.36800 40.61400
H  -4.35000 13.81600 42.27200
H  -4.24300 15.48700 41.75700

