158

Mg 39.73500 10.23200 30.62300
C  42.25400 11.77700 32.53100
C  38.10200 9.58800 33.48600
C  37.48900 8.78200 28.56200
C  41.95500 10.65300 27.83400
N  40.26600 10.39600 32.77800
C  41.22800 11.25900 33.25400
C  40.93000 11.46400 34.75000
C  39.73200 10.56100 35.09000
C  39.30700 10.23500 33.69200
C  39.84200 9.36100 36.07100
C  40.79000 12.94300 35.20200
C  41.44500 13.36300 36.53000
H  40.56300 14.02000 37.50000
N  38.07000 9.21300 30.99700
C  37.45300 9.14000 32.22100
C  36.30000 8.30500 32.07300
C  36.02400 8.13900 30.65900
C  37.24400 8.71300 30.01100
C  35.42900 7.90500 33.22200
C  34.80200 7.56600 29.91200
O  34.70600 7.62000 28.71300
C  33.80500 6.87400 30.68900
N  39.76100 9.74900 28.49400
C  38.62800 9.20200 27.94700
C  38.73900 9.35700 26.40700
C  40.21200 9.91000 26.14000
C  40.63100 10.22500 27.51200
C  38.44300 8.03100 25.56900
C  40.41800 11.04800 25.06300
C  41.75500 10.98500 24.21500
N  41.64000 11.09600 30.18200
C  42.36700 11.17600 29.03600
C  43.58500 11.83900 29.28800
C  43.61500 12.11600 30.63400
C  42.40100 11.61200 31.12700
C  44.66800 12.29000 28.26000
C  44.37000 12.71100 31.68400
O  45.48100 13.28100 31.61100
C  43.49800 12.53700 32.94400
C  44.20800 11.88300 34.04600
O  44.35600 10.72800 34.39000
O  44.63000 12.98500 34.85600
C  45.17200 12.54400 36.12500
H  37.49800 9.42000 34.38000
H  36.72800 8.38800 27.88400
H  42.62700 10.74300 26.97800
H  41.77800 10.99900 35.25300
H  38.96600 11.19400 35.53800
H  39.35400 9.50400 37.03500
H  40.91400 9.16800 36.07300
H  39.43300 8.48000 35.57600
H  39.77000 13.28500 35.37800
H  41.04800 13.51600 34.31200
H  42.40600 13.87400 36.46200
H  41.72000 12.39100 36.94000
H  35.80800 8.16600 34.21000
H  35.19700 6.84200 33.28800
H  34.52600 8.50700 33.11600
H  33.20700 7.63300 31.19200
H  34.27600 6.16100 31.36600
H  33.13400 6.45600 29.94000
H  38.06100 10.15300 26.09900
H  40.83200 9.08100 25.80000
H  39.34600 7.75700 25.02400
H  37.69600 8.23900 24.80300
H  38.19600 7.23200 26.26800
H  40.19700 11.93000 25.66400
H  39.60400 10.89400 24.35500
H  42.42900 11.77300 24.55100
H  41.51900 10.97100 23.15100
H  42.43500 10.13400 24.27500
H  45.36700 13.02400 28.66000
H  44.09200 12.75100 27.45800
H  45.24300 11.42200 27.93500
H  43.14800 13.49300 33.33200
H  46.04700 11.89400 36.11900
H  44.38300 11.95700 36.59400
H  45.46600 13.36400 36.78100
Mg 48.76000 36.30500 27.73000
C  46.60600 34.76800 30.11200
C  49.04700 38.87500 29.82600
C  50.35300 37.82900 25.22800
C  47.88200 33.67700 25.53100
N  48.21500 36.56500 29.93500
C  47.27500 35.83500 30.65100
C  47.15900 36.41300 32.10500
C  47.64500 37.96000 31.89200
C  48.34700 37.80200 30.44900
C  46.47800 39.01800 31.84000
C  48.00100 35.62100 33.12400
C  49.38400 36.13400 33.53400
H  49.47200 36.92100 34.88700
N  49.64300 38.03900 27.57600
C  49.66000 38.96000 28.52700
C  50.46200 40.06600 28.11800
C  50.88000 39.76800 26.79600
C  50.32400 38.46900 26.46500
C  50.96000 41.17000 29.03300
C  51.66800 40.68400 25.85200
O  52.08000 40.26900 24.78800
C  51.85100 42.15600 26.21500
N  48.83600 35.88700 25.56600
C  49.67000 36.67400 24.78600
C  50.15000 35.90400 23.52500
C  49.39000 34.50000 23.62500
C  48.64100 34.64400 24.99300
C  49.99800 36.65200 22.16400
C  50.18400 33.09600 23.65200
C  51.31700 32.94900 22.60600
N  47.65600 34.57600 27.79900
C  47.31100 33.60700 26.75100
C  46.46000 32.64400 27.30000
C  46.20200 33.02600 28.56300
C  46.90200 34.21300 28.83800
C  46.00000 31.38400 26.60400
C  45.39900 32.68300 29.78900
O  44.89700 31.67100 30.16400
C  45.53400 33.88100 30.75200
C  45.80100 33.42300 32.11700
O  46.69600 32.67600 32.48800
O  44.71700 33.71000 32.90900
C  44.71500 33.05800 34.22200
H  49.05100 39.78100 30.43600
H  50.99100 38.22800 24.43700
H  47.58200 32.87000 24.85900
H  46.09800 36.47700 32.34500
H  48.42800 38.30500 32.56800
H  46.10100 39.17600 32.85000
H  45.74200 38.66300 31.11900
H  46.85300 39.97100 31.46700
H  48.12700 34.65000 32.64400
H  47.46600 35.51100 34.06700
H  49.85400 36.75600 32.77200
H  49.99900 35.25500 33.72300
H  50.70500 40.91100 30.06000
H  50.54100 42.11700 28.69500
H  52.03500 41.35200 29.03200
H  52.01000 42.72600 25.29900
H  52.69500 42.30500 26.88900
H  50.89800 42.47600 26.63600
H  51.19600 35.74600 23.78800
H  48.71900 34.38200 22.77400
H  49.51400 37.61200 22.34400
H  49.62400 35.99100 21.38200
H  51.02700 36.80900 21.84000
H  49.51200 32.25300 23.49100
H  50.62200 32.98800 24.64400
H  52.30100 32.96400 23.07500
H  51.17600 33.76700 21.90000
H  51.11800 32.06800 21.99600
H  45.51600 30.73200 27.33200
H  46.80500 30.74900 26.23300
H  45.37000 31.68800 25.76900
H  44.61300 34.46400 30.77900
H  45.27100 33.74900 34.85500
H  45.10200 32.04000 34.24000
H  43.71100 33.15900 34.63400

