158

Mg -0.13600 7.12300 26.93200
C  1.13500 9.33300 29.26300
C  -0.15500 4.62400 29.50600
C  -0.92600 4.90800 24.74900
C  0.80000 9.42100 24.41000
N  0.54800 6.95000 29.05500
C  0.97200 8.02300 29.77900
C  0.84100 7.69200 31.32400
C  0.73800 6.12100 31.33100
C  0.40000 5.82900 29.85200
C  2.00100 5.36100 31.80700
C  -0.32700 8.40000 32.09500
C  -0.22100 8.62500 33.66700
H  0.79800 7.94800 34.46800
N  -0.67800 5.02600 27.15400
C  -0.56500 4.18500 28.23000
C  -1.09100 2.87400 27.85200
C  -1.29000 2.89700 26.42600
C  -0.99400 4.28900 26.08900
C  -1.11400 1.68400 28.76200
C  -1.64800 1.83500 25.43700
O  -1.58000 2.02900 24.20600
C  -2.02400 0.51400 25.97500
N  0.03000 7.14200 24.91200
C  -0.47900 6.04700 24.22800
C  -0.89000 6.50200 22.79600
C  -0.19300 7.91800 22.64700
C  0.25500 8.22400 24.09000
C  -0.50900 5.46800 21.62900
C  -1.01100 9.00400 22.02000
C  -2.07600 9.69800 22.93200
N  0.75900 9.01700 26.80200
C  1.03300 9.88100 25.70400
C  1.36600 11.17700 26.17800
C  1.37000 11.07900 27.58200
C  1.04900 9.72800 27.88600
C  1.61200 12.36300 25.24900
C  1.66300 11.70800 28.83500
O  2.02200 12.85400 29.08400
C  1.48600 10.64200 29.97300
C  2.72100 10.72900 30.74900
O  3.79500 10.27500 30.40100
O  2.50700 11.51800 31.85700
C  3.62900 11.62300 32.73300
H  -0.32600 3.86400 30.27100
H  -1.48500 4.25300 24.07800
H  0.91500 10.24600 23.70400
H  1.76000 8.12800 31.71700
H  -0.07100 5.83500 32.00400
H  2.76000 6.06800 32.14300
H  2.46000 4.85100 30.96000
H  1.76100 4.53300 32.47400
H  -1.23100 7.79300 32.04700
H  -0.46900 9.31400 31.51800
H  -1.21600 8.42400 34.06300
H  -0.16600 9.70000 33.84200
H  -2.13500 1.34900 28.94000
H  -0.50200 1.85900 29.64700
H  -0.57900 0.95800 28.14900
H  -1.19100 -0.02800 26.42100
H  -2.43600 -0.10500 25.17700
H  -2.85000 0.53600 26.68600
H  -1.97200 6.57000 22.68800
H  0.64500 8.04600 21.96300
H  -0.19900 5.93900 20.69600
H  -1.28500 4.76400 21.32900
H  0.39400 4.92600 21.90900
H  -1.66900 8.56200 21.27200
H  -0.32400 9.68400 21.51700
H  -2.04500 10.78800 22.91200
H  -2.01700 9.48600 24.00000
H  -3.01000 9.48500 22.41200
H  1.25400 13.21800 25.82200
H  1.12000 12.34700 24.27600
H  2.70000 12.39200 25.19400
H  0.66800 11.01800 30.58700
H  4.54900 12.07200 32.35900
H  4.07900 10.69400 33.08400
H  3.25600 12.09900 33.64000
Mg 49.20400 35.30700 27.78500
C  47.18400 33.82400 30.27600
C  49.46300 38.01700 29.87500
C  51.26900 36.60000 25.59900
C  48.54500 32.68100 25.77000
N  48.39100 35.77900 29.92800
C  47.66800 35.02700 30.74400
C  47.77500 35.52700 32.22900
C  48.22200 37.08000 31.95700
C  48.85500 36.94600 30.53300
C  47.09200 38.14100 32.18400
C  48.99400 34.83600 32.97200
C  48.73300 34.38900 34.35300
H  47.73800 35.29100 35.19400
N  50.17800 37.07600 27.74400
C  50.12500 38.15300 28.63900
C  50.80100 39.37400 28.06500
C  51.43200 38.90800 26.82200
C  50.98800 37.52700 26.67600
C  50.82400 40.69500 28.77100
C  52.40500 39.55300 25.90600
O  52.82400 39.07100 24.86700
C  52.98300 40.91400 26.28700
N  49.71100 34.78700 25.88200
C  50.72600 35.41900 25.20000
C  51.15200 34.58400 23.94600
C  50.10100 33.42100 23.94200
C  49.36700 33.66000 25.27000
C  51.11400 35.35700 22.61600
C  50.75600 32.02000 23.75900
C  50.26100 31.32500 22.49500
N  48.08700 33.57200 27.91700
C  47.84500 32.63100 26.95900
C  47.00000 31.57600 27.50200
C  46.70100 32.05400 28.75800
C  47.44200 33.27000 28.99300
C  46.56800 30.38600 26.76900
C  45.89300 31.77300 29.89300
O  45.15400 30.84800 30.02500
C  46.18400 32.88300 30.90200
C  46.48300 32.22200 32.18800
O  47.40400 31.45800 32.38000
O  45.48600 32.39600 33.05800
C  45.62900 31.70600 34.31500
H  49.58100 38.96600 30.40200
H  51.98900 36.92600 24.84500
H  48.40400 31.81500 25.12000
H  46.78900 35.59400 32.69000
H  48.97500 37.34900 32.69700
H  46.10900 37.68700 32.31200
H  47.01400 38.85500 31.36400
H  47.34000 38.77200 33.03700
H  49.95000 35.35300 32.89100
H  49.19600 33.87100 32.50700
H  49.73100 34.45100 34.78600
H  48.29500 33.39200 34.30400
H  50.05600 40.64400 29.54300
H  50.55400 41.46400 28.04700
H  51.79100 40.95000 29.20700
H  53.71600 40.77100 27.08100
H  52.22200 41.59600 26.66600
H  53.55500 41.23400 25.41600
H  52.16200 34.27700 24.21800
H  49.38600 33.53500 23.12800
H  52.08600 35.72900 22.29300
H  50.33600 36.11500 22.71500
H  50.95500 34.53900 21.91400
H  50.59900 31.44800 24.67400
H  51.83400 32.08900 23.61300
H  50.36600 32.07400 21.71100
H  49.21000 31.06900 22.62700
H  50.98000 30.55300 22.22100
H  46.85700 30.30300 25.72100
H  45.48300 30.31600 26.84900
H  46.96200 29.47300 27.21500
H  45.25100 33.44500 30.91700
H  46.45900 32.01500 34.95000
H  45.74600 30.64700 34.08400
H  44.67300 31.77800 34.83500

