158

Mg 8.96600 2.83900 27.29400
C  10.36500 1.50600 30.32800
C  7.12800 4.97800 29.29000
C  7.35700 3.90800 24.55300
C  10.50600 0.25000 25.53600
N  8.69200 3.09700 29.64800
C  9.54200 2.60100 30.55400
C  9.23600 3.24100 31.94000
C  8.13000 4.33200 31.53700
C  7.95000 4.11000 30.05600
C  6.87700 4.23600 32.42100
C  10.54800 3.80700 32.60400
C  11.14600 3.10300 33.85000
H  11.48400 4.04600 35.07700
N  7.51300 4.30700 26.91700
C  6.91700 5.11600 27.88000
C  6.02800 6.02800 27.18200
C  6.10000 5.78800 25.75300
C  7.03300 4.62000 25.72000
C  5.07100 7.07500 27.90400
C  5.37700 6.55800 24.62100
O  5.53800 6.25900 23.38500
C  4.56900 7.73400 24.92100
N  8.81000 2.14100 25.43500
C  8.23900 2.85400 24.40700
C  8.62100 2.34300 23.01200
C  9.54600 1.08500 23.37400
C  9.64200 1.15200 24.89000
C  7.35800 1.99800 22.13400
C  10.88300 1.02200 22.61500
C  10.83700 1.11200 21.07300
N  10.21700 1.17700 27.75200
C  10.71600 0.16700 26.95900
C  11.47500 -0.67800 27.81600
C  11.46400 -0.18000 29.12100
C  10.62800 0.92700 29.01900
C  12.21700 -1.89900 27.48900
C  11.99100 -0.37800 30.43000
O  12.65100 -1.30400 30.90000
C  11.21500 0.69800 31.30200
C  10.43400 0.03300 32.35200
O  9.33600 -0.39900 32.18700
O  11.15800 -0.07600 33.49500
C  10.42300 -0.66300 34.62800
H  6.60500 5.70500 29.91500
H  6.85200 4.27100 23.65500
H  11.08200 -0.53600 25.04400
H  8.67800 2.50500 32.51900
H  8.58800 5.28000 31.82000
H  6.49600 5.23900 32.61200
H  7.05800 3.78900 33.39900
H  6.16400 3.58800 31.91100
H  10.40700 4.81600 32.99100
H  11.26500 3.86700 31.78600
H  12.10100 2.62700 33.62500
H  10.55900 2.22500 34.12100
H  5.50800 8.05500 27.71200
H  4.94300 6.84300 28.96100
H  4.08300 7.22700 27.47000
H  5.21000 8.36200 25.54000
H  3.58200 7.45600 25.29100
H  4.39600 8.28800 23.99900
H  9.27300 3.08700 22.55500
H  9.11700 0.10200 23.17800
H  7.41300 1.14600 21.45600
H  7.24500 2.82000 21.42700
H  6.47300 1.92800 22.76700
H  11.36500 0.06000 22.79600
H  11.46500 1.86200 22.99400
H  11.39600 1.98100 20.72600
H  9.83900 0.98100 20.65400
H  11.38200 0.23600 20.72200
H  13.28600 -1.69200 27.44300
H  11.82800 -2.23800 26.52800
H  12.04300 -2.69400 28.21500
H  12.07900 1.20500 31.73200
H  9.89600 -1.54100 34.25600
H  9.66400 -0.01400 35.06500
H  11.25900 -0.92000 35.27900
Mg 16.64500 53.54600 25.56500
C  17.92300 51.81800 28.39700
C  14.31300 54.85300 27.56500
C  15.11500 54.57700 22.83800
C  19.01200 51.71600 23.62500
N  16.23600 53.41500 27.74000
C  16.92600 52.73000 28.72500
C  16.48300 53.26800 30.10000
C  15.17200 53.97200 29.75900
C  15.20900 54.12100 28.26700
C  13.91300 53.26100 30.39700
C  17.55500 54.12900 30.82400
C  17.96700 53.76400 32.31400
H  17.01600 52.86900 33.08100
N  15.00700 54.71800 25.22900
C  14.15800 55.12600 26.18000
C  13.01800 55.81300 25.58800
C  13.27600 55.82800 24.19200
C  14.49800 55.03700 24.03400
C  11.89800 56.24400 26.53300
C  12.43100 56.39300 23.06300
O  12.80500 56.23400 21.91200
C  11.18100 57.29600 23.35100
N  17.19000 53.41100 23.53800
C  16.35400 53.89500 22.55400
C  16.67200 53.37400 21.12700
C  18.05200 52.65300 21.39100
C  18.17900 52.63800 22.93700
C  15.55800 52.45100 20.53100
C  19.25900 53.42400 20.80800
C  19.65200 53.08000 19.40600
N  18.10900 51.95300 25.87200
C  19.00900 51.41300 25.00800
C  19.97300 50.54700 25.78200
C  19.49600 50.64100 27.09500
C  18.41700 51.53300 27.12900
C  21.16700 49.92600 25.21200
C  19.84000 50.32800 28.48600
O  20.74300 49.63800 28.96900
C  18.82400 51.15900 29.40900
C  18.10300 50.21100 30.28800
O  16.99300 49.76000 30.07900
O  19.00400 49.74200 31.25900
C  18.54500 48.73900 32.18000
H  13.58100 55.23300 28.28100
H  14.63800 54.88800 21.90600
H  19.81000 51.30600 23.00200
H  16.31000 52.39500 30.73000
H  15.12200 54.97900 30.17200
H  14.17700 52.26700 30.75700
H  13.20600 53.01200 29.60500
H  13.34900 53.94600 31.02900
H  17.21100 55.16100 30.89800
H  18.46100 54.15600 30.21900
H  18.06600 54.71800 32.83100
H  19.00000 53.42600 32.40200
H  11.62700 55.55900 27.33700
H  10.96800 56.53100 26.04200
H  12.27000 57.20000 26.90200
H  11.30200 57.92400 24.23400
H  10.37700 56.62100 23.64300
H  10.92900 58.00000 22.55800
H  16.71900 54.29200 20.54100
H  17.94600 51.62700 21.04100
H  15.30200 52.84000 19.54600
H  14.56800 52.50300 20.98300
H  15.85500 51.40900 20.40400
H  20.14200 53.39800 21.44600
H  19.00700 54.48300 20.86500
H  20.73900 53.16700 19.38600
H  19.19400 53.81200 18.74100
H  19.46300 52.07000 19.04300
H  21.91400 50.00600 26.00200
H  21.60100 50.39700 24.33000
H  20.89500 48.91000 24.92900
H  19.44400 51.92000 29.88300
H  18.06900 49.15000 33.07100
H  19.42000 48.18300 32.51600
H  17.82200 48.08300 31.69500

