158

Mg 0.14300 7.03600 25.61900
C  0.90000 9.09400 28.44900
C  0.32500 4.37700 27.81600
C  -0.47000 5.23500 23.01200
C  0.69000 9.82800 23.63400
N  0.45700 6.80600 27.96800
C  0.70600 7.77700 28.88500
C  0.62400 7.24200 30.29500
C  0.75800 5.69500 30.00100
C  0.38500 5.60600 28.54400
C  2.20800 5.11100 30.39100
C  -0.78600 7.65200 30.89400
C  -0.85500 7.82200 32.43800
H  0.30600 7.58700 33.40900
N  -0.08300 5.05700 25.40400
C  0.10500 4.10400 26.35000
C  0.05700 2.81800 25.73100
C  -0.32900 3.01700 24.32400
C  -0.26300 4.49100 24.18800
C  0.27200 1.63900 26.60400
C  -0.62400 2.00300 23.27200
O  -0.79500 2.27700 22.11300
C  -0.86100 0.61200 23.68500
N  0.24900 7.47100 23.55100
C  -0.25600 6.54500 22.70100
C  -0.63700 7.23300 21.36900
C  -0.42900 8.67800 21.67000
C  0.20500 8.66900 23.04800
C  0.18500 6.59100 20.21200
C  -1.71000 9.65600 21.62700
C  -1.79200 10.70300 20.44800
N  0.59200 9.12200 25.93600
C  0.94600 10.10500 25.04700
C  1.44000 11.29700 25.71300
C  1.38100 10.97700 27.05200
C  0.92300 9.64300 27.14700
C  1.59800 12.68000 25.10100
C  1.61100 11.45100 28.39100
O  2.01600 12.52100 28.92100
C  1.20300 10.25400 29.28200
C  2.26600 10.08100 30.29600
O  3.23100 9.38000 30.13700
O  1.94000 10.80200 31.40200
C  2.79600 10.76300 32.56300
H  0.55000 3.57900 28.52700
H  -0.80400 4.55200 22.22700
H  0.76100 10.73900 23.03600
H  1.46200 7.64600 30.86300
H  0.13700 5.04200 30.61400
H  2.62300 4.80300 29.43100
H  2.02600 4.26600 31.05600
H  2.75100 5.87500 30.94600
H  -1.47600 6.89600 30.51800
H  -1.03000 8.61400 30.44400
H  -1.65800 7.20300 32.83800
H  -1.16200 8.84300 32.66500
H  0.92700 1.91600 27.43000
H  0.82900 0.96100 25.95600
H  -0.61900 1.14800 26.99700
H  -1.35900 0.49800 24.64800
H  0.06800 0.04200 23.72300
H  -1.46600 0.05800 22.96700
H  -1.70800 7.04000 21.30100
H  0.39100 9.01500 21.03700
H  -0.48300 6.02700 19.56100
H  0.94700 5.96600 20.67500
H  0.71900 7.30400 19.58300
H  -1.71800 10.14100 22.60300
H  -2.64000 9.08800 21.63800
H  -0.85200 10.58500 19.91000
H  -1.77100 11.66100 20.96900
H  -2.71300 10.67700 19.86600
H  2.48100 12.77200 24.46800
H  1.62000 13.46700 25.85500
H  0.76400 12.90800 24.43700
H  0.39200 10.59600 29.92500
H  3.50200 9.93200 32.55900
H  2.30300 10.83800 33.53200
H  3.48900 11.59800 32.45300
Mg 46.44200 25.75500 28.66400
C  47.23900 27.76100 31.48600
C  45.57200 23.26800 31.04100
C  45.78900 23.85900 26.21700
C  48.23100 28.00100 26.58600
N  46.33400 25.62700 31.11000
C  46.65000 26.55800 31.97200
C  46.38200 26.04600 33.36900
C  46.16600 24.47400 33.17000
C  45.98400 24.42000 31.69300
C  47.41700 23.66200 33.83100
C  45.28200 26.82600 34.05200
C  45.33200 27.34000 35.54300
H  45.96700 26.44900 36.65600
N  45.67500 23.84400 28.70100
C  45.31700 22.98400 29.70700
C  44.62800 21.77500 29.09000
C  44.62500 22.01200 27.66200
C  45.36200 23.28600 27.48700
C  44.16000 20.63900 29.88400
C  44.15200 21.04200 26.53800
O  44.39100 21.17000 25.32200
C  43.22600 19.89600 26.87600
N  47.03200 25.89000 26.75100
C  46.53200 24.94500 25.87100
C  47.12200 25.17800 24.42800
C  47.65300 26.64800 24.61400
C  47.68700 26.86300 26.07600
C  48.19000 24.09000 24.10900
C  46.53000 27.62200 24.05200
C  46.88400 29.05000 23.82900
N  47.53600 27.53600 28.89600
C  48.25900 28.23500 27.95800
C  48.75600 29.37000 28.60300
C  48.41500 29.21900 29.95300
C  47.71700 28.07400 30.09300
C  49.44300 30.57300 27.97000
C  48.55300 29.81600 31.25800
O  49.22700 30.76300 31.68500
C  47.76700 28.95500 32.26400
C  48.76200 28.62500 33.37000
O  49.92100 28.15700 33.22000
O  48.10900 28.90200 34.53600
C  48.81200 28.51200 35.73300
H  45.21900 22.46900 31.69600
H  45.54100 23.20200 25.38100
H  48.61700 28.69900 25.84000
H  47.29600 26.29400 33.90900
H  45.30600 24.01700 33.66000
H  47.07200 22.83000 34.44500
H  47.90500 24.32300 34.54600
H  48.02400 23.28100 33.01000
H  44.42600 26.15500 33.97300
H  44.96100 27.56100 33.31400
H  44.30300 27.56300 35.82500
H  45.91300 28.26100 35.49000
H  43.16400 20.27400 29.63600
H  44.38900 20.64000 30.95000
H  44.75600 19.80500 29.51200
H  43.79500 19.20300 27.49600
H  42.90400 19.36700 25.97900
H  42.33400 20.15300 27.44700
H  46.33900 25.00300 23.69000
H  48.68100 26.85900 24.31800
H  47.87200 23.57100 23.20400
H  48.08600 23.39700 24.94400
H  49.15800 24.54700 23.90600
H  45.74500 27.70700 24.80300
H  46.16000 27.18600 23.12400
H  46.54500 29.26100 22.81500
H  47.93600 29.32000 23.73300
H  46.44300 29.74600 24.54400
H  49.49100 31.37000 28.71100
H  49.03200 30.86300 27.00300
H  50.47800 30.31000 27.74900
H  46.96400 29.54400 32.70700
H  49.75400 29.04100 35.87600
H  48.96200 27.43400 35.79400
H  48.02900 28.77900 36.44300

