158

Mg 16.52300 -1.91400 27.85100
C  15.47500 0.31200 30.37400
C  18.79200 -3.31500 30.12000
C  17.71000 -3.72800 25.35900
C  14.43300 0.02400 25.59200
N  17.11100 -1.42300 29.94000
C  16.49500 -0.51600 30.83300
C  16.96900 -0.85100 32.26400
C  18.16400 -1.75400 32.06700
C  18.11000 -2.15400 30.61600
C  19.54700 -1.07700 32.31900
C  15.88300 -1.43500 33.21800
C  15.41300 -0.50900 34.29900
H  16.45300 0.37000 35.10600
N  17.88800 -3.36900 27.83700
C  18.65800 -3.84200 28.85600
C  19.26200 -5.13100 28.50100
C  19.05000 -5.26000 27.12000
C  18.21600 -4.10500 26.71700
C  20.04500 -6.14200 29.38700
C  19.52600 -6.41600 26.17400
O  19.30200 -6.31800 25.00200
C  20.34700 -7.48200 26.72100
N  16.33800 -1.62200 25.72400
C  16.93300 -2.57800 24.91100
C  16.45700 -2.34800 23.46500
C  15.29500 -1.33900 23.61600
C  15.35300 -1.00600 25.10800
C  17.55300 -2.00600 22.44300
C  13.87300 -1.83400 23.12000
C  12.87400 -2.56400 24.07500
N  15.24400 -0.11900 27.91600
C  14.43800 0.44000 26.93500
C  13.60400 1.42700 27.51000
C  13.93100 1.32500 28.89700
C  14.98600 0.44400 29.05200
C  12.63600 2.32900 26.74600
C  13.56300 1.92200 30.17500
O  12.75600 2.82600 30.49400
C  14.56000 1.24900 31.20600
C  15.39200 2.27400 31.94700
O  16.58200 2.58400 31.83300
O  14.59000 2.80300 32.94700
C  15.15500 3.94500 33.57500
H  19.27600 -3.89100 30.91100
H  18.19100 -4.28200 24.55000
H  13.83600 0.53800 24.83600
H  17.30000 0.15600 32.51900
H  18.12300 -2.68900 32.62600
H  19.37500 -0.15400 32.87300
H  20.25300 -0.99500 31.49300
H  20.04100 -1.77000 33.00000
H  16.17800 -2.44000 33.51900
H  14.97500 -1.69300 32.67400
H  14.94000 -1.20700 34.98900
H  14.54200 0.10500 34.07000
H  19.47800 -7.06000 29.54200
H  20.19800 -5.68700 30.36500
H  21.08600 -6.32100 29.11600
H  21.33600 -7.18600 27.07200
H  20.63100 -8.06500 25.84500
H  19.67900 -7.95900 27.43800
H  16.08500 -3.34300 23.22200
H  15.51100 -0.42000 23.07300
H  18.54500 -2.14400 22.87200
H  17.27100 -0.99600 22.14700
H  17.56000 -2.56700 21.50800
H  14.07900 -2.56700 22.34100
H  13.39300 -0.99700 22.61300
H  13.20700 -2.49000 25.11000
H  12.70000 -3.55600 23.65800
H  11.88400 -2.11000 24.04100
H  12.53600 1.93600 25.73400
H  13.03300 3.33600 26.62100
H  11.67000 2.27200 27.24600
H  13.97900 0.64700 31.90400
H  15.25600 4.76100 32.85900
H  16.06800 3.79600 34.15200
H  14.39400 4.44000 34.17900
Mg 54.51700 23.61200 45.75000
C  51.98000 25.71100 44.53600
C  52.81300 20.87800 44.44900
C  57.37800 21.87400 45.75300
C  56.15200 26.41100 46.89900
N  52.70900 23.38600 44.58900
C  51.75200 24.37600 44.24300
C  50.46300 23.76200 43.66400
C  50.63200 22.22700 43.96200
C  52.15000 22.14400 44.43200
C  49.76800 21.68700 45.16100
C  50.25800 24.08600 42.16900
C  51.34700 24.18100 41.18700
H  52.37200 22.92300 41.20000
N  55.01500 21.53600 45.28300
C  54.17400 20.60600 44.70400
C  54.92300 19.37000 44.49400
C  56.28500 19.64300 44.85800
C  56.24700 21.04800 45.32800
C  54.31700 18.21600 43.84400
C  57.51100 18.70100 44.83600
O  57.36000 17.49600 44.62200
C  58.88800 19.12800 45.18600
N  56.49900 24.10600 46.12900
C  57.48100 23.19600 46.11400
C  58.86200 23.72600 46.71600
C  58.44100 25.15600 47.16000
C  56.97100 25.25400 46.70400
C  59.26100 22.80200 47.84100
C  59.45800 26.26500 46.65900
C  59.00400 27.09700 45.41500
N  54.23600 25.68500 45.73300
C  54.89200 26.70700 46.40700
C  54.03000 27.86300 46.51200
C  52.93200 27.47100 45.72500
C  53.10900 26.18800 45.25200
C  54.21800 29.07200 47.27000
C  51.65800 27.93400 45.30900
O  51.14300 29.01600 45.48500
C  51.04600 26.85000 44.43500
C  50.96000 27.41200 43.04500
O  51.91700 27.61600 42.28600
O  49.63100 27.54900 42.69300
C  49.45800 28.01300 41.33300
H  52.24700 20.02400 44.07000
H  58.32800 21.35300 45.89000
H  56.64800 27.29300 47.31100
H  49.70300 24.21100 44.30300
H  50.65500 21.41800 43.23200
H  49.95300 20.63000 45.35400
H  48.72800 21.97600 45.00900
H  50.11100 22.03800 46.13400
H  49.64400 24.97900 42.27900
H  49.57000 23.35800 41.73800
H  52.01600 25.01000 41.41900
H  50.85900 24.18500 40.21300
H  53.88900 17.63200 44.65900
H  55.08000 17.62100 43.34300
H  53.64600 18.69200 43.12800
H  59.64400 18.34500 45.24400
H  58.78900 19.60300 46.16200
H  59.23400 19.76600 44.37200
H  59.65400 23.73400 45.96700
H  58.27900 25.27400 48.23100
H  58.36700 22.24300 48.11700
H  59.60400 23.43800 48.65700
H  60.09200 22.14700 47.57700
H  60.37300 25.73300 46.39700
H  59.68600 26.78600 47.58900
H  57.99000 26.82300 45.12500
H  59.67500 26.83600 44.59700
H  59.22200 28.15000 45.59700
H  55.11800 29.57300 46.91400
H  54.26100 28.86600 48.34000
H  53.29600 29.64100 47.15000
H  50.09500 26.53000 44.85800
H  49.79800 27.21300 40.67400
H  50.09600 28.89600 41.30000
H  48.40600 28.19000 41.10900

