158

Mg 46.25800 4.90500 48.54100
C  44.65700 7.95900 47.63900
C  43.41900 3.24000 47.78500
C  47.96800 2.13800 48.54500
C  49.18900 6.74900 49.07500
N  44.28800 5.52200 47.97000
C  43.86400 6.84200 47.63700
C  42.37900 6.81300 47.36600
C  41.96800 5.33100 47.56500
C  43.24800 4.62100 47.81300
C  40.89400 4.97700 48.65900
C  42.06200 7.47900 46.05100
C  40.70900 8.19100 46.09500
H  39.80400 7.60700 45.02200
N  45.76000 2.96300 48.24700
C  44.56900 2.46400 47.93400
C  44.58800 1.08300 47.98300
C  45.95100 0.70300 48.11400
C  46.64800 1.96200 48.27900
C  43.49600 0.17300 47.78100
C  46.48700 -0.71000 48.30100
O  45.74300 -1.68300 48.24200
C  47.94900 -1.03200 48.53700
N  48.40900 4.54000 48.44700
C  48.75200 3.25100 48.82800
C  50.11900 3.18500 49.50200
C  50.54700 4.61200 49.32400
C  49.30900 5.37200 49.00700
C  50.18500 2.58400 50.94500
C  51.77500 4.89600 48.33300
C  53.05900 5.61900 48.96200
N  46.84500 6.97100 48.37600
C  48.05000 7.56800 48.74900
C  47.95600 8.99000 48.57500
C  46.60700 9.24700 48.17600
C  45.96300 7.97500 48.04000
C  48.96300 10.09100 49.07000
C  45.60100 10.24400 47.79300
O  45.84600 11.43200 47.58400
C  44.25600 9.49600 47.49600
C  43.26600 9.82700 48.55600
O  43.31700 9.37700 49.71200
O  42.25700 10.57600 48.03100
C  41.21700 10.92400 48.95200
H  42.46600 2.73100 47.62600
H  48.44200 1.19600 48.82600
H  50.03000 7.36200 49.40300
H  41.90000 7.43200 48.12400
H  41.56900 4.87000 46.66200
H  40.62000 5.97200 49.01100
H  41.41400 4.38400 49.41200
H  40.03700 4.43800 48.25400
H  41.94100 6.67800 45.32200
H  42.80300 8.16900 45.64700
H  40.87500 9.26000 45.96100
H  40.24700 8.08600 47.07700
H  43.38900 -0.45400 48.66600
H  43.63700 -0.47700 46.91700
H  42.56500 0.72500 47.65400
H  48.66100 -0.79500 47.74700
H  47.95900 -2.12100 48.50900
H  48.28200 -0.68100 49.51400
H  50.73200 2.55200 48.86100
H  50.75200 5.00300 50.32000
H  50.03600 3.44200 51.60100
H  51.10600 2.08000 51.23700
H  49.34400 1.93700 51.19300
H  51.50800 5.44100 47.42800
H  52.08500 3.96700 47.85400
H  52.99500 6.66700 48.67100
H  54.04800 5.27800 48.65600
H  53.03800 5.43900 50.03700
H  49.58200 9.63500 49.84200
H  48.39100 10.91700 49.49100
H  49.52800 10.47200 48.21900
H  43.81400 9.76000 46.53600
H  41.03900 10.10700 49.65200
H  40.32900 11.09000 48.34200
H  41.41100 11.89600 49.40500
Mg 4.79500 54.17800 42.16100
C  4.87600 50.66500 41.08800
C  7.93800 54.36300 40.75400
C  4.33000 57.44100 41.93400
C  1.78200 53.62200 43.46700
N  6.17100 52.60900 41.02300
C  5.92100 51.36400 40.59500
C  7.06800 50.88900 39.63500
C  8.17400 51.82800 40.12600
C  7.34700 53.07400 40.57500
C  9.27300 51.33300 41.15600
C  6.60500 51.13100 38.16600
C  7.26200 50.08700 37.22800
H  6.39200 49.51400 36.12100
N  5.95300 55.69900 41.43100
C  7.26100 55.58000 41.01100
C  7.81300 56.91300 40.69700
C  6.71900 57.83000 40.78300
C  5.55100 57.02500 41.39300
C  9.22000 57.15900 40.11900
C  6.71500 59.33900 40.46600
O  7.71200 59.95700 40.01300
C  5.53500 60.22000 40.80600
N  3.19600 55.40700 42.47300
C  3.28700 56.74100 42.58100
C  2.17700 57.33900 43.32500
C  1.28100 56.06300 43.58500
C  2.17900 54.91600 43.20400
C  2.63300 58.09600 44.66600
C  -0.14600 56.05600 42.79400
C  -0.93500 57.38100 42.57300
N  3.55200 52.47800 42.37800
C  2.31800 52.44900 43.03000
C  1.90900 51.06400 43.07500
C  2.89600 50.29500 42.30700
C  3.84800 51.22300 41.88100
C  0.68300 50.64500 43.79700
C  3.19300 48.96800 41.77400
O  2.68800 47.89500 41.80600
C  4.56000 49.16400 41.06000
C  4.74800 48.45700 39.76800
O  4.41300 48.87900 38.68800
O  5.31400 47.22400 40.00900
C  5.71900 46.53200 38.75100
H  8.95100 54.48600 40.36600
H  4.03200 58.48600 41.82400
H  0.94800 53.48700 44.15900
H  7.38000 49.87000 39.86500
H  8.75400 52.12300 39.25100
H  9.56200 51.96900 41.99300
H  10.12300 51.11300 40.50900
H  8.98500 50.39000 41.61900
H  6.87600 52.14800 37.88500
H  5.51600 51.09200 38.14200
H  7.73800 49.30100 37.81300
H  8.08600 50.62400 36.76000
H  9.54900 58.19900 40.11100
H  9.27800 56.61500 39.17700
H  9.86100 56.65500 40.84200
H  5.67600 61.28200 40.60300
H  5.46600 60.21900 41.89400
H  4.66900 59.89600 40.23000
H  1.62700 57.97800 42.63300
H  1.08400 55.80600 44.62500
H  1.81100 58.10900 45.38200
H  2.95000 59.07800 44.31500
H  3.41100 57.53000 45.17900
H  -0.83900 55.39200 43.31100
H  0.09000 55.68200 41.79800
H  -0.64100 57.54800 41.53700
H  -0.44200 58.22600 43.05300
H  -2.01600 57.35200 42.71100
H  0.31000 49.68000 43.45400
H  -0.11300 51.37300 43.63900
H  0.91300 50.57100 44.86000
H  5.23400 48.68000 41.76700
H  6.01000 45.51700 39.02200
H  6.58300 47.07900 38.37300
H  4.99400 46.45900 37.94100

