158

Mg 43.81100 3.66900 46.77500
C  41.86900 6.62300 46.31100
C  40.83600 1.88400 46.87100
C  45.68700 0.91200 46.22600
C  46.63300 5.66700 46.01200
N  41.59300 4.21900 46.49400
C  41.05100 5.48100 46.41800
C  39.55400 5.46000 46.88900
C  39.37100 3.93700 47.29400
C  40.61100 3.28700 46.86900
C  39.08400 3.72200 48.79700
C  38.52000 5.90400 45.76500
C  38.72900 5.60600 44.25500
H  38.97400 6.81900 43.35400
N  43.36900 1.68900 46.64900
C  42.05000 1.13700 46.70300
C  42.25700 -0.30800 46.69700
C  43.60400 -0.63700 46.66200
C  44.30200 0.67600 46.55000
C  41.04200 -1.20800 46.84700
C  44.20600 -1.97200 46.89200
O  43.52200 -2.99800 47.03500
C  45.68800 -2.20900 47.09300
N  45.81000 3.30500 46.11000
C  46.35400 2.07900 46.12200
C  47.87200 2.15400 45.66800
C  48.17300 3.65900 45.66900
C  46.78700 4.29400 45.92900
C  48.75900 1.40600 46.69200
C  48.81700 4.07800 44.31600
C  50.30000 3.80600 44.16400
N  44.24100 5.72600 46.19900
C  45.41500 6.37100 46.06300
C  45.20000 7.77800 45.98900
C  43.83000 7.96800 46.09200
C  43.26500 6.67800 46.25500
C  46.27700 8.84400 45.69800
C  42.79300 8.98000 46.06400
O  42.92400 10.19300 46.04300
C  41.40300 8.11400 46.17900
C  40.60600 8.59800 47.34600
O  40.68400 8.24300 48.51300
O  39.58900 9.41500 46.85800
C  38.73400 9.95300 47.92100
H  39.96100 1.30000 47.16400
H  46.24100 -0.02400 46.12600
H  47.47400 6.35700 45.92400
H  39.37600 6.06900 47.77600
H  38.57600 3.39800 46.77800
H  40.04400 3.87500 49.28900
H  38.83800 2.68000 49.00400
H  38.32100 4.43100 49.11800
H  38.41700 6.98900 45.73200
H  37.53200 5.54200 46.04900
H  37.82300 5.14300 43.86200
H  39.57800 4.92400 44.22500
H  40.25200 -0.77100 47.45800
H  41.24400 -2.20400 47.24200
H  40.56800 -1.30000 45.87000
H  46.26200 -1.41000 47.56400
H  46.14100 -2.27000 46.10400
H  45.89000 -3.06300 47.74000
H  47.83500 1.78600 44.64200
H  48.87300 4.02900 46.41700
H  49.08900 0.50400 46.17800
H  48.14300 1.11400 47.54200
H  49.68700 1.94200 46.89300
H  48.66900 5.14900 44.17700
H  48.28500 3.61900 43.48200
H  50.80200 4.76000 44.00300
H  50.46800 3.21500 43.26400
H  50.74300 3.24500 44.98800
H  46.61600 8.57700 44.69700
H  47.08700 8.78500 46.42500
H  46.01900 9.87700 45.92900
H  40.87600 8.12800 45.22500
H  39.20900 10.89300 48.20000
H  38.61600 9.37500 48.83700
H  37.72500 10.17600 47.57200
Mg 35.76300 1.22100 28.79300
C  33.77800 2.25600 31.50400
C  38.46100 1.24900 30.89000
C  37.68200 0.53200 26.16800
C  32.94000 1.55800 26.69000
N  36.01200 1.66600 30.92500
C  35.09500 1.97300 31.82100
C  35.68400 2.07900 33.21700
C  37.23800 1.99700 32.96400
C  37.25300 1.55800 31.49800
C  38.07900 3.28100 33.23400
C  35.04700 1.02800 34.18200
C  34.75500 1.65500 35.53900
H  35.97800 2.27000 36.27800
N  37.82900 0.88400 28.55000
C  38.72700 0.89200 29.53800
C  39.97700 0.57400 29.00400
C  39.79400 0.21900 27.63800
C  38.38800 0.59300 27.38100
C  41.27600 0.43300 29.86700
C  40.71700 -0.38600 26.54900
O  40.34400 -0.75100 25.44900
C  42.12800 -0.75800 26.96900
N  35.32200 0.90400 26.71900
C  36.35400 0.82500 25.79500
C  35.77100 0.77700 24.29200
C  34.26600 0.99600 24.48300
C  34.19000 1.14400 26.05800
C  36.40000 1.87400 23.34900
C  33.27000 0.00600 24.02100
C  33.54300 -0.73700 22.62800
N  33.80000 1.69000 29.01400
C  32.78000 1.83000 28.07600
C  31.58400 2.39300 28.65800
C  31.93700 2.50800 30.00800
C  33.30600 2.10100 30.17100
C  30.30700 2.64700 27.96300
C  31.37800 2.91500 31.32100
O  30.23800 3.25500 31.66900
C  32.54000 2.76300 32.35100
C  32.80900 4.08200 32.89700
O  33.31600 5.09300 32.28200
O  32.45000 4.10600 34.23400
C  32.66500 5.43700 34.88400
H  39.35700 1.16900 31.51000
H  38.27700 0.33500 25.27300
H  32.08900 1.84500 26.06900
H  35.45700 3.02700 33.70500
H  37.66800 1.15500 33.50600
H  38.67500 3.56800 32.36800
H  38.83700 3.09900 33.99600
H  37.56500 4.18700 33.55400
H  35.70000 0.16800 34.32900
H  34.16900 0.52900 33.77200
H  34.24300 0.96800 36.21300
H  34.07600 2.49100 35.36700
H  41.16400 0.74700 30.90500
H  42.09300 1.04300 29.48300
H  41.57000 -0.61600 29.90000
H  42.74900 -1.23100 26.20800
H  41.91700 -1.47000 27.76700
H  42.56800 0.20000 27.24700
H  35.87200 -0.22700 23.88100
H  34.02600 1.99300 24.11300
H  37.10300 1.33700 22.71300
H  36.92000 2.62700 23.94100
H  35.61400 2.25300 22.69500
H  32.29700 0.49800 24.03000
H  33.18400 -0.78600 24.76400
H  33.71800 -1.81200 22.69100
H  34.46400 -0.32300 22.21700
H  32.76800 -0.52500 21.89200
H  29.85600 1.76300 27.51200
H  30.53600 3.41900 27.22900
H  29.61200 3.12100 28.65600
H  32.15700 2.14700 33.16500
H  32.25300 6.18400 34.20500
H  33.72600 5.49500 35.12400
H  32.09700 5.43800 35.81500

