158

Mg 35.25800 1.59100 29.83900
C  32.77500 3.07000 31.96500
C  37.55300 1.99200 32.37600
C  37.61900 0.68400 27.69100
C  32.94300 1.77100 27.23100
N  35.03800 2.26000 31.93200
C  34.04500 2.82100 32.63700
C  34.39500 2.91900 34.13400
C  35.98000 3.03600 34.03800
C  36.20100 2.32300 32.71000
C  36.50400 4.44900 34.10900
C  33.76800 1.73900 34.92300
C  33.42600 2.07400 36.35300
H  34.10300 3.26200 37.11100
N  37.38600 1.31900 30.00700
C  38.10600 1.48200 31.13100
C  39.47500 1.14800 30.84200
C  39.54200 0.76500 29.44900
C  38.14500 0.91800 28.99100
C  40.64700 1.19800 31.84100
C  40.68200 0.29100 28.55900
O  40.46100 -0.13100 27.40700
C  42.13200 0.41500 28.94600
N  35.27100 1.42400 27.75500
C  36.35700 0.90900 27.15700
C  36.11500 0.55300 25.61600
C  34.62500 0.93900 25.47600
C  34.21200 1.32500 26.85800
C  37.10200 1.37300 24.69700
C  33.79600 -0.13200 24.73500
C  33.20600 -1.39800 25.45800
N  33.20900 2.31500 29.60600
C  32.45700 2.30300 28.47500
C  31.13000 2.81000 28.81400
C  31.27900 3.07300 30.18500
C  32.56300 2.85900 30.62100
C  29.88600 2.87700 28.01700
C  30.55300 3.56400 31.34600
O  29.39400 3.96800 31.52000
C  31.50300 3.48700 32.58700
C  31.40300 4.74300 33.29000
O  31.46600 5.86900 32.80000
O  31.38600 4.47000 34.62500
C  31.41400 5.65700 35.49300
H  38.17000 1.92900 33.27400
H  38.25200 0.24600 26.91600
H  32.19200 1.72700 26.44000
H  33.93200 3.80700 34.56400
H  36.48200 2.55000 34.87500
H  35.71400 5.15900 34.35400
H  36.89800 4.83900 33.17100
H  37.25100 4.52800 34.89900
H  34.46800 0.90900 34.82200
H  32.89000 1.42400 34.36000
H  33.61100 1.21700 37.00100
H  32.35300 2.23000 36.46000
H  41.34800 0.41900 31.54200
H  40.21400 1.07900 32.83400
H  41.16000 2.16000 31.80700
H  42.33000 1.40400 29.35900
H  42.77600 0.16600 28.10200
H  42.20100 -0.35300 29.71700
H  36.24100 -0.52200 25.48400
H  34.57300 1.86900 24.91100
H  36.60800 2.11300 24.06700
H  37.76200 0.69500 24.15700
H  37.74000 2.03900 25.27700
H  34.32200 -0.57000 23.88700
H  32.98400 0.50100 24.37700
H  33.69900 -2.28800 25.06700
H  32.12100 -1.46700 25.38100
H  33.51600 -1.33900 26.50100
H  29.04300 2.82700 28.70600
H  29.92200 1.92300 27.49100
H  29.80000 3.71300 27.32300
H  31.32100 2.64000 33.24800
H  30.92300 6.52700 35.05600
H  32.46900 5.72500 35.75600
H  30.70100 5.47900 36.29800
Mg 9.54700 48.20500 26.69100
C  7.18300 48.13200 29.31800
C  11.96300 48.68100 28.98900
C  11.71200 48.28500 24.19000
C  6.90500 47.90700 24.45200
N  9.52200 48.31900 28.89300
C  8.54700 48.27900 29.80100
C  9.04200 48.33300 31.24600
C  10.61600 48.47000 31.02500
C  10.71800 48.55500 29.55400
C  11.14000 49.79100 31.74700
C  8.51800 47.19600 32.22200
C  9.33600 46.62100 33.40300
H  8.66800 46.56300 34.83300
N  11.53200 48.67500 26.62700
C  12.37600 48.80100 27.62600
C  13.67700 49.09000 27.13600
C  13.65000 48.86800 25.77000
C  12.25500 48.55900 25.46700
C  14.83200 49.38800 28.10100
C  14.70000 48.95700 24.77600
O  14.47100 48.80100 23.56500
C  16.06500 49.29900 25.15200
N  9.34800 48.08000 24.55200
C  10.41800 48.10400 23.70400
C  10.03500 47.74700 22.28100
C  8.46300 47.55800 22.41500
C  8.15900 47.88900 23.91000
C  10.48400 48.80300 21.24700
C  8.01100 46.16500 21.92300
C  7.25100 46.20500 20.60400
N  7.46500 48.19600 26.82100
C  6.53100 47.99300 25.86200
C  5.18500 47.97000 26.40700
C  5.44200 47.97600 27.78900
C  6.80800 48.14700 27.97600
C  3.83500 47.79900 25.76400
C  4.76300 47.88200 29.00300
O  3.56800 47.85700 29.29900
C  5.92000 47.85800 30.09300
C  5.87500 46.48500 30.63400
O  6.24500 45.46900 30.10700
O  5.12800 46.51600 31.74300
C  4.91400 45.21500 32.42400
H  12.86200 48.88100 29.57600
H  12.37900 48.29400 23.32600
H  6.18800 47.73000 23.64700
H  8.74100 49.25800 31.73800
H  11.02700 47.53300 31.40200
H  11.70100 49.37700 32.58600
H  10.38800 50.47100 32.14800
H  11.79600 50.42700 31.15300
H  8.32500 46.34300 31.57100
H  7.55200 47.56500 32.56700
H  10.31100 47.10700 33.43800
H  9.66400 45.62900 33.09200
H  15.76400 49.03800 27.65800
H  14.80600 48.79000 29.01100
H  14.85600 50.45100 28.34100
H  16.65400 49.61000 24.29000
H  16.58900 48.48700 25.65600
H  15.94600 50.19100 25.76800
H  10.62000 46.86000 22.03600
H  7.94500 48.30000 21.80700
H  11.43600 48.50000 20.81100
H  10.62100 49.77900 21.71200
H  9.72600 48.92600 20.47400
H  7.30200 45.85100 22.68900
H  8.81600 45.43000 21.90600
H  6.19500 45.99500 20.77300
H  7.65800 45.55500 19.83000
H  7.32200 47.23000 20.24100
H  3.46900 46.77200 25.76000
H  3.95800 48.15700 24.74200
H  3.11800 48.40900 26.31500
H  5.71200 48.60400 30.86000
H  3.93500 44.80400 32.17800
H  4.97300 45.31100 33.50800
H  5.80300 44.60800 32.24900

