158

Mg -1.13000 17.41800 26.16800
C  -1.78900 14.86600 28.61800
C  -2.03800 19.70300 28.60500
C  -1.32900 19.81600 23.69400
C  -1.41900 14.97400 23.64200
N  -1.84200 17.19700 28.32600
C  -1.80100 16.09700 29.20100
C  -1.70700 16.44500 30.62300
C  -2.03200 17.95700 30.56100
C  -1.95000 18.32900 29.06400
C  -3.39400 18.28700 31.24500
C  -0.49400 16.04400 31.44800
C  -0.00600 16.89200 32.61400
H  0.25200 16.22900 33.95300
N  -1.37500 19.42600 26.20200
C  -1.71100 20.18100 27.26400
C  -1.93600 21.56400 26.91700
C  -1.83200 21.63000 25.50900
C  -1.41000 20.25800 25.05900
C  -2.31800 22.74800 27.86100
C  -2.16500 22.72500 24.58400
O  -2.15300 22.58300 23.38100
C  -2.28400 24.14500 25.15700
N  -1.21200 17.40300 23.96400
C  -1.23000 18.49100 23.18800
C  -1.17200 18.09900 21.70200
C  -1.57700 16.67900 21.76100
C  -1.36600 16.27300 23.20800
C  -2.07600 18.94100 20.73800
C  -0.71600 15.91500 20.78600
C  -1.43900 15.12800 19.65200
N  -1.45600 15.36600 26.07400
C  -1.47100 14.53000 25.00500
C  -1.61900 13.13500 25.46600
C  -1.64800 13.22700 26.87800
C  -1.63800 14.63000 27.20200
C  -1.80600 11.99900 24.67100
C  -1.80300 12.42400 28.06400
O  -1.85200 11.24700 28.25900
C  -1.97300 13.42200 29.22500
C  -0.76000 13.16600 30.08300
O  0.32000 13.61500 29.87200
O  -0.98900 12.28000 31.11700
C  -0.07000 12.20300 32.24600
H  -2.13400 20.43800 29.40700
H  -1.20200 20.56800 22.91200
H  -1.48400 14.23200 22.84300
H  -2.54400 15.97700 31.14100
H  -1.25800 18.63800 30.91500
H  -3.99400 19.02400 30.70900
H  -3.34000 18.57400 32.29500
H  -4.14600 17.50000 31.29800
H  0.33100 15.94300 30.74300
H  -0.72900 15.04100 31.80500
H  -0.76200 17.66600 32.74700
H  0.95400 17.36500 32.40500
H  -1.54900 23.48400 28.09900
H  -2.61200 22.32700 28.82300
H  -3.19500 23.29600 27.51700
H  -3.23500 24.26000 25.67700
H  -2.24900 24.89800 24.36900
H  -1.46000 24.37700 25.83200
H  -0.10300 18.18500 21.50900
H  -2.60400 16.44800 21.47700
H  -2.74300 19.56700 21.33100
H  -2.61700 18.21900 20.12600
H  -1.44800 19.61400 20.15300
H  -0.21000 15.07600 21.26400
H  0.01800 16.58400 20.33600
H  -1.21300 14.06300 19.67900
H  -1.08700 15.52000 18.69800
H  -2.51400 15.31100 19.63700
H  -2.15000 11.29500 25.42900
H  -0.92100 11.45400 24.34000
H  -2.50400 12.24000 23.86900
H  -2.92400 13.31900 29.74900
H  0.08900 11.12700 32.31300
H  -0.68900 12.57700 33.06200
H  0.85200 12.76700 32.10400
Mg 25.43000 1.09200 29.27300
C  27.37300 0.60700 32.23000
C  22.68200 1.71000 31.13900
C  23.78400 1.31700 26.44100
C  28.41300 0.14300 27.43400
N  25.03500 0.89100 31.46300
C  25.99100 0.91000 32.51000
C  25.38100 1.36000 33.82800
C  23.84300 1.51100 33.44300
C  23.84400 1.48500 31.94000
C  22.98000 0.33000 34.14700
C  25.94900 2.73400 34.45000
C  26.44900 2.82800 35.85400
H  25.98700 3.94600 36.77300
N  23.45300 1.29800 28.91700
C  22.46900 1.58100 29.79100
C  21.22700 1.70200 29.06900
C  21.56700 1.59500 27.66200
C  23.03600 1.44100 27.62400
C  19.92800 1.81500 29.70500
C  20.62500 1.65900 26.39700
O  21.01000 1.59200 25.25800
C  19.20400 1.83600 26.65300
N  26.11100 0.80300 27.29600
C  25.19800 1.03100 26.27400
C  25.83600 0.98600 24.86900
C  27.35700 0.61700 25.20100
C  27.33100 0.57500 26.72800
C  25.19300 0.00200 23.80800
C  28.38900 1.65100 24.68900
C  28.46900 2.14000 23.24300
N  27.45400 0.54800 29.71500
C  28.56100 0.24100 28.85600
C  29.71200 -0.07600 29.72500
C  29.32100 0.18500 31.07500
C  27.94600 0.48800 30.97100
C  30.95600 -0.72400 29.18600
C  29.73700 0.17400 32.42300
O  30.83300 -0.20000 32.87600
C  28.49100 0.54000 33.24700
C  28.37900 -0.46300 34.28600
O  27.67100 -1.46600 34.27300
O  29.22600 -0.17400 35.31300
C  29.32700 -1.00400 36.46700
H  21.91000 2.05800 31.82800
H  23.24600 1.44600 25.50000
H  29.32800 0.12800 26.83900
H  25.71700 0.56800 34.49600
H  23.43000 2.43800 33.84000
H  22.89600 0.54800 35.21200
H  23.40100 -0.65000 33.92600
H  22.01500 0.36000 33.64000
H  25.10900 3.42500 34.37300
H  26.75900 3.17300 33.86700
H  27.45500 3.22600 35.71800
H  26.29900 1.86300 36.33900
H  19.99300 1.57100 30.76500
H  19.28200 1.10800 29.18400
H  19.48900 2.80200 29.56100
H  19.09500 2.80100 27.14800
H  18.82400 1.00400 27.24600
H  18.74000 1.73200 25.67200
H  25.79300 1.99900 24.46900
H  27.59500 -0.35200 24.76200
H  24.64100 -0.86600 24.17100
H  26.00500 -0.36100 23.17800
H  24.47300 0.55400 23.20500
H  29.39300 1.25900 24.84600
H  28.26600 2.54200 25.30400
H  29.43100 2.17800 22.73200
H  28.08600 3.14000 23.04300
H  27.93100 1.40600 22.64300
H  31.53900 -0.09600 28.51200
H  30.63300 -1.56000 28.56600
H  31.61400 -1.12900 29.95500
H  28.72800 1.50100 33.70400
H  28.38300 -0.82400 36.98100
H  30.13500 -0.66900 37.11800
H  29.44200 -2.08300 36.36700

