158

Mg 17.06200 -2.72000 29.01500
C  15.93200 -0.50200 31.54700
C  18.75600 -4.45500 31.29300
C  18.33400 -4.50300 26.44300
C  15.53600 -0.60400 26.66100
N  17.39900 -2.45100 31.21100
C  16.77200 -1.50400 32.04600
C  17.14300 -1.76800 33.55100
C  18.21000 -2.99300 33.45100
C  18.08100 -3.38800 31.93600
C  19.72300 -2.72100 33.82000
C  15.92400 -2.07800 34.43400
C  16.06700 -1.67000 35.90400
H  17.47200 -1.21800 36.45200
N  18.25800 -4.33100 28.93000
C  18.82400 -4.97600 29.96400
C  19.40100 -6.17700 29.43600
C  19.22600 -6.23100 28.04700
C  18.58200 -4.94400 27.75300
C  19.94400 -7.26800 30.33200
C  19.48500 -7.37400 27.12600
O  19.27700 -7.30900 25.92700
C  19.99300 -8.65400 27.63700
N  16.99700 -2.53400 26.83700
C  17.53500 -3.47100 26.01000
C  17.27000 -3.21800 24.55800
C  16.53200 -1.79100 24.60800
C  16.20800 -1.73000 26.12300
C  18.55600 -3.25600 23.69000
C  15.27600 -1.54700 23.66600
C  15.72500 -1.32300 22.15800
N  15.90200 -0.96500 29.01500
C  15.26200 -0.23200 28.00500
C  14.64000 0.96500 28.59800
C  14.87600 0.76100 29.91900
C  15.68400 -0.31300 30.18000
C  13.93500 2.10300 27.82300
C  14.58100 1.49500 31.14700
O  14.04800 2.57500 31.33700
C  15.13500 0.52500 32.22500
C  16.04500 1.45600 33.05400
O  17.20600 1.78700 32.80400
O  15.42200 1.80900 34.24400
C  16.13700 2.62800 35.15100
H  19.17000 -5.05900 32.10300
H  18.83000 -5.09200 25.67000
H  15.05600 0.08200 25.95900
H  17.68500 -0.89600 33.91700
H  17.82800 -3.84600 34.01200
H  19.86400 -1.74700 34.28900
H  20.37600 -2.81200 32.95200
H  19.95900 -3.44300 34.60200
H  15.72800 -3.15000 34.44500
H  15.03000 -1.52800 34.14100
H  15.80000 -2.56100 36.47300
H  15.30500 -0.91500 36.09400
H  19.13200 -7.98000 30.47600
H  20.20600 -6.90600 31.32700
H  20.90800 -7.64200 29.98700
H  19.35000 -9.11800 28.38600
H  20.99400 -8.49000 28.03600
H  20.03500 -9.29900 26.76000
H  16.51900 -3.96100 24.29200
H  17.22600 -0.98500 24.37000
H  19.40300 -2.80400 24.20600
H  18.27000 -2.52300 22.93600
H  18.76700 -4.23900 23.26900
H  14.66200 -0.69600 23.95800
H  14.65200 -2.44000 23.64200
H  15.14600 -0.47400 21.79400
H  15.50500 -2.20700 21.55900
H  16.78500 -1.07500 22.09900
H  12.87600 1.93800 28.01900
H  14.13400 1.97000 26.76000
H  14.27800 3.06700 28.19900
H  14.41800 0.20400 32.98100
H  17.20700 2.61300 34.94500
H  15.98400 2.30600 36.18100
H  15.86000 3.67500 35.02500
Mg 30.15400 58.62400 39.46800
C  27.09300 57.13500 38.80000
C  31.72100 55.71500 38.50700
C  33.06800 60.35500 39.38500
C  28.48600 61.67100 40.12100
N  29.46400 56.72400 38.54100
C  28.16500 56.27300 38.45000
C  28.13800 54.95300 37.75100
C  29.53700 54.37900 38.00800
C  30.29200 55.62900 38.41600
C  29.51300 53.28800 39.12000
C  27.81500 55.21700 36.25100
C  26.61000 54.62500 35.55100
H  25.93700 55.55400 34.51000
N  32.12400 58.10800 39.10000
C  32.55300 56.87000 38.76300
C  34.03200 56.86600 38.66200
C  34.43000 58.22300 38.77400
C  33.21900 58.96500 39.16200
C  34.80200 55.68900 38.13300
C  35.81300 58.73000 38.49800
O  36.63700 57.91400 38.13800
C  36.22000 60.10300 38.52000
N  30.67800 60.60700 39.68600
C  31.95400 61.11000 39.61400
C  32.03100 62.65100 39.70000
C  30.64700 62.96400 40.32000
C  29.88400 61.68200 40.00400
C  33.26800 63.28100 40.38300
C  30.07100 64.27500 39.70400
C  29.52400 65.30000 40.67000
N  28.10000 59.27400 39.62800
C  27.61600 60.58200 39.85000
C  26.14100 60.47900 39.78100
C  25.89900 59.10700 39.46100
C  27.13900 58.43000 39.27900
C  25.06700 61.54700 40.26600
C  24.86700 58.14300 39.22900
O  23.65100 58.13000 39.38300
C  25.60300 56.88200 38.67700
C  25.06600 55.69700 39.36700
O  25.42200 55.26800 40.45600
O  24.13100 55.06200 38.56600
C  23.56900 53.78600 39.07200
H  32.22500 54.75500 38.37800
H  33.91300 61.04600 39.39400
H  27.98600 62.62800 40.28800
H  27.38900 54.29500 38.19100
H  29.92500 53.95400 37.08200
H  28.58200 53.18400 39.67700
H  30.20300 53.63000 39.89200
H  29.83600 52.31100 38.76000
H  28.68700 54.92500 35.66500
H  27.55200 56.27400 36.20100
H  25.88200 54.28700 36.28800
H  27.01000 53.84200 34.90700
H  35.03800 55.89200 37.08800
H  34.29400 54.73000 38.23700
H  35.70100 55.62300 38.74600
H  37.06700 60.23000 37.84600
H  36.31000 60.42900 39.55600
H  35.49400 60.62000 37.89300
H  31.88100 63.01000 38.68200
H  30.75600 62.93000 41.40400
H  32.93000 64.05800 41.07000
H  33.71400 63.67400 39.47000
H  34.05600 62.62400 40.75100
H  29.26400 64.02400 39.01500
H  30.80100 64.83000 39.11600
H  30.17200 66.15600 40.85700
H  29.42800 64.75700 41.61000
H  28.57300 65.67900 40.29500
H  25.61000 62.29300 40.84600
H  24.29600 61.01700 40.82600
H  24.59400 62.08200 39.44300
H  25.30400 56.84700 37.63000
H  24.44000 53.16600 39.28200
H  22.97900 53.30700 38.29100
H  23.00000 54.01200 39.97400

