158

Mg 35.03800 2.59000 29.55400
C  33.16000 3.68700 32.40100
C  37.72100 2.69200 31.64500
C  36.90900 1.36800 27.06900
C  32.37700 3.23600 27.51000
N  35.29100 2.89400 31.83600
C  34.47700 3.29500 32.78400
C  35.05600 3.41100 34.20900
C  36.54900 3.33300 33.83800
C  36.54700 3.04800 32.33700
C  37.42500 4.53900 34.17300
C  34.57300 2.16700 35.05700
C  34.40000 2.29800 36.58100
H  35.30900 3.30900 37.29000
N  36.99000 1.92000 29.43700
C  37.91200 2.07800 30.39500
C  39.16900 1.53600 29.96800
C  38.98400 1.16000 28.60500
C  37.62000 1.46200 28.31800
C  40.42100 1.41300 30.81700
C  39.98400 0.53600 27.57800
O  39.65600 0.31900 26.43700
C  41.45900 0.27800 27.87200
N  34.77200 2.50500 27.57500
C  35.63500 1.79200 26.75800
C  34.99400 1.67300 25.33400
C  33.52500 1.84200 25.64800
C  33.52600 2.57900 26.93300
C  35.56700 2.81100 24.34800
C  32.77600 0.53400 25.72900
C  31.56200 0.22500 24.79700
N  33.22600 3.39500 29.79800
C  32.21100 3.57100 28.86500
C  31.02800 4.05400 29.54000
C  31.40000 4.19100 30.88400
C  32.73700 3.67900 31.01500
C  29.64400 4.35300 29.05900
C  30.78100 4.56700 32.11700
O  29.68900 4.97800 32.44800
C  31.96000 4.30400 33.13500
C  32.31600 5.55000 33.76600
O  33.23500 6.38000 33.51000
O  31.28000 5.85100 34.61500
C  31.27500 7.18600 35.19500
H  38.64600 2.60300 32.21900
H  37.47400 1.01500 26.20400
H  31.50600 3.40000 26.87300
H  34.83000 4.37400 34.66700
H  36.96000 2.45300 34.33300
H  38.38900 4.28900 34.61400
H  36.94900 5.07500 34.99300
H  37.64900 5.28300 33.40800
H  35.06300 1.21700 34.84400
H  33.55100 2.07200 34.68800
H  34.62700 1.32100 37.00600
H  33.34200 2.42400 36.81500
H  40.98000 0.53700 30.48600
H  40.25400 1.12300 31.85400
H  41.05000 2.30200 30.77500
H  41.93600 1.17200 28.27400
H  41.92600 0.16900 26.89300
H  41.53000 -0.57000 28.55400
H  35.20600 0.69600 24.90000
H  32.98900 2.44300 24.91300
H  36.48600 3.25600 24.73000
H  34.89700 3.61100 24.03400
H  35.87200 2.24500 23.46800
H  32.33000 0.47300 26.72200
H  33.43000 -0.33100 25.61900
H  31.63300 -0.81800 24.48700
H  31.58600 0.97900 24.01000
H  30.58800 0.26000 25.28500
H  29.19400 3.44600 28.65600
H  29.67600 5.08800 28.25500
H  29.02200 4.71300 29.87900
H  31.76100 3.61700 33.95700
H  32.26800 7.63200 35.24900
H  30.79300 7.08500 36.16700
H  30.60500 7.83200 34.62600
Mg 9.72400 47.70000 25.30700
C  7.56100 47.86900 28.07300
C  12.08900 49.28700 27.34500
C  11.89700 47.47000 22.77800
C  7.07500 47.15000 23.30900
N  9.79900 48.27900 27.52800
C  8.80000 48.28500 28.48400
C  9.23500 48.76900 29.84300
C  10.47300 49.64800 29.41300
C  10.83200 49.05000 28.03100
C  10.21300 51.11700 29.28500
C  9.73700 47.62800 30.87100
C  9.46400 47.95600 32.35800
H  9.43600 46.83300 33.44700
N  11.70300 48.14900 25.18300
C  12.52800 48.72800 26.11800
C  13.89400 48.65700 25.57400
C  13.87300 48.14600 24.28700
C  12.50100 47.86600 24.01200
C  15.06400 48.98000 26.47000
C  15.00300 47.93700 23.30800
O  14.82400 47.45400 22.17100
C  16.43700 48.26700 23.64600
N  9.53500 47.46400 23.38000
C  10.53900 47.35100 22.46700
C  10.07900 46.80200 21.04500
C  8.54100 46.76000 21.28400
C  8.32700 47.11100 22.74900
C  10.62800 47.55700 19.76600
C  7.86900 45.46600 20.75900
C  6.76600 45.65100 19.69100
N  7.65900 47.45900 25.58700
C  6.73900 47.29500 24.66500
C  5.40700 47.33800 25.23100
C  5.68000 47.42500 26.56500
C  7.13300 47.56200 26.75200
C  4.09000 47.20100 24.46400
C  5.06400 47.41400 27.89500
O  3.88300 47.26700 28.15700
C  6.22000 47.91700 28.86100
C  6.13900 47.14100 30.17700
O  6.79900 46.15400 30.53700
O  5.40800 47.93900 31.01300
C  5.16500 47.40400 32.36300
H  12.74000 50.03100 27.80900
H  12.53400 47.30000 21.90700
H  6.26200 46.97100 22.60200
H  8.48400 49.39600 30.32300
H  11.36400 49.53400 30.03000
H  9.27600 51.36200 29.78500
H  10.06600 51.35000 28.23000
H  11.01100 51.67700 29.77300
H  10.75900 47.25000 30.86000
H  9.23400 46.66200 30.83600
H  8.39900 48.18200 32.32200
H  10.04000 48.80500 32.72600
H  14.62200 49.29800 27.41400
H  15.67800 49.85500 26.25600
H  15.68600 48.10800 26.67300
H  16.79600 49.08100 23.01700
H  17.06100 47.38700 23.48800
H  16.69400 48.48800 24.68200
H  10.51300 45.80700 20.95100
H  8.09000 47.59000 20.73900
H  10.59700 46.87600 18.91600
H  11.64400 47.89100 19.97500
H  9.96600 48.41300 19.63100
H  7.32600 44.87400 21.49600
H  8.65900 44.80700 20.39800
H  5.90800 44.98700 19.80200
H  7.18300 45.47700 18.69900
H  6.39400 46.66900 19.80400
H  3.22100 47.75300 24.82300
H  3.78900 46.15500 24.41300
H  4.24500 47.55600 23.44600
H  6.02900 48.96100 29.10900
H  4.76400 46.39400 32.28600
H  4.46700 48.07000 32.87100
H  6.08000 47.45500 32.95300

