158

Mg 47.32200 24.58800 27.91000
C  48.14600 26.48800 30.56700
C  47.00900 21.73700 30.00700
C  46.44600 22.68200 25.21200
C  48.14800 27.15700 25.73200
N  47.67300 24.20400 30.04500
C  47.76700 25.17700 30.97200
C  47.68900 24.66200 32.42100
C  47.58900 23.16700 32.11700
C  47.39100 22.97100 30.63300
C  48.64600 22.17300 32.75200
C  46.57300 25.37900 33.22000
C  46.90400 26.32600 34.33300
H  45.87900 26.57300 35.53200
N  46.85900 22.51600 27.63300
C  46.78500 21.56000 28.57600
C  46.59900 20.26800 27.92200
C  46.25500 20.54800 26.55300
C  46.47800 21.95600 26.43600
C  46.64400 18.93500 28.69600
C  45.87900 19.61800 25.41900
O  45.61700 19.99400 24.27100
C  45.79100 18.22200 25.70900
N  47.44500 24.83000 25.76700
C  46.91500 23.94500 24.91700
C  46.82700 24.56500 23.46500
C  47.21000 26.02400 23.63400
C  47.59900 26.08900 25.13400
C  47.63400 23.79800 22.36000
C  45.97600 26.99700 23.29800
C  46.19300 28.38600 22.68300
N  48.08600 26.40400 28.03600
C  48.40900 27.36800 27.09500
C  49.05400 28.45800 27.77300
C  48.90600 28.19400 29.15800
C  48.31100 26.94000 29.27300
C  49.65800 29.60000 27.04300
C  49.12800 28.73100 30.46900
O  49.67800 29.84000 30.72700
C  48.62700 27.66000 31.43500
C  49.88400 27.24800 32.31500
O  50.64000 26.26300 32.11900
O  49.96200 28.11800 33.35800
C  50.73600 27.65500 34.50200
H  46.83900 20.91300 30.70300
H  46.11800 22.26900 24.25500
H  48.47100 27.96100 25.06600
H  48.63000 24.79600 32.95400
H  46.60300 22.83400 32.44000
H  49.12300 22.72800 33.56000
H  49.41400 21.92600 32.02000
H  48.11300 21.31300 33.15900
H  45.89100 24.56800 33.47800
H  46.04100 25.93000 32.44400
H  46.98300 27.31300 33.87700
H  47.84700 26.04200 34.80200
H  47.03100 18.23600 27.95400
H  45.64600 18.59500 28.97100
H  47.33500 18.96300 29.53800
H  46.80600 17.87700 25.51700
H  45.10800 17.72400 25.02100
H  45.29500 17.95100 26.64100
H  45.77400 24.50800 23.19100
H  48.10300 26.23500 23.04600
H  48.28400 23.08500 22.86800
H  48.20900 24.45400 21.70700
H  47.04500 23.09600 21.76800
H  45.47900 26.92500 24.26600
H  45.35800 26.57100 22.50800
H  45.84400 28.41300 21.65100
H  47.23500 28.70600 22.71400
H  45.54100 29.12400 23.14800
H  50.11200 29.19200 26.14000
H  50.50100 30.06200 27.55600
H  48.89700 30.35900 26.86500
H  47.87900 28.03200 32.13500
H  50.62600 28.45400 35.23600
H  51.80400 27.67800 34.28700
H  50.34800 26.67100 34.76600
Mg 48.09400 34.15900 27.12400
C  46.25300 32.72000 29.75400
C  48.97200 36.64000 29.35600
C  49.90600 35.43200 24.69800
C  47.27000 31.33500 25.08900
N  47.65000 34.56100 29.24100
C  46.99100 33.80400 30.16200
C  47.34400 34.27000 31.62500
C  47.79300 35.71900 31.37200
C  48.11400 35.66600 29.84300
C  46.66600 36.71100 31.65100
C  48.39900 33.44700 32.29700
C  48.34900 33.41900 33.85400
H  47.36700 34.26500 34.78300
N  49.16200 35.89800 26.97800
C  49.42000 36.84200 28.06000
C  50.41500 37.77800 27.52300
C  50.73900 37.38500 26.20200
C  49.88700 36.19800 25.88800
C  50.99300 38.88600 28.48000
C  51.68100 38.07400 25.17200
O  51.94400 37.55300 24.07100
C  52.32100 39.46100 25.52500
N  48.36000 33.55900 25.09400
C  49.18300 34.29500 24.22800
C  49.54000 33.53100 22.93000
C  48.78800 32.11100 23.15500
C  48.03700 32.31000 24.51600
C  49.22800 34.29000 21.59100
C  49.75900 30.89900 23.16600
C  50.02900 30.23700 21.83200
N  46.84600 32.52600 27.30900
C  46.61200 31.48200 26.40900
C  45.67300 30.56000 26.98900
C  45.50800 31.01000 28.31400
C  46.25900 32.17600 28.45600
C  45.11200 29.34900 26.31600
C  44.84300 30.68300 29.55500
O  44.14700 29.69000 29.84000
C  45.26200 31.82200 30.57000
C  45.86500 31.07300 31.62900
O  46.85500 30.37200 31.51400
O  45.05800 31.03600 32.73600
C  45.62300 30.25300 33.83800
H  49.14500 37.51000 29.99200
H  50.57500 35.71100 23.88200
H  47.22000 30.43300 24.47500
H  46.50700 34.26600 32.32400
H  48.65300 36.01500 31.97300
H  45.95500 36.40100 32.41700
H  46.10000 36.82000 30.72500
H  47.09900 37.67400 31.91800
H  49.37600 33.86200 32.05300
H  48.45100 32.45700 31.84500
H  49.36400 33.71900 34.11500
H  48.30200 32.39600 34.22600
H  51.99100 38.57400 28.78700
H  50.27600 39.00600 29.29200
H  51.13200 39.85200 27.99300
H  51.56700 40.23500 25.66700
H  53.01000 39.65000 24.70300
H  52.88500 39.26600 26.43700
H  50.61500 33.36300 22.99100
H  48.01800 32.10700 22.38300
H  48.69900 35.23100 21.74400
H  48.62800 33.71900 20.88100
H  50.17500 34.23900 21.05500
H  49.62100 30.18400 23.97700
H  50.74300 31.32600 23.35800
H  49.54400 30.72000 20.98300
H  49.61300 29.22900 21.82400
H  51.09500 30.08500 21.66700
H  45.00000 29.59400 25.26000
H  44.14300 29.10400 26.75100
H  45.87300 28.58800 26.48600
H  44.40900 32.41600 30.90000
H  45.60500 29.24000 33.43500
H  44.96600 30.21700 34.70700
H  46.64800 30.47200 34.13700

