158

Mg 39.84800 9.81600 30.24900
C  41.90000 10.67700 33.04200
C  37.58300 8.42200 32.60600
C  38.30200 8.34300 27.82200
C  42.34300 10.90500 28.09900
N  39.73200 9.59600 32.53700
C  40.66500 10.05000 33.41700
C  40.13800 10.02800 34.82100
C  38.80800 9.17900 34.74400
C  38.68200 9.03400 33.23500
C  38.68500 7.79500 35.43600
C  40.00000 11.45800 35.39700
C  39.29100 11.60800 36.73300
H  39.98200 10.99900 37.92100
N  38.05500 8.72700 30.18300
C  37.34000 8.22900 31.19600
C  36.19300 7.51000 30.66000
C  36.37700 7.52800 29.26200
C  37.63400 8.20600 29.01500
C  35.21400 6.74900 31.49100
C  35.54400 6.95700 28.12800
O  35.92800 7.02100 26.92500
C  34.23300 6.36100 28.35300
N  40.33200 9.44700 28.22700
C  39.41800 8.94400 27.42100
C  39.76000 9.25400 25.91300
C  40.96200 10.24200 26.02900
C  41.16700 10.31300 27.59900
C  39.92900 7.92000 24.97600
C  40.63000 11.65500 25.41400
C  39.69500 12.57200 26.05300
N  41.75100 10.63300 30.46300
C  42.63200 11.02500 29.47600
C  43.78400 11.51100 30.16800
C  43.50700 11.38600 31.54200
C  42.28700 10.85200 31.69600
C  45.13200 11.82000 29.48900
C  44.04700 11.69400 32.79400
O  45.13400 12.20000 33.02600
C  43.01100 11.20900 33.84500
C  43.59200 10.12100 34.72700
O  43.78100 8.93800 34.42500
O  43.90400 10.58600 35.91200
C  44.34400 9.77000 37.00800
H  36.84500 8.11800 33.35200
H  38.03600 7.73800 26.95200
H  43.18900 11.20700 27.47800
H  40.90100 9.52000 35.41100
H  37.88100 9.60800 35.12300
H  37.67200 7.44500 35.63600
H  39.30500 7.78000 36.33200
H  39.13400 7.09200 34.73300
H  39.64700 12.13600 34.62000
H  41.01500 11.76000 35.65400
H  38.25100 11.28600 36.68300
H  39.27400 12.68800 36.88300
H  35.41500 5.68000 31.42600
H  34.27200 7.09000 31.06100
H  35.20700 6.99700 32.55300
H  33.61100 6.44000 27.46100
H  33.74900 6.90000 29.16700
H  34.33200 5.32400 28.67500
H  38.86300 9.76300 25.56200
H  41.87400 9.83800 25.58900
H  40.93200 7.85600 24.55500
H  39.24600 7.98600 24.12900
H  39.71300 7.00000 25.51900
H  40.10200 11.36700 24.50500
H  41.54200 12.20700 25.18900
H  38.75500 12.53800 25.50200
H  40.00400 13.61600 26.08600
H  39.42100 12.18000 27.03200
H  45.23000 12.83300 29.09700
H  45.41200 11.10300 28.71700
H  45.90500 11.80400 30.25800
H  42.76700 12.13500 34.36600
H  43.92800 10.13200 37.94800
H  45.42600 9.87000 37.08300
H  44.12200 8.70300 36.98700
Mg -12.24400 16.04700 41.32900
C  -9.17800 14.29600 40.96400
C  -10.96600 18.62600 39.39200
C  -15.39900 17.24300 41.10700
C  -13.53300 12.96900 42.57800
N  -10.35900 16.39500 40.35200
C  -9.23400 15.55400 40.32800
C  -8.01200 16.31200 39.70800
C  -8.60100 17.69500 39.33600
C  -10.07700 17.56100 39.66000
C  -7.94100 18.90800 40.06800
C  -7.63300 15.53900 38.41300
C  -6.13800 15.15700 38.35600
H  -5.38100 15.73400 37.19400
N  -13.11000 17.76000 40.37400
C  -12.36600 18.68500 39.68000
C  -13.24600 19.73100 39.29900
C  -14.56300 19.42300 39.83300
C  -14.42400 18.09800 40.47500
C  -12.86900 20.99800 38.48000
C  -15.84100 20.36200 39.66700
O  -15.79600 21.46900 39.17200
C  -17.25100 20.00100 40.18500
N  -14.19900 15.15500 41.65700
C  -15.24600 15.90400 41.62200
C  -16.51200 15.08500 42.02500
C  -15.90800 13.88400 42.81700
C  -14.46600 13.96200 42.31500
C  -17.66100 15.88900 42.66700
C  -16.69300 12.57300 42.68000
C  -17.22900 11.99300 44.05300
N  -11.48100 14.05300 41.80000
C  -12.15500 12.88200 42.36000
C  -11.21500 11.89700 42.64400
C  -9.98600 12.45400 42.18700
C  -10.27900 13.70400 41.58500
C  -11.33600 10.61000 43.42600
C  -8.53200 12.19200 42.09200
O  -7.83600 11.24900 42.57100
C  -7.95500 13.38700 41.22200
C  -6.93200 14.14100 42.00400
O  -7.00000 14.45400 43.15600
O  -5.80300 14.20900 41.28000
C  -4.58700 14.66200 41.93800
H  -10.49500 19.53600 39.01600
H  -16.39100 17.69800 41.06400
H  -13.97500 12.15600 43.15700
H  -7.14100 16.43800 40.35100
H  -8.71700 17.88200 38.26900
H  -7.04700 18.54700 40.57700
H  -8.62300 19.27400 40.83600
H  -7.73100 19.63700 39.28500
H  -7.86600 16.13400 37.53000
H  -8.25500 14.67400 38.18200
H  -6.16100 14.06700 38.37100
H  -5.62200 15.42500 39.27800
H  -13.19100 21.88000 39.03400
H  -13.34300 21.02200 37.49900
H  -11.80400 21.12800 38.28900
H  -17.24000 19.81200 41.25800
H  -17.71200 19.28100 39.50900
H  -17.92800 20.85200 40.11500
H  -16.84500 14.62500 41.09400
H  -15.88200 14.26900 43.83600
H  -17.91100 15.36800 43.59200
H  -18.57200 15.89700 42.06900
H  -17.40500 16.92800 42.87000
H  -16.11200 11.78900 42.19400
H  -17.51700 12.82000 42.01100
H  -18.28300 12.21700 43.89000
H  -16.77300 12.43700 44.93900
H  -17.04500 10.91900 44.06200
H  -10.31500 10.31200 43.65900
H  -11.66900 9.76700 42.82000
H  -11.98500 10.71600 44.29500
H  -7.43100 13.03100 40.33500
H  -3.77700 14.01400 41.60400
H  -4.64800 14.58500 43.02300
H  -4.43900 15.70100 41.64300

