158

Mg 26.06800 1.18900 29.18300
C  28.04000 0.70600 32.07500
C  23.27500 1.71800 31.12100
C  24.06900 1.51900 26.31300
C  28.71200 0.42900 27.27500
N  25.72800 1.17500 31.30700
C  26.67300 1.01300 32.34200
C  26.05400 1.30000 33.69600
C  24.52700 1.48200 33.33600
C  24.53000 1.50200 31.82400
C  23.52000 0.49200 33.97600
C  26.76500 2.58200 34.29900
C  27.31700 2.23700 35.74800
H  26.91600 3.11400 36.88500
N  23.92200 1.34900 28.80800
C  22.94700 1.58800 29.78400
C  21.69400 1.57000 29.06000
C  21.93900 1.53800 27.69900
C  23.32500 1.53600 27.55200
C  20.38100 1.75200 29.77600
C  20.94600 1.46700 26.44400
O  21.36000 1.38400 25.29100
C  19.52300 1.26800 26.74100
N  26.29700 0.89800 27.09200
C  25.38300 1.13800 26.06400
C  26.01900 0.79400 24.62000
C  27.53600 0.90500 25.02700
C  27.56300 0.81200 26.57300
C  25.80300 -0.57200 24.12400
C  28.26700 2.23600 24.63200
C  29.58800 2.07600 23.79900
N  28.00300 0.52600 29.51700
C  28.98900 0.23300 28.65300
C  30.12300 -0.31400 29.37600
C  29.82200 -0.02300 30.68100
C  28.52100 0.43900 30.79300
C  31.39000 -0.52500 28.60200
C  30.36000 0.09000 32.09100
O  31.50500 -0.08700 32.50100
C  29.17500 0.51100 33.05400
C  28.98900 -0.55800 34.02100
O  28.05100 -1.32900 33.97100
O  29.83600 -0.46800 35.05600
C  29.52500 -1.19000 36.29800
H  22.50500 2.07200 31.80900
H  23.58600 1.72300 25.35500
H  29.56700 0.15300 26.65400
H  26.23000 0.42500 34.32200
H  24.18100 2.48700 33.57800
H  23.26900 -0.34800 33.32800
H  22.61700 1.05800 34.20900
H  23.93700 0.06800 34.88900
H  26.10000 3.44300 34.36400
H  27.60400 2.84800 33.65700
H  28.39900 2.37000 35.71400
H  27.11000 1.20700 36.03700
H  19.85500 0.81900 29.97800
H  19.85400 2.58400 29.30900
H  20.51400 2.15000 30.78200
H  19.13100 2.20200 27.14500
H  19.40400 0.37700 27.35700
H  18.99200 1.19100 25.79300
H  25.66600 1.52100 23.88800
H  28.16100 0.10800 24.62400
H  25.03500 -0.44300 23.36100
H  25.41400 -1.27900 24.85600
H  26.66900 -0.98400 23.60500
H  28.51600 2.79800 25.53200
H  27.66600 2.90500 24.01600
H  29.32800 2.17300 22.74500
H  29.87900 1.03400 23.93000
H  30.35500 2.83600 23.95100
H  32.17800 0.07300 29.05900
H  31.20600 -0.24200 27.56500
H  31.69800 -1.56900 28.64400
H  29.39300 1.42700 33.60400
H  28.59600 -0.79100 36.70500
H  30.18600 -1.13800 37.16300
H  29.33600 -2.24100 36.07800
Mg -10.63600 16.21800 40.89500
C  -7.22700 16.45100 40.58300
C  -10.82600 19.56300 40.21200
C  -13.96600 15.81300 40.59600
C  -10.31500 12.66300 41.13400
N  -9.14200 17.79900 40.40100
C  -7.79600 17.67000 40.29200
C  -7.15200 19.08700 40.01600
C  -8.30800 20.04600 40.49200
C  -9.54300 19.09100 40.35000
C  -8.17100 20.66300 41.92600
C  -6.70300 19.16200 38.53300
C  -5.24500 18.85700 38.28700
H  -4.75200 17.74800 37.26100
N  -12.16700 17.48100 40.44300
C  -12.04500 18.78200 40.19700
C  -13.33800 19.38400 40.01300
C  -14.35700 18.30100 40.02600
C  -13.48200 17.11800 40.31300
C  -13.57700 20.85800 39.66200
C  -15.93000 18.43700 39.72000
O  -16.53900 19.49500 39.74800
C  -16.79600 17.20400 39.49700
N  -11.91900 14.50900 40.69100
C  -13.26600 14.66700 40.77300
C  -13.98300 13.34900 40.97300
C  -12.83900 12.29000 40.78800
C  -11.57800 13.18500 40.92800
C  -14.87800 13.30900 42.31300
C  -12.73300 11.33400 39.57000
C  -12.31700 11.81300 38.17200
N  -9.04800 14.72400 40.93700
C  -9.05100 13.36100 41.08000
C  -7.67600 12.90500 41.25000
C  -6.90200 14.08300 41.02000
C  -7.80600 15.12600 40.81400
C  -7.24700 11.54600 41.38100
C  -5.56100 14.67300 40.99400
O  -4.46600 14.15200 41.09700
C  -5.72300 16.24000 40.60100
C  -4.91100 17.06400 41.60300
O  -3.71300 17.13100 41.55100
O  -5.60600 17.68400 42.58700
C  -4.75200 18.54800 43.46000
H  -10.84300 20.63600 40.01100
H  -15.04900 15.69300 40.67400
H  -10.17200 11.59400 41.30100
H  -6.19900 19.30100 40.50200
H  -8.44800 20.96500 39.92200
H  -8.75100 20.26500 42.75900
H  -8.52900 21.68000 41.76900
H  -7.12100 20.77300 42.19600
H  -6.92300 20.19000 38.24500
H  -7.42800 18.65400 37.89700
H  -4.74100 18.56600 39.20900
H  -4.77500 19.81300 38.06000
H  -12.81600 21.13500 38.93300
H  -13.60500 21.47100 40.56200
H  -14.55100 20.89200 39.17300
H  -16.29900 16.45800 38.87600
H  -17.68900 17.51000 38.95200
H  -17.13300 16.92300 40.49500
H  -14.69000 13.29000 40.14500
H  -12.96700 11.77400 41.74000
H  -14.43400 13.93100 43.09000
H  -14.89700 12.28600 42.69000
H  -15.89200 13.63800 42.08400
H  -13.66500 10.86500 39.25300
H  -12.09600 10.47000 39.75900
H  -11.75700 12.74600 38.23800
H  -13.23000 11.84400 37.57700
H  -11.66800 11.11600 37.64100
H  -7.36200 10.96000 40.46900
H  -7.76000 10.99400 42.16900
H  -6.18200 11.54400 41.61400
H  -5.28200 16.29200 39.60600
H  -5.28600 18.90600 44.34000
H  -4.40900 19.36500 42.82500
H  -3.87600 18.03400 43.85700

