158

Mg 41.17000 8.65800 29.56800
C  43.14000 10.15600 32.05300
C  39.04100 7.50300 31.71800
C  39.75600 6.96800 26.93100
C  43.66600 9.62800 27.26200
N  41.16700 8.81000 31.59100
C  41.95100 9.50200 32.49200
C  41.39700 9.56300 33.97100
C  40.10500 8.69500 33.80900
C  40.09400 8.27100 32.29000
C  40.06900 7.35200 34.67400
C  41.23800 10.91300 34.59700
C  40.47100 11.09000 35.95100
H  41.32300 11.33100 37.17800
N  39.54400 7.42400 29.38300
C  38.71900 7.11200 30.44100
C  37.55000 6.40000 29.94700
C  37.72900 6.28600 28.50700
C  39.04900 6.93800 28.20500
C  36.38800 5.91100 30.88900
C  36.77200 5.73100 27.48700
O  36.97500 5.75000 26.31400
C  35.53300 5.06500 27.98800
N  41.76500 8.26200 27.41600
C  40.91900 7.67000 26.56000
C  41.46600 7.60800 25.10800
C  42.46300 8.77800 25.19200
C  42.65400 8.89100 26.69000
C  41.87600 6.22500 24.57600
C  42.02200 10.09700 24.36700
C  40.97400 10.99700 25.01100
N  42.98500 9.71200 29.61000
C  43.92200 10.05500 28.59800
C  45.02900 10.73400 29.20800
C  44.74300 10.89400 30.55600
C  43.51300 10.18700 30.76000
C  46.06700 11.40700 28.40500
C  45.23000 11.39800 31.79800
O  46.19100 12.11400 32.09600
C  44.16100 10.95800 32.85800
C  44.79200 10.09200 33.91300
O  45.20100 8.93200 33.72400
O  44.59300 10.64100 35.18200
C  45.13900 9.87900 36.30600
H  38.24200 7.19900 32.39800
H  39.25900 6.47600 26.09200
H  44.40300 9.93900 26.51800
H  42.00700 9.03600 34.70400
H  39.29000 9.36700 34.07900
H  39.15300 7.34100 35.26600
H  40.87100 7.23000 35.40200
H  40.12500 6.55300 33.93500
H  40.70600 11.52800 33.87100
H  42.20700 11.37800 34.78000
H  39.81800 10.24600 36.17300
H  39.92800 12.03300 35.87300
H  35.42700 6.28200 30.53100
H  36.50500 6.20500 31.93300
H  36.25300 4.83100 30.93300
H  35.77400 4.30500 28.73100
H  35.10400 4.52300 27.14400
H  34.80900 5.80400 28.33100
H  40.59100 7.90400 24.53000
H  43.44000 8.51600 24.78400
H  42.89400 6.18700 24.18700
H  41.16500 5.98700 23.78500
H  41.68600 5.50300 25.37000
H  41.64400 9.63500 23.45400
H  42.86500 10.72600 24.08000
H  40.72800 10.66600 26.02000
H  40.08400 11.10000 24.38900
H  41.48300 11.95700 25.09800
H  45.62300 11.64400 27.43800
H  47.00300 10.86100 28.28900
H  46.33500 12.26700 29.01800
H  43.67300 11.80900 33.33300
H  44.39100 9.86400 37.09900
H  45.96500 10.42200 36.76600
H  45.53300 8.89800 36.04100
Mg -8.67900 40.60400 42.10300
C  -7.90100 37.24800 41.07200
C  -5.97000 41.64600 40.46200
C  -9.99100 43.69200 42.07700
C  -11.74900 39.33800 43.23300
N  -7.29800 39.55000 40.78500
C  -6.99000 38.22600 40.68600
C  -5.68200 38.00200 39.99400
C  -4.87000 39.38000 40.23900
C  -6.08900 40.25800 40.55300
C  -3.98500 39.30900 41.45200
C  -5.90500 37.55900 38.52400
C  -5.44200 36.13900 38.02300
H  -4.52100 36.07800 36.73800
N  -8.06600 42.48800 41.41000
C  -6.85700 42.66500 40.80500
C  -6.64300 44.07400 40.66100
C  -7.73100 44.75900 41.10900
C  -8.68500 43.64200 41.54800
C  -5.44700 44.66000 39.91600
C  -8.01400 46.24300 41.09300
O  -7.17000 47.06800 40.65300
C  -9.33500 46.80300 41.64900
N  -10.68700 41.37200 42.61200
C  -10.89100 42.72200 42.67000
C  -12.20900 43.05700 43.27400
C  -12.83300 41.65900 43.49000
C  -11.70500 40.69200 43.05300
C  -12.28200 44.11700 44.43700
C  -14.14200 41.37800 42.69800
C  -15.33300 42.32000 42.85000
N  -9.63700 38.69800 42.36500
C  -10.86600 38.38500 42.83400
C  -10.94100 36.94900 42.86500
C  -9.85300 36.48100 42.12300
C  -9.09100 37.55800 41.81400
C  -12.10700 36.12000 43.45600
C  -9.14300 35.30700 41.68700
O  -9.39000 34.10500 41.74900
C  -7.88000 35.74900 40.92700
C  -6.75200 35.05300 41.44200
O  -6.29400 35.21700 42.53000
O  -6.35100 34.17400 40.52400
C  -5.12000 33.47200 40.78700
H  -5.01100 42.06000 40.14400
H  -10.41800 44.69200 42.18300
H  -12.64000 38.93300 43.71800
H  -4.98200 37.23900 40.33700
H  -4.22000 39.77100 39.45600
H  -4.45700 39.67800 42.36300
H  -3.07000 39.89200 41.34400
H  -3.64900 38.28800 41.63500
H  -5.30100 38.13300 37.82000
H  -6.95700 37.72800 38.29700
H  -6.32700 35.52500 37.85800
H  -4.81700 35.63100 38.75700
H  -5.94400 45.38000 39.26600
H  -4.97600 43.96000 39.22500
H  -4.75500 45.21800 40.54600
H  -10.20100 46.44100 41.09700
H  -9.29800 47.88900 41.56000
H  -9.30000 46.55400 42.71000
H  -12.85000 43.41900 42.47000
H  -13.05300 41.35300 44.51300
H  -11.35200 44.63600 44.66700
H  -12.67800 43.69900 45.36200
H  -12.93300 44.88700 44.02100
H  -14.40600 40.35000 42.94700
H  -13.87800 41.41100 41.64100
H  -15.64900 42.82000 41.93400
H  -15.22400 43.01100 43.68600
H  -16.22700 41.74800 43.09600
H  -11.68100 35.39800 44.15300
H  -12.52000 35.54300 42.62900
H  -12.90900 36.75300 43.83500
H  -8.06400 35.47600 39.88800
H  -4.61800 33.23400 39.84900
H  -5.36000 32.63000 41.43800
H  -4.42100 34.09300 41.34700

