158

Mg -11.22000 38.30400 41.60600
C  -8.70700 36.06500 40.99400
C  -9.57500 40.65700 39.72700
C  -14.07900 40.22900 41.38400
C  -13.19400 35.73300 42.98300
N  -9.42100 38.27100 40.44700
C  -8.48100 37.27200 40.40400
C  -7.23300 37.71400 39.63100
C  -7.62500 39.06600 39.00000
C  -8.93800 39.37800 39.82400
C  -6.47100 40.14200 38.89400
C  -6.66200 36.73800 38.65000
C  -5.13800 36.31200 38.75500
H  -4.29100 36.89100 37.62100
N  -11.67700 40.27600 40.99000
C  -10.79100 41.01700 40.19100
C  -11.40900 42.28000 40.02500
C  -12.73400 42.17800 40.53700
C  -12.90300 40.83600 40.99900
C  -10.72700 43.44400 39.23600
C  -13.76500 43.26400 40.50800
O  -13.54000 44.34600 39.95100
C  -15.14600 43.16700 41.19100
N  -13.45100 37.88000 41.86200
C  -14.32600 38.93300 41.91500
C  -15.65700 38.57500 42.60800
C  -15.36000 37.11300 43.04100
C  -13.88600 36.92000 42.67600
C  -16.06900 39.58600 43.75000
C  -16.42300 36.04400 42.55700
C  -16.19500 35.51100 41.16200
N  -11.11400 36.21900 41.94800
C  -11.91700 35.40200 42.64100
C  -11.13700 34.26100 43.04000
C  -9.91200 34.39200 42.30500
C  -9.98200 35.62700 41.62000
C  -11.50300 33.21600 44.10200
C  -8.59200 33.79700 42.13600
O  -8.14900 32.78600 42.61200
C  -7.81000 34.79200 41.12800
C  -6.38600 34.88000 41.64700
O  -5.58400 33.95300 41.68900
O  -6.25500 36.14000 42.22100
C  -4.90700 36.40600 42.74300
H  -8.98200 41.42400 39.22400
H  -15.01200 40.78100 41.51300
H  -13.87100 35.01500 43.44900
H  -6.42900 37.95900 40.32500
H  -8.01400 38.92100 37.99200
H  -6.65300 41.01300 39.52200
H  -6.37900 40.38600 37.83600
H  -5.51500 39.73400 39.22300
H  -6.62000 37.27900 37.70500
H  -7.31800 35.88000 38.50200
H  -4.95800 35.23700 38.77000
H  -4.73500 36.61800 39.72000
H  -11.30500 43.83300 38.39800
H  -9.76300 43.18500 38.79900
H  -10.60500 44.25500 39.95300
H  -15.15400 42.80900 42.22100
H  -15.75900 42.61000 40.48200
H  -15.63300 44.14100 41.23400
H  -16.49800 38.65300 41.91900
H  -15.36600 36.99900 44.12500
H  -16.84400 40.32300 43.53900
H  -15.16000 40.12700 44.01500
H  -16.44800 39.04600 44.61700
H  -17.46000 36.37400 42.62900
H  -16.19800 35.17300 43.17300
H  -17.10500 35.30100 40.59800
H  -15.59300 34.60400 41.21100
H  -15.56500 36.20400 40.60500
H  -10.66700 32.51900 44.16600
H  -12.42600 32.78600 43.71500
H  -11.58300 33.75200 45.04800
H  -7.62500 34.40300 40.12700
H  -4.18100 36.18700 41.96100
H  -4.83300 35.75200 43.61200
H  -4.72300 37.42500 43.08600
Mg 0.44200 44.39900 24.09400
C  2.30800 44.02400 27.01100
C  -2.53200 43.97400 25.77200
C  -1.22400 43.82900 21.11700
C  3.55100 44.61400 22.40700
N  -0.01300 44.09000 26.09700
C  0.90400 43.97200 27.17400
C  0.10000 44.05900 28.53200
C  -1.34900 43.93200 28.06400
C  -1.34300 43.97900 26.55000
C  -2.03900 42.67400 28.63300
C  0.46800 45.25000 29.41100
C  0.67700 45.14600 30.94900
H  0.81700 43.75200 31.53600
N  -1.62900 44.09500 23.54000
C  -2.76300 44.01100 24.37100
C  -3.96100 44.20900 23.59000
C  -3.55000 44.10000 22.21700
C  -2.06200 43.92400 22.25000
C  -5.21300 44.57800 24.29800
C  -4.46800 44.19300 21.01700
O  -3.95900 44.11500 19.87700
C  -6.03600 44.27100 21.22000
N  1.02600 44.07800 22.16400
C  0.12800 43.89300 21.12800
C  0.89300 43.84600 19.85900
C  2.30100 44.38800 20.18900
C  2.27600 44.41700 21.70800
C  0.94200 42.32000 19.31000
C  2.73600 45.73000 19.56400
C  3.93900 45.77300 18.57200
N  2.47800 44.37900 24.50600
C  3.61800 44.41300 23.75000
C  4.79100 44.36700 24.49500
C  4.29400 44.25800 25.79800
C  2.91800 44.21600 25.75800
C  6.19000 44.40100 24.03700
C  4.75100 44.27200 27.14700
O  5.90700 44.43100 27.50800
C  3.50100 44.11600 28.07500
C  3.68700 42.89500 28.88600
O  3.07100 41.82100 28.82700
O  4.72700 43.17800 29.74600
C  5.13300 42.03200 30.58100
H  -3.46400 44.00800 26.34000
H  -1.72500 43.70500 20.15400
H  4.41100 44.83300 21.77000
H  0.37700 43.16700 29.09400
H  -1.99900 44.75600 28.35900
H  -1.56900 42.11200 29.44000
H  -2.24300 42.00700 27.79600
H  -2.98300 43.08400 28.99200
H  -0.28100 46.03700 29.32500
H  1.25100 45.80100 28.88900
H  -0.12300 45.63300 31.50700
H  1.60500 45.68000 31.15400
H  -5.88700 44.95100 23.52800
H  -5.02700 45.31000 25.08400
H  -5.61100 43.63100 24.66500
H  -6.48000 43.59700 21.95300
H  -6.39500 43.93000 20.24900
H  -6.26900 45.32700 21.36300
H  0.45500 44.62100 19.23000
H  3.03700 43.61500 19.96800
H  1.95700 41.92200 19.30200
H  0.56200 42.50400 18.30500
H  0.22600 41.67500 19.81900
H  3.01300 46.51200 20.27100
H  1.83900 46.10900 19.07400
H  4.16900 44.75300 18.26400
H  4.69700 46.42800 19.00200
H  3.60900 46.36900 17.72200
H  6.82400 44.68700 24.87700
H  6.22900 45.07300 23.18000
H  6.34800 43.38000 23.69000
H  3.53700 44.94100 28.78600
H  6.04400 42.26000 31.13300
H  5.28000 41.11900 30.00400
H  4.31700 41.82300 31.27300

