158

Mg 42.91500 42.21100 25.75800
C  42.07500 44.58200 28.36800
C  43.76500 40.02300 28.29100
C  43.94000 40.12600 23.32900
C  42.31300 44.63200 23.45100
N  42.87400 42.29400 28.13000
C  42.41600 43.32500 28.90600
C  42.49200 42.90700 30.41700
C  43.13800 41.50700 30.34300
C  43.25100 41.20800 28.81200
C  44.47100 41.29000 31.08600
C  41.11400 42.96700 30.99600
C  40.85500 42.27400 32.36100
H  41.25800 43.09200 33.59700
N  43.76500 40.33200 25.78600
C  44.01200 39.57900 26.97700
C  44.46800 38.23900 26.55400
C  44.56700 38.24800 25.08200
C  44.08900 39.59800 24.67600
C  45.00100 37.15700 27.38400
C  44.93700 37.11600 24.13500
O  45.19600 37.31800 23.01800
C  45.16800 35.73100 24.63600
N  43.07900 42.45300 23.71000
C  43.43000 41.35500 22.91000
C  43.28800 41.73300 21.45100
C  42.52200 42.98700 21.51300
C  42.56100 43.38600 23.00200
C  44.66600 41.86000 20.70700
C  41.05600 42.88200 20.95600
C  40.00900 42.34200 22.06000
N  42.50100 44.29100 25.84500
C  42.21300 45.06600 24.79500
C  41.84000 46.37300 25.27100
C  41.70300 46.18900 26.62900
C  42.06900 44.90700 26.95900
C  41.51500 47.45800 24.35200
C  41.29900 46.80400 27.83900
O  40.88800 47.93700 28.06700
C  41.54100 45.80200 29.09500
C  42.58100 46.41200 29.95600
O  43.64400 46.82800 29.49900
O  42.10400 46.62500 31.23200
C  42.95500 47.51700 32.03600
H  44.12400 39.31900 29.04500
H  44.27300 39.46500 22.52600
H  41.94800 45.41500 22.78300
H  43.01800 43.65600 31.00900
H  42.42300 40.80100 30.76600
H  45.23600 41.30800 30.31000
H  44.36100 40.31900 31.57000
H  44.66800 42.17300 31.69300
H  40.41100 42.45300 30.34000
H  40.69600 43.94500 31.23400
H  41.34100 41.30300 32.45700
H  39.78400 42.08800 32.44900
H  45.25100 37.58300 28.35600
H  45.99900 36.81300 27.11200
H  44.41600 36.24500 27.49700
H  44.99200 34.97100 23.87500
H  44.31500 35.50400 25.27600
H  46.16200 35.62700 25.07100
H  42.71500 41.02800 20.84900
H  42.92100 43.76500 20.86100
H  45.36600 41.17300 21.18300
H  45.09500 42.85600 20.81400
H  44.59700 41.65900 19.63800
H  41.01600 42.19300 20.11200
H  40.78300 43.86600 20.57500
H  40.55800 41.66000 22.70900
H  39.31400 41.62800 21.61600
H  39.38600 43.06300 22.58800
H  42.41200 47.80100 23.83600
H  41.17500 48.33600 24.90000
H  40.74800 47.24800 23.60700
H  40.57800 45.58700 29.55700
H  43.47300 46.84500 32.72100
H  42.34700 48.22500 32.60000
H  43.75800 47.94000 31.43300
Mg 17.16800 52.58800 26.47700
C  19.01600 50.88800 29.08700
C  14.76300 53.20400 28.95200
C  15.46500 54.31400 24.22600
C  19.37200 51.43200 24.13300
N  16.87900 52.03100 28.77800
C  17.80300 51.46400 29.63900
C  17.35400 51.67600 31.13900
C  15.80900 52.12700 30.94700
C  15.78000 52.39100 29.45800
C  14.76600 51.19800 31.59100
C  18.17600 52.75100 31.81800
C  18.09300 52.89900 33.35900
H  17.11800 52.05800 34.17200
N  15.49400 53.83900 26.64500
C  14.63500 53.90000 27.70800
C  13.48000 54.72900 27.30600
C  13.73200 55.11700 25.93100
C  14.88000 54.40000 25.53600
C  12.30200 54.98900 28.17800
C  12.94900 56.05400 24.98800
O  13.29700 56.44100 23.88600
C  11.79800 56.83600 25.59100
N  17.29000 52.70800 24.42900
C  16.51700 53.56700 23.73600
C  16.74100 53.28100 22.17400
C  18.26500 52.86200 22.23800
C  18.34100 52.27500 23.65000
C  15.88300 52.21800 21.38700
C  19.24000 54.06600 22.12800
C  20.00900 54.16100 20.81400
N  18.80100 51.38000 26.44900
C  19.66200 51.03000 25.43900
C  20.65900 50.21300 25.98400
C  20.51000 50.14100 27.32200
C  19.33900 50.85400 27.64700
C  21.79500 49.52100 25.24500
C  21.12400 49.69100 28.65500
O  22.23000 49.17400 28.85800
C  20.15400 50.28000 29.81000
C  19.84900 49.23000 30.81900
O  19.44800 48.07900 30.58900
O  20.16400 49.64400 32.05900
C  19.75000 48.75700 33.14900
H  13.96100 53.47000 29.64400
H  14.91100 54.72800 23.38200
H  20.01700 50.98900 23.37100
H  17.48700 50.71400 31.63300
H  15.66800 53.04800 31.51400
H  15.18000 50.63300 32.42600
H  14.45700 50.42000 30.89400
H  13.85600 51.75600 31.81100
H  17.93300 53.71800 31.37800
H  19.22600 52.54300 31.61500
H  17.91400 53.94600 33.60200
H  19.05400 52.69500 33.83000
H  11.44700 55.03800 27.50400
H  12.53400 55.94800 28.64200
H  12.14300 54.18200 28.89200
H  10.91400 56.22500 25.77300
H  11.52800 57.56400 24.82600
H  12.16400 57.35400 26.47700
H  16.59200 54.22700 21.65400
H  18.50000 52.09000 21.50600
H  16.60400 51.67000 20.78000
H  15.05000 52.57800 20.78500
H  15.45600 51.49500 22.08200
H  19.90500 54.12300 22.99000
H  18.64100 54.97000 22.23700
H  19.85600 55.22800 20.65200
H  19.68500 53.51600 19.99700
H  21.05900 53.93600 20.99800
H  22.57000 50.28700 25.26200
H  21.54000 49.25800 24.21900
H  22.06100 48.59100 25.74800
H  20.70900 51.07400 30.30900
H  20.56400 48.03600 33.21800
H  18.73300 48.38200 33.03200
H  19.81900 49.42500 34.00800

