158

Mg 35.31100 1.79700 29.95700
C  32.83000 2.84200 32.17700
C  37.54800 1.85700 32.64100
C  37.71800 1.19800 27.83400
C  32.90000 2.10300 27.35700
N  35.23700 2.48300 32.08400
C  34.10000 2.71600 32.80000
C  34.31500 2.85100 34.27100
C  35.89100 2.85800 34.47200
C  36.29300 2.40300 32.92400
C  36.54800 4.29300 34.78400
C  33.69500 1.63100 35.08500
C  33.60700 1.86700 36.60500
H  34.03500 3.22800 37.27500
N  37.32200 1.47500 30.22900
C  38.05100 1.48200 31.36500
C  39.44700 0.95700 31.18600
C  39.53300 0.78200 29.73300
C  38.16400 1.14300 29.17300
C  40.56400 0.89600 32.25900
C  40.56400 0.09700 28.89100
O  40.39000 -0.25300 27.72100
C  41.88300 -0.28700 29.54200
N  35.21500 1.72200 27.94300
C  36.42000 1.34900 27.30700
C  36.08200 1.18700 25.78500
C  34.56400 1.55400 25.65600
C  34.17000 1.85400 27.04400
C  36.98700 2.09100 24.84100
C  33.70700 0.46300 24.92300
C  33.35700 0.75300 23.43500
N  33.19800 2.30800 29.69500
C  32.36100 2.35300 28.63900
C  31.00800 2.63800 29.04900
C  31.10900 2.83900 30.44100
C  32.53600 2.65800 30.78800
C  29.73300 2.84900 28.30600
C  30.40700 3.11200 31.65800
O  29.19200 3.18500 31.82200
C  31.50800 3.18500 32.77300
C  31.42200 4.60200 33.33400
O  31.84900 5.62500 32.78600
O  30.88800 4.48100 34.60300
C  30.64900 5.75300 35.19600
H  38.27100 1.69600 33.44400
H  38.49600 0.86700 27.14200
H  32.16000 2.22100 26.56300
H  33.96800 3.83000 34.60100
H  36.22300 2.15300 35.23500
H  37.29200 4.41300 33.99700
H  37.17800 4.16400 35.66400
H  35.83500 5.10400 34.93300
H  34.42700 0.82300 35.07500
H  32.77200 1.37900 34.56300
H  34.17900 1.03900 37.02200
H  32.57100 1.81500 36.93800
H  40.58500 -0.12100 32.65100
H  40.47900 1.67000 33.02200
H  41.54100 1.16500 31.85800
H  41.76300 -0.91300 30.42600
H  42.42000 0.62600 29.79800
H  42.39500 -0.87000 28.77600
H  36.24400 0.12000 25.63000
H  34.65000 2.47500 25.08000
H  37.53500 1.39700 24.20400
H  37.62600 2.73600 25.44400
H  36.46400 2.76500 24.16200
H  32.82500 0.25300 25.52800
H  34.14400 -0.53500 24.93600
H  33.46300 -0.11900 22.78900
H  33.89000 1.63300 23.07300
H  32.28700 0.95400 23.46700
H  29.20100 1.93200 28.05400
H  30.03100 3.36700 27.39400
H  29.21900 3.66300 28.81700
H  31.18800 2.41300 33.47400
H  31.36600 6.51600 34.89400
H  30.76200 5.52300 36.25600
H  29.62200 6.10700 35.10600
Mg 26.10900 50.56800 26.56100
C  23.88500 51.67800 28.82500
C  28.34000 49.93000 29.16000
C  28.32300 49.33200 24.29100
C  23.90800 51.17300 23.88900
N  26.10800 50.90500 28.70400
C  24.97600 51.10800 29.45300
C  25.20200 50.83100 31.00100
C  26.69200 50.62800 31.01300
C  27.10800 50.45900 29.56700
C  27.46700 51.79900 31.76000
C  24.34200 49.64000 31.57000
C  23.87800 49.67000 33.02200
H  24.37300 50.79000 33.96300
N  28.09200 49.84700 26.73400
C  28.79000 49.61600 27.88300
C  30.05300 49.02000 27.49300
C  30.10400 48.92500 26.12100
C  28.75700 49.36500 25.66300
C  31.18400 48.82900 28.48100
C  31.17500 48.44700 25.22000
O  31.25200 48.49800 23.97900
C  32.38400 47.80600 25.85900
N  26.14900 50.37500 24.37300
C  27.12900 49.77900 23.70400
C  26.84200 49.69900 22.20000
C  25.34000 50.11500 22.13500
C  25.09000 50.60600 23.56000
C  27.82100 50.54600 21.35200
C  24.22200 49.11700 21.58000
C  23.57400 49.65900 20.24400
N  24.34000 51.40900 26.37800
C  23.57300 51.69700 25.21600
C  22.42800 52.52000 25.67500
C  22.43600 52.49300 27.07100
C  23.65100 51.85000 27.38600
C  21.31000 53.08900 24.80100
C  21.74900 52.81100 28.29900
O  20.62100 53.30100 28.47700
C  22.67600 52.36900 29.45700
C  23.03500 53.54700 30.29100
O  24.01000 54.31600 30.06600
O  22.22000 53.70600 31.43300
C  22.35300 54.98300 32.07700
H  28.89200 49.48700 29.99100
H  29.00100 48.95600 23.52200
H  23.15400 51.29600 23.10900
H  24.99100 51.80400 31.44600
H  27.08100 49.72900 31.49000
H  27.79800 52.61900 31.12200
H  28.26300 51.24800 32.26000
H  26.82600 52.11800 32.58200
H  24.92700 48.73700 31.39500
H  23.41200 49.58000 31.00500
H  23.98300 48.69100 33.48800
H  22.79000 49.62700 32.97300
H  31.48000 47.82300 28.77500
H  30.99300 49.33300 29.42800
H  32.00500 49.46700 28.15400
H  32.93600 47.43500 24.99600
H  32.09200 46.92100 26.42500
H  33.02100 48.49600 26.41300
H  26.98300 48.69000 21.81100
H  25.22900 50.93000 21.41900
H  28.26200 50.02700 20.50100
H  28.69200 50.81600 21.94800
H  27.39000 51.49300 21.02700
H  23.39500 48.99000 22.28000
H  24.68100 48.15600 21.34900
H  24.29400 49.43600 19.45700
H  23.50200 50.74600 20.26800
H  22.52700 49.36100 20.17500
H  20.76100 53.83400 25.37600
H  20.58400 52.40800 24.35700
H  21.86200 53.64900 24.04600
H  22.11900 51.69500 30.10800
H  22.65000 55.84100 31.47400
H  23.10200 54.83100 32.85400
H  21.46500 55.13300 32.69100

