158

Mg 16.78200 -0.97900 27.63600
C  16.11000 1.00200 30.54100
C  18.80900 -2.93400 29.72400
C  18.13500 -2.24900 24.93300
C  15.06500 1.37900 25.79300
N  17.39300 -0.88000 29.74800
C  16.96500 -0.01900 30.85100
C  17.45500 -0.42100 32.22300
C  18.45200 -1.60000 31.82700
C  18.23800 -1.83300 30.34100
C  19.90300 -1.44100 32.21700
C  16.31500 -0.71800 33.30800
C  16.33400 0.10400 34.66800
H  17.75700 0.63900 35.17300
N  18.22200 -2.42300 27.31400
C  18.80700 -3.22800 28.33800
C  19.58500 -4.23000 27.69100
C  19.40800 -4.09900 26.23100
C  18.54100 -2.88300 26.07700
C  20.32500 -5.33300 28.48900
C  19.91700 -4.83100 24.97800
O  19.62000 -4.62100 23.82500
C  21.04600 -5.87600 25.21300
N  16.66300 -0.52700 25.57700
C  17.38000 -1.14500 24.67900
C  17.16200 -0.49200 23.26800
C  15.98400 0.54900 23.56000
C  15.83700 0.42200 25.05200
C  18.48400 0.18300 22.65900
C  14.64700 0.19300 22.82200
C  14.73200 0.23900 21.23600
N  15.70200 0.74100 28.01700
C  15.03100 1.58800 27.19800
C  14.44700 2.66700 28.01100
C  14.80800 2.41800 29.30400
C  15.66600 1.32300 29.26300
C  13.68500 3.89500 27.43600
C  14.64200 2.85200 30.66200
O  13.91300 3.74600 31.04100
C  15.58000 2.03100 31.49400
C  16.44600 3.07700 32.08500
O  17.44500 3.55200 31.54600
O  15.90300 3.54100 33.24700
C  16.57700 4.64000 33.96600
H  19.45700 -3.55900 30.34100
H  18.76000 -2.58900 24.10400
H  14.45700 2.09100 25.23000
H  18.11100 0.32300 32.67400
H  18.19400 -2.59200 32.19700
H  20.58300 -1.90800 31.50500
H  20.16000 -2.05800 33.07800
H  20.11700 -0.38900 32.41000
H  16.41000 -1.80000 33.40100
H  15.42700 -0.41200 32.75500
H  15.88700 -0.51500 35.44600
H  15.62700 0.91400 34.49000
H  20.27900 -6.30000 27.98800
H  19.84700 -5.36600 29.46800
H  21.37100 -5.06000 28.63300
H  20.64800 -6.77100 25.69100
H  21.87200 -5.55200 25.84600
H  21.41800 -6.15900 24.22800
H  16.82900 -1.31500 22.63500
H  16.32300 1.50300 23.15500
H  18.40800 1.26800 22.72600
H  18.56900 -0.13200 21.61900
H  19.40800 -0.18200 23.10800
H  13.84500 0.77900 23.27100
H  14.40800 -0.83800 23.08300
H  14.95100 1.30100 21.12500
H  13.77700 0.09500 20.73200
H  15.54600 -0.36500 20.83600
H  13.79100 4.10800 26.37300
H  14.16000 4.75100 27.91500
H  12.65400 3.81200 27.78300
H  14.89600 1.62300 32.23800
H  16.80700 5.52500 33.37200
H  17.54800 4.21800 34.22700
H  16.10000 4.88400 34.91500
Mg 42.21300 40.99100 27.06000
C  41.61600 43.41400 29.51200
C  43.03100 38.87100 29.56200
C  43.21100 38.73800 24.69200
C  41.71000 43.38300 24.63000
N  42.51900 41.17000 29.22900
C  41.92700 42.19400 30.00300
C  41.79300 41.66000 31.44400
C  42.60100 40.40100 31.54300
C  42.72500 40.10300 30.03300
C  43.99000 40.61400 32.31800
C  40.32200 41.59000 31.94800
C  39.98200 42.17600 33.39000
H  39.42600 41.23300 34.45000
N  42.95100 38.98300 27.11200
C  43.21400 38.27400 28.27200
C  43.77000 36.96300 27.96200
C  43.75400 36.86000 26.51800
C  43.25700 38.18700 26.05200
C  44.23400 35.87300 28.92800
C  44.21400 35.71300 25.64800
O  44.17800 35.72700 24.43700
C  44.59400 34.39200 26.23800
N  42.33900 40.95400 24.95800
C  42.83100 40.00800 24.24600
C  42.67100 40.30100 22.74900
C  42.14500 41.74300 22.71600
C  42.01400 42.06300 24.22000
C  44.03600 40.13100 21.99400
C  40.71300 41.97700 22.09800
C  40.43500 43.27300 21.39400
N  41.72700 42.98000 27.03400
C  41.56000 43.83900 25.98300
C  41.24800 45.16100 26.40600
C  41.12500 45.02100 27.80800
C  41.49500 43.66600 28.17800
C  40.91500 46.35800 25.47200
C  40.85200 45.72800 29.04000
O  40.58800 46.88700 29.30400
C  41.07900 44.70400 30.20000
C  42.19300 45.30000 30.96300
O  43.36900 45.15900 30.74100
O  41.69000 45.80100 32.09000
C  42.57800 46.23500 33.21700
H  43.31000 38.19000 30.36900
H  43.59000 37.98300 24.00000
H  41.60400 44.13100 23.84200
H  42.22900 42.43300 32.07600
H  42.12100 39.59500 32.09800
H  44.90500 40.27400 31.83200
H  43.76400 40.05300 33.22500
H  44.21200 41.64300 32.60300
H  39.93100 40.57300 31.90100
H  39.66600 42.17100 31.30100
H  39.25600 42.95800 33.16700
H  40.88800 42.64200 33.77800
H  45.27200 35.58500 28.76500
H  43.49300 35.07400 28.92000
H  44.16800 36.20700 29.96300
H  43.77300 33.93600 26.79100
H  45.41300 34.53200 26.94300
H  44.96100 33.79000 25.40600
H  42.05300 39.52800 22.29200
H  42.93700 42.38800 22.33500
H  44.14900 39.16200 21.50600
H  44.82500 40.00000 22.73400
H  44.28200 40.95000 21.31900
H  39.91400 41.99200 22.84000
H  40.63300 41.13400 21.41100
H  39.55100 43.71100 21.85800
H  40.38500 43.14000 20.31300
H  41.29300 43.94300 21.35300
H  40.81200 47.15500 26.20800
H  39.92000 46.11500 25.10000
H  41.61800 46.65300 24.69300
H  40.16500 44.68600 30.79500
H  42.87900 45.34100 33.76200
H  42.09400 46.80200 34.01300
H  43.48300 46.76100 32.91300

