158

Mg -1.75800 17.41600 26.73200
C  -2.49400 15.22700 29.31200
C  -2.66800 20.01200 28.89100
C  -1.73500 19.51500 24.13800
C  -1.51800 14.69500 24.55000
N  -2.39700 17.60400 28.90400
C  -2.55100 16.55200 29.81600
C  -2.82200 16.99600 31.27400
C  -3.04800 18.52800 30.99100
C  -2.72900 18.74900 29.48400
C  -4.48600 18.99200 31.35900
C  -1.59500 16.78200 32.24800
C  -1.71700 17.31500 33.65500
H  -1.75000 16.23300 34.75400
N  -1.95600 19.50300 26.58700
C  -2.34200 20.36300 27.59800
C  -2.35600 21.73000 27.08400
C  -2.01700 21.64300 25.68400
C  -1.88900 20.21400 25.39600
C  -2.80800 22.89100 27.86100
C  -1.84200 22.73000 24.71200
O  -1.77400 22.53800 23.49100
C  -1.75000 24.15900 25.19300
N  -1.52900 17.11900 24.52600
C  -1.54700 18.19000 23.74600
C  -1.41400 17.74400 22.30900
C  -1.23900 16.21700 22.43100
C  -1.43600 16.00400 23.88900
C  -2.65200 18.14400 21.38900
C  0.18900 15.83300 21.95800
C  1.37300 16.25900 22.98300
N  -2.01200 15.36800 26.86200
C  -1.83100 14.35200 25.86700
C  -2.12300 13.12000 26.53100
C  -2.49600 13.47600 27.79900
C  -2.35100 14.79600 27.97100
C  -2.28600 11.74300 25.81700
C  -2.97300 12.89100 28.99900
O  -3.24100 11.74300 29.18600
C  -2.95400 14.02300 30.04500
C  -1.85200 13.62000 30.97100
O  -0.63100 13.74000 30.81900
O  -2.33900 13.09100 32.15100
C  -1.55500 12.18800 33.06700
H  -2.92400 20.90900 29.45800
H  -1.59500 20.15700 23.26700
H  -1.43600 13.79300 23.94100
H  -3.66800 16.48100 31.72800
H  -2.44500 19.24200 31.55100
H  -4.31000 19.87900 31.96700
H  -5.17400 18.28200 31.81800
H  -4.94800 19.36500 30.44400
H  -0.73000 17.24900 31.77700
H  -1.37000 15.71600 32.22700
H  -2.64000 17.89400 33.67600
H  -0.86100 17.92600 33.94200
H  -3.45200 23.47400 27.20300
H  -1.92200 23.48000 28.09800
H  -3.35600 22.71300 28.78600
H  -0.94000 24.05500 25.91400
H  -2.71200 24.33900 25.67300
H  -1.60600 24.94200 24.44800
H  -0.51600 18.23000 21.92500
H  -2.03200 15.62100 21.98000
H  -3.08700 17.36300 20.76400
H  -2.40800 19.06100 20.85200
H  -3.55400 18.31300 21.97800
H  0.34900 16.12700 20.92100
H  0.17800 14.74400 21.90700
H  1.02700 16.84400 23.83500
H  2.15500 16.79300 22.44400
H  1.83400 15.39500 23.46200
H  -2.81800 11.90700 24.88000
H  -2.79000 11.02900 26.46800
H  -1.30400 11.30700 25.63600
H  -3.91000 14.35600 30.45000
H  -0.90300 11.55400 32.46700
H  -2.22400 11.44600 33.50300
H  -0.99100 12.64500 33.88000
Mg 30.23000 57.68600 39.06200
C  27.46400 55.65600 38.20500
C  32.28600 55.16300 38.11900
C  32.68900 59.77600 39.52700
C  27.91500 60.40100 39.43700
N  29.90100 55.57100 38.11500
C  28.67100 54.93300 37.97500
C  28.92900 53.43500 37.68300
C  30.48500 53.29600 37.73400
C  30.93100 54.70100 38.05200
C  31.00400 52.20800 38.74300
C  28.42500 53.00000 36.23700
C  29.04500 53.71500 34.96500
H  28.07900 54.45500 34.12200
N  32.23800 57.50500 38.80200
C  32.93100 56.41400 38.48500
C  34.23700 56.68500 38.51800
C  34.42100 57.98700 39.00800
C  33.04500 58.52100 39.08600
C  35.25000 55.63100 38.27300
C  35.73800 58.63800 39.48400
O  36.80700 58.06400 39.58000
C  35.79300 60.12400 39.84500
N  30.30100 59.81600 39.41900
C  31.47800 60.38800 39.74400
C  31.33000 61.86200 40.27300
C  29.82300 62.00600 40.11900
C  29.29400 60.71700 39.58000
C  32.00700 62.03800 41.67500
C  29.47000 63.26500 39.18400
C  28.32600 64.18700 39.76900
N  28.16900 58.04700 38.85600
C  27.38200 59.14100 39.12900
C  26.01300 58.74200 39.01800
C  26.04300 57.42400 38.62200
C  27.37800 57.02900 38.50100
C  24.87500 59.62400 39.33500
C  25.19300 56.21600 38.40500
O  24.01600 56.07900 38.49000
C  26.09500 55.06100 37.99600
C  25.83500 53.90400 38.76800
O  26.15000 53.65500 39.92400
O  24.93100 53.11700 38.04500
C  24.33900 51.92700 38.78200
H  32.90700 54.28000 37.95400
H  33.46000 60.50300 39.79200
H  27.23000 61.23200 39.62000
H  28.37300 52.90100 38.45300
H  30.86000 53.02200 36.74800
H  31.33500 52.69500 39.66100
H  31.85000 51.67300 38.31200
H  30.23300 51.45400 38.89800
H  27.34000 53.04900 36.15400
H  28.67200 51.94200 36.14000
H  29.46100 52.96100 34.29700
H  29.89700 54.36800 35.15600
H  35.40800 55.02200 39.16300
H  36.26600 55.91300 37.99600
H  34.97200 54.88900 37.52400
H  36.85000 60.30400 40.04100
H  35.39800 60.17700 40.85900
H  35.30300 60.79800 39.14200
H  31.86000 62.56300 39.62800
H  29.35500 62.13100 41.09600
H  31.29500 62.61900 42.26100
H  32.99200 62.50100 41.63100
H  32.03800 61.08200 42.19900
H  29.04500 62.94300 38.23400
H  30.39500 63.77800 38.91900
H  27.46300 63.98700 39.13400
H  28.67100 65.21300 39.63800
H  27.94900 63.92500 40.75700
H  24.50700 59.19900 40.26900
H  24.10700 59.51500 38.56900
H  25.13700 60.67400 39.46100
H  26.03900 54.80400 36.93800
H  24.70100 51.84400 39.80700
H  24.61300 51.00500 38.26900
H  23.25100 51.97300 38.82900

