158

Mg 16.81600 -1.34600 27.88000
C  15.90000 0.81000 30.28300
C  18.80900 -3.02800 30.05600
C  18.26400 -3.11300 25.25500
C  15.21700 0.72900 25.39000
N  17.46100 -0.96400 29.87100
C  16.82700 -0.12600 30.76600
C  17.27700 -0.43300 32.19100
C  18.58400 -1.37600 32.00300
C  18.27400 -1.83600 30.49800
C  19.99300 -0.75900 32.10800
C  16.09000 -1.08500 32.97700
C  15.86100 -0.55100 34.38600
H  17.00900 0.13100 35.12100
N  18.06200 -3.09800 27.73300
C  18.79600 -3.64800 28.80100
C  19.50300 -4.77100 28.26000
C  19.40400 -4.76300 26.88400
C  18.54300 -3.62800 26.52800
C  20.31500 -5.67700 29.16800
C  20.12800 -5.74000 25.88000
O  19.95900 -5.66300 24.68400
C  21.05000 -6.79600 26.43700
N  16.78500 -1.18000 25.69900
C  17.52100 -1.99900 24.86800
C  17.40500 -1.59200 23.35300
C  16.24800 -0.51900 23.44600
C  16.03800 -0.29900 24.94600
C  18.68700 -1.02300 22.70500
C  14.86800 -0.92600 22.81500
C  14.85400 -0.78000 21.30100
N  15.74200 0.31400 27.83000
C  15.14900 1.12400 26.78900
C  14.33400 2.19300 27.34800
C  14.58800 2.06100 28.70600
C  15.48500 0.95900 28.94600
C  13.36300 3.08200 26.66300
C  14.27900 2.66900 29.97900
O  13.41000 3.52200 30.28200
C  15.11200 1.87000 30.97200
C  16.01200 2.88600 31.54800
O  17.19800 2.99300 31.24300
O  15.38800 3.53100 32.59200
C  16.20500 4.42800 33.42300
H  19.38500 -3.43700 30.88900
H  18.85500 -3.53000 24.43800
H  14.68900 1.34500 24.65900
H  17.65200 0.48400 32.64700
H  18.53900 -2.19900 32.71600
H  20.55900 -1.26100 32.89400
H  19.97400 0.23400 32.55800
H  20.54200 -0.60700 31.17900
H  16.22800 -2.16100 32.86900
H  15.16800 -0.76000 32.49600
H  15.49500 -1.38000 34.99300
H  15.01700 0.13700 34.34400
H  21.38500 -5.48600 29.07900
H  20.16000 -6.73800 28.97300
H  20.14800 -5.43100 30.21700
H  21.45100 -7.45900 25.67100
H  20.38000 -7.45800 26.98600
H  21.83100 -6.29000 27.00500
H  17.13000 -2.44500 22.73400
H  16.55700 0.44100 23.03100
H  19.45500 -0.92600 23.47200
H  18.49200 0.00200 22.39000
H  19.09200 -1.55900 21.84600
H  14.11900 -0.32800 23.33500
H  14.67500 -1.96800 23.07000
H  14.31000 0.14800 21.12400
H  14.49700 -1.70700 20.85200
H  15.79500 -0.58600 20.78700
H  12.68400 2.33000 26.26300
H  13.74100 3.58900 25.77500
H  12.96500 3.81600 27.36400
H  14.54600 1.63900 31.87400
H  15.58400 5.23200 33.82000
H  17.15500 4.60700 32.91900
H  16.37100 3.87800 34.34900
Mg 47.72800 25.17900 28.70400
C  48.59000 27.48400 31.21000
C  47.21400 22.76800 31.16700
C  47.36600 22.78900 26.30700
C  49.02800 27.36900 26.37100
N  47.94100 25.16900 30.95400
C  48.13700 26.26500 31.74400
C  47.82800 25.96200 33.18400
C  47.49900 24.48200 33.15200
C  47.61300 24.00400 31.65400
C  48.40400 23.62800 34.11100
C  46.78300 26.93800 33.80200
C  47.25200 27.79300 35.02300
H  46.18800 28.05500 36.06900
N  47.17800 23.11800 28.74500
C  47.02400 22.36100 29.85800
C  46.48500 21.09200 29.38800
C  46.60700 21.01400 27.98400
C  47.05100 22.34500 27.62000
C  45.97200 20.12700 30.40800
C  46.33600 19.85800 27.04700
O  46.57000 19.89100 25.85100
C  45.73400 18.63400 27.61000
N  48.06700 25.08800 26.60000
C  47.86200 23.99500 25.82100
C  48.26100 24.24900 24.38100
C  48.69900 25.80900 24.40100
C  48.60700 26.13000 25.84200
C  49.37900 23.33400 23.84300
C  47.74100 26.77700 23.64400
C  48.36400 28.11700 23.03900
N  48.55000 27.08900 28.72700
C  49.05500 27.86100 27.68100
C  49.54300 29.08900 28.18800
C  49.42500 28.94400 29.58400
C  48.79900 27.73800 29.87300
C  50.23900 30.16500 27.43000
C  49.67800 29.71800 30.81600
O  50.26800 30.79100 31.07700
C  49.17400 28.70900 31.93300
C  50.28600 28.38500 32.85500
O  51.10700 27.47600 32.76500
O  50.16900 29.15300 33.93700
C  51.16400 28.80200 35.02900
H  46.97100 22.03900 31.94200
H  47.20200 22.09000 25.48400
H  49.37200 28.05900 25.59800
H  48.83800 26.12500 33.56200
H  46.45300 24.31800 33.41300
H  47.83200 23.49800 35.03000
H  49.34500 24.13700 34.32200
H  48.57900 22.62400 33.72600
H  45.86300 26.45700 34.13500
H  46.56300 27.62400 32.98400
H  47.58100 28.78600 34.71400
H  48.08800 27.30000 35.51900
H  44.94900 19.88900 30.11500
H  45.91500 20.36900 31.46900
H  46.57400 19.22400 30.50500
H  46.42100 17.86500 27.96200
H  45.36700 18.04500 26.77000
H  44.92000 18.83900 28.30500
H  47.37600 24.24200 23.74500
H  49.73100 26.01200 24.11500
H  49.51600 22.39900 24.38700
H  50.34300 23.82800 23.72400
H  49.23400 23.08100 22.79200
H  47.01000 27.08200 24.39300
H  47.17000 26.24400 22.88500
H  47.75000 28.38500 22.17900
H  49.43200 27.98000 22.87300
H  48.23800 28.87100 23.81600
H  49.53600 30.99700 27.44900
H  50.42200 29.87500 26.39600
H  51.09600 30.55500 27.97900
H  48.38300 29.26700 32.43400
H  52.20400 28.66800 34.73200
H  50.98500 27.85100 35.53100
H  51.19200 29.64200 35.72300

