158

Mg 47.04000 17.20300 29.42300
C  45.11600 16.46700 32.21400
C  49.11700 19.00300 31.45400
C  48.68800 18.00900 26.78800
C  44.62000 15.55900 27.41700
N  47.13000 17.60100 31.68100
C  46.25600 17.17600 32.61000
C  46.64800 17.82000 33.94600
C  47.72600 18.90400 33.53800
C  48.07200 18.46000 32.17600
C  47.26500 20.38500 33.67300
C  47.13300 16.70100 34.95100
C  46.38400 16.62500 36.28600
H  46.09900 17.98900 36.92400
N  48.79400 18.26700 29.17300
C  49.52700 18.89600 30.13600
C  50.73900 19.40400 29.55800
C  50.69400 19.09400 28.15300
C  49.33000 18.43900 27.95700
C  51.87000 19.94300 30.31600
C  51.67400 19.39800 27.04600
O  51.47800 18.94800 25.89200
C  52.92000 20.18600 27.32500
N  46.54200 16.99100 27.34300
C  47.51300 17.38800 26.47700
C  47.16000 16.89200 25.07400
C  46.02500 15.80600 25.35700
C  45.76800 16.06900 26.80000
C  46.94200 18.04800 24.01900
C  46.41300 14.27100 25.11400
C  45.31100 13.42200 24.39900
N  45.17400 16.34600 29.66100
C  44.29500 15.70200 28.77400
C  43.21200 15.19300 29.51900
C  43.44700 15.46500 30.80400
C  44.71700 16.06100 30.87800
C  42.08000 14.32900 29.05000
C  42.91600 15.30000 32.15000
O  41.80600 14.89700 32.55800
C  43.98500 15.97400 33.10200
C  43.30600 17.15900 33.71400
O  42.90400 18.18500 33.10100
O  43.07400 16.89800 35.01200
C  42.47400 17.99100 35.70900
H  49.66100 19.67400 32.12200
H  49.18600 18.22900 25.84100
H  43.87800 15.00100 26.84200
H  45.73800 18.24100 34.37400
H  48.57600 18.73600 34.19800
H  46.83000 20.69200 32.72200
H  48.17600 20.95800 33.84200
H  46.56500 20.53000 34.49600
H  48.16900 16.95100 35.17900
H  47.18400 15.82200 34.30900
H  47.01400 16.14200 37.03300
H  45.58100 15.88900 36.23500
H  51.55100 20.36200 31.27000
H  52.43200 20.73600 29.82500
H  52.50900 19.06900 30.44600
H  53.40200 19.70400 28.17600
H  52.65900 21.22400 27.52900
H  53.50500 20.18000 26.40500
H  48.05600 16.33400 24.80200
H  45.12800 16.06600 24.79400
H  45.92000 18.18200 23.66400
H  47.58500 17.76700 23.18500
H  47.14400 19.00800 24.49500
H  46.68700 13.85400 26.08300
H  47.35800 14.27000 24.57000
H  45.71100 13.17100 23.41600
H  44.35000 13.92900 24.30600
H  45.06600 12.50600 24.93700
H  41.33300 15.01900 28.65800
H  41.66000 13.78300 29.89500
H  42.47900 13.70200 28.25200
H  44.21100 15.27300 33.90500
H  41.45700 18.09600 35.33300
H  43.17200 18.82200 35.61000
H  42.56700 17.85200 36.78700
Mg 9.96900 47.78400 26.05000
C  8.20900 47.67400 28.88500
C  12.48400 49.30700 27.76400
C  11.85000 47.74500 23.21100
C  7.30800 46.49300 24.27500
N  10.17000 48.46600 28.04200
C  9.42500 48.21800 29.09200
C  9.92800 48.77200 30.38700
C  11.06500 49.65200 29.87600
C  11.29200 49.08000 28.45000
C  10.82000 51.21100 29.86200
C  10.36700 47.74500 31.49500
C  9.79100 47.72400 32.90900
H  9.77200 46.36800 33.65100
N  11.89500 48.37500 25.55700
C  12.83500 48.85600 26.42500
C  14.07600 48.94500 25.77000
C  13.98000 48.35700 24.45300
C  12.53000 48.13400 24.34700
C  15.38900 49.46800 26.43900
C  15.03300 48.06300 23.28000
O  14.71700 47.74600 22.15100
C  16.45900 48.29400 23.51900
N  9.50400 47.59600 23.96100
C  10.47300 47.46800 23.04700
C  9.94100 47.28400 21.59700
C  8.59600 46.51200 21.93400
C  8.42500 46.82700 23.47700
C  9.77800 48.61500 20.87600
C  8.75400 45.06500 21.50200
C  9.94200 44.34500 22.21100
N  8.07700 47.33700 26.44200
C  7.09400 46.82300 25.64000
C  5.87400 46.66000 26.29700
C  6.24400 46.93300 27.65500
C  7.60300 47.30300 27.65400
C  4.51400 46.24800 25.84400
C  5.79500 47.05300 29.03100
O  4.67100 46.94500 29.53400
C  7.11400 47.35000 29.89200
C  7.39800 46.06100 30.59600
O  8.12600 45.19000 30.16500
O  6.75600 46.01200 31.83700
C  6.89500 44.77300 32.57000
H  13.21500 49.81200 28.39800
H  12.42000 47.69900 22.28100
H  6.50800 45.99800 23.72000
H  9.13700 49.39200 30.81000
H  12.00200 49.44700 30.39300
H  9.89000 51.39600 30.40000
H  10.76900 51.61000 28.84900
H  11.64400 51.72200 30.36000
H  11.45300 47.76200 31.58300
H  10.17000 46.82300 30.94700
H  8.83600 48.25000 32.92700
H  10.48800 48.32200 33.49600
H  15.10600 49.67500 27.47100
H  15.85200 50.31200 25.92800
H  16.11100 48.65200 26.47900
H  17.07100 48.36900 22.62000
H  16.85400 47.54200 24.20200
H  16.47900 49.26800 24.00800
H  10.60300 46.68800 20.97000
H  7.68800 46.93300 21.50100
H  10.29700 49.36700 21.47000
H  8.76000 48.96600 20.70600
H  10.22900 48.52100 19.88800
H  8.98900 45.00300 20.43900
H  7.81900 44.56500 21.75500
H  10.42100 43.62300 21.55000
H  9.50100 43.79200 23.04000
H  10.75000 44.97900 22.57700
H  3.73900 46.76000 26.41400
H  4.37100 45.18100 26.02000
H  4.38000 46.50400 24.79300
H  6.89200 48.14400 30.60600
H  7.01600 45.04100 33.61900
H  7.67000 44.08400 32.23200
H  5.92700 44.32000 32.35500

