158

Mg 25.79100 0.90900 28.81400
C  27.62600 0.38100 31.77800
C  23.03000 1.16600 30.78800
C  24.01800 1.19500 26.02500
C  28.59900 0.12900 26.97700
N  25.40100 0.70100 31.08400
C  26.30300 0.52200 32.11700
C  25.58100 0.57600 33.49600
C  24.09300 0.67100 33.05200
C  24.13500 0.90200 31.57600
C  23.29800 -0.61500 33.45700
C  26.10400 1.85100 34.26700
C  25.39100 2.27800 35.58300
H  26.24000 2.12300 36.85300
N  23.81400 1.14200 28.40900
C  22.77100 1.23200 29.36700
C  21.51700 1.30600 28.57700
C  21.84000 1.52400 27.24300
C  23.25600 1.28100 27.19900
C  20.21300 1.36100 29.28100
C  20.92800 1.74900 26.00300
O  21.38600 1.72100 24.86500
C  19.48800 1.91400 26.18800
N  26.27400 0.67200 26.76900
C  25.34000 0.85700 25.80900
C  25.90600 0.68600 24.39900
C  27.37200 0.29000 24.65100
C  27.41000 0.34600 26.24300
C  25.11400 -0.32000 23.51700
C  28.48900 1.13900 23.98600
C  29.67300 0.40200 23.35100
N  27.76600 0.28700 29.23700
C  28.79300 0.12000 28.38000
C  30.04200 -0.00000 29.11000
C  29.65900 0.14100 30.45900
C  28.25100 0.32300 30.48300
C  31.40000 -0.07700 28.55500
C  30.12400 0.23000 31.89900
O  31.29100 0.12000 32.31600
C  28.81200 0.37500 32.79100
C  28.76900 -0.76200 33.74600
O  28.37600 -1.87600 33.53400
O  29.13200 -0.40900 35.00800
C  28.93900 -1.38700 36.05700
H  22.10800 1.20300 31.37200
H  23.47200 1.04200 25.09100
H  29.46100 0.02400 26.31400
H  25.90500 -0.24100 34.14000
H  23.48500 1.44200 33.52500
H  22.74800 -0.90300 32.56100
H  22.62000 -0.45100 34.29500
H  23.97500 -1.43800 33.68600
H  26.18200 2.73000 33.62800
H  27.13200 1.66000 34.57700
H  24.54800 1.61300 35.77500
H  25.05300 3.30300 35.43300
H  19.85400 2.35500 29.01300
H  20.29800 1.24900 30.36200
H  19.50200 0.60700 28.94300
H  18.98800 0.98000 26.44500
H  18.98400 2.15300 25.25100
H  19.42200 2.73500 26.90200
H  25.91300 1.70700 24.01700
H  27.57800 -0.75400 24.41600
H  24.58100 0.25200 22.75700
H  24.32700 -0.93000 23.96100
H  25.85800 -0.94600 23.02400
H  28.84300 1.89700 24.68400
H  27.90100 1.62500 23.20700
H  29.47000 -0.16400 22.44200
H  30.00700 -0.31300 24.10300
H  30.44800 1.13700 23.13200
H  32.12300 -0.17300 29.36400
H  31.72800 0.78500 27.97400
H  31.58900 -0.92000 27.89000
H  29.00300 1.32100 33.29800
H  27.98500 -1.15300 36.52900
H  29.75900 -1.23100 36.75700
H  29.02300 -2.43700 35.77700
Mg 0.22100 43.34700 24.89800
C  2.13900 43.28000 28.00500
C  -2.60700 42.74900 26.92100
C  -1.46600 42.80200 22.14400
C  3.20000 43.61200 23.23700
N  -0.08600 43.03000 27.28100
C  0.77600 43.15400 28.34400
C  0.07400 43.10400 29.70200
C  -1.47800 42.82500 29.22500
C  -1.44500 42.87100 27.75400
C  -1.99500 41.37100 29.56000
C  0.13200 44.33800 30.53300
C  0.57200 44.14700 32.02900
H  0.45500 42.77200 32.78800
N  -1.76900 42.98900 24.50100
C  -2.76500 42.76000 25.47000
C  -4.00500 42.44500 24.80500
C  -3.80100 42.65100 23.37500
C  -2.30000 42.81400 23.25600
C  -5.23300 42.04000 25.56100
C  -4.74900 42.72300 22.26000
O  -4.40200 42.88700 21.08800
C  -6.29200 42.65000 22.52100
N  0.81300 43.05200 22.99700
C  -0.08300 42.97600 21.99900
C  0.56800 43.14100 20.64900
C  1.93700 43.78700 21.08200
C  2.03600 43.35000 22.51200
C  0.71800 41.64000 20.02900
C  1.82900 45.34200 20.88500
C  3.13500 46.14000 20.76100
N  2.33900 43.43600 25.46000
C  3.43000 43.62900 24.63600
C  4.65300 43.75300 25.41400
C  4.18100 43.60700 26.73500
C  2.77100 43.41500 26.73400
C  6.06100 44.01900 24.90400
C  4.58900 43.53600 28.12800
O  5.76200 43.60300 28.54600
C  3.25100 43.42700 29.05200
C  3.41200 42.30700 29.89700
O  3.23800 41.14900 29.58700
O  4.02100 42.79800 31.03700
C  4.41700 41.75900 32.01700
H  -3.53700 42.74700 27.49300
H  -1.86300 42.68900 21.13300
H  4.09300 43.91400 22.68600
H  0.49700 42.25000 30.23100
H  -2.20300 43.57700 29.53500
H  -1.34900 40.90400 30.30400
H  -1.94400 40.78000 28.64500
H  -3.02400 41.49700 29.89400
H  -0.81500 44.87500 30.58600
H  0.75300 45.09400 30.05300
H  -0.19900 44.74700 32.51400
H  1.52200 44.67500 32.11600
H  -5.69600 41.33600 24.87000
H  -6.04200 42.76900 25.58100
H  -5.09500 41.64500 26.56800
H  -6.76600 42.91500 21.57600
H  -6.52200 43.54800 23.09300
H  -6.67300 41.77000 23.03800
H  -0.01000 43.80100 20.00400
H  2.76300 43.39200 20.49000
H  0.62700 41.80800 18.95600
H  -0.07200 40.93500 20.28900
H  1.64600 41.11300 20.24900
H  1.16500 45.82100 21.60500
H  1.43400 45.52800 19.88600
H  3.18400 46.54800 19.75100
H  3.94100 45.43100 20.95300
H  3.25200 46.95500 21.47500
H  6.27700 45.05700 25.15900
H  6.03600 43.86700 23.82500
H  6.69900 43.27500 25.38000
H  3.14000 44.37000 29.58700
H  3.95000 40.79900 31.79600
H  4.00700 42.09200 32.97100
H  5.48900 41.60200 32.13700

