158

Mg 46.78100 24.74800 28.83900
C  47.64600 27.29500 31.02900
C  46.17500 22.67900 31.59600
C  46.45800 22.13400 26.76100
C  47.72200 26.64000 26.05900
N  46.76500 25.02500 31.02100
C  47.10800 26.15500 31.68800
C  46.75200 25.96600 33.13400
C  46.53200 24.46800 33.37300
C  46.49100 23.98300 31.89100
C  47.65000 23.76500 34.21500
C  45.52400 26.88100 33.59000
C  45.39900 27.22400 35.12600
H  46.32900 26.75300 36.13600
N  46.25300 22.75400 29.10800
C  46.12300 22.06600 30.32500
C  45.91900 20.67200 30.07200
C  45.91100 20.51600 28.63000
C  46.22000 21.84400 28.09200
C  45.82700 19.61000 31.16500
C  45.66500 19.24600 27.83700
O  45.53100 19.20300 26.62400
C  45.45300 17.99500 28.53000
N  47.06200 24.35300 26.73300
C  46.83200 23.26800 26.12100
C  47.12100 23.38200 24.60800
C  47.11100 24.95900 24.38300
C  47.26900 25.42400 25.82500
C  48.41000 22.64000 24.12100
C  45.85000 25.49900 23.72200
C  44.49600 25.15300 24.39100
N  47.53600 26.57300 28.57300
C  47.91500 27.16200 27.42200
C  48.59400 28.42200 27.81100
C  48.46900 28.52500 29.17100
C  47.82500 27.34200 29.60500
C  49.26500 29.35200 26.83200
C  48.82600 29.30100 30.35300
O  49.48700 30.33500 30.33000
C  48.21200 28.59900 31.56600
C  49.38900 28.35200 32.43800
O  50.40800 27.67800 32.23000
O  49.02800 28.94000 33.67900
C  50.09800 28.68900 34.72500
H  45.92700 22.08500 32.47900
H  46.16500 21.37500 26.03300
H  47.99300 27.37800 25.30100
H  47.63100 26.21300 33.73000
H  45.54000 24.19300 33.73100
H  47.39000 22.90900 34.83700
H  48.37000 24.42900 34.69300
H  48.20300 23.09700 33.55600
H  44.64200 26.30900 33.30000
H  45.43800 27.83800 33.07500
H  44.37200 26.99900 35.41500
H  45.26800 28.29100 35.30800
H  45.94800 19.89400 32.21000
H  46.60400 18.86700 30.98300
H  44.91300 19.05800 30.94400
H  46.29600 17.80000 29.19300
H  45.43700 17.28200 27.70600
H  44.55100 17.78500 29.10500
H  46.37000 22.94500 23.95000
H  47.98900 25.22700 23.79500
H  49.27300 23.05200 24.64400
H  48.49700 22.88000 23.06200
H  48.45100 21.56300 24.28900
H  45.88700 25.04800 22.73000
H  46.02700 26.55800 23.53700
H  44.61000 24.37100 25.14200
H  43.93400 24.65300 23.60100
H  44.02000 26.05800 24.76600
H  50.22500 28.98800 26.46400
H  49.42300 30.24000 27.44400
H  48.63700 29.57100 25.96800
H  47.55200 29.30800 32.06400
H  51.12100 28.54900 34.37800
H  49.75000 27.73400 35.11900
H  50.10800 29.49700 35.45700
Mg 35.83600 48.86700 25.39700
C  35.90300 46.64100 28.25300
C  34.76100 51.28500 27.53700
C  35.25400 50.79400 22.64400
C  36.49800 46.09500 23.34600
N  35.28200 48.88200 27.65900
C  35.48300 47.92900 28.67000
C  35.38100 48.55900 30.03900
C  34.86100 50.06300 29.73100
C  34.98900 50.06500 28.15300
C  33.40400 50.37500 30.21300
C  36.79500 48.53500 30.76200
C  36.80400 48.17000 32.28900
H  35.52100 48.14300 33.15400
N  35.18900 50.80800 25.10300
C  34.83500 51.66800 26.14600
C  34.38600 52.88700 25.61100
C  34.44600 52.76000 24.17100
C  34.94600 51.42200 23.87300
C  33.79300 53.98700 26.46000
C  34.07400 53.75500 23.06600
O  34.17300 53.48000 21.91100
C  33.61500 55.11800 23.38300
N  35.92200 48.51500 23.33300
C  35.70400 49.46600 22.37100
C  36.00600 48.85300 20.96500
C  36.44100 47.41500 21.23400
C  36.26300 47.36100 22.76200
C  34.82400 48.99500 19.89300
C  37.91400 47.02600 20.84900
C  38.11200 45.84200 19.93000
N  36.11700 46.82500 25.69000
C  36.44300 45.80600 24.79800
C  36.72800 44.57200 25.42100
C  36.46300 44.89800 26.80700
C  36.12100 46.21500 26.92300
C  37.31500 43.22600 24.81000
C  36.46200 44.33700 28.14200
O  36.74600 43.19400 28.42700
C  36.12300 45.40100 29.15900
C  34.86500 45.05600 29.81500
O  33.85200 44.93900 29.20300
O  35.04300 44.65700 31.18800
C  33.76300 44.23100 31.84000
H  34.47900 52.06200 28.25000
H  35.24000 51.39500 21.73200
H  36.69300 45.09200 22.96100
H  34.65000 47.89600 30.50000
H  35.51200 50.90300 29.97300
H  32.99600 49.50400 30.72700
H  32.81500 50.72600 29.36600
H  33.52400 51.19100 30.92600
H  37.15600 49.54300 30.55700
H  37.39800 47.75000 30.30400
H  37.47200 48.94100 32.67300
H  37.42700 47.28200 32.39200
H  32.71500 53.98300 26.30100
H  34.28000 54.92200 26.18100
H  33.82400 53.77200 27.52800
H  33.74500 55.79200 22.53600
H  34.15100 55.47700 24.26200
H  32.56700 55.04200 23.67300
H  36.85500 49.38800 20.54000
H  35.80600 46.61900 20.84500
H  35.16500 49.31900 18.91000
H  34.00100 49.61600 20.24900
H  34.33600 48.02600 19.78900
H  38.57600 47.13400 21.70800
H  38.34900 47.78700 20.20100
H  39.18400 45.72400 19.77200
H  37.54000 46.07100 19.03100
H  37.65400 44.99700 20.44300
H  36.66100 42.66400 24.14400
H  37.65000 42.61700 25.65000
H  38.22300 43.42200 24.23900
H  36.88600 45.51100 29.93000
H  33.24700 45.09100 32.26700
H  34.12000 43.58000 32.63700
H  33.13100 43.59200 31.22300

