158

Mg 0.81800 8.88200 26.71900
C  1.26700 10.91500 29.41600
C  0.55200 6.13500 28.98800
C  0.74700 6.75100 24.06000
C  1.09600 11.58100 24.59400
N  0.85400 8.58600 28.97800
C  1.08200 9.58900 29.84200
C  1.11400 9.08200 31.30700
C  1.13700 7.50700 31.14100
C  0.78100 7.37800 29.64200
C  2.45400 6.78000 31.43600
C  -0.01100 9.63800 32.23500
C  -0.28400 8.88500 33.61800
H  0.86800 8.42500 34.46100
N  0.61000 6.80600 26.54900
C  0.47700 5.90200 27.57500
C  0.22100 4.57800 26.98800
C  0.47100 4.61300 25.57400
C  0.57400 6.10800 25.35500
C  -0.00100 3.33500 27.82100
C  0.45900 3.45100 24.57500
O  0.54600 3.74300 23.42100
C  0.22400 1.99300 25.01300
N  0.79600 9.16300 24.63800
C  0.82300 8.14500 23.76800
C  0.92600 8.77700 22.33700
C  0.53400 10.18200 22.56400
C  0.83300 10.31200 23.98900
C  2.37300 8.56100 21.74400
C  -0.97900 10.44900 22.26700
C  -1.36800 11.35700 21.10100
N  1.23400 10.84800 26.89900
C  1.27500 11.85400 26.01300
C  1.69200 13.09600 26.67100
C  1.54400 12.76100 27.99300
C  1.34900 11.39300 28.06000
C  1.84200 14.43000 25.96300
C  1.73100 13.33000 29.30400
O  1.93700 14.46100 29.59600
C  1.45900 12.12100 30.24300
C  2.53400 11.96700 31.22400
O  3.67900 11.67500 30.94300
O  2.04500 12.25200 32.46300
C  2.93800 12.06500 33.63300
H  0.59200 5.25200 29.63000
H  0.60900 6.20500 23.12500
H  1.06300 12.41500 23.89100
H  2.10400 9.39000 31.64500
H  0.35500 7.00700 31.71100
H  3.30700 7.37400 31.76300
H  2.88100 6.53600 30.46400
H  2.27000 5.96900 32.14100
H  -0.89800 9.41900 31.64000
H  0.22000 10.66400 32.52100
H  -1.08300 8.15000 33.51500
H  -0.84500 9.67300 34.12100
H  -0.95700 2.91600 27.50500
H  -0.23900 3.57400 28.85800
H  0.85500 2.66000 27.83900
H  0.54600 1.24400 24.29000
H  -0.81300 1.88600 25.33200
H  0.93700 1.75000 25.80100
H  0.28500 8.26400 21.62000
H  1.27200 10.74900 21.99800
H  2.23500 8.06500 20.78300
H  3.00400 7.92600 22.36600
H  2.92600 9.48600 21.58100
H  -1.30200 11.09500 23.08300
H  -1.61200 9.56200 22.29100
H  -0.57900 11.46500 20.35700
H  -1.74700 12.31000 21.47200
H  -2.21000 10.81800 20.66600
H  2.40900 14.35500 25.03500
H  2.19800 15.10600 26.74000
H  0.84600 14.77400 25.68500
H  0.56000 12.36500 30.80900
H  3.57400 12.94000 33.76600
H  3.47100 11.11400 33.60800
H  2.31200 12.16100 34.52000
Mg 26.02200 1.23200 29.24100
C  28.10400 1.30700 32.10600
C  23.41900 1.62400 31.42900
C  24.04500 1.13700 26.53800
C  28.74800 0.62300 27.22600
N  25.84900 1.40300 31.53100
C  26.75700 1.35400 32.54800
C  26.20800 1.60200 33.96900
C  24.71400 1.49000 33.59500
C  24.62400 1.52900 32.07400
C  23.98400 0.29700 34.27600
C  26.74200 2.86500 34.68200
C  27.12500 2.48100 36.13100
H  26.36300 3.25900 37.21700
N  23.92400 1.25800 28.99600
C  23.04500 1.56200 30.01800
C  21.71900 1.70800 29.40000
C  21.80500 1.36900 27.99500
C  23.30000 1.27700 27.76900
C  20.45000 1.91800 30.32700
C  20.76600 1.25500 26.86400
O  21.06100 0.82100 25.78300
C  19.29500 1.63900 27.17600
N  26.36200 1.07000 27.12700
C  25.39000 0.95900 26.19800
C  25.93800 0.78100 24.73200
C  27.49500 0.60600 25.07500
C  27.58000 0.78200 26.54800
C  25.38000 -0.22400 23.73000
C  28.32000 1.63600 24.40300
C  28.68800 1.35300 22.93900
N  28.03100 1.17900 29.49800
C  29.01200 0.75400 28.56000
C  30.21000 0.74300 29.25900
C  29.86500 0.94000 30.59600
C  28.55200 1.19700 30.74900
C  31.63800 0.60000 28.73000
C  30.48400 0.97500 31.94700
O  31.68400 0.84100 32.26800
C  29.35500 1.23400 32.97200
C  29.39900 0.12500 34.03500
O  28.96300 -1.00300 33.93700
O  29.82800 0.68500 35.22500
C  29.66000 -0.17500 36.45000
H  22.57200 1.83100 32.08500
H  23.36800 1.32800 25.70300
H  29.63100 0.41700 26.61700
H  26.51500 0.70400 34.50500
H  24.25900 2.37200 34.04600
H  23.86900 -0.61200 33.68500
H  22.97800 0.62600 34.53600
H  24.41200 0.05400 35.24900
H  26.03800 3.69600 34.63900
H  27.65500 3.25700 34.23300
H  28.19300 2.59700 36.31500
H  26.74400 1.47500 36.30900
H  19.65600 1.23200 30.03100
H  20.11400 2.95200 30.25300
H  20.69500 1.77300 31.37900
H  19.39200 2.67900 27.48800
H  19.02900 0.86500 27.89500
H  18.64800 1.60000 26.29900
H  25.77000 1.76100 24.28500
H  27.76800 -0.39900 24.75300
H  24.71700 -0.80900 24.36800
H  26.15200 -0.88100 23.32900
H  24.85000 0.20200 22.87900
H  29.17500 1.92000 25.01500
H  27.76100 2.54600 24.18600
H  28.27300 0.35700 22.78500
H  29.77100 1.28600 22.84000
H  28.30000 2.03000 22.17800
H  32.22900 0.02200 29.44100
H  31.96100 1.64100 28.76700
H  31.55300 0.32100 27.68000
H  29.49100 2.22300 33.40900
H  29.54000 -1.24400 36.27200
H  28.78600 0.17500 37.00000
H  30.48700 -0.09900 37.15600

