158

Mg 9.12700 47.55600 25.50800
C  6.88700 47.87600 28.26500
C  11.57000 48.68200 27.62300
C  11.00500 48.00300 22.83900
C  6.36900 47.43300 23.40900
N  9.27400 48.15900 27.75400
C  8.21100 48.05500 28.68200
C  8.78100 48.31000 30.12300
C  10.19600 48.90100 29.84400
C  10.40000 48.57200 28.35900
C  10.28400 50.40800 29.92000
C  8.74300 47.07900 31.14800
C  8.46100 47.54500 32.55300
H  8.08100 46.42300 33.55000
N  11.00300 48.16100 25.26400
C  11.89600 48.50300 26.28500
C  13.22100 48.65800 25.74800
C  13.07100 48.37200 24.33400
C  11.64600 48.13600 24.09000
C  14.43900 49.02100 26.61000
C  14.10900 48.26500 23.28300
O  13.90300 47.86200 22.16100
C  15.52900 48.51600 23.67800
N  8.73700 47.65000 23.40000
C  9.66500 47.92000 22.52100
C  9.17000 47.86600 20.97000
C  7.74200 47.32000 21.21400
C  7.57100 47.48700 22.74200
C  9.22600 49.35800 20.38600
C  7.40800 45.91400 20.63600
C  6.25100 45.88900 19.68900
N  7.09200 47.59000 25.72000
C  6.07500 47.59300 24.75500
C  4.75700 47.66400 25.39400
C  5.07100 47.65300 26.71000
C  6.43200 47.70100 26.90700
C  3.42100 47.63200 24.76900
C  4.52300 47.69200 28.06400
O  3.33400 47.75500 28.30700
C  5.62600 47.74900 29.12100
C  5.53600 46.52500 29.89100
O  5.74100 45.43500 29.39900
O  5.17800 46.80200 31.19800
C  4.80800 45.66000 31.99300
H  12.39800 48.95800 28.27800
H  11.63800 48.01300 21.95000
H  5.48500 47.37600 22.77100
H  8.21600 49.15300 30.52100
H  10.89700 48.49200 30.57100
H  11.18300 50.81600 29.45800
H  10.38200 50.74000 30.95300
H  9.50700 50.93700 29.36900
H  9.73000 46.61900 31.09800
H  8.08000 46.25500 30.88500
H  7.73700 48.35900 32.53600
H  9.41200 47.88000 32.96600
H  15.18600 48.23300 26.52100
H  14.30000 49.20500 27.67600
H  14.92800 49.96100 26.35500
H  16.05300 48.61400 22.72700
H  15.81300 47.60600 24.20500
H  15.81600 49.34800 24.32100
H  9.87400 47.19700 20.47500
H  7.09500 48.02900 20.69700
H  8.29500 49.90700 20.52600
H  9.49200 49.29200 19.33100
H  10.10400 49.76000 20.89300
H  7.07000 45.28600 21.46000
H  8.19500 45.34400 20.14300
H  6.55800 45.39100 18.76900
H  5.86000 46.86100 19.38900
H  5.33200 45.37800 19.97800
H  2.85400 46.88700 25.32800
H  3.58300 47.46300 23.70500
H  3.04600 48.63200 24.98700
H  5.51400 48.64500 29.73100
H  3.73000 45.58200 31.85200
H  5.05800 45.72800 33.05200
H  5.18000 44.66100 31.76300
Mg -5.00500 24.63500 27.39700
C  -3.47400 26.49500 29.79300
C  -6.12200 22.36200 29.65100
C  -6.29300 22.78700 24.86700
C  -3.47300 26.82400 24.84500
N  -4.80600 24.47100 29.41100
C  -4.25700 25.39900 30.22100
C  -4.65800 25.15200 31.64100
C  -4.97800 23.61500 31.64100
C  -5.31900 23.43000 30.12000
C  -3.94600 22.58100 32.09200
C  -5.68400 26.15500 32.14800
C  -6.21200 26.03900 33.59300
H  -5.70000 24.97000 34.51300
N  -6.14000 22.86100 27.29300
C  -6.40300 22.05100 28.31500
C  -7.32400 20.97000 27.83300
C  -7.48900 21.13100 26.44500
C  -6.59800 22.25200 26.14000
C  -7.98000 20.01500 28.80800
C  -8.27900 20.32200 25.45100
O  -8.35800 20.62200 24.27800
C  -9.13200 19.24700 25.90600
N  -4.94100 24.83900 25.14400
C  -5.59300 23.93200 24.40900
C  -5.66500 24.35100 22.90300
C  -4.78500 25.69900 22.95600
C  -4.36000 25.77600 24.38000
C  -5.03700 23.29000 22.02500
C  -5.59100 27.01100 22.49200
C  -4.79400 27.87900 21.52700
N  -3.63900 26.26900 27.31300
C  -3.22200 27.05700 26.25700
C  -2.40600 28.13100 26.82800
C  -2.48400 27.95700 28.25600
C  -3.24600 26.85700 28.43000
C  -1.65000 29.05600 26.04100
C  -2.00900 28.48600 29.50900
O  -1.29000 29.44900 29.74300
C  -2.74600 27.59000 30.59100
C  -1.76400 27.04800 31.55400
O  -1.06300 26.16300 31.20600
O  -1.88000 27.59100 32.76700
C  -1.00100 27.02600 33.84200
H  -6.48800 21.80100 30.51300
H  -6.67700 22.26600 23.98800
H  -3.14400 27.48100 24.03700
H  -3.82100 25.26300 32.33000
H  -5.92500 23.46600 32.15800
H  -3.12800 23.16000 32.52100
H  -3.54100 21.96800 31.28700
H  -4.38500 21.93600 32.85400
H  -6.52900 26.21500 31.46100
H  -5.33500 27.18800 32.14200
H  -7.29700 25.95900 33.65800
H  -5.98600 27.02100 34.00900
H  -7.37700 19.15800 29.10800
H  -8.90500 19.71500 28.31500
H  -8.23300 20.47600 29.76300
H  -9.91500 19.55800 26.59900
H  -8.49300 18.56100 26.46100
H  -9.52700 18.72300 25.03600
H  -6.68400 24.43900 22.52500
H  -3.95300 25.52900 22.27200
H  -4.73700 22.45700 22.66100
H  -4.18300 23.61100 21.43000
H  -5.74600 22.85300 21.32100
H  -5.88200 27.63300 23.33800
H  -6.46100 26.68100 21.92300
H  -5.52000 27.96900 20.71900
H  -3.92600 27.40400 21.07100
H  -4.43700 28.80400 21.98000
H  -2.18200 29.45000 25.17500
H  -0.80900 28.57000 25.54500
H  -1.31600 29.88100 26.67100
H  -3.43600 28.20700 31.16700
H  -0.31000 27.81300 34.14600
H  -0.51200 26.12100 33.48000
H  -1.58700 26.66500 34.68700

