158

Mg 25.88000 0.02700 29.00300
C  27.91400 -0.23300 31.83900
C  23.23100 0.26300 31.01900
C  23.87600 0.43700 26.16900
C  28.50900 -0.60400 26.88100
N  25.64000 0.05400 31.21400
C  26.58600 0.04200 32.17500
C  26.00100 0.37600 33.55500
C  24.47200 0.51600 33.26300
C  24.40600 0.30400 31.74900
C  23.35000 -0.13700 34.10500
C  26.72800 1.55400 34.26000
C  26.82400 1.39200 35.79400
H  26.37200 2.41400 36.78000
N  23.85200 0.24700 28.68200
C  22.91000 0.28700 29.66700
C  21.62000 0.40600 29.06300
C  21.80000 0.59200 27.65200
C  23.23000 0.44400 27.43900
C  20.33700 0.47400 29.94900
C  20.76700 0.85300 26.61600
O  20.92600 0.84800 25.38700
C  19.37800 1.24500 26.97600
N  26.16500 0.05500 26.88800
C  25.18600 0.22300 25.92800
C  25.84800 0.14300 24.53800
C  27.29000 -0.30500 24.80200
C  27.31700 -0.25400 26.30600
C  25.04800 -0.77800 23.51100
C  28.32300 0.53200 24.07100
C  28.77900 1.83600 24.74000
N  27.72100 -0.51200 29.27500
C  28.76200 -0.72200 28.30000
C  30.03300 -0.91600 28.98300
C  29.74100 -0.79500 30.37800
C  28.35800 -0.47500 30.50400
C  31.33700 -1.21100 28.38900
C  30.32300 -0.75600 31.70200
O  31.49100 -0.83400 32.05200
C  29.18100 -0.27300 32.66300
C  29.02300 -1.24500 33.83600
O  28.28300 -2.17000 33.81200
O  29.71700 -0.85400 34.99100
C  29.37600 -1.48800 36.25500
H  22.31900 0.44200 31.59200
H  23.13000 0.31200 25.38200
H  29.34100 -0.84100 26.21500
H  26.21600 -0.46700 34.21200
H  24.14000 1.54300 33.41700
H  22.77800 -0.89000 33.56300
H  22.69100 0.59400 34.57300
H  23.70000 -0.68600 34.97900
H  26.23800 2.51000 34.07400
H  27.65400 1.85200 33.76700
H  27.88600 1.15800 35.86800
H  26.33200 0.46200 36.07700
H  19.42700 0.05800 29.51800
H  20.12400 1.51200 30.20700
H  20.40700 0.04100 30.94700
H  19.24500 1.88000 27.85200
H  18.85800 0.29700 27.10900
H  18.91700 1.67900 26.08900
H  25.88600 1.14500 24.11100
H  27.50900 -1.33400 24.52000
H  24.04100 -0.96400 23.88400
H  25.54900 -1.73700 23.37900
H  25.05300 -0.28300 22.53900
H  27.81500 0.88000 23.17100
H  29.19600 -0.07200 23.82300
H  28.46800 1.99500 25.77300
H  28.27800 2.64000 24.20000
H  29.85300 2.02200 24.74200
H  32.00200 -0.38400 28.63900
H  31.23200 -1.32000 27.30900
H  31.69600 -2.17900 28.73800
H  29.50400 0.71200 33.00000
H  30.29700 -1.76300 36.76900
H  28.68600 -2.33200 36.27500
H  28.80600 -0.73800 36.80400
Mg -2.19000 34.18100 27.67100
C  -3.50400 32.48500 30.47500
C  -0.72800 36.43200 29.77900
C  -1.62400 36.13400 25.06700
C  -3.83700 31.94500 25.63700
N  -2.09200 34.43600 29.84300
C  -2.70000 33.57300 30.78600
C  -2.35900 34.01300 32.18200
C  -1.44100 35.24100 31.96600
C  -1.39400 35.40600 30.46000
C  -1.75900 36.58900 32.70200
C  -1.80500 32.97100 33.19900
C  -2.46900 32.74600 34.56500
H  -1.52900 32.66500 35.72100
N  -1.29800 36.08800 27.43500
C  -0.65900 36.79700 28.38800
C  -0.12000 38.02900 27.86500
C  -0.52000 38.01800 26.48700
C  -1.11500 36.67400 26.25300
C  0.66800 38.95000 28.69100
C  -0.35300 39.16900 25.49800
O  -0.81200 38.98400 24.36600
C  0.30000 40.53200 25.78000
N  -2.84300 34.10900 25.54100
C  -2.32700 34.95800 24.72000
C  -2.43200 34.49800 23.30000
C  -3.06500 33.05800 23.42200
C  -3.28300 33.01100 24.95000
C  -3.30500 35.39700 22.38200
C  -2.12000 31.85000 22.80500
C  -0.82200 31.57100 23.53800
N  -3.39300 32.50800 27.93800
C  -3.97400 31.67500 27.01400
C  -4.65200 30.61300 27.65800
C  -4.44600 30.86100 29.00200
C  -3.78400 32.08000 29.15600
C  -5.47400 29.56600 27.07900
C  -4.88100 30.46000 30.34400
O  -5.68200 29.57300 30.74100
C  -4.26200 31.50700 31.31100
C  -5.45500 32.14500 31.99800
O  -6.46600 32.52400 31.46700
O  -5.27700 32.10100 33.34100
C  -6.43100 32.54500 34.16400
H  -0.23900 37.15300 30.43800
H  -1.36100 36.73700 24.19500
H  -4.23800 31.16800 24.98300
H  -3.24800 34.33900 32.72200
H  -0.39800 35.04500 32.21600
H  -0.84600 36.84400 33.24000
H  -2.49200 36.33400 33.46800
H  -1.94800 37.48400 32.10900
H  -0.73100 33.12300 33.30500
H  -1.84900 32.00500 32.69600
H  -3.03400 31.81900 34.47700
H  -3.06200 33.62400 34.82100
H  1.60000 38.97000 28.12700
H  0.95700 38.67800 29.70600
H  0.23700 39.94700 28.78000
H  1.33800 40.43800 26.10100
H  -0.28100 40.96400 26.59400
H  0.29800 41.24800 24.95700
H  -1.47000 34.30400 22.82700
H  -4.08600 33.00600 23.04500
H  -3.92800 34.82600 21.69400
H  -2.72100 36.07200 21.75500
H  -3.86600 36.16600 22.91400
H  -1.87600 32.10500 21.77400
H  -2.70400 30.93300 22.73300
H  -0.60300 32.29700 24.32100
H  0.05600 31.64400 22.89700
H  -0.85600 30.56800 23.96400
H  -5.60700 28.78000 27.82200
H  -4.99400 29.21200 26.16700
H  -6.46800 29.97100 26.88600
H  -3.61900 31.00800 32.03600
H  -7.19800 31.77900 34.27100
H  -6.85700 33.47300 33.78200
H  -6.11300 32.78600 35.17900

