158

Mg 47.60000 16.48200 28.75500
C  45.73700 16.25600 31.67500
C  49.91700 18.50600 30.58300
C  49.11600 17.16100 25.87200
C  45.01300 14.96300 27.04200
N  47.71800 17.28900 30.82500
C  46.90200 16.97500 31.87300
C  47.31600 17.53800 33.25000
C  48.58900 18.42300 32.79800
C  48.76200 18.06900 31.31100
C  48.39100 19.95000 33.04900
C  47.78000 16.32700 34.20000
C  47.19900 16.36900 35.57500
H  46.94300 17.77800 36.22300
N  49.28200 17.67400 28.31100
C  50.12100 18.41500 29.19500
C  51.23000 18.93400 28.45000
C  51.00400 18.46600 27.07500
C  49.80200 17.66500 26.99600
C  52.41000 19.65600 29.06300
C  51.95000 18.62300 25.80700
O  51.75500 18.14700 24.73600
C  53.18900 19.61500 25.90900
N  47.06100 16.14800 26.82400
C  47.88500 16.49800 25.79600
C  47.36000 16.16100 24.40000
C  46.22400 15.18700 24.78000
C  46.06300 15.45900 26.27300
C  46.81100 17.30600 23.54900
C  46.55800 13.70600 24.50600
C  45.72000 13.04900 23.41600
N  45.72200 15.72800 29.23800
C  44.80700 15.07000 28.44600
C  43.64600 14.64000 29.24400
C  43.97300 15.10200 30.51800
C  45.25400 15.69600 30.46200
C  42.50900 13.90500 28.83500
C  43.47100 15.14300 31.92600
O  42.50400 14.55300 32.43900
C  44.67400 15.95000 32.67600
C  44.04900 17.09500 33.28200
O  43.96000 18.24200 32.84600
O  43.51000 16.72600 34.49300
C  42.74600 17.77400 35.10100
H  50.67700 19.07800 31.12000
H  49.53400 17.32600 24.87600
H  44.24200 14.40400 26.50800
H  46.55800 18.23700 33.60300
H  49.52900 18.07200 33.22500
H  48.62200 20.40500 32.08500
H  49.13900 20.35100 33.73300
H  47.36700 20.23500 33.29100
H  48.82700 16.31800 34.50300
H  47.65000 15.39900 33.64300
H  47.85500 15.75600 36.19300
H  46.25000 15.85300 35.43200
H  53.32100 19.09200 28.86100
H  52.34900 19.74900 30.14700
H  52.54400 20.64300 28.61900
H  52.85500 20.63200 26.11400
H  53.54900 19.52800 24.88400
H  54.01800 19.19500 26.47800
H  48.15400 15.70300 23.81000
H  45.29400 15.40500 24.25600
H  45.75000 17.13700 23.36500
H  47.35100 17.37400 22.60500
H  46.82500 18.19400 24.18100
H  46.41300 13.11400 25.40900
H  47.56800 13.40300 24.23000
H  46.41100 12.35900 22.93100
H  45.29000 13.72500 22.67800
H  44.90500 12.40200 23.74000
H  41.64500 14.56500 28.91800
H  42.21000 13.09400 29.49800
H  42.67800 13.63700 27.79200
H  44.94300 15.16200 33.37900
H  43.38900 18.61800 35.35000
H  42.26200 17.52300 36.04500
H  41.94100 18.16200 34.47700
Mg 0.87500 42.10600 26.28700
C  2.96900 42.13700 29.15200
C  -1.84400 41.65300 28.41100
C  -1.04200 41.88400 23.57800
C  3.74500 41.94500 24.25200
N  0.58400 42.01800 28.58900
C  1.62200 41.92100 29.53200
C  1.00900 41.93400 30.88800
C  -0.54500 41.73100 30.68600
C  -0.65200 41.77600 29.09200
C  -1.19100 40.51200 31.45700
C  1.38100 43.29200 31.65400
C  1.83300 43.14800 33.13700
H  1.37700 42.00800 34.03100
N  -1.18900 41.94600 25.99300
C  -2.11700 41.71200 26.99300
C  -3.41600 41.52900 26.40000
C  -3.22300 41.53300 24.94700
C  -1.78700 41.76300 24.75400
C  -4.71100 41.44800 27.16300
C  -4.28100 41.31500 23.89100
O  -3.99800 41.40300 22.68800
C  -5.66100 40.89400 24.29600
N  1.28400 41.87300 24.24400
C  0.30100 41.93300 23.27600
C  0.84100 41.85700 21.86900
C  2.36200 41.89000 22.08500
C  2.49300 41.89600 23.62800
C  0.40000 40.56300 21.04200
C  3.00800 43.07600 21.45300
C  2.41600 44.47300 21.62500
N  2.91500 42.18900 26.55900
C  3.99200 42.10700 25.64700
C  5.23800 42.32500 26.41500
C  4.87000 42.32500 27.72900
C  3.45100 42.25200 27.81100
C  6.69100 42.51300 25.88000
C  5.45300 42.55000 29.06600
O  6.64000 42.79600 29.47700
C  4.22900 42.29200 30.02100
C  4.61600 41.20400 30.88200
O  4.74100 40.02100 30.54400
O  4.89300 41.69300 32.22800
C  5.25500 40.68200 33.20500
H  -2.67700 41.40200 29.07100
H  -1.53600 41.92700 22.60500
H  4.63400 41.91700 23.61800
H  1.43700 41.07200 31.39900
H  -1.06500 42.62000 31.04100
H  -1.68800 39.74900 30.85800
H  -1.95400 41.02800 32.04000
H  -0.48000 40.07400 32.15800
H  0.57200 44.02000 31.72100
H  2.18300 43.86800 31.19300
H  1.50200 44.03800 33.67300
H  2.91800 43.21600 33.20900
H  -4.67500 41.59200 28.24300
H  -5.14900 40.46300 27.00200
H  -5.40500 42.15600 26.71100
H  -6.20600 41.70400 24.77900
H  -5.49200 40.04700 24.96000
H  -6.25400 40.62000 23.42300
H  0.37800 42.70600 21.36700
H  2.88600 41.04000 21.65000
H  -0.00300 39.74400 21.63800
H  1.25500 40.21700 20.46300
H  -0.42200 40.85800 20.39000
H  3.12500 42.79900 20.40600
H  4.02800 43.13200 21.83400
H  2.23100 44.89100 20.63600
H  3.23100 45.12800 21.93300
H  1.55000 44.49700 22.28600
H  6.76000 43.46400 25.35300
H  6.82100 41.71000 25.15400
H  7.38400 42.40800 26.71500
H  4.15200 43.14300 30.69800
H  6.17200 40.15500 32.93900
H  4.55400 39.84800 33.22400
H  5.31500 41.13900 34.19300

