158

Mg 48.82900 35.40000 28.40400
C  46.76100 33.71300 30.61000
C  49.18700 37.82600 30.77000
C  50.58400 37.09700 26.18100
C  47.91800 33.05300 25.95400
N  48.13700 35.60400 30.45300
C  47.33700 34.83000 31.20100
C  47.31500 35.24800 32.71900
C  47.70200 36.75500 32.52000
C  48.34900 36.81400 31.13400
C  46.45700 37.69200 32.55100
C  48.41500 34.38400 33.46400
C  48.33400 34.15800 34.96300
H  47.43500 35.10700 35.70700
N  49.90800 37.17500 28.52000
C  49.96300 38.03500 29.59800
C  50.73400 39.21800 29.26900
C  51.11600 39.03900 27.87100
C  50.53400 37.72400 27.46600
C  50.94400 40.34300 30.22200
C  51.93500 39.96700 26.96500
O  51.97100 39.86100 25.77600
C  52.76100 41.09700 27.63600
N  48.94000 35.29500 26.26800
C  49.80800 36.04400 25.63800
C  50.06500 35.57400 24.22200
C  49.25600 34.31800 24.18700
C  48.54600 34.22100 25.54100
C  49.36800 36.60600 23.15400
C  50.19200 33.04300 23.81100
C  49.62700 32.26200 22.59200
N  47.65400 33.67200 28.25200
C  47.53700 32.74300 27.23500
C  46.64000 31.68800 27.62400
C  46.14300 32.09200 28.88000
C  46.92300 33.22300 29.27700
C  46.18000 30.48100 26.75800
C  45.33700 31.75100 30.05000
O  44.69000 30.75600 30.20100
C  45.58200 32.88400 31.12900
C  45.82200 32.18700 32.37000
O  46.81700 31.44900 32.58000
O  44.94300 32.60000 33.34800
C  45.05400 31.86600 34.61600
H  49.02600 38.74800 31.33400
H  51.26800 37.60800 25.50000
H  47.64200 32.34500 25.17000
H  46.36100 35.06400 33.21100
H  48.38400 36.97300 33.34200
H  45.65300 37.22800 33.12200
H  46.11500 37.99900 31.56200
H  46.57400 38.56100 33.19900
H  49.40000 34.74200 33.16600
H  48.49900 33.47800 32.86400
H  49.32900 34.14600 35.40700
H  47.93900 33.14200 34.98200
H  50.45300 41.22100 29.80300
H  52.02800 40.40900 30.32100
H  50.57400 40.01200 31.19200
H  53.51000 41.32900 26.87800
H  53.05500 40.55800 28.53600
H  52.01900 41.86900 27.83900
H  51.12100 35.42900 23.99500
H  48.49500 34.29600 23.40700
H  50.18700 37.15200 22.68600
H  48.68800 37.25800 23.70300
H  48.79800 36.11100 22.36700
H  50.24200 32.44400 24.72000
H  51.25500 33.25000 23.68300
H  48.76100 32.74800 22.14200
H  49.25500 31.25200 22.76800
H  50.40100 32.28400 21.82500
H  47.08500 30.27700 26.18600
H  45.37600 30.78200 26.08500
H  45.97200 29.54300 27.27200
H  44.64000 33.42800 31.20800
H  44.21100 31.17700 34.66600
H  44.96400 32.60600 35.41100
H  45.96700 31.28400 34.74000
Mg 9.61600 47.87300 26.27500
C  7.63300 47.89700 29.20800
C  12.23900 49.05600 28.09600
C  11.36100 47.44100 23.52100
C  6.63000 46.96800 24.46900
N  9.78500 48.48200 28.44000
C  8.95200 48.28300 29.49400
C  9.59900 48.58400 30.80300
C  10.80900 49.38400 30.30900
C  11.03100 48.97500 28.83800
C  10.69900 50.94100 30.42900
C  10.09500 47.33100 31.57800
C  10.82300 47.61300 32.85700
H  10.57900 46.60000 33.99600
N  11.52500 48.35200 25.89500
C  12.52500 48.81400 26.75000
C  13.78700 48.86800 26.00700
C  13.50700 48.45200 24.68500
C  12.11100 47.99400 24.68500
C  15.04200 49.40400 26.56400
C  14.45800 48.42900 23.58700
O  14.02300 47.96100 22.56800
C  15.84800 48.85400 23.67500
N  8.99600 47.32900 24.20900
C  10.01200 47.19200 23.33700
C  9.53800 46.61500 21.99700
C  7.94500 46.43800 22.22100
C  7.82900 46.89300 23.75500
C  9.94000 47.43600 20.76000
C  7.49300 44.93000 21.91100
C  7.62900 43.96900 23.01200
N  7.52700 47.57100 26.64300
C  6.44600 47.27600 25.82200
C  5.23700 47.24400 26.63000
C  5.70500 47.39800 27.96600
C  7.06300 47.66300 27.91500
C  3.79800 46.88800 26.16600
C  5.35200 47.35500 29.35800
O  4.35800 47.05500 29.90900
C  6.55300 47.73500 30.14700
C  6.76200 46.57700 31.07100
O  6.87800 45.42000 30.78600
O  6.68500 47.04600 32.32000
C  6.21900 46.11900 33.34500
H  13.06700 49.28400 28.77200
H  11.92600 47.11600 22.64600
H  5.71400 46.75700 23.91300
H  8.89200 49.13900 31.41900
H  11.76600 49.15000 30.77600
H  9.95000 51.34000 31.11400
H  10.45600 51.41700 29.47900
H  11.70300 51.23400 30.73700
H  10.74900 46.78600 30.89700
H  9.31600 46.58600 31.73900
H  10.27600 48.49400 33.19000
H  11.84300 47.99100 32.79300
H  14.99900 49.58000 27.63900
H  15.44400 50.31500 26.12000
H  15.89300 48.73100 26.45900
H  16.47100 48.35800 24.42000
H  15.99300 49.91800 23.86200
H  16.34900 48.55400 22.75500
H  10.00700 45.64700 21.82000
H  7.36700 47.11400 21.59000
H  9.08400 48.08400 20.57500
H  10.08300 46.76100 19.91500
H  10.75000 48.13300 20.97400
H  8.14300 44.59700 21.10300
H  6.47000 45.01400 21.54400
H  8.34200 44.34800 23.74400
H  8.15700 43.09300 22.63500
H  6.62700 43.76600 23.39200
H  3.74300 47.32900 25.17000
H  3.00300 47.33000 26.76700
H  3.63700 45.81000 26.17800
H  6.41700 48.63500 30.74700
H  5.48600 46.69600 33.90900
H  7.07100 45.99300 34.01300
H  5.88400 45.13600 33.01200

