158

Mg 48.12700 24.34100 28.30400
C  49.15000 26.48700 30.95600
C  47.53000 21.90600 30.80700
C  47.39700 22.14000 25.91200
C  49.50700 26.49900 26.08700
N  48.26900 24.22500 30.62900
C  48.68500 25.25200 31.49200
C  48.48200 24.89100 32.97600
C  48.00900 23.37300 32.90800
C  47.96900 23.13500 31.36900
C  48.90900 22.37500 33.68500
C  47.66500 25.91600 33.79900
C  48.19300 26.41800 35.14600
H  47.10500 26.65800 36.28200
N  47.51600 22.32300 28.36800
C  47.31300 21.53000 29.47600
C  46.63300 20.32300 28.98200
C  46.60800 20.37900 27.54600
C  47.20500 21.65800 27.23500
C  46.43700 19.20200 29.97900
C  46.14900 19.37700 26.54400
O  46.30900 19.52600 25.35500
C  45.61200 18.05500 27.01600
N  48.64300 24.20400 26.31900
C  48.05800 23.30900 25.49300
C  48.24300 23.72900 24.00700
C  48.70000 25.23000 24.15900
C  49.00200 25.30600 25.62500
C  49.15600 22.82000 23.17100
C  47.71400 26.29000 23.69900
C  46.38200 26.35200 24.43600
N  49.00300 26.20700 28.38500
C  49.55600 26.93700 27.37700
C  50.01000 28.18000 27.91400
C  49.81300 28.06800 29.35600
C  49.27300 26.77900 29.53100
C  50.72500 29.20900 27.22000
C  50.03100 28.72200 30.63000
O  50.43000 29.88100 30.90700
C  49.64700 27.72800 31.73200
C  50.83500 27.40800 32.44600
O  51.79200 26.74300 32.07900
O  50.65400 27.90500 33.73900
C  51.67200 27.46700 34.67800
H  47.44900 21.18000 31.61900
H  47.14300 21.54200 25.03500
H  49.92700 27.21500 25.37800
H  49.45800 24.91100 33.46200
H  46.99400 23.25200 33.28800
H  49.09800 21.60200 32.94000
H  48.33900 22.02100 34.54300
H  49.85600 22.74000 34.08300
H  46.69700 25.44500 33.96800
H  47.45400 26.79400 33.18800
H  48.59600 27.42700 35.05800
H  48.93900 25.72200 35.53000
H  46.91500 18.37100 29.46000
H  45.38600 19.10100 30.25100
H  46.91400 19.39400 30.94000
H  45.22300 17.48100 26.17500
H  44.76100 18.19100 27.68300
H  46.42900 17.48900 27.46300
H  47.22600 23.87900 23.64400
H  49.60300 25.49100 23.60500
H  50.10500 23.32600 22.99100
H  48.69000 22.65700 22.19900
H  49.46300 21.86700 23.60100
H  47.54200 26.19700 22.62700
H  48.15000 27.26900 23.89700
H  45.96600 25.41000 24.07800
H  45.85900 27.14000 23.89400
H  46.36000 26.43500 25.52300
H  50.68700 30.11800 27.82100
H  50.25600 29.46200 26.26900
H  51.74400 28.84400 27.09400
H  48.81200 28.23900 32.21000
H  51.49900 26.40100 34.83100
H  51.41800 27.91100 35.64100
H  52.65900 27.88800 34.49000
Mg -2.88200 34.75800 26.99600
C  -4.79400 33.12400 29.43700
C  -1.77600 36.80500 29.47100
C  -1.12600 36.33800 24.58800
C  -4.32200 32.63500 24.58200
N  -3.41100 35.04200 29.26600
C  -4.11500 34.15300 30.01400
C  -3.82400 34.41700 31.56900
C  -2.86200 35.67400 31.56600
C  -2.60100 35.85600 30.01900
C  -3.36500 36.98000 32.27900
C  -3.19800 33.13000 32.35800
C  -3.97200 32.77700 33.61700
H  -3.10500 32.53500 34.90600
N  -1.59200 36.35300 27.00500
C  -1.30400 37.05900 28.12000
C  -0.41000 38.11600 27.70200
C  -0.16300 37.97300 26.28900
C  -0.94700 36.89400 25.88600
C  0.21100 39.14300 28.65500
C  0.64300 38.80600 25.35700
O  0.68700 38.59900 24.14200
C  1.35100 40.01000 25.78800
N  -2.89800 34.67000 24.78700
C  -1.95100 35.34000 24.01800
C  -1.81400 34.72500 22.60400
C  -2.89500 33.55400 22.65100
C  -3.34200 33.61400 24.10200
C  -2.16200 35.85500 21.51300
C  -2.23200 32.17200 22.22700
C  -3.17600 31.25300 21.34100
N  -4.41900 33.30200 26.91200
C  -4.87200 32.52800 25.85100
C  -5.74600 31.51900 26.44300
C  -5.76100 31.73800 27.81600
C  -4.90000 32.81900 28.05200
C  -6.56800 30.43000 25.71300
C  -6.31600 31.19600 28.94500
O  -7.03400 30.20800 29.12200
C  -5.75900 32.13600 30.13800
C  -6.97200 32.81100 30.75000
O  -7.55300 33.69900 30.22100
O  -7.29300 32.17300 31.97300
C  -8.38000 32.94100 32.64400
H  -1.31400 37.48300 30.19100
H  -0.68100 36.84000 23.72700
H  -4.73600 31.85500 23.93800
H  -4.79100 34.69900 31.98500
H  -1.93000 35.30400 31.99400
H  -2.47400 37.49200 32.64300
H  -4.00000 36.73800 33.13100
H  -3.88500 37.63300 31.57800
H  -2.16000 33.37200 32.58300
H  -3.14300 32.29800 31.65600
H  -4.51900 31.87700 33.33400
H  -4.68800 33.59200 33.72300
H  1.28500 38.96000 28.65100
H  -0.05800 38.97400 29.69800
H  0.02400 40.19000 28.41500
H  0.71200 40.79500 26.19100
H  1.88000 40.45300 24.94400
H  2.08500 39.57900 26.46900
H  -0.79700 34.38800 22.40100
H  -3.82100 33.65300 22.08400
H  -2.18700 36.83400 21.99200
H  -3.19900 35.66200 21.23800
H  -1.46300 35.63900 20.70500
H  -1.95100 31.50400 23.04100
H  -1.34000 32.32800 21.62100
H  -4.04900 31.75600 20.92700
H  -3.45300 30.44400 22.01800
H  -2.57400 30.76900 20.57200
H  -7.52000 30.26200 26.21500
H  -6.02700 29.48400 25.73500
H  -6.73800 30.65800 24.66100
H  -5.38700 31.38700 30.83700
H  -7.81600 33.69900 33.18800
H  -8.93700 32.31500 33.34100
H  -9.11300 33.51000 32.07400

