158

Mg 16.10900 -1.56900 28.61300
C  15.07000 0.15700 31.53500
C  18.19300 -3.30600 30.63100
C  17.43000 -3.04200 25.92200
C  14.39100 0.61500 26.63200
N  16.51200 -1.61000 30.84700
C  15.93400 -0.87400 31.80600
C  16.50700 -1.18700 33.20400
C  17.55700 -2.33400 32.82300
C  17.41200 -2.43800 31.33500
C  19.04400 -2.07100 33.33700
C  15.37500 -1.56400 34.20700
C  15.33500 -0.80600 35.59300
H  16.69500 -0.40000 36.25200
N  17.46900 -3.06500 28.32900
C  18.22300 -3.66600 29.28200
C  19.23100 -4.51700 28.69300
C  19.04400 -4.46700 27.32700
C  17.92200 -3.51700 27.13700
C  20.13200 -5.23500 29.57900
C  19.67500 -5.27600 26.17000
O  19.39100 -5.13100 24.96900
C  20.57100 -6.39800 26.47200
N  15.97200 -1.16600 26.57800
C  16.62000 -1.91000 25.63500
C  16.39700 -1.33100 24.21900
C  15.16600 -0.41600 24.49600
C  15.16400 -0.34000 25.96900
C  17.66000 -0.73400 23.56000
C  13.81000 -0.92000 24.01800
C  13.37900 -0.45500 22.63600
N  14.89200 0.07500 28.92300
C  14.21000 0.86100 28.02200
C  13.39500 1.77400 28.71100
C  13.69100 1.56200 30.08300
C  14.55100 0.49400 30.23400
C  12.55700 2.77600 28.08100
C  13.39800 2.02800 31.45000
O  12.61400 2.83700 31.90700
C  14.33500 1.11800 32.40200
C  15.24400 2.07600 33.00100
O  16.34500 2.34400 32.57300
O  14.78100 2.60900 34.18800
C  15.69900 3.33600 35.05700
H  18.90800 -3.83200 31.26700
H  17.86000 -3.53100 25.04500
H  13.80100 1.30600 26.02600
H  17.06100 -0.33600 33.60000
H  17.18300 -3.25300 33.27500
H  19.37800 -2.75300 34.11800
H  19.14600 -1.11200 33.84400
H  19.82900 -2.27200 32.60700
H  15.43600 -2.60700 34.51700
H  14.40100 -1.50500 33.72100
H  14.90900 -1.58500 36.22500
H  14.64300 0.02900 35.48000
H  20.74800 -4.60300 30.21900
H  20.85100 -5.77700 28.96500
H  19.56700 -6.01300 30.09200
H  19.99500 -7.02300 27.15400
H  21.54500 -6.06800 26.83300
H  20.63000 -7.05000 25.60000
H  16.06300 -2.09300 23.51400
H  15.51300 0.58600 24.24500
H  18.48100 -0.78000 24.27600
H  17.58600 0.32800 23.32500
H  17.99100 -1.24700 22.65700
H  12.99000 -0.59500 24.65900
H  13.81300 -2.00900 24.00300
H  13.92000 0.44300 22.33600
H  12.32800 -0.20700 22.78600
H  13.47600 -1.28300 21.93500
H  11.79900 2.30800 27.45300
H  13.08900 3.45300 27.41300
H  12.04400 3.32800 28.86800
H  13.65100 0.70900 33.14600
H  15.63300 4.40000 34.82900
H  16.75100 3.05100 35.02300
H  15.31200 3.31600 36.07600
Mg 1.38400 41.93300 24.93100
C  2.32900 42.18800 28.37400
C  -1.54000 40.55900 25.97000
C  0.55600 41.41000 21.73800
C  4.60500 42.77200 23.97900
N  0.45900 41.55600 26.95300
C  1.03800 41.66500 28.19800
C  0.04800 41.35400 29.30000
C  -1.17300 40.77400 28.55800
C  -0.77200 40.94500 27.07200
C  -1.49400 39.33200 28.88500
C  -0.25500 42.63100 30.09400
C  -0.47400 42.45000 31.62200
H  -1.53600 41.49500 32.21700
N  -0.26200 41.21100 24.00300
C  -1.32600 40.66300 24.62300
C  -2.32000 40.21300 23.66100
C  -1.81100 40.49600 22.34000
C  -0.45700 41.05800 22.63500
C  -3.79800 39.83600 24.01000
C  -2.46200 40.35400 20.93500
O  -1.95800 40.74900 19.90200
C  -3.73900 39.67200 20.82800
N  2.39100 42.12800 23.10900
C  1.85200 41.79500 21.90500
C  2.95900 41.89200 20.77900
C  4.13700 42.62100 21.53600
C  3.70000 42.50900 22.94900
C  3.30000 40.52500 20.13500
C  4.29400 44.12800 21.08800
C  3.21200 45.10900 21.58800
N  3.15500 42.35800 25.92000
C  4.36200 42.73700 25.39400
C  5.28900 42.90000 26.46600
C  4.52000 42.69000 27.61600
C  3.20600 42.45200 27.26500
C  6.75000 43.17100 26.36900
C  4.68900 42.62800 29.06300
O  5.70900 42.75500 29.78100
C  3.28400 42.27200 29.59200
C  3.43000 41.06200 30.46200
O  3.80200 39.96700 30.07000
O  3.00500 41.33400 31.73000
C  3.04400 40.14000 32.68600
H  -2.53800 40.22700 26.26300
H  0.40100 41.10600 20.70100
H  5.63700 42.98700 23.69300
H  0.52200 40.64400 29.97800
H  -2.07800 41.36500 28.69800
H  -2.48100 39.39600 29.34200
H  -0.80700 38.89100 29.60700
H  -1.62100 38.69600 28.00900
H  -1.16000 43.21500 29.92300
H  0.52000 43.37500 29.91300
H  -0.63500 43.39700 32.13600
H  0.45800 42.05500 32.02700
H  -3.91500 38.86700 24.49400
H  -4.53900 40.00100 23.22700
H  -4.08500 40.61300 24.71800
H  -3.77800 38.86700 21.56200
H  -3.85300 39.06800 19.92700
H  -4.52800 40.42300 20.85900
H  2.56100 42.44800 19.93000
H  5.09200 42.09900 21.47800
H  2.46400 40.23300 19.50000
H  3.41800 39.76700 20.91000
H  4.23000 40.71500 19.59900
H  4.32900 44.29300 20.01100
H  5.28000 44.39400 21.46900
H  3.64200 45.68000 22.41100
H  2.24500 44.69000 21.86400
H  3.10700 45.81300 20.76200
H  6.97200 44.13700 25.91600
H  7.27500 42.45600 25.73600
H  7.30700 43.01100 27.29200
H  2.90900 43.09100 30.20600
H  4.06600 40.22000 33.05800
H  2.82200 39.14500 32.30200
H  2.35000 40.31600 33.50800

