158

Mg 35.62800 1.87100 30.45500
C  33.33600 3.10200 32.79900
C  38.06100 2.21000 32.80700
C  38.03300 1.03900 28.12300
C  33.26100 2.16800 28.01800
N  35.69200 2.47200 32.54200
C  34.60600 2.91900 33.34000
C  34.95600 3.06700 34.85200
C  36.46300 3.06600 34.71800
C  36.77500 2.52900 33.27500
C  37.17400 4.48200 35.03800
C  34.24400 2.01900 35.76000
C  33.78600 2.41100 37.16100
H  34.47900 3.56800 37.88400
N  37.75200 1.57700 30.47900
C  38.51100 1.69000 31.58000
C  39.84500 1.20000 31.27600
C  39.88300 0.88300 29.88900
C  38.56800 1.16400 29.40200
C  40.96000 1.08800 32.27900
C  41.00300 0.18200 29.09600
O  41.01000 -0.02700 27.83500
C  42.14300 -0.38500 29.85800
N  35.63500 1.61200 28.40300
C  36.75300 1.31200 27.66500
C  36.36500 1.02000 26.17800
C  34.76700 1.16600 26.15800
C  34.52900 1.66100 27.60600
C  37.07300 1.90000 25.18800
C  34.06000 -0.18100 25.78400
C  32.76800 0.00200 25.04700
N  33.66400 2.44400 30.35500
C  32.83500 2.51700 29.31600
C  31.53000 3.00100 29.77500
C  31.66500 3.24900 31.14900
C  33.02500 2.92000 31.44300
C  30.36200 3.18300 28.92200
C  31.01700 3.74700 32.28200
O  29.89900 4.15300 32.61000
C  32.08100 3.67000 33.42500
C  32.26000 5.09700 33.80900
O  33.17800 5.86700 33.47700
O  31.23900 5.39000 34.67200
C  31.18600 6.67800 35.33700
H  38.80800 2.29500 33.59800
H  38.67200 0.63500 27.33500
H  32.54300 2.23500 27.19800
H  34.53500 4.00500 35.21400
H  36.77700 2.30900 35.43700
H  37.73400 4.74300 34.14000
H  37.90200 4.32800 35.83400
H  36.56300 5.37100 35.19800
H  34.83300 1.10200 35.74500
H  33.34100 1.64100 35.28100
H  33.67400 1.52700 37.78900
H  32.76900 2.75800 36.97800
H  41.79200 1.67100 31.88500
H  41.19100 0.05400 32.53500
H  40.62100 1.49000 33.23400
H  42.80900 0.32100 30.35300
H  42.74500 -0.88400 29.09800
H  41.80500 -1.21000 30.48500
H  36.68600 -0.00100 25.97500
H  34.55000 1.93900 25.42000
H  38.05900 1.43500 25.16000
H  37.27200 2.84800 25.68900
H  36.57700 2.13200 24.24600
H  33.79700 -0.80100 26.64100
H  34.75700 -0.87700 25.31700
H  32.96600 -0.56500 24.13700
H  32.49600 1.04000 24.85900
H  31.94700 -0.35800 25.66700
H  30.60500 3.37700 27.87700
H  29.75800 3.94800 29.40900
H  29.73400 2.29900 29.04000
H  31.65800 3.18600 34.30500
H  32.20000 6.84100 35.70200
H  30.42500 6.72600 36.11600
H  30.91100 7.46900 34.64000
Mg 8.72500 47.93100 26.56500
C  6.73500 48.03700 29.37700
C  11.45300 49.13000 28.57100
C  10.70500 48.09200 23.80900
C  5.98900 47.03200 24.67600
N  9.06900 48.51200 28.76100
C  8.08200 48.45700 29.69600
C  8.63300 48.69600 31.08800
C  10.01900 49.35800 30.64500
C  10.25200 48.86700 29.32100
C  10.06600 50.94700 30.70800
C  8.84300 47.37600 31.92200
C  8.98900 47.55600 33.46500
H  8.67800 46.46900 34.39800
N  10.81500 48.47500 26.26200
C  11.76900 48.91400 27.16700
C  13.00200 49.15600 26.45200
C  12.83100 48.93300 25.09900
C  11.38000 48.52800 25.00500
C  14.25400 49.55900 27.12600
C  13.76900 49.02300 23.96400
O  13.49600 48.78600 22.80300
C  15.19800 49.18400 24.31100
N  8.41200 47.69600 24.51600
C  9.39500 47.67300 23.56300
C  8.81200 47.27400 22.21300
C  7.35300 46.88400 22.51700
C  7.19800 47.24700 24.01600
C  9.08400 48.36100 21.11400
C  6.98800 45.44200 22.20500
C  6.04500 45.25200 20.99100
N  6.79600 47.71900 26.91900
C  5.74900 47.33500 26.04300
C  4.53700 47.33900 26.71500
C  4.84700 47.58200 28.08000
C  6.24400 47.72600 28.15900
C  3.23200 46.83700 26.14400
C  4.30800 47.66000 29.42000
O  3.10600 47.57900 29.79100
C  5.55500 47.80200 30.36300
C  5.65900 46.47700 30.98100
O  5.77200 45.42900 30.39000
O  5.49800 46.65800 32.35600
C  5.55400 45.33200 32.98700
H  12.23600 49.56600 29.19500
H  11.31900 48.08800 22.90600
H  5.15500 46.68800 24.06100
H  7.97500 49.39900 31.60000
H  10.82100 49.02600 31.30400
H  10.77700 51.14200 31.51000
H  9.07400 51.29200 31.00000
H  10.47700 51.42600 29.81900
H  9.75200 46.86800 31.60100
H  8.07500 46.63100 31.71600
H  8.47100 48.48400 33.71100
H  10.06700 47.65700 33.59200
H  14.13200 49.72800 28.19600
H  14.56300 50.50500 26.68100
H  15.03500 48.80800 27.01000
H  15.47200 48.31100 24.90300
H  15.27100 50.18100 24.74600
H  15.76900 49.30900 23.39100
H  9.31600 46.34800 21.93500
H  6.60900 47.47700 21.98400
H  8.16000 48.86300 20.82400
H  9.52400 47.81400 20.28000
H  9.83000 49.12200 21.34300
H  6.59900 44.98000 23.11200
H  7.87100 44.81600 22.08000
H  6.59000 44.71100 20.21700
H  5.85100 46.20400 20.49600
H  5.18100 44.62800 21.21800
H  2.90900 47.27900 25.20200
H  2.46300 46.94500 26.91000
H  3.27100 45.75500 26.01700
H  5.43600 48.65500 31.03100
H  5.39800 45.36500 34.06500
H  6.49900 44.88400 32.68000
H  4.69600 44.82900 32.54000

