158

Mg -0.07200 8.09500 25.00200
C  0.95900 9.81100 27.96200
C  0.27400 5.15100 26.78800
C  -0.56100 6.42900 22.22100
C  0.63100 11.09800 23.16700
N  0.61000 7.57500 27.21200
C  0.80700 8.39400 28.26300
C  0.94100 7.64100 29.58900
C  0.73500 6.18100 29.09100
C  0.55100 6.28600 27.58300
C  1.87200 5.20800 29.55200
C  -0.06100 8.14700 30.69100
C  0.31800 8.44200 32.06700
H  0.89400 7.28800 32.87000
N  -0.24900 6.05000 24.55300
C  -0.08700 5.01600 25.42600
C  -0.38800 3.85100 24.74600
C  -0.66000 4.21700 23.37700
C  -0.48000 5.61300 23.29500
C  -0.26400 2.53900 25.49500
C  -0.96300 3.28400 22.16600
O  -1.20700 3.70400 21.01200
C  -0.82800 1.77200 22.42700
N  0.03200 8.74600 22.98400
C  -0.36200 7.78900 22.02500
C  -0.43900 8.48500 20.69900
C  -0.18900 10.00300 21.01000
C  0.20900 9.96200 22.45600
C  0.55800 7.89400 19.67000
C  -1.57500 10.74400 20.99600
C  -2.15800 11.20700 19.62500
N  0.51100 10.07700 25.48100
C  0.77700 11.15600 24.63500
C  1.10200 12.26700 25.41100
C  1.10300 11.79100 26.73000
C  0.81000 10.45400 26.68500
C  1.33300 13.66500 24.80300
C  1.33300 12.23500 28.08700
O  1.68400 13.29000 28.64100
C  1.19700 10.95000 28.95400
C  2.37600 10.84300 29.86400
O  3.38800 10.19700 29.63700
O  2.00700 11.40000 31.04200
C  3.05900 11.46300 32.12400
H  -0.04400 4.28900 27.37800
H  -0.97000 6.02900 21.29100
H  0.83300 12.01200 22.60500
H  1.95400 7.88200 29.91000
H  -0.24400 5.83600 29.42200
H  2.49300 5.64900 30.33200
H  2.46900 5.12000 28.64500
H  1.38800 4.27000 29.82500
H  -0.89100 7.44000 30.67700
H  -0.47500 9.06700 30.27800
H  -0.56100 8.88300 32.53700
H  1.01300 9.27000 31.92800
H  0.41300 1.86600 24.97000
H  -1.27100 2.12900 25.57300
H  0.20200 2.63200 26.47600
H  0.17900 1.37700 22.56300
H  -1.22200 1.16800 21.60900
H  -1.26300 1.47500 23.38100
H  -1.45000 8.28000 20.34700
H  0.51000 10.61200 20.43600
H  0.76400 6.85400 19.92500
H  1.48400 8.46900 19.67100
H  0.03000 7.93000 18.71700
H  -1.52700 11.58700 21.68600
H  -2.26100 10.01800 21.43200
H  -1.52000 10.87400 18.80500
H  -2.26800 12.29100 19.65300
H  -3.15800 10.81900 19.43000
H  1.24100 13.68200 23.71700
H  2.33700 13.92200 25.13900
H  0.66500 14.38500 25.27600
H  0.27400 11.21300 29.47000
H  2.65300 11.14000 33.08200
H  3.47200 12.45700 32.29600
H  3.90700 10.81100 31.91200
Mg 25.37400 1.07700 29.53700
C  27.33800 0.90500 32.46300
C  22.64700 1.63600 31.45500
C  23.75900 1.28400 26.60300
C  28.20900 0.11400 27.84700
N  25.09300 1.22400 31.74400
C  26.02600 1.29900 32.74800
C  25.40400 1.58200 34.19800
C  23.87400 1.46400 33.86200
C  23.78500 1.32700 32.26200
C  23.13900 0.32200 34.59200
C  25.92700 2.88600 34.77700
C  26.41600 2.72400 36.33200
H  25.85900 3.73700 37.31700
N  23.43300 1.22000 29.09100
C  22.49300 1.59700 30.00400
C  21.23600 1.86900 29.22800
C  21.50200 1.61600 27.89300
C  22.95100 1.33300 27.79600
C  19.96200 2.43100 29.88300
C  20.56200 1.68500 26.66600
O  20.83900 1.20400 25.52500
C  19.24000 2.14300 26.88200
N  25.91900 0.61900 27.45400
C  25.12900 1.03500 26.48400
C  25.81300 0.83700 25.12300
C  27.27000 0.59700 25.54400
C  27.16000 0.34400 27.04200
C  25.24200 -0.33900 24.29400
C  28.26300 1.72700 25.14700
C  29.23900 1.34900 23.94800
N  27.33600 0.37200 30.03600
C  28.34400 0.14600 29.22600
C  29.59600 -0.04700 29.99200
C  29.20300 0.18500 31.33800
C  27.83500 0.51300 31.27800
C  30.90400 -0.47900 29.45400
C  29.67900 0.25100 32.71900
O  30.77300 0.01500 33.17400
C  28.45500 0.76300 33.50500
C  28.25200 -0.20500 34.56900
O  27.67500 -1.27400 34.42700
O  28.90900 0.20400 35.71700
C  28.79300 -0.78000 36.87000
H  21.72600 1.68800 32.04000
H  23.19700 1.29200 25.66700
H  29.03000 -0.11900 27.16600
H  25.66200 0.85300 34.96700
H  23.39500 2.38200 34.20400
H  22.34800 0.64100 35.27000
H  23.81500 -0.30600 35.17300
H  22.67300 -0.33300 33.85500
H  25.38300 3.78200 34.47600
H  26.82000 2.93600 34.15400
H  27.48600 2.92000 36.26000
H  26.26900 1.71900 36.72600
H  19.78300 3.29200 29.23900
H  20.13600 2.87600 30.86300
H  19.13300 1.72600 29.93100
H  19.31400 3.20200 27.13200
H  18.62700 1.56800 27.57600
H  18.64500 2.07400 25.97200
H  25.77100 1.71200 24.47500
H  27.54800 -0.30000 24.99100
H  25.17800 -1.19200 24.96800
H  25.99600 -0.50100 23.52300
H  24.22800 -0.10200 23.97200
H  28.81900 2.05700 26.02500
H  27.69200 2.55600 24.72900
H  28.87300 0.53800 23.31800
H  30.20700 1.02100 24.32700
H  29.33000 2.29600 23.41600
H  31.38200 -1.08600 30.22300
H  31.60900 0.34800 29.37000
H  30.84700 -1.02800 28.51400
H  28.68000 1.74100 33.93200
H  28.95800 -1.82000 36.58900
H  27.85900 -0.64200 37.41500
H  29.65700 -0.46800 37.45600

