158

Mg 8.43400 2.73400 26.77300
C  9.79800 1.37900 29.65100
C  6.22900 4.39300 28.57700
C  7.26700 3.87900 23.76200
C  10.48700 0.37200 24.99800
N  7.92900 2.63700 28.90900
C  8.74100 2.28500 29.92200
C  8.32900 2.83100 31.32700
C  7.15100 3.77400 30.92200
C  7.05300 3.61000 29.38800
C  5.79800 3.59700 31.62100
C  9.60300 3.50200 31.96600
C  9.42200 4.45400 33.20100
H  10.15400 4.18600 34.45000
N  6.99700 3.99700 26.23300
C  6.12400 4.52600 27.14400
C  5.22000 5.38900 26.38400
C  5.59300 5.33500 25.03200
C  6.70800 4.43000 24.95700
C  4.01500 6.05400 27.14300
C  4.94900 6.11000 23.85500
O  5.35700 6.10400 22.65600
C  3.84700 7.01200 24.14700
N  8.78500 2.10300 24.63700
C  8.17600 2.79600 23.59800
C  8.70100 2.32400 22.23100
C  9.71800 1.24000 22.63500
C  9.76900 1.30400 24.18600
C  7.57600 1.83500 21.25500
C  11.02600 1.46200 21.99500
C  11.22500 1.46800 20.48500
N  9.73000 1.14500 27.16300
C  10.49100 0.28200 26.37400
C  11.42800 -0.55000 27.13900
C  11.16200 -0.09800 28.44700
C  10.16300 0.87100 28.39700
C  12.46200 -1.48500 26.64800
C  11.62100 -0.31800 29.79000
O  12.46200 -1.04700 30.27000
C  10.75000 0.62300 30.65200
C  10.13500 -0.22500 31.70500
O  9.40500 -1.18400 31.53900
O  10.69400 0.15500 32.93200
C  10.30200 -0.41200 34.22000
H  5.68000 5.08100 29.22300
H  6.89000 4.20700 22.79100
H  11.00200 -0.43400 24.47200
H  7.94000 1.99800 31.91200
H  7.36000 4.83500 31.05500
H  5.77900 2.61900 32.10100
H  4.98400 3.53400 30.89800
H  5.45400 4.31700 32.36300
H  10.13300 4.01100 31.16000
H  10.26400 2.73400 32.36800
H  8.33500 4.42800 33.27400
H  9.70900 5.49100 33.02200
H  3.08200 5.82800 26.62700
H  4.25100 7.11800 27.16000
H  3.95300 5.57800 28.12200
H  3.54300 7.69800 23.35700
H  4.36300 7.66800 24.84800
H  3.00700 6.49100 24.60500
H  9.13400 3.20400 21.75500
H  9.46700 0.19300 22.46100
H  6.63800 2.37900 21.36100
H  7.32300 0.85400 21.65900
H  7.71400 1.68400 20.18500
H  11.63800 0.62000 22.32200
H  11.51200 2.39800 22.27200
H  10.25000 1.17100 20.10100
H  11.99800 0.74700 20.22000
H  11.30600 2.49300 20.12300
H  12.92000 -1.08900 25.74200
H  12.15000 -2.51900 26.50300
H  13.34000 -1.47600 27.29400
H  11.36100 1.30000 31.24700
H  9.34100 -0.92100 34.15200
H  10.13900 0.31600 35.01500
H  11.00200 -1.20800 34.47500
Mg 25.43400 2.41700 29.64400
C  27.59800 2.28900 32.41100
C  22.77100 2.42200 31.88900
C  23.47800 2.44500 27.01500
C  28.17000 1.47600 27.59800
N  25.25100 2.48800 31.88900
C  26.28900 2.58300 32.79100
C  25.79500 2.78400 34.22300
C  24.20900 2.71500 34.06000
C  24.03300 2.57900 32.50800
C  23.63200 1.48200 34.89500
C  26.44700 4.08900 34.84000
C  27.14400 3.96500 36.23100
H  26.70500 4.75700 37.54300
N  23.42300 2.51600 29.44400
C  22.50700 2.40600 30.42800
C  21.17700 2.32100 29.85800
C  21.31700 2.35300 28.46900
C  22.79500 2.47500 28.23400
C  19.93600 2.22100 30.70100
C  20.29700 2.22600 27.32500
O  20.56100 2.04100 26.17200
C  18.87300 2.25800 27.59500
N  25.70800 1.75300 27.58300
C  24.78400 2.18900 26.68900
C  25.33800 2.17900 25.28700
C  26.86200 1.92200 25.45900
C  26.91800 1.74400 26.98400
C  24.53200 1.07600 24.47900
C  27.74300 3.13200 24.86400
C  27.93000 4.42500 25.83900
N  27.43000 1.84700 29.93700
C  28.37100 1.47500 28.96800
C  29.63500 1.28500 29.69200
C  29.35600 1.66900 31.03700
C  28.01800 1.91700 31.10300
C  30.89200 0.71200 29.15500
C  29.85900 1.76500 32.37500
O  31.03100 1.58600 32.80000
C  28.71700 2.12400 33.30200
C  28.67400 1.02200 34.22000
O  28.17200 -0.06200 34.03700
O  29.15400 1.40300 35.43300
C  28.82000 0.52700 36.62600
H  21.88000 2.55600 32.50500
H  22.79400 2.62400 26.18300
H  28.88800 1.34800 26.78500
H  26.16100 1.87400 34.69900
H  23.71300 3.60800 34.43900
H  22.64600 1.21400 34.51400
H  23.56000 1.90900 35.89500
H  24.38500 0.70800 34.74100
H  25.73200 4.88800 35.03900
H  27.08500 4.60300 34.12200
H  28.20100 4.20800 36.11700
H  27.22100 2.91000 36.49300
H  20.14000 2.13000 31.76700
H  19.45600 1.29100 30.39700
H  19.28100 3.09100 30.64100
H  18.47500 1.33500 28.01700
H  18.41400 2.39800 26.61600
H  18.77700 3.06200 28.32400
H  25.15400 3.18800 24.91800
H  27.11000 0.97400 24.98100
H  23.85600 0.52200 25.13000
H  25.12300 0.33900 23.93400
H  23.96300 1.62100 23.72600
H  27.28500 3.47500 23.93600
H  28.60500 2.62700 24.42700
H  28.08100 4.15800 26.88500
H  27.00400 4.99800 25.78400
H  28.81800 4.98400 25.54400
H  30.49900 -0.07100 28.50500
H  31.56300 0.23200 29.86600
H  31.40300 1.47000 28.56200
H  28.93900 2.98800 33.92900
H  27.77200 0.46700 36.92000
H  29.45700 0.78000 37.47400
H  29.23100 -0.45100 36.37500

