158

Mg 1.58000 8.83500 27.05200
C  2.23500 10.86000 29.68800
C  1.47800 6.08500 29.24600
C  1.19500 6.65100 24.41100
C  1.80900 11.44100 24.94200
N  1.82900 8.52700 29.25600
C  2.10000 9.49600 30.11900
C  1.88100 9.04200 31.51600
C  1.74500 7.42900 31.34300
C  1.61000 7.30700 29.81100
C  2.91500 6.61800 31.90100
C  0.59700 9.73600 32.13100
C  0.02400 9.15100 33.41300
H  0.91800 8.64700 34.50500
N  1.41100 6.67900 26.78800
C  1.37600 5.76300 27.85300
C  1.27300 4.44000 27.36200
C  1.37900 4.57600 25.95000
C  1.29000 6.03600 25.65900
C  1.41400 3.12300 28.15900
C  1.48300 3.51300 24.86500
O  1.51900 3.76300 23.66000
C  1.66100 2.03600 25.21600
N  1.45400 8.95600 24.98700
C  1.27700 8.01600 24.09700
C  1.14900 8.52400 22.75700
C  0.90800 10.07400 22.98700
C  1.44200 10.19300 24.42700
C  2.37700 8.33100 21.85400
C  -0.56700 10.45600 22.80900
C  -0.94200 11.67600 21.91000
N  2.08600 10.77900 27.25200
C  2.18500 11.72100 26.29500
C  2.38600 12.99400 26.92400
C  2.43700 12.65200 28.23400
C  2.22500 11.30400 28.37400
C  2.31600 14.31700 26.28800
C  2.61100 13.23300 29.56400
O  2.61800 14.40300 29.94400
C  2.33200 12.10500 30.53200
C  3.31700 12.13800 31.60900
O  4.39000 11.56400 31.71400
O  2.65000 12.70600 32.68100
C  3.06700 12.41000 34.09900
H  1.44700 5.29400 29.99800
H  1.01300 6.01300 23.54400
H  1.62800 12.26600 24.25100
H  2.78400 9.26100 32.08700
H  0.83300 7.09500 31.83900
H  3.43800 6.08500 31.10800
H  2.56500 5.82500 32.56200
H  3.54800 7.26500 32.50900
H  -0.25000 9.73300 31.44500
H  0.84100 10.74100 32.47400
H  -0.54700 8.28200 33.08700
H  -0.73500 9.80000 33.84900
H  2.35700 2.67900 27.83900
H  0.59800 2.40500 28.08100
H  1.32000 3.17300 29.24400
H  2.57000 1.93700 25.81000
H  1.86700 1.61000 24.23300
H  0.75600 1.58000 25.61700
H  0.30100 8.06100 22.25100
H  1.54900 10.67600 22.34300
H  2.14800 7.50900 21.17500
H  3.24000 8.00600 22.43500
H  2.68600 9.19700 21.26800
H  -0.95700 10.69700 23.79800
H  -1.09300 9.55600 22.49200
H  -1.40600 12.42000 22.55800
H  -1.72400 11.31800 21.24000
H  -0.09300 12.16400 21.43000
H  1.34100 14.68200 26.61000
H  2.17400 14.21400 25.21200
H  3.13700 14.95500 26.61400
H  1.31700 12.23300 30.90800
H  3.54100 11.43300 34.19200
H  2.32100 12.54500 34.88100
H  3.92200 13.04200 34.33700
Mg 9.04700 4.17200 27.32500
C  10.27000 2.61600 30.15700
C  7.16400 6.20800 29.20300
C  8.10900 5.62500 24.49900
C  10.79900 1.67600 25.33700
N  8.73200 4.42500 29.49800
C  9.39500 3.68000 30.45600
C  9.15000 4.21400 31.81600
C  7.92500 5.22600 31.56300
C  7.96600 5.33100 29.99000
C  6.58500 4.82600 32.21600
C  10.39900 4.79100 32.61900
C  10.10900 5.88100 33.72000
H  10.86400 5.64000 35.06000
N  7.82700 5.72700 26.94600
C  7.01300 6.31400 27.83300
C  6.06000 7.17000 27.06900
C  6.47300 7.09300 25.66100
C  7.58900 6.13800 25.67800
C  4.99200 7.92000 27.77500
C  5.87600 7.82700 24.44800
O  6.21600 7.64400 23.33200
C  4.96700 8.92800 24.60100
N  9.34500 3.62700 25.16300
C  8.88300 4.45300 24.23900
C  9.09100 3.90000 22.79400
C  9.95100 2.59200 23.08200
C  10.11300 2.64000 24.60700
C  7.73200 3.65500 22.05300
C  11.34100 2.39100 22.38500
C  11.56500 1.05800 21.55200
N  10.19600 2.43800 27.61500
C  10.90300 1.62100 26.74500
C  11.64800 0.71300 27.53300
C  11.46800 1.08700 28.87700
C  10.53500 2.09600 28.89100
C  12.47000 -0.37500 27.06700
C  11.91900 0.77500 30.26300
O  12.62000 -0.09200 30.77300
C  11.05500 1.76400 31.12600
C  10.15800 0.93200 32.00100
O  9.35600 0.05200 31.66900
O  10.38400 1.38400 33.29600
C  9.42300 0.84000 34.28600
H  6.47800 6.84300 29.76700
H  7.76300 5.99700 23.53300
H  11.39200 0.94000 24.79000
H  8.77900 3.37600 32.40700
H  8.18500 6.23700 31.88000
H  5.88700 4.81600 31.38000
H  6.27100 5.63200 32.88000
H  6.69000 3.93700 32.83900
H  10.98900 5.16000 31.78000
H  10.94500 4.00600 33.14100
H  9.03400 5.81700 33.88700
H  10.30200 6.89500 33.36800
H  4.69400 7.46400 28.71900
H  4.11900 7.81100 27.13100
H  5.10500 9.00400 27.80400
H  5.44200 9.70800 25.19500
H  4.01500 8.61700 25.03100
H  4.84300 9.39600 23.62400
H  9.60200 4.72000 22.29000
H  9.43500 1.66700 22.82300
H  6.89100 4.12700 22.56100
H  7.51300 2.60200 21.87600
H  7.79700 4.14600 21.08200
H  12.17900 2.31600 23.07800
H  11.46400 3.15000 21.61300
H  12.10400 1.39300 20.66500
H  10.63700 0.59100 21.22300
H  12.12200 0.34000 22.15300
H  13.14000 -0.17000 26.23100
H  11.84900 -1.23500 26.81400
H  13.09600 -0.53300 27.94600
H  11.78400 2.34500 31.69000
H  9.43300 -0.24900 34.24600
H  8.49400 1.37800 34.09500
H  9.71900 1.10400 35.30100

