158

Mg 46.87600 24.61600 29.33700
C  47.49700 27.18300 31.66900
C  45.75800 22.65100 31.93700
C  46.72700 22.05400 27.19400
C  48.37300 26.61900 26.88000
N  46.68900 24.93700 31.59800
C  46.99400 26.07900 32.34300
C  46.37000 25.91800 33.79700
C  45.94000 24.39800 33.84200
C  46.07000 23.96800 32.36800
C  46.91800 23.52400 34.70000
C  45.29800 26.93700 34.29200
C  45.64200 27.61900 35.63400
H  46.35400 26.83300 36.70100
N  46.51000 22.60600 29.58500
C  45.99100 22.00100 30.73200
C  45.49400 20.65900 30.34400
C  45.64000 20.53000 28.98500
C  46.38200 21.71400 28.53400
C  44.78400 19.67900 31.34600
C  45.33700 19.30800 28.03300
O  45.64300 19.26300 26.87100
C  44.62200 18.11500 28.51900
N  47.60100 24.30700 27.29800
C  47.30500 23.17200 26.62800
C  47.89100 23.19600 25.20900
C  48.28700 24.73400 25.02000
C  48.06500 25.28600 26.50400
C  48.95600 22.08900 24.90500
C  47.48000 25.54300 23.91500
C  46.21700 26.22800 24.33500
N  47.67700 26.50900 29.20700
C  48.30500 27.13300 28.15800
C  48.79000 28.47500 28.60700
C  48.39500 28.52500 29.94600
C  47.78900 27.28600 30.27400
C  49.47100 29.47300 27.84300
C  48.56300 29.34500 31.12700
O  48.97400 30.46600 31.27100
C  47.86000 28.51700 32.29800
C  48.77800 28.26100 33.41500
O  49.62900 27.39100 33.40000
O  48.64100 29.17700 34.41600
C  49.58000 29.08800 35.53700
H  45.20100 22.06800 32.67400
H  46.74500 21.20100 26.51200
H  48.67300 27.25500 26.04400
H  47.29100 26.15400 34.33000
H  44.91000 24.25400 34.16800
H  47.52100 24.17900 35.32800
H  47.62400 22.89900 34.15200
H  46.37800 22.84500 35.35900
H  44.41000 26.36800 34.56500
H  45.18400 27.67300 33.49600
H  44.71800 27.82100 36.17500
H  45.98700 28.62200 35.38100
H  45.21300 18.70600 31.10700
H  43.73100 19.85500 31.12800
H  44.93800 19.90800 32.40000
H  45.32200 17.58000 29.16200
H  44.36700 17.45500 27.69000
H  43.66300 18.43300 28.92700
H  46.96800 22.88700 24.71800
H  49.36000 24.82800 24.85800
H  49.23000 21.49200 25.77500
H  49.79900 22.62500 24.47000
H  48.48600 21.34200 24.26600
H  47.37600 24.89800 23.04300
H  48.25000 26.28900 23.72000
H  45.37000 25.66200 23.94800
H  46.14100 27.27800 24.05100
H  46.08900 26.20800 25.41700
H  48.71200 29.75400 27.11300
H  50.31300 29.00400 27.33500
H  49.91500 30.31400 28.37600
H  46.91600 28.98400 32.57600
H  49.15000 28.50700 36.35200
H  49.70900 30.09000 35.94600
H  50.59000 28.74800 35.30800
Mg -2.94200 35.78500 26.59700
C  -4.48900 33.94900 29.14700
C  -1.44000 37.82700 28.98800
C  -1.77100 37.76000 24.05600
C  -4.76400 33.98900 24.34900
N  -3.12800 35.90300 28.81200
C  -3.65600 34.95800 29.66600
C  -3.49900 35.38700 31.14800
C  -2.38800 36.47700 30.97300
C  -2.32500 36.78400 29.49300
C  -2.39100 37.80100 31.79300
C  -3.18000 34.22700 32.12700
C  -2.01900 34.32100 33.11600
H  -2.07400 33.48200 34.38700
N  -1.72200 37.46200 26.53900
C  -1.14400 38.12100 27.60300
C  -0.13500 39.06100 27.10100
C  -0.25200 39.11800 25.68800
C  -1.31900 38.12500 25.37200
C  0.66200 39.97500 28.05500
C  0.46600 39.93500 24.70800
O  0.26500 39.91000 23.49100
C  1.53900 40.80500 25.18300
N  -3.45500 36.08100 24.53500
C  -2.70400 36.77800 23.65600
C  -3.15000 36.55100 22.28000
C  -3.88600 35.21000 22.39400
C  -3.97200 35.06500 23.90300
C  -3.96500 37.73500 21.84400
C  -3.21900 34.03100 21.58000
C  -2.12200 33.22500 22.28000
N  -4.51800 34.37300 26.66600
C  -5.08900 33.68300 25.63800
C  -5.96400 32.67600 26.13700
C  -5.68400 32.72700 27.49000
C  -4.91500 33.80000 27.80700
C  -6.84200 31.58200 25.42900
C  -6.02100 32.06000 28.75300
O  -6.67200 31.02100 28.91200
C  -5.29900 32.83300 29.91800
C  -6.37200 33.35300 30.71400
O  -7.22000 34.10900 30.32000
O  -6.29600 32.81700 31.95900
C  -7.32500 33.24600 32.86100
H  -0.85100 38.38100 29.72300
H  -1.42000 38.39500 23.24000
H  -5.09800 33.25100 23.61600
H  -4.38500 35.97400 31.39000
H  -1.45200 35.97900 31.22700
H  -2.55700 38.71000 31.21400
H  -1.42000 37.80500 32.28900
H  -3.08600 37.64200 32.61700
H  -3.06800 33.33400 31.51200
H  -3.89500 34.10400 32.94100
H  -1.87000 35.37200 33.36100
H  -1.08500 34.04800 32.62500
H  1.71700 39.83600 27.82000
H  0.56300 39.73300 29.11300
H  0.49300 41.05100 28.02700
H  1.90700 41.24500 24.25600
H  2.33300 40.22500 25.65300
H  1.03700 41.58500 25.75500
H  -2.24600 36.35900 21.70200
H  -4.87600 35.42700 21.99200
H  -4.75700 37.57500 21.11300
H  -3.21200 38.28900 21.28300
H  -4.34900 38.27300 22.71100
H  -2.67800 34.36200 20.69400
H  -3.97900 33.37200 21.15900
H  -1.37700 32.91000 21.54900
H  -2.54200 32.30800 22.69500
H  -1.64300 33.78100 23.08600
H  -6.32300 30.63800 25.59300
H  -7.08900 31.88500 24.41100
H  -7.80800 31.53300 25.93200
H  -4.69200 32.04300 30.36000
H  -8.23200 33.12500 32.26900
H  -7.19400 34.26600 33.22100
H  -7.30100 32.58600 33.72800

