158

Mg 17.33800 -0.90000 28.52800
C  16.18400 1.01300 31.13200
C  19.26800 -2.68100 30.73500
C  18.75100 -2.57700 26.00700
C  15.73700 1.29900 26.29600
N  17.75800 -0.78300 30.65500
C  16.97700 -0.02900 31.58000
C  17.35400 -0.41400 33.04900
C  18.45200 -1.53700 32.93800
C  18.56200 -1.66000 31.37600
C  19.82800 -1.22000 33.59200
C  16.09300 -0.88600 33.85800
C  16.06500 -0.62600 35.35700
H  17.20600 0.09700 36.05700
N  18.59600 -2.55900 28.36300
C  19.33700 -3.11800 29.35700
C  19.97600 -4.32500 28.90700
C  19.95500 -4.22100 27.47300
C  18.99400 -3.11800 27.21900
C  20.74600 -5.28200 29.71000
C  20.67500 -5.10600 26.35200
O  20.60300 -4.89900 25.13200
C  21.53400 -6.22600 26.81500
N  17.26100 -0.69600 26.38200
C  17.91200 -1.56600 25.57400
C  17.86000 -1.10200 24.09300
C  17.02300 0.33400 24.17200
C  16.61300 0.31200 25.69600
C  19.25100 -1.00500 23.36700
C  15.75300 0.57400 23.20100
C  15.81700 1.73500 22.26300
N  16.12300 0.70000 28.62000
C  15.57300 1.52000 27.68300
C  14.80200 2.57000 28.29300
C  15.07700 2.44900 29.62200
C  15.85900 1.33100 29.78500
C  13.91400 3.60800 27.60800
C  14.71300 2.97300 30.91700
O  13.98500 3.83800 31.30600
C  15.53100 2.10500 31.98500
C  16.56700 2.95700 32.58500
O  17.73200 3.19300 32.19000
O  16.10600 3.45000 33.75300
C  16.93300 4.32800 34.62200
H  19.76300 -3.42400 31.36500
H  19.13400 -3.10900 25.13300
H  15.25100 2.09300 25.72500
H  17.79100 0.47500 33.50400
H  18.08200 -2.45400 33.39800
H  20.04300 -1.84400 34.45900
H  19.70700 -0.20600 33.97300
H  20.76900 -1.24600 33.04300
H  15.95200 -1.96600 33.80600
H  15.18900 -0.43100 33.45200
H  15.70700 -1.43600 35.99200
H  15.38000 0.22200 35.34800
H  20.55500 -6.34900 29.59700
H  20.63800 -5.10900 30.78100
H  21.76700 -4.94300 29.53500
H  21.06300 -6.81100 27.60600
H  22.51400 -5.79800 27.02300
H  21.69200 -6.92500 25.99400
H  17.32800 -1.92600 23.61700
H  17.76400 1.12400 24.04600
H  19.86500 -0.24700 23.85300
H  18.98000 -0.71800 22.35100
H  19.75800 -1.97000 23.39100
H  14.86500 0.72900 23.81500
H  15.50400 -0.29600 22.59300
H  15.07300 2.47100 22.56900
H  15.55800 1.40900 21.25600
H  16.84600 2.09300 22.29500
H  13.74900 3.50800 26.53500
H  14.43100 4.56800 27.63000
H  12.96200 3.49600 28.12600
H  14.77300 1.66800 32.63400
H  17.11100 3.83800 35.57900
H  16.38800 5.26900 34.69600
H  17.89200 4.55800 34.15800
Mg -9.97200 40.27500 38.91900
C  -8.94000 36.89000 38.12300
C  -6.86500 41.36800 37.95000
C  -11.31500 43.34300 38.83500
C  -13.29300 38.91000 39.32300
N  -8.18300 39.19000 37.96500
C  -7.92300 37.86700 37.95700
C  -6.43300 37.63900 37.72200
C  -5.79400 39.08200 37.84700
C  -7.05500 39.95500 38.06100
C  -4.88200 39.20500 39.10600
C  -6.15900 36.95500 36.36500
C  -6.71500 37.79100 35.17900
H  -7.81000 37.10500 34.27300
N  -9.18100 42.01000 38.45800
C  -7.87400 42.35600 38.14400
C  -7.73900 43.72000 37.82100
C  -9.03500 44.30500 37.90200
C  -9.91300 43.22600 38.39200
C  -6.47500 44.39900 37.34100
C  -9.41100 45.68100 37.38600
O  -8.57300 46.49800 36.98600
C  -10.83800 46.11500 37.31700
N  -11.99400 41.01600 39.15400
C  -12.22100 42.37500 39.10300
C  -13.75100 42.61200 39.21100
C  -14.34300 41.20500 39.55200
C  -13.18500 40.30200 39.35800
C  -14.05800 43.62700 40.26200
C  -15.68900 40.71300 38.89400
C  -16.66600 39.96300 39.85000
N  -10.95600 38.31300 38.86000
C  -12.26300 37.95900 39.11300
C  -12.38700 36.54700 39.00500
C  -11.10400 36.05100 38.72400
C  -10.31700 37.19100 38.52500
C  -13.68400 35.70200 39.20800
C  -10.31700 34.87400 38.41800
O  -10.56100 33.68400 38.44700
C  -8.89300 35.34600 38.02500
C  -7.86700 34.88200 39.11000
O  -8.00200 34.88100 40.30900
O  -6.79800 34.29000 38.39800
C  -5.76500 33.61100 39.21400
H  -5.85300 41.70900 37.72300
H  -11.78500 44.32500 38.91500
H  -14.27600 38.53500 39.61600
H  -6.05100 37.01200 38.52800
H  -5.18400 39.43400 37.01500
H  -4.79400 38.31400 39.72900
H  -5.28100 39.96100 39.78100
H  -3.88300 39.54200 38.82900
H  -6.64600 35.98000 36.32700
H  -5.09600 36.90900 36.13100
H  -5.80400 38.02700 34.62800
H  -7.07400 38.75700 35.53600
H  -6.55600 44.52200 36.26100
H  -5.60600 43.75200 37.46200
H  -6.11700 45.28900 37.85900
H  -11.22000 46.46800 38.27500
H  -11.52800 45.32600 37.01900
H  -10.86000 46.86500 36.52700
H  -14.16100 42.98600 38.27300
H  -14.37700 41.10600 40.63700
H  -13.14600 44.08100 40.65000
H  -14.46000 43.11800 41.13800
H  -14.79600 44.33900 39.89300
H  -15.59300 40.09300 38.00300
H  -16.26000 41.57200 38.54200
H  -16.15600 39.60900 40.74600
H  -16.78800 39.03200 39.29500
H  -17.60900 40.49700 39.96400
H  -14.11600 35.26700 38.30700
H  -14.49400 36.27700 39.65800
H  -13.48500 35.03800 40.05000
H  -8.69900 35.01600 37.00500
H  -5.94700 32.56300 39.45300
H  -5.81500 33.99400 40.23300
H  -4.71000 33.75900 38.98500

