158

Mg 7.20900 3.12600 27.49800
C  8.32400 1.93400 30.62200
C  5.12400 5.26500 29.21500
C  5.84800 4.13500 24.61800
C  8.96600 0.76900 25.92200
N  6.58000 3.32500 29.71200
C  7.27300 2.83800 30.77900
C  6.68400 3.31000 32.16500
C  5.58100 4.27500 31.59100
C  5.81100 4.37700 30.04700
C  4.05600 3.98800 31.96900
C  7.69600 3.99700 33.13900
C  7.22100 3.88700 34.62700
H  8.17400 3.66100 35.73900
N  5.90900 4.72800 26.96500
C  5.12000 5.43100 27.82000
C  4.29100 6.30900 27.14400
C  4.42100 5.96900 25.81700
C  5.36300 4.87100 25.72600
C  3.22900 7.19700 27.77000
C  3.75300 6.64000 24.59900
O  3.90400 6.26300 23.45500
C  2.88100 7.91700 24.70600
N  7.32700 2.51600 25.52000
C  6.71900 3.11600 24.44400
C  7.22400 2.53700 23.09100
C  8.28700 1.51800 23.57400
C  8.15500 1.55000 25.10700
C  5.98100 1.98000 22.26700
C  9.73000 1.84600 22.98900
C  10.55200 2.87000 23.74000
N  8.31900 1.48300 28.06900
C  9.13600 0.72500 27.32600
C  10.11600 -0.01000 28.16900
C  9.72500 0.38100 29.50200
C  8.72100 1.34500 29.36800
C  11.29100 -0.90100 27.80400
C  10.06900 0.15500 30.83600
O  10.98400 -0.58600 31.28800
C  9.17600 1.19600 31.70500
C  8.38100 0.44400 32.74400
O  7.26600 -0.01500 32.57400
O  8.99400 0.37500 33.99100
C  8.30500 -0.16900 35.12700
H  4.51700 5.96700 29.79100
H  5.37000 4.44600 23.68700
H  9.49700 0.02000 25.33100
H  6.18400 2.48200 32.66700
H  5.68600 5.26200 32.04300
H  3.97800 3.20200 32.72000
H  3.50100 3.84200 31.04100
H  3.59400 4.87300 32.40800
H  7.75600 5.03400 32.80600
H  8.71300 3.63100 32.99600
H  6.41300 3.16200 34.72700
H  6.86200 4.88500 34.87800
H  3.18500 7.25700 28.85800
H  2.19100 7.01800 27.49100
H  3.48000 8.19300 27.40700
H  3.54500 8.63500 25.18700
H  2.08800 7.79900 25.44500
H  2.44300 8.24300 23.76300
H  7.72200 3.28200 22.47000
H  8.02300 0.52200 23.22100
H  5.11300 2.23000 22.87700
H  6.02500 0.89500 22.17200
H  5.88600 2.53300 21.33200
H  9.81200 2.28300 21.99400
H  10.22100 0.88100 22.86400
H  11.40800 2.30500 24.11000
H  9.99600 3.35600 24.54200
H  10.85600 3.70800 23.11400
H  11.85600 -0.53600 26.94600
H  10.87900 -1.88400 27.57600
H  11.97500 -0.90500 28.65300
H  9.84400 1.85700 32.25800
H  8.36800 -1.25000 34.99900
H  7.33900 0.32700 35.22100
H  8.81200 -0.03800 36.08300
Mg 49.23100 36.01800 27.65300
C  47.09400 35.00100 30.25400
C  49.80700 38.94800 29.50500
C  51.04200 37.26500 25.13900
C  48.42300 33.21700 25.80800
N  48.36100 36.95800 29.62300
C  47.71300 36.19100 30.58200
C  47.63700 36.95300 31.89500
C  48.18500 38.31000 31.59600
C  48.83900 38.13700 30.16700
C  47.19600 39.47300 31.66900
C  48.52000 36.17600 32.85900
C  47.94100 36.05300 34.29900
H  48.03500 37.19600 35.32000
N  50.35000 37.85400 27.38200
C  50.45800 38.88500 28.23900
C  51.40100 39.87700 27.81000
C  51.87900 39.32200 26.59600
C  51.03500 38.12800 26.30100
C  51.79100 41.17900 28.58000
C  52.97300 39.75700 25.60800
O  53.23900 39.14200 24.59100
C  53.59000 41.10900 25.92600
N  49.61400 35.38600 25.78900
C  50.41700 36.06100 24.91600
C  50.96300 35.13400 23.82800
C  50.06400 33.87800 23.98000
C  49.32400 34.15900 25.28700
C  51.12000 35.65800 22.42000
C  50.90600 32.54100 24.05600
C  50.23000 31.41600 23.17400
N  47.91300 34.42600 27.91400
C  47.71000 33.33000 27.11500
C  46.78400 32.41300 27.80100
C  46.42100 33.06100 28.98800
C  47.24000 34.24900 29.04000
C  46.21800 31.08500 27.22100
C  45.63600 33.03400 30.15800
O  44.80900 32.17900 30.54000
C  45.95000 34.24800 31.03500
C  46.32500 33.59200 32.32300
O  47.37100 32.92600 32.54400
O  45.22800 33.73300 33.15700
C  45.19700 32.67800 34.21800
H  50.00000 39.87800 30.04300
H  51.71200 37.51200 24.31200
H  48.24800 32.36400 25.14800
H  46.60500 36.92700 32.24400
H  48.94500 38.68700 32.28100
H  46.28500 39.01900 31.28000
H  47.37400 40.24200 30.91700
H  47.15200 39.83500 32.69600
H  49.46900 36.71200 32.83800
H  48.69600 35.17800 32.45800
H  48.31700 35.10600 34.68600
H  46.86500 35.91900 34.19000
H  51.23900 41.36400 29.50100
H  51.59400 42.01200 27.90600
H  52.85300 41.00500 28.75500
H  52.85100 41.90400 25.82300
H  54.39800 41.19400 25.19900
H  53.93400 41.05300 26.95900
H  51.98900 34.92800 24.13100
H  49.28800 33.85100 23.21500
H  51.06200 36.73900 22.29300
H  50.25400 35.33900 21.84000
H  51.95400 35.29300 21.82100
H  50.95900 32.11600 25.05900
H  51.91400 32.74000 23.69100
H  49.39700 31.78700 22.57700
H  49.90800 30.66300 23.89300
H  50.96000 30.89900 22.55200
H  46.51400 30.98200 26.17700
H  45.13200 31.17200 27.17800
H  46.58000 30.22900 27.79000
H  45.06000 34.87500 30.97300
H  44.57600 31.85200 33.86900
H  44.60100 33.09200 35.03100
H  46.16900 32.36700 34.60000

