158

Mg 44.72800 4.09100 46.51900
C  42.69000 7.06100 46.29900
C  41.60200 2.47400 45.66000
C  46.39700 1.30600 45.97800
C  47.55300 6.11400 46.52900
N  42.41300 4.69200 46.06900
C  41.89400 5.96900 46.04200
C  40.40900 5.96500 45.82400
C  40.03800 4.45800 45.78200
C  41.42100 3.80700 45.84900
C  38.99500 3.97000 46.86900
C  39.96200 6.70900 44.53100
C  40.99700 6.89300 43.36600
H  40.52300 7.21300 41.93100
N  44.11100 2.13900 46.07700
C  42.79300 1.67600 45.76000
C  42.88000 0.23500 45.47600
C  44.28600 -0.17700 45.53800
C  44.98800 1.11600 45.84600
C  41.62300 -0.57300 45.15200
C  44.83000 -1.59400 45.22300
O  44.05900 -2.49200 44.85700
C  46.32700 -1.88400 45.41500
N  46.69300 3.79700 46.47100
C  47.13700 2.49600 46.20300
C  48.68500 2.50300 46.18100
C  49.03700 4.02700 46.34000
C  47.70900 4.70600 46.41200
C  49.31600 1.55600 47.18500
C  49.92100 4.68800 45.15800
C  51.20900 5.44600 45.58300
N  45.16300 6.13300 46.57600
C  46.37200 6.79800 46.55400
C  46.12000 8.24600 46.65700
C  44.72200 8.40200 46.60000
C  44.12400 7.07500 46.49100
C  47.02200 9.44600 46.70600
C  43.66500 9.33900 46.73400
O  43.68700 10.54000 46.93700
C  42.34700 8.58100 46.48900
C  41.51100 8.71600 47.65400
O  41.68900 8.17700 48.75500
O  40.46500 9.56100 47.40600
C  39.55900 9.74800 48.52800
H  40.78900 1.83500 45.30800
H  47.13800 0.51600 45.83800
H  48.42800 6.76300 46.46400
H  40.02800 6.42500 46.73600
H  39.55600 4.22500 44.83300
H  38.55900 4.77900 47.45600
H  39.54200 3.22600 47.44900
H  38.15200 3.53500 46.33200
H  39.78900 7.69300 44.96700
H  39.07000 6.23900 44.11700
H  41.61400 5.99500 43.32500
H  41.71200 7.69100 43.56600
H  40.77700 -0.18700 45.72100
H  41.73100 -1.65200 45.25800
H  41.50800 -0.52000 44.06900
H  46.24200 -2.93500 45.69000
H  46.80600 -1.35500 46.24000
H  46.88600 -1.68900 44.50000
H  48.87000 2.27600 45.13100
H  49.53700 4.24400 47.28500
H  50.27400 2.01500 47.42900
H  49.44100 0.55400 46.77300
H  48.68000 1.50100 48.06800
H  49.31400 5.20100 44.41100
H  50.26300 3.80600 44.61700
H  51.95400 4.81900 45.09500
H  51.58500 5.43200 46.60600
H  51.07800 6.47300 45.24300
H  46.56500 10.25700 46.13800
H  47.94200 9.18800 46.18100
H  47.31400 9.81000 47.69100
H  41.83200 8.90300 45.58500
H  39.71100 10.75700 48.91200
H  39.62400 8.97500 49.29400
H  38.59500 9.56500 48.05300
Mg 28.55700 58.42600 42.33400
C  25.85700 56.75100 40.84400
C  30.65000 56.64500 40.19100
C  31.06400 60.72900 42.69800
C  26.34600 60.47200 43.88100
N  28.23700 57.01700 40.62700
C  27.04800 56.38500 40.24800
C  27.27900 55.31800 39.18200
C  28.79700 55.06900 39.29800
C  29.31200 56.35600 40.03000
C  29.29800 53.72700 40.07200
C  26.90000 55.73500 37.74700
C  26.04700 54.72100 37.09000
H  26.43800 54.31100 35.62500
N  30.71700 58.48000 41.87600
C  31.33700 57.63200 40.97900
C  32.74900 57.89300 40.94500
C  32.85900 59.11400 41.67900
C  31.49700 59.51000 42.09100
C  33.76100 57.04200 40.20000
C  34.17900 59.83500 41.90600
O  35.24900 59.48700 41.32600
C  34.19900 60.98700 42.86400
N  28.66400 60.33100 43.18400
C  29.77000 61.07600 43.22100
C  29.52200 62.39000 44.04700
C  28.07600 62.12600 44.68900
C  27.63100 60.96000 43.82200
C  30.64000 62.81400 45.02300
C  27.11900 63.30100 44.50400
C  26.20300 63.64200 45.70500
N  26.44800 58.49200 42.48400
C  25.68500 59.46700 43.06500
C  24.28900 59.17500 42.91500
C  24.29000 57.99000 42.15000
C  25.64800 57.71800 41.83100
C  23.06800 59.89100 43.46900
C  23.48900 56.93300 41.56900
O  22.28000 56.63000 41.67300
C  24.48300 56.14600 40.58700
C  24.44500 54.67100 40.89900
O  24.89400 54.19800 41.97000
O  23.88800 53.99400 39.88100
C  23.74000 52.52600 40.27300
H  31.27200 55.91400 39.67000
H  31.75700 61.57000 42.77800
H  25.64500 61.07700 44.46000
H  26.75400 54.41200 39.48400
H  29.35700 55.14900 38.36600
H  30.04000 53.99500 40.82400
H  29.80400 53.17800 39.27800
H  28.53000 53.14500 40.58100
H  27.75000 55.93200 37.09400
H  26.29700 56.63500 37.87600
H  25.03400 55.12100 37.05700
H  26.07100 53.79400 37.66400
H  34.57200 56.68000 40.83100
H  34.20100 57.62300 39.39000
H  33.26300 56.15400 39.81000
H  33.79300 61.88300 42.39500
H  35.22900 61.12000 43.19600
H  33.57300 60.69200 43.70600
H  29.39500 63.22300 43.35500
H  28.19400 61.98900 45.76400
H  30.18400 62.83000 46.01200
H  30.93800 63.81000 44.69400
H  31.38500 62.02200 44.95200
H  26.46000 63.25100 43.63700
H  27.75300 64.18000 44.38800
H  26.81000 64.28800 46.34000
H  25.79800 62.86000 46.34800
H  25.25000 64.01900 45.33300
H  22.72900 59.38400 44.37200
H  22.31000 59.88300 42.68600
H  23.27400 60.91700 43.77300
H  24.23500 56.16900 39.52600
H  24.66900 51.99700 40.05600
H  23.01800 52.04800 39.61000
H  23.35900 52.42200 41.28900

