158

Mg 47.29900 24.67600 27.67000
C  48.01000 26.97900 30.26800
C  46.58000 22.34300 30.14500
C  46.96800 22.20700 25.31300
C  48.42900 26.89300 25.45600
N  47.32600 24.69900 29.95600
C  47.48000 25.76200 30.78600
C  47.10400 25.50300 32.27000
C  46.99000 23.91900 32.21800
C  46.97000 23.62200 30.69900
C  47.90000 23.12100 33.08300
C  45.79300 26.21100 32.78800
C  45.97700 27.39300 33.78600
H  46.80400 26.97500 34.99900
N  46.71900 22.60300 27.76600
C  46.52500 21.85300 28.88800
C  46.19500 20.55000 28.53200
C  46.20500 20.42800 27.15800
C  46.58300 21.81500 26.66600
C  45.91000 19.45600 29.59400
C  45.86100 19.21100 26.28000
O  45.99200 19.22900 25.07000
C  45.23800 17.94000 26.88500
N  47.70000 24.48400 25.62200
C  47.41100 23.41300 24.87700
C  47.67800 23.80100 23.40100
C  47.97900 25.36400 23.47900
C  48.07100 25.57400 24.91000
C  48.77200 23.00800 22.59700
C  46.92100 26.35000 22.73500
C  45.62000 26.69500 23.55300
N  48.18700 26.49200 27.78400
C  48.55800 27.28900 26.77300
C  49.07700 28.54500 27.21500
C  48.87200 28.46100 28.55800
C  48.30500 27.21500 28.90700
C  49.70400 29.55700 26.29000
C  49.08500 29.19000 29.79600
O  49.62300 30.29200 29.96000
C  48.40100 28.31800 30.95000
C  49.46400 28.24600 32.02300
O  50.29400 27.35800 32.08300
O  49.25500 29.22400 32.86000
C  50.13000 29.25000 34.04100
H  46.35400 21.70800 31.00500
H  46.93000 21.39700 24.58100
H  48.78200 27.67100 24.77500
H  47.99500 25.88300 32.76900
H  45.93200 23.71100 32.37700
H  48.60700 22.47800 32.55900
H  47.33000 22.50300 33.77700
H  48.46200 23.87100 33.64000
H  45.13200 25.51300 33.30300
H  45.19100 26.56900 31.95300
H  45.01800 27.72100 34.18700
H  46.39000 28.24600 33.24700
H  46.36700 18.51100 29.30200
H  44.89400 19.32500 29.96600
H  46.38800 19.73400 30.53300
H  45.96700 17.44700 27.52800
H  45.00300 17.20600 26.11400
H  44.36000 18.27200 27.44000
H  46.78100 23.73200 22.78500
H  48.95500 25.72300 23.15100
H  49.64000 23.64900 22.43900
H  48.45300 22.77100 21.58200
H  49.06200 22.12100 23.16100
H  46.63700 25.85200 21.80700
H  47.36700 27.32800 22.55500
H  45.70300 27.76100 23.76100
H  45.55200 25.98000 24.37300
H  44.77500 26.57600 22.87400
H  50.39900 30.15100 26.88400
H  49.03400 30.17700 25.69400
H  50.39000 29.15100 25.54600
H  47.52100 28.84900 31.31300
H  51.04900 29.65400 33.61600
H  50.46500 28.31300 34.48600
H  49.61400 29.83600 34.80200
Mg -12.27300 16.34700 41.26400
C  -8.85100 15.34900 40.57900
C  -11.54800 19.36000 39.70400
C  -15.49400 16.88600 41.13500
C  -12.93500 12.90900 42.09000
N  -10.40000 17.18400 40.19200
C  -9.11800 16.64000 40.32000
C  -8.07400 17.72400 39.83500
C  -8.99700 19.06500 39.61800
C  -10.40500 18.54500 39.80700
C  -8.73400 20.25700 40.48500
C  -7.35800 17.33800 38.50100
C  -5.92300 17.75800 38.23400
H  -5.65500 18.66500 37.02000
N  -13.34200 17.91500 40.62800
C  -12.89900 19.07400 39.96900
C  -14.11700 19.94100 39.69400
C  -15.24200 19.19600 40.09400
C  -14.72300 17.94800 40.66900
C  -14.02600 21.19800 38.97900
C  -16.81400 19.69700 39.93700
O  -17.08700 20.72700 39.35600
C  -17.99600 18.90900 40.47100
N  -13.97300 15.03400 41.71900
C  -15.16500 15.65100 41.62300
C  -16.30500 14.61500 42.03800
C  -15.49000 13.37200 42.52500
C  -14.06200 13.72900 42.06000
C  -17.47000 15.07000 42.98900
C  -15.85400 12.01600 41.90200
C  -15.71200 11.78200 40.38000
N  -11.14800 14.51000 41.37100
C  -11.60100 13.25500 41.82200
C  -10.47000 12.38200 41.78200
C  -9.35100 13.20300 41.37400
C  -9.79200 14.45900 41.06300
C  -10.51800 11.02300 42.24000
C  -7.90000 13.14200 41.17400
O  -7.10400 12.26700 41.39200
C  -7.52900 14.62200 40.67900
C  -6.60400 15.32100 41.66200
O  -6.69200 15.21500 42.84200
O  -5.55700 15.94100 40.98700
C  -4.60500 16.60400 41.89100
H  -11.34800 20.35400 39.29900
H  -16.58200 16.95500 41.19900
H  -13.09900 11.85600 42.32900
H  -7.37500 17.81300 40.66600
H  -8.74400 19.42600 38.62100
H  -9.26700 21.15900 40.18500
H  -7.65600 20.36200 40.36300
H  -8.85600 20.10600 41.55700
H  -7.81000 17.73600 37.59300
H  -7.39000 16.25800 38.36000
H  -5.24700 16.91500 38.09100
H  -5.59900 18.28300 39.13200
H  -13.01700 21.55000 38.76500
H  -14.66300 21.97700 39.39800
H  -14.46200 20.88600 38.03000
H  -18.88800 19.44800 40.15400
H  -17.98000 18.90300 41.56100
H  -18.01600 17.88900 40.08800
H  -16.75900 14.33200 41.08900
H  -15.53900 13.30300 43.61100
H  -18.40000 14.84600 42.46700
H  -17.53100 16.11700 43.28800
H  -17.40500 14.39100 43.84000
H  -16.91600 12.12900 42.12000
H  -15.53100 11.06000 42.31500
H  -16.66700 12.07000 39.94000
H  -15.54400 10.72600 40.16800
H  -14.94600 12.39600 39.90600
H  -10.84600 10.35600 41.44300
H  -11.22000 11.08300 43.07200
H  -9.51400 10.67300 42.48000
H  -7.04200 14.40600 39.72800
H  -3.97000 15.90000 42.42800
H  -5.16900 17.31600 42.49300
H  -3.90300 17.23000 41.34100

