158

Mg -0.93700 18.29500 27.28600
C  -1.56300 16.07400 30.19100
C  -1.93900 20.81300 29.17700
C  -0.70600 19.98200 24.53000
C  -0.45900 15.23900 25.50600
N  -1.53700 18.42400 29.52400
C  -1.71800 17.39600 30.52500
C  -1.90500 18.00600 31.90500
C  -2.32900 19.48200 31.46700
C  -1.92200 19.62500 29.97600
C  -3.85200 19.67200 31.56900
C  -0.72000 18.07100 32.83700
C  -1.12000 17.73400 34.26800
H  -0.08900 17.77500 35.29300
N  -1.16500 20.19500 26.93800
C  -1.56900 21.08600 27.83300
C  -1.66500 22.46000 27.18800
C  -1.39500 22.20300 25.76100
C  -1.06600 20.74000 25.66200
C  -2.16200 23.58300 27.94900
C  -1.33500 23.17200 24.55200
O  -1.00700 22.79900 23.42900
C  -1.80600 24.57100 24.67600
N  -0.42600 17.71300 25.39100
C  -0.41700 18.67300 24.38400
C  -0.30000 17.93200 22.93800
C  0.05600 16.52100 23.40100
C  -0.24000 16.44300 24.88700
C  -1.55300 17.96600 21.97500
C  1.51300 16.03300 23.08900
C  2.66000 16.95400 23.67300
N  -1.11200 16.07700 27.60600
C  -1.01200 14.99700 26.76400
C  -1.26400 13.74300 27.50100
C  -1.42100 14.11800 28.78200
C  -1.29600 15.52800 28.87300
C  -1.26300 12.38200 26.90500
C  -1.63900 13.59800 30.08400
O  -1.80800 12.42100 30.41600
C  -1.71200 14.87500 31.01700
C  -0.59400 14.78300 31.90600
O  0.58600 15.20200 31.63600
O  -0.99600 14.13700 33.02200
C  0.05500 13.92300 34.00600
H  -2.35300 21.67400 29.70400
H  -0.68700 20.49900 23.56800
H  -0.19500 14.31800 24.98200
H  -2.65900 17.41400 32.42400
H  -1.83200 20.31300 31.96800
H  -4.37700 18.82900 32.01900
H  -4.24100 19.85500 30.56700
H  -4.11600 20.55600 32.14900
H  -0.32700 19.08500 32.89700
H  0.14300 17.45600 32.58200
H  -1.43000 16.69100 34.19900
H  -2.00900 18.31100 34.52000
H  -1.84500 23.59700 28.99200
H  -3.24500 23.49600 27.86400
H  -1.85900 24.55800 27.56800
H  -1.59000 25.12000 23.75900
H  -1.17500 25.11700 25.37700
H  -2.82800 24.73800 25.01700
H  0.54300 18.37800 22.41100
H  -0.51300 15.78200 22.83700
H  -2.31400 17.36700 22.47600
H  -1.42500 17.58900 20.96000
H  -1.68600 19.03600 21.81100
H  1.60100 15.92300 22.00900
H  1.67800 15.02700 23.47600
H  2.97300 17.66200 22.90500
H  3.54400 16.32500 23.77200
H  2.41100 17.27500 24.68400
H  -1.13200 12.24600 25.83200
H  -2.21000 11.92500 27.19200
H  -0.57400 11.75400 27.47000
H  -2.65300 15.01000 31.54900
H  0.46900 14.89200 34.28500
H  0.86200 13.36600 33.53100
H  -0.41600 13.54400 34.91300
Mg 6.93200 55.55800 39.80500
C  5.00600 52.58000 39.80700
C  9.78200 53.58300 38.97000
C  8.67200 58.48200 39.40300
C  3.86900 57.36800 39.59800
N  7.25600 53.42900 39.19300
C  6.34900 52.38800 39.33400
C  6.97900 51.03800 39.02100
C  8.56400 51.30800 39.02400
C  8.51900 52.87500 39.05400
C  9.32800 50.62100 40.17200
C  6.55700 50.37300 37.72200
C  5.93300 51.24300 36.55900
H  6.47300 51.16100 35.14400
N  8.99000 56.01700 39.30600
C  9.96900 55.05000 39.01900
C  11.26300 55.81700 38.95300
C  10.94700 57.16200 39.02900
C  9.47900 57.28700 39.29300
C  12.60600 55.19500 38.74600
C  11.94900 58.28000 38.97800
O  13.15500 58.02100 38.90900
C  11.50400 59.58800 39.18400
N  6.31200 57.57800 39.50800
C  7.25300 58.60300 39.41900
C  6.50600 59.92000 39.79200
C  4.99500 59.58200 39.37200
C  5.04400 58.07500 39.51900
C  6.65500 60.53600 41.19200
C  4.43500 60.24600 38.12900
C  3.03700 60.86100 38.09200
N  4.87900 55.17600 39.95100
C  3.77000 56.00100 39.77800
C  2.58800 55.16100 39.91600
C  3.07200 53.83500 40.13300
C  4.46500 53.89000 40.05200
C  1.15400 55.65700 39.73600
C  2.55500 52.50200 40.33000
O  1.42900 52.16100 40.55300
C  3.85600 51.67100 40.21900
C  3.73300 50.42500 39.39300
O  3.26400 50.39800 38.24700
O  4.13800 49.32400 40.15800
C  4.02900 47.98400 39.57400
H  10.70000 53.01600 38.80000
H  9.05200 59.50200 39.48100
H  3.00600 58.03200 39.51300
H  6.70100 50.29000 39.76300
H  9.05700 50.97900 38.11000
H  9.48000 51.32800 40.98800
H  10.30000 50.30300 39.79300
H  8.90900 49.70100 40.57700
H  5.87800 49.58500 38.04600
H  7.43900 49.85800 37.34200
H  5.90300 52.31600 36.75000
H  4.94100 50.79300 36.60700
H  13.08600 55.58800 37.85000
H  12.41900 54.12600 38.64800
H  13.16600 55.38800 39.66100
H  12.34300 60.27600 39.07500
H  11.22400 59.72400 40.22800
H  10.79000 59.81100 38.39100
H  6.98300 60.55900 39.05000
H  4.38800 59.91600 40.21300
H  7.39200 60.00400 41.79300
H  5.82400 60.62200 41.89200
H  7.07200 61.53700 41.08300
H  4.42400 59.47100 37.36300
H  5.24900 60.91000 37.84100
H  2.51600 60.39400 37.25600
H  3.24700 61.91800 37.92400
H  2.49100 60.74100 39.02700
H  0.62500 55.60700 40.68800
H  0.74400 55.14500 38.86500
H  1.26700 56.69900 39.43700
H  3.97100 51.27800 41.22900
H  3.86100 47.98800 38.49700
H  3.20600 47.45000 40.04900
H  4.93400 47.40900 39.77200

