158

Mg 1.86400 8.58000 26.61400
C  2.03500 10.77000 29.45400
C  1.55600 5.99700 28.78200
C  1.74200 6.62200 23.97100
C  1.91500 11.45500 24.64600
N  1.94300 8.43700 28.72000
C  1.91300 9.44800 29.65700
C  1.75100 8.84500 31.08500
C  2.01500 7.36500 30.84900
C  1.84100 7.23300 29.38600
C  3.35300 6.80100 31.44800
C  0.25300 9.10500 31.56800
C  0.16900 9.59700 33.03300
H  1.14800 8.93800 33.91900
N  1.54300 6.54700 26.41900
C  1.39400 5.65400 27.44900
C  1.25900 4.36100 26.88200
C  1.54000 4.49300 25.49600
C  1.64400 5.94100 25.25800
C  0.86800 3.09800 27.64800
C  1.50300 3.42900 24.39200
O  1.72900 3.73900 23.22600
C  1.32400 1.93600 24.72300
N  1.94500 9.02400 24.61900
C  1.77700 7.99400 23.67700
C  1.97900 8.56600 22.27700
C  1.86600 10.12600 22.46800
C  1.95400 10.24500 24.00600
C  3.18000 8.10800 21.47100
C  0.52700 10.66100 21.90500
C  0.35300 12.14400 21.59800
N  2.09000 10.72500 26.90500
C  2.08200 11.75700 26.03000
C  2.20600 12.99100 26.66500
C  2.08100 12.68800 28.01700
C  2.04300 11.25100 28.10500
C  2.35000 14.35100 26.06700
C  2.05600 13.24600 29.39200
O  2.07400 14.40200 29.80800
C  1.86600 11.98200 30.36300
C  2.91200 12.06500 31.49300
O  4.12200 12.01100 31.33200
O  2.22600 12.25600 32.64900
C  3.08300 12.62400 33.81800
H  1.44800 5.22300 29.54600
H  1.56900 6.04300 23.06200
H  1.94500 12.28900 23.94200
H  2.56800 9.19600 31.71500
H  1.26400 6.74600 31.33900
H  3.74900 6.03500 30.78200
H  3.25700 6.48300 32.48700
H  3.94400 7.71700 31.42200
H  -0.28200 8.16600 31.42700
H  -0.32800 9.83500 31.00400
H  -0.81000 9.23400 33.34500
H  0.05900 10.67300 33.17000
H  -0.10400 2.67600 27.39300
H  0.86500 3.33700 28.71200
H  1.56800 2.31900 27.34700
H  2.04100 1.35500 25.30400
H  1.29000 1.42000 23.76300
H  0.37600 1.76100 25.23200
H  1.05900 8.19800 21.82300
H  2.70100 10.65400 22.00700
H  3.70300 7.49200 22.20300
H  3.87800 8.88900 21.16900
H  2.80400 7.39200 20.74100
H  -0.28600 10.41000 22.58600
H  0.35000 10.08200 20.99900
H  -0.30700 12.21400 20.73300
H  1.31700 12.64800 21.53300
H  -0.05700 12.69400 22.44500
H  1.63300 15.04100 26.51200
H  2.27100 14.39600 24.98100
H  3.33400 14.73600 26.33800
H  0.85300 11.92900 30.76100
H  3.64600 13.53800 33.63000
H  3.80000 11.85500 34.10400
H  2.36500 12.95400 34.56900
Mg -5.40900 25.94000 26.46500
C  -4.27000 27.56100 29.24800
C  -7.28400 23.89500 28.39200
C  -6.28800 24.13600 23.63400
C  -3.32600 27.96900 24.45900
N  -5.69700 25.79400 28.55200
C  -5.19700 26.55600 29.55500
C  -5.74300 26.14800 30.90900
C  -6.46000 24.83200 30.60400
C  -6.42100 24.76000 29.09100
C  -5.89800 23.57400 31.24700
C  -6.66700 27.20900 31.50500
C  -6.72000 27.36000 33.03100
H  -6.22400 26.26600 33.93300
N  -6.68000 24.37000 26.05500
C  -7.33900 23.66400 26.98600
C  -8.20700 22.65400 26.35500
C  -7.93100 22.72600 24.95400
C  -6.84800 23.74900 24.80600
C  -9.17200 21.75000 27.20200
C  -8.46100 21.87100 23.80800
O  -8.11900 22.08000 22.68400
C  -9.48300 20.89600 24.07900
N  -4.78100 25.98900 24.36300
C  -5.31800 25.16400 23.37900
C  -4.79500 25.54900 21.97600
C  -4.14400 26.95600 22.17400
C  -4.09900 27.03000 23.76400
C  -3.85800 24.48600 21.32000
C  -4.83000 28.15300 21.39500
C  -3.86500 29.12500 20.63900
N  -4.05700 27.45500 26.73800
C  -3.25300 28.23300 25.84400
C  -2.51600 29.19900 26.62900
C  -2.95500 29.03300 27.94500
C  -3.84400 27.95900 27.97300
C  -1.52300 30.23700 26.09900
C  -2.74800 29.53100 29.28000
O  -2.02300 30.43700 29.71000
C  -3.56400 28.59400 30.22200
C  -2.65700 27.80100 31.13700
O  -2.05800 26.80000 30.84200
O  -2.63000 28.35300 32.43800
C  -1.72300 27.84900 33.47100
H  -7.93100 23.27200 29.01400
H  -6.52100 23.76200 22.63500
H  -2.75500 28.64600 23.82000
H  -4.92800 25.98800 31.61500
H  -7.48200 24.90100 30.97600
H  -5.16600 23.77900 32.02800
H  -5.49100 22.88600 30.50600
H  -6.63300 23.04300 31.85200
H  -7.66100 26.99300 31.11200
H  -6.32400 28.15600 31.08900
H  -7.77800 27.55700 33.20000
H  -6.17900 28.28900 33.21200
H  -10.20200 22.10800 27.19800
H  -8.79100 21.66500 28.22000
H  -9.19300 20.76600 26.73400
H  -9.15800 19.96800 24.54800
H  -9.90900 20.64500 23.10800
H  -10.27600 21.27100 24.72600
H  -5.71000 25.72200 21.41000
H  -3.12600 26.91800 21.78600
H  -2.83100 24.72300 21.04100
H  -4.40200 24.03400 20.49100
H  -3.69700 23.72800 22.08500
H  -5.42700 28.78200 22.05500
H  -5.53500 27.70000 20.69800
H  -4.24800 30.14500 20.59500
H  -3.55000 28.81100 19.64400
H  -2.96500 29.32800 21.21800
H  -0.97600 30.01000 25.18400
H  -0.86300 30.45400 26.93900
H  -1.97700 31.15500 25.72600
H  -4.16800 29.20500 30.89300
H  -0.81500 27.42700 33.04100
H  -2.17600 27.18800 34.20900
H  -1.29600 28.67900 34.03300

