158

Mg -1.61900 17.67900 25.59400
C  -2.19900 15.65000 28.20500
C  -2.73600 20.43500 27.52400
C  -1.27100 19.72000 22.93200
C  -1.13500 14.96300 23.59800
N  -2.24400 18.02100 27.61500
C  -2.48100 17.02500 28.49100
C  -2.90500 17.60300 29.89400
C  -3.61500 18.97500 29.45000
C  -2.81400 19.15500 28.10900
C  -5.17700 19.00300 29.15800
C  -1.77500 17.80300 30.88300
C  -2.08100 17.75100 32.38200
H  -1.10700 17.18500 33.35300
N  -1.84600 19.85300 25.27300
C  -2.35100 20.79900 26.22400
C  -2.48300 22.10500 25.58300
C  -1.98100 21.91800 24.23100
C  -1.67700 20.46700 24.10000
C  -3.07800 23.38200 26.27000
C  -1.68900 22.89700 23.13100
O  -1.17000 22.67000 22.04200
C  -2.10600 24.31200 23.30300
N  -1.32300 17.41100 23.53300
C  -1.23100 18.40800 22.65400
C  -1.00000 17.85100 21.17900
C  -0.88100 16.32100 21.46200
C  -1.02900 16.22700 22.94500
C  -2.10000 18.21500 20.14100
C  0.42500 15.75900 21.00900
C  1.66300 16.23100 21.75900
N  -1.63900 15.65800 25.77800
C  -1.38600 14.65600 24.91800
C  -1.62800 13.37300 25.56000
C  -1.88700 13.72300 26.89700
C  -1.82500 15.11000 26.96300
C  -1.84400 11.99400 24.96700
C  -2.32200 13.24800 28.17000
O  -2.57500 12.14600 28.56900
C  -2.52800 14.50000 29.02600
C  -1.70500 14.43400 30.22600
O  -0.46900 14.48900 30.26500
O  -2.55400 14.17300 31.28200
C  -2.00500 13.38600 32.39900
H  -3.30400 21.19200 28.06800
H  -1.14700 20.42200 22.10500
H  -0.91300 14.17400 22.87700
H  -3.66400 16.93300 30.29800
H  -3.35900 19.80100 30.11400
H  -5.69300 19.69900 29.82000
H  -5.49400 17.98800 29.39700
H  -5.53400 19.36100 28.19200
H  -1.42100 18.80900 30.65800
H  -1.00900 17.05500 30.67700
H  -3.07000 17.34000 32.58600
H  -2.07400 18.76100 32.79200
H  -2.24100 24.05300 26.45800
H  -3.59300 23.20600 27.21400
H  -3.82300 23.86400 25.63700
H  -3.18100 24.29800 23.11900
H  -1.63900 24.97700 22.57700
H  -1.95100 24.74800 24.29000
H  -0.06500 18.25700 20.79400
H  -1.65300 15.78800 20.90600
H  -3.01900 18.39700 20.69900
H  -2.45500 17.38100 19.53600
H  -1.86900 19.06300 19.49600
H  0.52000 16.10000 19.97800
H  0.39200 14.67100 21.06200
H  2.12900 15.31300 22.11700
H  1.36000 16.83600 22.61300
H  2.29200 16.64700 20.97200
H  -2.15600 12.15400 23.93500
H  -2.61200 11.48000 25.54500
H  -0.92400 11.41300 25.02400
H  -3.59600 14.55700 29.23600
H  -1.10900 12.80600 32.17900
H  -2.67800 12.54700 32.57700
H  -1.95100 13.97500 33.31400
Mg 25.99200 50.62200 26.59000
C  24.09300 51.83500 29.26600
C  28.53500 49.81200 28.86500
C  28.14900 49.81400 24.00100
C  23.65100 51.77300 24.37900
N  26.27800 50.90300 28.80900
C  25.33000 51.28500 29.75200
C  25.76900 50.91200 31.20500
C  27.23200 50.51700 30.99400
C  27.37500 50.36300 29.47300
C  28.29700 51.28600 31.83800
C  24.81300 49.76300 31.73600
C  24.05900 50.15900 32.97400
H  24.39100 49.56500 34.28900
N  27.96900 49.81900 26.47600
C  28.84200 49.51000 27.51100
C  30.03800 48.87300 27.03100
C  29.88400 48.80400 25.64400
C  28.64100 49.51000 25.29900
C  31.16700 48.45400 27.93900
C  30.88200 48.17200 24.57500
O  30.62900 48.12600 23.37400
C  32.19900 47.58800 25.07600
N  25.98800 50.95400 24.46600
C  26.92700 50.40000 23.59400
C  26.43500 50.33200 22.15400
C  24.99700 50.94600 22.33700
C  24.83800 51.24400 23.83900
C  27.23100 51.23000 21.05100
C  23.85300 50.12000 21.66800
C  23.70800 50.28900 20.12700
N  24.31800 51.75200 26.76800
C  23.42800 52.07100 25.75600
C  22.24800 52.65400 26.36300
C  22.44300 52.55200 27.71700
C  23.70200 52.02900 27.91000
C  21.05100 53.16100 25.66700
C  21.79500 52.70300 29.04500
O  20.65600 53.01800 29.38100
C  22.88900 52.22400 30.10400
C  23.15500 53.40000 31.03500
O  23.90200 54.33000 30.79200
O  22.64500 53.17000 32.32000
C  22.98400 54.20400 33.36400
H  29.20200 49.62600 29.71000
H  28.74300 49.32900 23.22400
H  22.85200 52.01500 23.67500
H  25.64500 51.74100 31.90200
H  27.27900 49.49300 31.36400
H  28.93700 50.52300 32.27900
H  27.82500 51.94900 32.56300
H  28.99900 51.85600 31.23000
H  25.37000 48.83800 31.88400
H  24.12900 49.47500 30.93800
H  23.06600 49.76100 32.76500
H  23.99900 51.23400 33.14300
H  31.29600 47.37400 28.01300
H  30.97100 48.75700 28.96700
H  32.10400 48.89400 27.59500
H  32.88600 48.39800 25.32200
H  32.58900 46.99800 24.24600
H  31.99100 46.96900 25.94800
H  26.41900 49.26300 21.93900
H  24.97300 51.90800 21.82500
H  28.01800 51.73300 21.61200
H  26.54500 51.98600 20.66800
H  27.61200 50.63700 20.21900
H  22.88800 50.28800 22.14700
H  24.08300 49.05700 21.73500
H  24.72300 50.35000 19.73300
H  23.01800 51.09800 19.89000
H  23.37000 49.35000 19.69000
H  21.01300 52.72800 24.66800
H  21.07100 54.24900 25.60500
H  20.21200 52.79500 26.26000
H  22.51700 51.47500 30.80200
H  23.77300 54.91100 33.10800
H  23.38100 53.59800 34.17800
H  22.06400 54.66500 33.72100

