158

Mg 25.65000 -5.39900 46.77000
C  27.25700 -2.74700 44.87000
C  22.99400 -5.05800 44.63700
C  24.60400 -8.43700 47.95400
C  28.64400 -5.69800 48.64200
N  25.25400 -4.17100 44.71300
C  26.03000 -3.12800 44.24400
C  25.25000 -2.42800 43.12800
C  23.88600 -3.10800 43.03500
C  23.93000 -4.11600 44.23700
C  22.60500 -2.21100 43.16900
C  26.04100 -2.34600 41.83700
C  26.03000 -0.94000 41.17500
H  25.12200 -0.92500 39.89800
N  24.01700 -6.57500 46.39100
C  23.02800 -6.16700 45.59500
C  21.93700 -7.08800 45.71300
C  22.31000 -8.05100 46.65500
C  23.71300 -7.73800 47.09100
C  20.62500 -6.98400 45.02800
C  21.46400 -9.18000 47.29500
O  20.31100 -9.43000 46.85200
C  21.92300 -10.10800 48.41100
N  26.48200 -6.81400 48.14800
C  25.82900 -7.98800 48.48200
C  26.74200 -8.97300 49.22600
C  27.95600 -8.08400 49.52600
C  27.72400 -6.78500 48.73400
C  26.14300 -9.71900 50.42700
C  29.27700 -8.69900 49.12300
C  30.45600 -8.30200 49.98400
N  27.44400 -4.30500 46.96100
C  28.53300 -4.51700 47.76900
C  29.47700 -3.48100 47.65300
C  29.00800 -2.76700 46.49800
C  27.74500 -3.30600 46.09500
C  30.76300 -3.20400 48.49600
C  29.35500 -1.70200 45.55000
O  30.27900 -0.88400 45.56000
C  28.19800 -1.66300 44.43100
C  27.54000 -0.29300 44.38500
O  27.94500 0.59200 43.66300
O  26.62800 -0.18400 45.43200
C  26.01200 1.15700 45.53200
H  22.09500 -4.79100 44.07700
H  24.36700 -9.46300 48.24300
H  29.57800 -5.68800 49.20700
H  25.04500 -1.46600 43.59800
H  23.83600 -3.58500 42.05600
H  22.20300 -2.12100 42.16000
H  22.91000 -1.19700 43.42800
H  21.93000 -2.62900 43.91600
H  25.75100 -3.09900 41.10500
H  27.07600 -2.51000 42.13800
H  27.07500 -0.79200 40.90100
H  25.86100 -0.26700 42.01500
H  20.57800 -6.90800 43.94200
H  20.28200 -5.99900 45.34300
H  19.80100 -7.65200 45.28200
H  22.44800 -9.67000 49.26100
H  22.56300 -10.80800 47.87400
H  21.08100 -10.70000 48.76900
H  26.95200 -9.74100 48.48100
H  27.99500 -7.90700 50.60100
H  26.18500 -10.76600 50.12600
H  25.14400 -9.33800 50.63600
H  26.74700 -9.64000 51.33100
H  29.56300 -8.38800 48.11800
H  29.17500 -9.76900 49.30000
H  31.26900 -7.98000 49.33300
H  30.95400 -9.07500 50.56900
H  30.12500 -7.47900 50.61700
H  31.34100 -4.12300 48.59200
H  30.35500 -2.93000 49.46900
H  31.36300 -2.34700 48.18900
H  28.70900 -1.85700 43.48800
H  25.14400 1.12800 44.87300
H  26.70900 1.94200 45.24000
H  25.59600 1.41100 46.50700
Mg 17.18200 -1.65700 27.84000
C  16.22300 0.57200 30.34900
C  19.07900 -3.25500 30.01600
C  18.63800 -3.21500 25.19800
C  15.61400 0.55900 25.53500
N  17.73900 -1.19600 29.93800
C  17.08200 -0.41600 30.79000
C  17.40800 -0.70900 32.23900
C  18.56300 -1.74300 32.15100
C  18.42200 -2.19500 30.61600
C  20.00200 -1.09700 32.37800
C  16.10500 -1.24600 32.87200
C  15.97400 -0.89600 34.39300
H  17.15900 -0.30200 35.17600
N  18.57900 -3.14600 27.66100
C  19.16700 -3.74000 28.65600
C  19.89100 -4.89400 28.12000
C  19.68500 -4.90700 26.73200
C  18.87500 -3.71200 26.48000
C  20.31400 -5.97200 29.05800
C  20.16200 -5.91100 25.71200
O  19.92100 -5.73700 24.52100
C  20.88100 -7.14400 26.08100
N  17.09300 -1.40100 25.64500
C  17.84700 -2.18200 24.77200
C  17.64200 -1.72400 23.33000
C  16.47900 -0.62600 23.44200
C  16.33200 -0.49400 24.99000
C  18.97100 -1.47200 22.59100
C  15.14400 -0.89600 22.67900
C  13.86300 -1.39000 23.51600
N  15.98200 0.10400 27.93800
C  15.40300 0.85400 26.94700
C  14.63400 1.91500 27.49700
C  14.93800 1.85700 28.86100
C  15.86500 0.83900 29.02600
C  13.78800 2.91400 26.77200
C  14.59100 2.38000 30.14200
O  13.86300 3.30400 30.46800
C  15.43800 1.56900 31.20500
C  16.28800 2.56700 31.89500
O  17.50100 2.76200 31.77700
O  15.54600 3.07000 32.86500
C  16.15500 3.98800 33.85300
H  19.58000 -3.77400 30.83700
H  19.14800 -3.62900 24.32500
H  15.02500 1.18900 24.86500
H  17.70900 0.24900 32.66400
H  18.35800 -2.66200 32.70000
H  19.88100 -0.09600 32.79200
H  20.53100 -0.96500 31.43500
H  20.59300 -1.65900 33.10200
H  16.12300 -2.30400 32.60800
H  15.24100 -0.77700 32.40300
H  15.63800 -1.78900 34.92100
H  15.20300 -0.13400 34.50400
H  21.37700 -6.15600 28.90400
H  19.70500 -6.85500 28.86100
H  20.35200 -5.68000 30.10800
H  21.77700 -6.93600 26.66500
H  21.20200 -7.52400 25.11100
H  20.18600 -7.89900 26.44900
H  17.14400 -2.55300 22.82700
H  16.89400 0.32400 23.10500
H  18.80300 -0.48100 22.16700
H  19.34900 -2.28600 21.97300
H  19.73800 -1.45000 23.36500
H  15.32300 -1.68500 21.94800
H  14.88800 0.02800 22.16100
H  13.28500 -1.97800 22.80400
H  13.22600 -0.53500 23.74400
H  14.17500 -1.94100 24.40300
H  14.25300 3.36100 25.89300
H  13.57400 3.69900 27.49700
H  12.84700 2.47900 26.43300
H  14.72200 1.11200 31.88800
H  17.09700 4.41300 33.50600
H  16.20600 3.51800 34.83500
H  15.55700 4.89600 33.94200

