158

Mg 9.01800 4.81200 27.17100
C  10.43200 3.11600 29.90200
C  6.93800 6.45200 29.28000
C  7.50900 5.95400 24.45200
C  10.60200 2.33800 25.12400
N  8.70200 4.80300 29.31600
C  9.55200 4.19700 30.23800
C  9.20900 4.57600 31.65100
C  8.03500 5.67600 31.37900
C  7.81000 5.54200 29.89000
C  6.79900 5.35700 32.25500
C  10.42700 5.09400 32.52200
C  10.10300 5.83200 33.83600
H  10.82500 5.48100 35.14100
N  7.55800 6.19200 26.88700
C  6.76800 6.74800 27.90800
C  5.75600 7.52200 27.29100
C  6.01400 7.53700 25.82500
C  7.09100 6.53000 25.69000
C  4.58300 8.17600 28.09100
C  5.26300 8.26800 24.69300
O  5.49700 8.05500 23.50300
C  4.09000 9.21200 25.05000
N  9.09000 4.25700 25.05300
C  8.43600 5.04400 24.15600
C  8.88000 4.70300 22.71200
C  9.88000 3.50900 22.93400
C  9.79300 3.27400 24.46000
C  7.57700 4.38100 21.84600
C  11.45100 3.75200 22.43400
C  12.16300 2.76100 21.47000
N  10.18700 3.08400 27.45000
C  10.77300 2.26200 26.46400
C  11.68900 1.30900 27.14100
C  11.54000 1.60600 28.48300
C  10.63700 2.62000 28.62000
C  12.60400 0.30100 26.55600
C  11.82600 1.21300 29.87300
O  12.46200 0.28300 30.29700
C  11.24200 2.33300 30.79600
C  10.39800 1.73700 31.87500
O  9.31300 1.21400 31.59400
O  11.06000 1.72200 33.07600
C  10.36100 0.94500 34.08900
H  6.34100 6.95400 30.04400
H  7.09100 6.38600 23.54000
H  11.03800 1.59700 24.45000
H  8.79500 3.76900 32.25500
H  8.55100 6.60600 31.61800
H  5.90200 5.45100 31.64200
H  6.60400 6.12600 33.00200
H  6.80100 4.35700 32.68700
H  10.96200 5.77100 31.85600
H  11.00000 4.22300 32.84000
H  9.03400 5.63600 33.92800
H  10.40500 6.86500 33.66500
H  4.48600 7.78100 29.10300
H  3.66400 7.95500 27.54900
H  4.76500 9.24200 28.22200
H  3.22800 8.70700 25.48500
H  3.93200 9.83300 24.16900
H  4.44000 9.94500 25.77600
H  9.48700 5.47900 22.24700
H  9.53300 2.59900 22.44500
H  7.81800 3.64800 21.07500
H  7.27400 5.28600 21.32000
H  6.75500 4.12600 22.51500
H  12.08100 3.80900 23.32200
H  11.41900 4.70800 21.91100
H  11.47400 2.27800 20.77800
H  12.56000 1.93000 22.05200
H  12.92000 3.27500 20.87800
H  12.67200 0.25600 25.46900
H  12.20000 -0.67200 26.83600
H  13.61700 0.59500 26.82900
H  12.01800 2.93400 31.27100
H  10.01800 -0.04400 33.78700
H  9.67600 1.49600 34.73300
H  11.18000 0.61500 34.72800
Mg 5.43600 54.15900 40.10500
C  4.61700 50.65800 40.13700
C  8.56600 53.21100 39.05700
C  6.04400 57.31800 39.43300
C  2.05600 54.93400 40.54600
N  6.37300 52.12500 39.45400
C  5.88300 50.87900 39.57000
C  6.95900 49.82700 39.22000
C  8.24500 50.72700 39.38400
C  7.69900 52.15500 39.32500
C  9.20300 50.61300 40.66300
C  6.79300 49.13300 37.87800
C  6.27500 49.84500 36.64600
H  7.12900 50.95200 36.05900
N  7.08200 55.09100 39.23100
C  8.30900 54.60700 39.03200
C  9.23500 55.68200 38.82400
C  8.55500 56.93000 38.79500
C  7.15600 56.49700 39.14800
C  10.76300 55.34700 38.64100
C  9.17200 58.33000 38.59000
O  10.38500 58.49800 38.44700
C  8.26800 59.54200 38.29800
N  4.24300 55.80300 39.94500
C  4.80800 57.06000 39.84700
C  3.76100 58.17700 40.14900
C  2.43800 57.37300 40.28400
C  2.96100 55.94200 40.23100
C  4.01200 59.04200 41.39900
C  1.37600 57.64700 39.23200
C  -0.01700 58.03200 39.86400
N  3.69700 53.04100 40.42800
C  2.41600 53.52400 40.70800
C  1.63200 52.34900 41.04200
C  2.41500 51.18900 40.91500
C  3.65400 51.69900 40.44500
C  0.18100 52.34400 41.36700
C  2.48400 49.81500 41.05000
O  1.61500 49.00300 41.38500
C  3.98200 49.37200 40.64700
C  3.90300 48.33000 39.65500
O  3.86800 48.50400 38.46000
O  4.16500 47.05700 40.14800
C  4.13600 45.88100 39.20700
H  9.59000 52.95400 38.78000
H  6.18900 58.40000 39.39600
H  1.08900 55.16900 40.99700
H  6.96900 49.10200 40.03400
H  8.93500 50.50300 38.57100
H  8.92900 49.72700 41.23600
H  9.04900 51.45600 41.33700
H  10.25200 50.55200 40.37200
H  6.28500 48.20900 38.15400
H  7.77000 48.87100 37.47200
H  5.27300 50.21500 36.86700
H  6.15300 49.06700 35.89200
H  11.17300 56.06700 37.93300
H  10.83600 54.41000 38.08900
H  11.43000 55.20000 39.49000
H  8.76200 60.35500 37.76700
H  7.95600 60.03500 39.21900
H  7.35700 59.25300 37.77400
H  3.76300 58.88700 39.32200
H  2.03900 57.50700 41.29000
H  4.57700 58.37200 42.04800
H  3.06500 59.35900 41.83400
H  4.50700 59.98000 41.14900
H  1.37200 56.87000 38.46800
H  1.69300 58.50600 38.64000
H  0.00400 58.00000 40.95300
H  -0.86700 57.39200 39.62600
H  -0.20000 59.08500 39.65400
H  -0.44000 53.19900 41.09900
H  0.23400 52.32500 42.45600
H  -0.26700 51.42100 41.00000
H  4.47600 48.90000 41.49600
H  3.16800 45.39100 39.09800
H  4.60800 44.98600 39.61200
H  4.47900 46.13200 38.20300

