158

Mg 36.16100 2.82700 30.93700
C  33.27100 3.19100 32.86400
C  37.97500 3.19900 33.76800
C  38.81200 2.01200 29.18900
C  34.30800 3.00400 28.04200
N  35.57900 3.09800 33.03900
C  34.40900 3.13600 33.65200
C  34.54100 3.10200 35.17200
C  36.06900 3.44700 35.36100
C  36.61100 3.25100 33.95200
C  36.26500 4.96600 35.82100
C  34.17700 1.71100 35.67400
C  33.89900 1.67700 37.21400
H  34.40500 2.77900 38.19100
N  38.15200 2.60500 31.40100
C  38.72300 2.87000 32.61600
C  40.17400 2.49900 32.54400
C  40.38500 1.97600 31.24800
C  39.08700 2.17700 30.53000
C  41.24500 2.62400 33.74400
C  41.55200 1.14600 30.72500
O  41.55500 0.61900 29.60900
C  42.67700 0.90500 31.69700
N  36.59600 2.88800 28.82400
C  37.80200 2.42500 28.32700
C  37.79800 2.03900 26.87800
C  36.25200 2.29900 26.51400
C  35.70600 2.82200 27.86400
C  38.82000 2.76900 26.07900
C  35.45700 1.12600 25.84900
C  35.10600 1.35100 24.33700
N  34.18800 2.97000 30.50500
C  33.59200 3.15000 29.28400
C  32.13600 3.48300 29.50100
C  31.91100 3.41500 30.88500
C  33.23900 3.18100 31.43000
C  31.08500 3.78600 28.35600
C  30.99300 3.52500 32.04500
O  29.79100 3.67500 32.07200
C  31.86700 3.42700 33.33600
C  31.66700 4.71200 34.00900
O  32.27000 5.75100 33.70200
O  30.89700 4.57200 35.15600
C  31.19900 5.48700 36.26300
H  38.71000 3.27500 34.57200
H  39.59400 1.39100 28.74800
H  33.65600 2.98300 27.16700
H  33.92600 3.93700 35.50600
H  36.56300 2.80400 36.08900
H  36.83800 5.49700 35.06100
H  36.79400 4.99400 36.77300
H  35.34300 5.54100 35.91300
H  34.95500 0.95100 35.60500
H  33.35100 1.28300 35.10600
H  34.22800 0.69100 37.54500
H  32.81000 1.67000 37.26700
H  40.81400 3.17500 34.58000
H  42.14800 3.08000 33.33700
H  41.43600 1.59700 34.05700
H  43.08200 1.86100 32.02900
H  43.40700 0.40200 31.06300
H  42.32600 0.22900 32.47700
H  38.03300 0.98500 26.73200
H  36.25200 3.22000 25.93000
H  38.33700 3.51500 25.44800
H  39.53600 2.10300 25.59800
H  39.35800 3.38400 26.80000
H  34.53500 0.92400 26.39300
H  36.00000 0.18100 25.81600
H  35.74800 0.75300 23.69000
H  35.04800 2.39500 24.02800
H  34.08600 1.06200 24.08500
H  31.44900 4.34200 27.49200
H  30.30100 4.42100 28.76700
H  30.66700 2.79800 28.16500
H  31.38800 2.70700 34.00000
H  32.25600 5.74400 36.20800
H  31.01000 4.84200 37.12100
H  30.50500 6.32800 36.27100
Mg 48.31000 15.80600 28.75600
C  46.42900 15.14000 31.67300
C  50.37700 17.65400 30.59400
C  50.08000 16.37700 25.91200
C  45.94000 14.10200 26.90900
N  48.34800 16.39300 30.85600
C  47.56200 15.87000 31.94400
C  48.14800 16.28800 33.26700
C  49.25400 17.32600 32.97800
C  49.36500 17.18300 31.40000
C  49.03800 18.77100 33.43000
C  48.42000 15.08200 34.25100
C  48.21000 15.40900 35.72000
H  47.89000 16.76100 36.31000
N  50.01700 16.83100 28.31200
C  50.74000 17.54400 29.18300
C  51.91900 18.16000 28.52200
C  51.96700 17.65000 27.19200
C  50.68100 16.84000 27.08200
C  52.94000 18.98900 29.21800
C  52.85500 17.92600 26.04000
O  52.58700 17.47400 24.89900
C  53.93600 18.96900 26.14600
N  47.95500 15.39000 26.71600
C  48.85300 15.70900 25.79300
C  48.41000 15.20100 24.42400
C  47.40100 14.07400 24.83600
C  46.99500 14.57200 26.21800
C  47.80100 16.21900 23.47200
C  48.05600 12.58500 25.04700
C  47.82000 11.58700 23.86400
N  46.55500 14.91400 29.11400
C  45.69700 14.17800 28.29800
C  44.56700 13.68300 29.09300
C  44.80800 14.08100 30.40500
C  46.06500 14.73400 30.40500
C  43.34500 13.04500 28.62800
C  44.34200 13.96500 31.76700
O  43.35600 13.41700 32.28000
C  45.34100 14.63600 32.65000
C  44.64600 15.85600 33.13300
O  44.31600 16.84200 32.50900
O  44.61600 15.74000 34.55700
C  43.94500 16.83900 35.23700
H  51.07100 18.26700 31.17300
H  50.57300 16.58100 24.95900
H  45.18000 13.60100 26.30600
H  47.26500 16.82600 33.61100
H  50.19100 17.05200 33.46300
H  48.03700 19.08800 33.72300
H  49.19400 19.41900 32.56700
H  49.78200 19.10100 34.15500
H  49.46700 14.85400 34.05000
H  47.91500 14.18000 33.90400
H  49.14400 15.05100 36.15100
H  47.38800 14.71900 35.91100
H  53.87000 18.44800 29.39300
H  52.51900 19.43100 30.12100
H  53.19400 19.87100 28.63100
H  53.55100 19.98700 26.09700
H  54.61800 18.79800 25.31300
H  54.62700 18.76700 26.96500
H  49.19300 14.63000 23.92500
H  46.50300 14.00600 24.22200
H  47.65300 15.76100 22.49400
H  48.44200 17.10000 23.42500
H  46.84700 16.56700 23.86800
H  47.71000 12.07800 25.94900
H  49.14500 12.61700 25.07800
H  48.00100 12.02000 22.88000
H  46.84400 11.11400 23.97500
H  48.50300 10.73900 23.90800
H  43.10600 13.51200 27.67200
H  42.54400 13.24300 29.34000
H  43.42000 11.97000 28.46600
H  45.64200 13.98500 33.47000
H  42.86100 16.81500 35.11800
H  44.19700 17.87700 35.02200
H  44.08300 16.67400 36.30600

