158

Mg 47.94100 15.30100 28.53100
C  45.91900 14.94800 31.31200
C  49.88400 17.49700 30.35200
C  49.66500 16.06600 25.74400
C  45.67100 13.31400 26.75600
N  47.86400 16.10500 30.66200
C  46.98200 15.74300 31.61000
C  47.26500 16.54300 32.92700
C  48.54000 17.39200 32.56700
C  48.76200 17.00100 31.05200
C  48.46700 18.81100 32.90000
C  47.36300 15.61800 34.18200
C  46.87800 16.24500 35.49300
H  47.87500 16.15500 36.69200
N  49.57600 16.59600 28.10900
C  50.23300 17.38700 29.01700
C  51.35400 17.93200 28.37500
C  51.43600 17.48900 27.04000
C  50.20900 16.65700 26.89700
C  52.46500 18.70300 29.15800
C  52.52500 17.54400 25.98200
O  52.38500 16.95400 24.89300
C  53.88000 18.14100 26.22900
N  47.63100 14.84900 26.51500
C  48.57000 15.12600 25.56700
C  48.33800 14.30500 24.26800
C  47.19000 13.35700 24.71300
C  46.77300 13.86200 26.07400
C  48.00100 15.25800 23.09300
C  47.62600 11.83500 24.48900
C  48.11700 11.05900 25.72300
N  46.20000 14.21800 28.89700
C  45.30700 13.52500 28.10600
C  44.06000 13.17100 28.84800
C  44.29700 13.70000 30.10600
C  45.59300 14.31000 30.06200
C  42.89700 12.42200 28.32100
C  43.80200 13.71900 31.43500
O  42.83200 13.15300 31.85600
C  44.73500 14.53500 32.26300
C  43.92200 15.71000 32.66300
O  43.74500 16.77600 32.11200
O  43.47300 15.44400 33.91700
C  42.47600 16.39700 34.43100
H  50.51600 18.01500 31.07600
H  50.17800 16.28000 24.80400
H  44.98800 12.72400 26.14000
H  46.46800 17.26400 33.11400
H  49.40000 16.93900 33.06100
H  47.62200 18.86600 33.58600
H  48.17700 19.44300 32.06100
H  49.43200 19.13500 33.29000
H  48.42400 15.40100 34.30000
H  46.84100 14.69100 33.94700
H  45.95000 15.70900 35.69200
H  46.57400 17.29100 35.44200
H  52.41200 18.69500 30.24700
H  52.50600 19.75200 28.86200
H  53.39200 18.18600 28.91300
H  54.29800 17.47100 26.98000
H  53.60600 19.12800 26.60400
H  54.48600 18.15400 25.32300
H  49.27500 13.80300 24.02500
H  46.30700 13.50200 24.08900
H  47.39600 14.76100 22.33500
H  48.90900 15.50500 22.54400
H  47.42400 16.12000 23.42700
H  48.45000 11.77800 23.77800
H  46.87800 11.25100 23.95200
H  47.80300 11.67700 26.56400
H  49.18800 10.87600 25.64600
H  47.55600 10.15100 25.94800
H  42.92000 11.46400 28.84100
H  42.89200 12.27500 27.24100
H  41.99900 12.97900 28.58600
H  44.96900 13.87500 33.09800
H  43.02900 17.12900 35.01900
H  41.91400 15.72100 35.07600
H  41.70400 16.79300 33.77000
Mg 30.12400 59.32200 39.31400
C  27.39800 57.38200 38.36500
C  32.17600 56.83800 38.46900
C  32.71700 61.49700 39.55200
C  27.87800 61.98100 39.38200
N  29.75000 57.40800 38.48200
C  28.61800 56.75300 38.18200
C  28.93500 55.32700 37.55200
C  30.27200 55.09000 38.31100
C  30.79500 56.57100 38.44700
C  29.96300 54.36700 39.67600
C  28.85000 55.33500 35.96000
C  27.78200 54.34700 35.48100
H  26.72400 54.81600 34.49500
N  32.26100 59.15900 39.11600
C  32.87000 58.00500 38.81000
C  34.32100 58.27200 38.89200
C  34.52400 59.65800 39.17200
C  33.13100 60.14800 39.30200
C  35.31200 57.19900 38.68600
C  35.87300 60.28300 39.29700
O  36.92100 59.66500 39.28900
C  35.94600 61.74300 39.38900
N  30.30900 61.46400 39.46800
C  31.45800 62.08800 39.70400
C  31.18700 63.57900 39.78600
C  29.63200 63.70400 39.61900
C  29.23100 62.29600 39.42400
C  31.84300 64.40500 40.95300
C  29.21600 64.60000 38.38300
C  28.14000 65.62400 38.63000
N  28.00300 59.68800 39.05800
C  27.26400 60.81900 39.14100
C  25.88300 60.56500 38.83900
C  25.87400 59.14900 38.59900
C  27.19500 58.70700 38.62100
C  24.71800 61.53900 38.91700
C  25.07100 57.94100 38.34200
O  23.84000 57.81600 38.34200
C  26.00700 56.77800 38.22800
C  25.78300 55.72600 39.25800
O  25.85600 55.95200 40.48600
O  25.60600 54.48300 38.64100
C  25.49400 53.35500 39.52900
H  32.82500 55.98100 38.27900
H  33.56300 62.18500 39.62100
H  27.23800 62.86500 39.33700
H  28.22100 54.64200 38.00800
H  31.00800 54.50600 37.76000
H  30.52400 54.69100 40.55200
H  29.99800 53.28200 39.57700
H  28.98400 54.71900 40.00300
H  29.81200 55.02900 35.55000
H  28.66300 56.35000 35.60800
H  27.27200 54.02500 36.39000
H  28.21400 53.40200 35.15000
H  35.72600 57.25200 37.67900
H  34.79300 56.25900 38.87600
H  36.17000 57.33400 39.34500
H  37.02100 61.91800 39.35700
H  35.55200 61.96800 40.38100
H  35.45600 62.19500 38.52700
H  31.66500 63.94600 38.87800
H  29.30200 63.85700 40.64700
H  31.49900 64.20400 41.96700
H  31.70000 65.46600 40.74700
H  32.91300 64.22500 40.84700
H  28.84300 64.00500 37.54900
H  30.12000 65.15400 38.12900
H  28.41800 66.67400 38.54600
H  27.66100 65.41300 39.58600
H  27.31600 65.30200 37.99300
H  25.04300 62.52300 38.57800
H  24.31000 61.59100 39.92600
H  23.87600 61.21200 38.30600
H  25.76500 56.30400 37.27700
H  24.47600 53.24500 39.90100
H  26.31200 53.37600 40.25000
H  25.53700 52.46500 38.90200

