158

Mg 17.14400 -1.05600 28.80200
C  15.89700 1.17900 31.29300
C  18.61300 -2.90500 31.32200
C  18.64700 -2.91000 26.47300
C  15.43900 0.74200 26.32100
N  17.15100 -0.85200 31.06900
C  16.66900 0.17300 31.87200
C  17.07200 -0.00100 33.35300
C  17.98000 -1.26900 33.28900
C  17.91100 -1.69900 31.78600
C  19.44100 -0.96400 33.76000
C  15.85300 -0.05300 34.33300
C  15.82800 -1.03500 35.50100
H  16.81400 -0.91200 36.64200
N  18.39000 -2.71600 28.86400
C  18.92700 -3.27500 30.00100
C  19.76700 -4.46400 29.62100
C  19.86900 -4.45200 28.19900
C  18.93700 -3.36600 27.77400
C  20.54400 -5.33900 30.63400
C  20.72400 -5.20200 27.23700
O  20.85700 -5.10600 26.02100
C  21.62400 -6.20200 27.90700
N  17.23800 -0.93200 26.65500
C  17.89900 -1.84300 26.01600
C  17.85300 -1.44300 24.47000
C  16.73900 -0.40400 24.36500
C  16.37100 -0.17300 25.86000
C  19.16600 -0.87400 23.95700
C  15.50900 -0.93200 23.57400
C  15.35500 -0.31900 22.20800
N  15.96500 0.62300 28.75400
C  15.22700 1.19100 27.70800
C  14.52000 2.39400 28.23300
C  14.76100 2.37900 29.61900
C  15.56700 1.29100 29.88300
C  13.65400 3.30200 27.45100
C  14.60000 3.20600 30.78200
O  14.05400 4.26000 30.89700
C  15.28100 2.37400 31.99800
C  16.23900 3.30200 32.76400
O  17.24200 3.83500 32.41100
O  15.76500 3.43500 34.03900
C  16.70400 3.71300 35.14100
H  18.96300 -3.54200 32.13700
H  18.98700 -3.58800 25.68800
H  14.82100 1.33500 25.64400
H  17.57500 0.91400 33.66300
H  17.73800 -2.18000 33.83800
H  19.88200 -1.69400 34.43800
H  19.43700 0.09000 34.03900
H  20.00900 -0.97600 32.82900
H  14.91300 -0.25100 33.81700
H  15.67200 0.86600 34.88900
H  15.78400 -2.03800 35.07700
H  14.86700 -0.86400 35.98500
H  20.35600 -6.40600 30.52100
H  20.25200 -5.07300 31.65000
H  21.59800 -5.06200 30.67200
H  21.04100 -7.01000 28.34900
H  22.41400 -5.83800 28.56400
H  22.10400 -6.62500 27.02400
H  17.65100 -2.38900 23.96800
H  17.08000 0.55700 23.97900
H  19.60000 -1.46500 23.15100
H  19.91700 -0.78000 24.74200
H  19.09100 0.09700 23.46600
H  14.64600 -0.76000 24.21700
H  15.50900 -2.00400 23.37800
H  16.30500 0.15400 21.95900
H  14.59600 0.46100 22.15100
H  15.13300 -1.05100 21.43200
H  13.68700 4.33300 27.80400
H  12.63100 2.96100 27.61300
H  13.69900 3.16000 26.37100
H  14.54400 1.97100 32.69300
H  17.70700 3.30500 35.01800
H  16.12300 3.16800 35.88400
H  16.84300 4.78200 35.30600
Mg 8.85100 47.68900 27.20700
C  7.29000 46.99300 30.13100
C  11.87100 47.99200 28.97000
C  10.45000 48.56400 24.29700
C  5.93400 47.74500 25.43700
N  9.61600 47.17400 29.34400
C  8.69200 47.07900 30.34800
C  9.42700 47.37000 31.74600
C  10.91500 47.62000 31.38900
C  10.84800 47.59300 29.85600
C  11.35900 48.99300 31.99500
C  9.36100 46.18100 32.73300
C  9.28000 46.59400 34.23800
H  9.96800 45.64700 35.26900
N  10.89900 48.11600 26.67400
C  11.97000 48.17700 27.57800
C  13.20500 48.60800 26.81200
C  12.82400 48.74500 25.48700
C  11.33600 48.40300 25.41500
C  14.47100 48.86700 27.46800
C  13.65800 49.16500 24.29300
O  13.15500 49.16400 23.16800
C  15.04900 49.79000 24.49900
N  8.24900 48.03300 25.17200
C  9.15300 48.36600 24.19900
C  8.46800 48.59000 22.80400
C  6.99700 48.21600 23.16700
C  7.02500 48.09800 24.70100
C  8.71900 50.01200 22.24800
C  6.55600 46.78800 22.51200
C  5.13100 46.66600 21.99800
N  6.92000 47.48700 27.66000
C  5.81400 47.44100 26.84300
C  4.69000 47.13200 27.71700
C  5.23400 47.02000 29.01700
C  6.58200 47.20600 28.90500
C  3.24200 47.06700 27.29700
C  4.78000 46.78900 30.38200
O  3.65300 46.65300 30.88300
C  6.16300 46.78000 31.18800
C  6.21400 45.43500 31.82700
O  6.36300 44.37400 31.23700
O  6.03300 45.55100 33.25100
C  6.50700 44.35100 33.96700
H  12.74800 48.24800 29.56800
H  10.85900 48.98000 23.37300
H  5.08100 47.67600 24.75800
H  8.90500 48.27400 32.05900
H  11.68500 46.93800 31.74800
H  12.39400 48.71400 32.19600
H  10.87300 49.17900 32.95300
H  11.19200 49.77300 31.25200
H  10.27700 45.59100 32.72300
H  8.49600 45.57100 32.47100
H  8.22200 46.58200 34.50300
H  9.56300 47.64500 34.28400
H  14.60000 49.94900 27.42100
H  15.23700 48.32300 26.91500
H  14.58300 48.69000 28.53700
H  14.90000 50.50100 25.31200
H  15.30600 50.29300 23.56700
H  15.81500 49.04000 24.69300
H  8.96900 47.92400 22.10100
H  6.32600 49.01300 22.84600
H  9.17100 50.50100 23.11100
H  7.82900 50.48000 21.82800
H  9.38900 50.01800 21.38900
H  6.56300 45.99300 23.25800
H  7.29300 46.62300 21.72600
H  5.05000 46.39300 20.94600
H  4.76200 47.69000 22.04500
H  4.41200 46.05600 22.54500
H  2.76800 46.20600 27.76800
H  3.12000 47.05800 26.21300
H  2.69000 47.86800 27.79000
H  6.22400 47.45700 32.04000
H  6.42700 44.55200 35.03500
H  7.55700 44.08300 33.85100
H  5.90800 43.50300 33.63300

