158

Mg 1.14600 8.57900 26.81900
C  1.73000 10.46100 29.71500
C  1.06800 5.66800 28.81800
C  1.16800 6.71600 24.05300
C  1.54300 11.38600 24.81900
N  1.70900 8.14100 29.00500
C  1.64100 9.10100 29.99800
C  1.47400 8.39700 31.37800
C  1.56400 6.81200 31.08300
C  1.52000 6.80900 29.49800
C  2.83200 5.94400 31.65500
C  0.18800 8.85000 32.11900
C  0.44000 9.05000 33.65900
H  1.57900 8.33000 34.41800
N  1.12700 6.50800 26.47800
C  0.97700 5.48500 27.39800
C  0.54800 4.25100 26.70100
C  0.62700 4.58000 25.29200
C  0.97700 5.98100 25.25700
C  0.18200 2.99100 27.45800
C  0.29900 3.67100 24.07600
O  0.23600 4.00700 22.88600
C  -0.04800 2.24600 24.26500
N  1.13100 8.99500 24.73100
C  1.23600 8.05000 23.79200
C  1.38800 8.69600 22.36600
C  1.08000 10.12600 22.72600
C  1.13100 10.22900 24.17200
C  2.83000 8.52100 21.85800
C  -0.14100 10.76000 22.12600
C  -1.42600 10.85300 22.90400
N  1.55600 10.55200 27.13700
C  1.71400 11.56500 26.23800
C  2.00100 12.81200 26.96700
C  2.03100 12.46000 28.28800
C  1.71500 11.05200 28.34700
C  2.26800 14.14300 26.32800
C  2.20900 12.91400 29.66300
O  2.36200 14.07300 30.02800
C  1.93400 11.62000 30.61000
C  3.10400 11.40800 31.56300
O  4.13300 10.82500 31.36900
O  2.89700 12.07200 32.72100
C  3.91300 11.90500 33.77100
H  0.87400 4.75600 29.38700
H  1.17400 6.21500 23.08300
H  1.66700 12.31500 24.26000
H  2.30100 8.66500 32.03500
H  0.65800 6.35400 31.48000
H  2.46700 5.47800 32.57000
H  3.74800 6.51500 31.80400
H  3.05100 5.17000 30.92000
H  -0.62100 8.12300 32.04200
H  -0.10400 9.83400 31.75200
H  -0.50000 8.77600 34.14000
H  0.58900 10.12200 33.78300
H  -0.83100 2.84000 27.08400
H  0.08300 3.12600 28.53500
H  0.93100 2.21100 27.32300
H  0.77300 1.75100 24.78300
H  -0.21800 1.85200 23.26200
H  -1.00400 2.15400 24.78100
H  0.66100 8.25300 21.68500
H  1.89100 10.79200 22.43200
H  3.55900 8.29600 22.63600
H  3.16300 9.39600 21.29900
H  2.95000 7.63000 21.24200
H  -0.28900 10.40300 21.10700
H  0.14400 11.79300 21.93000
H  -1.80400 11.87200 22.98600
H  -1.36100 10.41900 23.90100
H  -2.27800 10.36500 22.43000
H  1.49000 14.22100 25.56900
H  3.19800 14.10500 25.76000
H  2.25100 14.95700 27.05300
H  1.01100 11.77600 31.16800
H  4.10800 12.82100 34.33000
H  4.86300 11.46900 33.46200
H  3.55000 11.24700 34.56100
Mg -9.82400 39.26200 40.70900
C  -8.89300 35.92500 40.59600
C  -6.72800 40.02000 39.11100
C  -10.91300 42.46000 40.03300
C  -13.01800 38.30500 41.62900
N  -8.13600 38.08500 39.77300
C  -7.99000 36.71900 39.93400
C  -6.69200 36.25000 39.23200
C  -5.79700 37.57800 39.15100
C  -6.91200 38.61900 39.32300
C  -4.64300 37.62600 40.14900
C  -7.01600 35.40700 37.92500
C  -6.80300 36.08100 36.64400
H  -7.79700 35.72300 35.45800
N  -8.89800 40.97200 39.75500
C  -7.63200 41.09500 39.31300
C  -7.37600 42.46700 38.93600
C  -8.55500 43.20100 39.09900
C  -9.54100 42.15200 39.61800
C  -6.00200 43.01400 38.64000
C  -8.72000 44.71500 38.74600
O  -7.77700 45.41800 38.29100
C  -10.00300 45.38200 39.08700
N  -11.81100 40.20500 40.62200
C  -11.91000 41.54600 40.45400
C  -13.39000 42.01000 40.65800
C  -14.07600 40.63200 41.00600
C  -12.90900 39.63800 41.22800
C  -13.75100 43.19000 41.57000
C  -15.02900 40.12300 39.87700
C  -16.22800 39.31100 40.46000
N  -10.77600 37.59800 41.21400
C  -12.00400 37.38300 41.68900
C  -12.10700 35.98600 41.99800
C  -10.92700 35.37000 41.57100
C  -10.11500 36.42600 41.16100
C  -13.27500 35.23900 42.58100
C  -10.24600 34.14900 41.42300
O  -10.60800 33.01700 41.67000
C  -8.94200 34.37900 40.73500
C  -7.70200 33.67300 41.35200
O  -7.00300 32.85400 40.72000
O  -7.60400 33.83400 42.75000
C  -6.50200 33.05700 43.39800
H  -5.68800 40.22400 38.84800
H  -11.43800 43.38600 39.79100
H  -14.03100 37.94900 41.83100
H  -6.24800 35.63800 40.01800
H  -5.36300 37.78300 38.17200
H  -4.67800 38.60200 40.63200
H  -3.69700 37.50200 39.62200
H  -4.75800 36.86000 40.91600
H  -8.05600 35.08600 37.98300
H  -6.36900 34.53000 37.94600
H  -5.81000 35.82400 36.27300
H  -6.81200 37.15700 36.82000
H  -5.21400 42.29700 38.87000
H  -5.83400 43.80300 39.37400
H  -5.89400 43.38700 37.62200
H  -10.01900 46.46900 39.17000
H  -10.26800 45.03800 40.08700
H  -10.71300 45.15400 38.29200
H  -13.60200 42.39000 39.65800
H  -14.60900 40.53700 41.95200
H  -12.94100 43.31300 42.28800
H  -14.66000 43.11700 42.16700
H  -13.84200 44.14000 41.04200
H  -14.52000 39.41100 39.22800
H  -15.39200 40.97800 39.30600
H  -17.20100 39.65900 40.11200
H  -16.30700 39.45700 41.53700
H  -16.22600 38.26400 40.15500
H  -12.97700 34.21800 42.81900
H  -14.16000 35.39000 41.96400
H  -13.58100 35.69400 43.52300
H  -8.92600 34.00100 39.71300
H  -6.55300 32.01300 43.08600
H  -6.37000 33.17400 44.47400
H  -5.52000 33.37400 43.04800

