158

Mg 41.54800 41.20100 26.75000
C  40.79400 43.38800 29.47400
C  42.61800 38.90400 29.05000
C  42.65600 39.28800 24.21800
C  40.77300 43.82600 24.55600
N  41.70500 41.13900 29.06700
C  41.16800 42.13900 29.89700
C  41.36900 41.57500 31.37300
C  42.11300 40.15100 31.29700
C  42.17500 40.04100 29.73100
C  43.37900 39.99300 32.03700
C  40.06500 41.59900 32.13000
C  40.20400 41.40400 33.63600
H  39.54600 42.50600 34.52300
N  42.45900 39.31800 26.61400
C  42.81900 38.52900 27.67100
C  43.43400 37.27600 27.14600
C  43.45700 37.34100 25.72400
C  42.80300 38.70900 25.45000
C  43.96100 36.18600 28.07500
C  44.04600 36.32300 24.75000
O  44.04600 36.55300 23.50100
C  44.89100 35.14000 25.17200
N  41.80300 41.58900 24.71700
C  42.14900 40.55900 23.87900
C  41.97400 40.99900 22.46100
C  41.11700 42.31500 22.50000
C  41.23000 42.58300 24.01900
C  43.32000 41.37100 21.61900
C  39.63700 42.27400 22.02000
C  38.81700 41.06400 22.45600
N  40.95000 43.19500 26.93000
C  40.74300 44.21100 25.89000
C  40.44600 45.45800 26.49900
C  40.28500 45.13200 27.91000
C  40.72700 43.76900 28.11600
C  40.13100 46.72900 25.84100
C  39.84100 45.73200 29.22300
O  39.44100 46.86800 29.53000
C  40.14000 44.54600 30.24500
C  41.16200 45.22200 31.13900
O  42.20000 45.65700 30.70200
O  40.80000 45.31700 32.46300
C  41.85400 45.97200 33.38600
H  42.97000 38.19800 29.80600
H  43.08800 38.73900 23.37900
H  40.37700 44.63500 23.93800
H  42.09300 42.27100 31.79600
H  41.43500 39.33200 31.54100
H  43.87500 40.94400 32.23200
H  43.99900 39.36200 31.39900
H  43.28000 39.44900 32.97700
H  39.48500 40.74400 31.78300
H  39.59300 42.58000 32.08400
H  41.27000 41.25000 33.80900
H  39.75000 40.45600 33.92300
H  44.97600 35.90900 27.78900
H  43.35600 35.30400 27.86100
H  43.95300 36.36800 29.14900
H  44.97400 34.39200 24.38400
H  44.33100 34.70400 25.99900
H  45.86700 35.58800 25.35900
H  41.57200 40.18500 21.85600
H  41.56200 43.14600 21.95100
H  44.15400 40.93100 22.16700
H  43.46600 42.44500 21.50400
H  43.35100 41.04500 20.57900
H  39.65300 42.26500 20.93000
H  39.05800 43.15900 22.28300
H  38.63400 40.51200 21.53400
H  37.87600 41.31000 22.94700
H  39.43600 40.40100 23.06200
H  40.31100 46.70600 24.76600
H  40.74200 47.53400 26.24900
H  39.08800 46.96000 26.05700
H  39.22300 44.45000 30.82500
H  42.02100 45.30200 34.22900
H  41.52400 46.94900 33.73900
H  42.81500 46.06300 32.88000
Mg 0.43600 43.04800 25.83900
C  2.46000 43.27300 28.56200
C  -2.29000 42.20600 28.01300
C  -1.58100 42.72400 23.12700
C  3.10500 44.03700 23.75300
N  0.06800 42.89800 28.01100
C  1.08800 43.10400 28.95900
C  0.56900 43.07400 30.34700
C  -0.79100 42.22600 30.19200
C  -1.06800 42.49500 28.61400
C  -0.81200 40.72900 30.53800
C  0.40100 44.37500 30.97900
C  0.58800 44.44900 32.54800
H  0.32600 43.19600 33.39800
N  -1.72200 42.63200 25.62300
C  -2.60400 42.25000 26.64500
C  -3.84700 41.87500 25.97500
C  -3.59000 41.87200 24.58600
C  -2.27100 42.49400 24.35300
C  -4.98800 41.34200 26.77600
C  -4.43300 41.45000 23.42100
O  -4.25000 41.80800 22.28100
C  -5.72500 40.70700 23.79600
N  0.70100 43.48400 23.71100
C  -0.31000 43.27600 22.85800
C  0.25600 43.40100 21.49000
C  1.70700 43.99200 21.60600
C  1.84900 43.91300 23.13400
C  0.27200 42.07000 20.73400
C  1.82000 45.52900 21.13400
C  3.06800 45.82000 20.25900
N  2.42900 43.42400 26.01100
C  3.40700 43.75100 25.13300
C  4.68500 43.86300 25.78300
C  4.32500 43.65300 27.17300
C  2.93600 43.43200 27.27400
C  6.01300 44.26300 25.17200
C  4.93800 43.70600 28.45700
O  6.13100 43.80500 28.84000
C  3.68600 43.47000 29.42900
C  3.91800 42.36500 30.33100
O  3.63600 41.22000 30.16800
O  4.29000 42.96100 31.50100
C  4.34700 42.02600 32.61900
H  -3.07300 41.85100 28.68500
H  -2.17200 42.45800 22.24800
H  3.79000 44.56200 23.08300
H  1.27900 42.46300 30.90400
H  -1.67200 42.72800 30.59200
H  -1.56100 40.21100 29.94000
H  -0.97700 40.70300 31.61500
H  0.17600 40.31500 30.33500
H  -0.59100 44.75600 30.73800
H  1.23400 45.00000 30.65700
H  -0.02400 45.24500 32.97200
H  1.56100 44.88800 32.77100
H  -5.93500 41.83000 26.54500
H  -4.90200 41.72300 27.79300
H  -5.05200 40.25700 26.85800
H  -5.35000 39.98100 24.51800
H  -6.07300 40.13300 22.93700
H  -6.55300 41.40700 23.90800
H  -0.44500 44.08400 21.01000
H  2.55800 43.45200 21.19100
H  -0.28900 42.31700 19.83300
H  -0.20800 41.30100 21.33900
H  1.26300 41.73800 20.42500
H  2.00100 46.11700 22.03400
H  0.94500 45.98100 20.66700
H  3.57900 44.88600 20.02600
H  3.73000 46.46400 20.83800
H  2.71100 46.26400 19.33000
H  5.92700 44.41800 24.09700
H  6.73500 43.45000 25.25700
H  6.40400 45.13800 25.69100
H  3.44400 44.37800 29.98100
H  4.48800 42.65700 33.49700
H  5.18700 41.34700 32.47600
H  3.41500 41.46200 32.61000

