158

Mg 35.44300 3.51400 29.91400
C  33.18000 4.46800 32.51900
C  37.87600 3.40000 32.18200
C  37.55000 3.02400 27.30500
C  32.81700 4.09500 27.69200
N  35.48800 4.10300 32.11000
C  34.45400 4.22100 32.98600
C  34.92000 4.25300 34.46100
C  36.45800 4.03800 34.26600
C  36.61600 3.83400 32.75900
C  37.33900 5.19200 34.82500
C  34.10800 3.08800 35.25700
C  33.60300 3.45200 36.61800
H  34.29300 4.55100 37.40000
N  37.41200 3.24700 29.79300
C  38.29500 3.18300 30.85500
C  39.60300 2.78600 30.43000
C  39.51800 2.60800 28.96200
C  38.09100 2.90600 28.63100
C  40.80000 2.65000 31.38300
C  40.66700 2.21200 27.97900
O  40.53500 2.30400 26.77100
C  42.04300 1.87100 28.55900
N  35.25600 3.58600 27.80900
C  36.20400 3.27000 26.97500
C  35.68900 3.27900 25.51500
C  34.17300 3.48200 25.66400
C  34.03400 3.79100 27.13200
C  36.40700 4.24800 24.64400
C  33.32700 2.29400 25.20400
C  33.53900 1.04500 26.09000
N  33.40700 4.18600 30.06500
C  32.47900 4.30600 29.05400
C  31.18000 4.57300 29.65800
C  31.44800 4.81500 30.95400
C  32.81200 4.46600 31.17700
C  29.98200 4.74200 28.82800
C  30.82200 5.09300 32.21600
O  29.64800 5.45600 32.43800
C  31.93300 4.97100 33.34000
C  31.91000 6.25900 34.12700
O  32.36400 7.35100 33.74500
O  31.29600 6.08400 35.36300
C  31.36200 7.20000 36.27300
H  38.70600 3.31400 32.88700
H  38.15800 2.86100 26.41200
H  32.03600 4.15200 26.93100
H  34.75900 5.25200 34.86600
H  36.71600 3.08200 34.72200
H  37.93800 5.45500 33.95400
H  38.04900 4.76700 35.53500
H  36.75100 6.00400 35.25400
H  34.79800 2.24600 35.31100
H  33.26300 2.61400 34.75800
H  33.68000 2.49800 37.14000
H  32.55400 3.74000 36.54900
H  41.41100 1.76900 31.18500
H  40.46900 2.47800 32.40700
H  41.35100 3.57800 31.23200
H  42.57800 1.63600 27.64000
H  41.96600 1.00300 29.21400
H  42.32900 2.79700 29.05800
H  35.96500 2.33000 25.05500
H  33.77800 4.39400 25.21700
H  37.09300 3.60700 24.09000
H  37.08300 4.89300 25.20600
H  35.70500 4.74200 23.97200
H  33.61000 2.14300 24.16200
H  32.26200 2.52200 25.25600
H  33.74200 0.16700 25.47600
H  32.63100 0.94000 26.68200
H  34.37300 1.25700 26.75900
H  30.13900 4.32600 27.83300
H  29.83900 5.81100 28.67100
H  29.07900 4.32000 29.27000
H  31.65100 4.11400 33.95200
H  30.61400 7.91700 35.93400
H  32.36400 7.62000 36.18200
H  31.19200 6.82600 37.28300
Mg 54.01500 24.21000 45.33600
C  51.36200 26.34300 44.58400
C  51.99600 21.54500 44.38000
C  56.65300 22.06700 45.51300
C  56.03300 26.88800 45.93000
N  51.91100 24.01200 44.52400
C  50.96600 25.00100 44.39900
C  49.68400 24.42100 43.69600
C  49.83600 22.85900 44.12200
C  51.33700 22.79000 44.42400
C  48.81100 22.26000 45.18900
C  49.60900 24.71500 42.15500
C  48.22800 25.14000 41.63700
H  47.94400 24.95400 40.17600
N  54.26600 22.11300 44.96800
C  53.33900 21.19300 44.66500
C  53.87000 19.90100 44.70400
C  55.27100 19.99800 44.83100
C  55.44700 21.48900 45.07700
C  53.15900 18.54100 44.56300
C  56.31000 18.87800 44.79500
O  55.97900 17.72500 44.62600
C  57.80900 19.06700 44.91400
N  56.06100 24.47800 45.55100
C  56.97700 23.43900 45.68000
C  58.38400 23.97400 46.03200
C  58.16800 25.48200 45.85700
C  56.63900 25.66000 45.80100
C  58.99700 23.44100 47.37800
C  58.90700 26.07000 44.72300
C  60.36200 26.42300 44.96600
N  53.80500 26.24700 45.31700
C  54.73300 27.22700 45.69600
C  54.04300 28.56300 45.65800
C  52.71300 28.25900 45.22100
C  52.68200 26.84500 45.00600
C  54.65500 29.87100 46.08600
C  51.48100 28.82300 44.92100
O  51.16000 30.02900 44.85100
C  50.59900 27.64200 44.34800
C  50.39000 27.94900 42.91700
O  51.27800 27.82700 42.06600
O  49.20300 28.47100 42.76000
C  48.86500 29.07000 41.50400
H  51.40900 20.68100 44.06300
H  57.53000 21.41700 45.55500
H  56.66100 27.73200 46.22300
H  48.80700 24.77700 44.23600
H  49.66000 22.18400 43.28400
H  49.33800 22.07000 46.12500
H  48.40400 21.38700 44.68000
H  48.00900 22.98700 45.31100
H  49.86600 23.77900 41.65900
H  50.40700 25.43400 41.97200
H  48.13200 26.18800 41.92100
H  47.37200 24.75700 42.19300
H  53.24500 18.21500 43.52700
H  52.08500 18.54400 44.75100
H  53.52800 17.71300 45.16900
H  58.27300 18.19900 44.44500
H  58.17000 19.25400 45.92500
H  58.13400 19.91700 44.31400
H  59.08200 23.66700 45.25300
H  58.63700 25.89700 46.74900
H  59.71100 24.09600 47.87800
H  59.50900 22.53500 47.05400
H  58.24700 23.15500 48.11500
H  58.42400 26.99900 44.42200
H  58.86200 25.37400 43.88500
H  60.62900 26.37100 46.02200
H  60.54700 27.44600 44.64100
H  60.96900 25.64800 44.49800
H  55.31600 29.75600 46.94500
H  53.84000 30.52200 46.40400
H  55.31200 30.28800 45.32300
H  49.62400 27.60600 44.83600
H  47.85800 29.48000 41.42600
H  48.91800 28.38000 40.66200
H  49.64000 29.81800 41.33900

