158

Mg 17.21500 -1.81800 28.11800
C  16.25300 0.02000 30.96500
C  19.37500 -3.62900 30.26400
C  18.86800 -3.08800 25.47100
C  15.59000 0.44800 26.02800
N  17.88600 -1.68900 30.35200
C  17.25200 -0.94000 31.31500
C  17.69400 -1.31800 32.73800
C  18.83400 -2.37500 32.51600
C  18.71600 -2.62400 30.96300
C  20.27500 -1.95800 32.93500
C  16.59900 -1.89900 33.68600
C  16.36600 -1.07400 34.96100
H  17.57400 -0.64500 35.82400
N  18.77100 -3.28600 27.83300
C  19.48000 -3.95500 28.82600
C  20.35300 -4.93900 28.27700
C  20.25600 -4.74800 26.85400
C  19.25500 -3.71300 26.68900
C  21.19400 -5.91800 29.01000
C  20.86100 -5.49400 25.70700
O  20.50800 -5.34600 24.52800
C  21.88800 -6.51400 25.95900
N  17.23500 -1.37500 26.08500
C  17.92500 -2.06200 25.17700
C  17.60600 -1.65100 23.72500
C  16.32300 -0.82000 23.91900
C  16.41400 -0.53000 25.40000
C  18.83400 -0.85200 23.13000
C  15.00200 -1.61400 23.47300
C  14.36200 -1.36800 22.08100
N  16.12300 -0.05100 28.40900
C  15.49500 0.72800 27.43500
C  14.76200 1.73000 28.20200
C  14.90700 1.43000 29.52100
C  15.83800 0.43100 29.61900
C  13.89900 2.77300 27.63700
C  14.45000 1.75800 30.82800
O  13.59400 2.53800 31.19400
C  15.33500 0.92700 31.79800
C  16.17100 1.93000 32.45800
O  17.23700 2.37000 32.03900
O  15.49200 2.37600 33.57200
C  16.08600 3.35500 34.48100
H  19.97500 -4.21900 30.96000
H  19.42800 -3.39100 24.58400
H  14.93600 0.96800 25.32500
H  18.02400 -0.37200 33.16700
H  18.42500 -3.31000 32.90100
H  21.05300 -2.06600 32.17900
H  20.56900 -2.50100 33.83300
H  20.35800 -0.95500 33.35400
H  16.77700 -2.91900 34.02700
H  15.66400 -1.92300 33.12500
H  15.80500 -1.68900 35.66500
H  15.74400 -0.19700 34.78000
H  20.93000 -6.94900 28.77600
H  20.98900 -5.90800 30.08100
H  22.21000 -5.54100 28.89400
H  22.30700 -6.81100 24.99800
H  21.25800 -7.25400 26.45300
H  22.64100 -6.04400 26.59200
H  17.38400 -2.54900 23.14900
H  16.45300 0.10600 23.35900
H  19.77900 -0.83800 23.67400
H  18.50100 0.17300 22.96600
H  19.00700 -1.34300 22.17200
H  14.21800 -1.27600 24.15100
H  15.17400 -2.67900 23.62600
H  13.57900 -2.10900 21.91900
H  15.17700 -1.43100 21.36000
H  13.99000 -0.34400 22.10600
H  14.40200 3.74000 27.62300
H  13.10300 2.82500 28.37900
H  13.37000 2.48500 26.72900
H  14.70800 0.43700 32.54300
H  15.33400 3.68900 35.19600
H  16.51600 4.23300 33.99900
H  16.92500 2.88000 34.98900
Mg -10.09300 17.22500 41.40100
C  -6.63000 16.38400 41.39500
C  -9.10200 20.40600 40.50400
C  -13.29000 18.00300 41.06400
C  -10.77200 13.83900 41.41600
N  -8.05300 18.25900 40.96300
C  -6.79600 17.74900 41.03500
C  -5.74400 18.77800 40.55600
C  -6.54000 20.17600 40.72600
C  -8.00800 19.62300 40.83200
C  -6.04600 21.02700 41.87600
C  -5.25500 18.63000 39.08900
C  -3.81900 18.33700 38.73800
H  -3.42300 16.90900 38.28100
N  -11.08400 18.99900 40.88800
C  -10.44000 20.15300 40.50600
C  -11.50700 21.09800 40.13800
C  -12.71300 20.47900 40.35500
C  -12.42100 19.13900 40.78600
C  -11.29300 22.46400 39.68400
C  -14.05000 21.07000 40.12500
O  -14.23300 22.23400 39.75400
C  -15.20700 20.29100 40.50700
N  -11.77300 16.08100 41.08900
C  -13.01300 16.63900 41.12000
C  -14.19100 15.59600 41.14200
C  -13.39700 14.28100 41.33100
C  -11.86000 14.74700 41.29400
C  -15.29800 15.79300 42.15200
C  -13.69600 13.17900 40.20100
C  -13.94700 11.73400 40.87400
N  -9.01300 15.39500 41.52100
C  -9.40300 14.11600 41.57100
C  -8.23700 13.22500 41.62000
C  -7.14500 14.12700 41.64100
C  -7.65100 15.43600 41.55500
C  -8.20900 11.77100 41.43700
C  -5.67300 14.18800 41.67400
O  -4.82300 13.29400 41.59000
C  -5.32600 15.70400 41.72300
C  -4.88700 16.03400 43.12600
O  -5.32200 16.92800 43.82300
O  -3.94400 15.10700 43.55500
C  -3.48300 15.28000 44.89200
H  -8.77200 21.41500 40.24700
H  -14.37400 18.12400 41.03500
H  -11.10500 12.80300 41.33400
H  -4.88000 18.72200 41.21900
H  -6.52800 20.74600 39.79700
H  -6.76200 20.96700 42.69600
H  -5.98600 22.06400 41.54500
H  -5.07400 20.67400 42.22200
H  -5.67300 19.45300 38.50900
H  -5.78000 17.75700 38.70100
H  -3.18200 18.63800 39.57000
H  -3.57500 19.03400 37.93600
H  -11.45200 22.63500 38.62000
H  -10.26900 22.76900 39.90000
H  -11.85500 23.06300 40.40100
H  -15.34300 19.47200 39.80100
H  -16.07300 20.95200 40.46700
H  -15.10900 20.02200 41.55800
H  -14.57500 15.63300 40.12300
H  -13.51200 13.89200 42.34300
H  -16.09500 16.43000 41.76800
H  -15.02100 16.30300 43.07500
H  -15.73600 14.85000 42.47800
H  -12.86500 13.19100 39.49600
H  -14.60200 13.40100 39.63600
H  -13.28300 11.04100 40.35700
H  -14.95600 11.32600 40.80100
H  -13.68700 11.81300 41.92900
H  -9.22600 11.37800 41.41100
H  -7.61600 11.37500 42.26100
H  -7.88000 11.42600 40.45700
H  -4.44700 15.83000 41.09200
H  -4.21600 15.60800 45.62800
H  -2.64600 15.97700 44.94600
H  -3.03900 14.32100 45.16000

