158

Mg 25.83900 1.01200 29.13800
C  27.67600 0.56300 32.14200
C  23.04700 1.22500 30.99700
C  24.06300 1.11600 26.33200
C  28.75400 0.11100 27.42900
N  25.38400 0.65000 31.42900
C  26.29200 0.70400 32.40200
C  25.58000 0.81100 33.78300
C  24.04000 0.95800 33.39000
C  24.13300 0.88900 31.84600
C  23.09500 -0.10800 33.88700
C  26.30800 1.97800 34.56000
C  25.56600 2.69400 35.67300
H  26.10000 2.34300 37.14100
N  23.75900 1.11400 28.72500
C  22.81000 1.36300 29.63200
C  21.55900 1.61000 28.90900
C  21.78900 1.51900 27.50200
C  23.21500 1.19000 27.42800
C  20.19800 1.90900 29.63000
C  20.92800 1.81100 26.33600
O  21.26300 1.67300 25.15500
C  19.51500 2.20800 26.53100
N  26.36800 0.68300 27.12600
C  25.42400 0.86800 26.14600
C  26.04600 0.75900 24.75800
C  27.59900 0.59100 25.11600
C  27.62900 0.45000 26.63500
C  25.45000 -0.41900 23.87000
C  28.52400 1.85100 24.65600
C  29.95800 1.38000 24.14000
N  27.84700 0.51200 29.62100
C  28.87600 0.13300 28.81400
C  30.08300 -0.22800 29.56500
C  29.66200 0.05800 30.87800
C  28.30700 0.40200 30.88300
C  31.43100 -0.68700 29.01300
C  30.03700 -0.01100 32.27400
O  31.14700 -0.22400 32.73800
C  28.81500 0.29900 33.16900
C  28.54300 -0.85200 34.10700
O  27.86300 -1.79100 33.89000
O  29.14200 -0.53100 35.30600
C  28.65500 -1.44900 36.38600
H  22.10600 1.40700 31.51900
H  23.54600 1.07400 25.37100
H  29.64700 -0.23000 26.90100
H  25.72100 -0.18800 34.19400
H  23.60300 1.91700 33.66900
H  23.60700 -0.82600 34.52700
H  22.66800 -0.73500 33.10500
H  22.30700 0.31800 34.50900
H  26.50400 2.80700 33.88000
H  27.26100 1.64100 34.96900
H  24.53000 2.36000 35.73100
H  25.66300 3.75200 35.42900
H  19.60300 1.00000 29.54100
H  19.68400 2.75100 29.16600
H  20.30500 2.15200 30.68700
H  19.11000 2.47300 25.55400
H  19.48000 3.03000 27.24600
H  18.99200 1.31200 26.86400
H  25.85700 1.70000 24.24200
H  28.06000 -0.35900 24.84500
H  24.99400 -1.15400 24.53300
H  26.25000 -0.81100 23.24200
H  24.71000 0.06300 23.23000
H  28.60800 2.46800 25.55000
H  28.06300 2.54800 23.95600
H  30.72300 1.77600 24.80700
H  30.18500 1.81500 23.16600
H  30.00600 0.29100 24.15300
H  31.94700 0.13900 28.52300
H  31.31300 -1.31300 28.12800
H  32.19900 -1.09300 29.67000
H  28.89900 1.21000 33.76200
H  28.81400 -2.49500 36.12300
H  27.57500 -1.39800 36.52400
H  29.06300 -1.22500 37.37100
Mg 35.86000 2.24400 30.69900
C  33.22000 3.21700 32.79000
C  38.04800 2.50700 33.39300
C  38.35200 1.65100 28.57600
C  33.60800 2.51700 27.99100
N  35.65000 2.86400 32.79100
C  34.42900 3.03300 33.46600
C  34.67400 3.15000 34.94900
C  36.22000 3.35800 35.01300
C  36.67900 2.92400 33.64300
C  36.60000 4.81700 35.47700
C  34.16100 1.88400 35.67100
C  33.67000 2.09500 37.13000
H  34.18700 3.25100 37.93900
N  37.91800 2.08400 30.91600
C  38.63800 2.22200 32.14400
C  40.01300 1.92000 31.90700
C  40.13100 1.61900 30.50100
C  38.76000 1.73700 29.92700
C  41.01400 2.09000 33.03900
C  41.36700 1.24500 29.66000
O  41.22900 0.86500 28.50200
C  42.77200 1.16900 30.23700
N  35.97300 2.00600 28.51600
C  37.14600 1.80800 27.90500
C  36.98700 1.67100 26.36000
C  35.43000 1.86200 26.23900
C  34.96800 2.27100 27.63600
C  37.82700 2.59000 25.43500
C  34.71200 0.55500 25.85600
C  33.70500 0.60300 24.73900
N  33.80800 2.76600 30.34100
C  33.02400 2.77200 29.22100
C  31.59600 3.13600 29.55700
C  31.69400 3.33200 30.95100
C  33.03900 3.07000 31.37300
C  30.38700 3.46800 28.77700
C  30.95700 3.73800 32.13600
O  29.82200 4.10400 32.23000
C  31.85900 3.56900 33.32900
C  31.92600 4.86200 34.01000
O  32.48600 5.83300 33.56800
O  31.20900 4.82300 35.17400
C  31.05700 6.06600 35.99100
H  38.73200 2.43000 34.24100
H  39.16000 1.38200 27.89300
H  32.89900 2.68700 27.17800
H  34.13000 4.00600 35.34800
H  36.63600 2.72600 35.79800
H  37.12200 4.80700 36.43400
H  35.78300 5.51100 35.67500
H  37.30100 5.17700 34.72500
H  35.00200 1.19300 35.72700
H  33.42100 1.52300 34.95600
H  33.81500 1.15500 37.66300
H  32.58800 2.21900 37.08800
H  40.82400 1.35900 33.82600
H  40.88400 3.09900 33.43000
H  42.00700 1.95900 32.61000
H  43.42000 0.63900 29.53900
H  42.86500 0.54400 31.12600
H  43.05300 2.19600 30.46800
H  37.40200 0.68600 26.14500
H  35.10100 2.61600 25.52400
H  38.51700 1.89900 24.95100
H  38.25100 3.37600 26.06100
H  37.23800 3.14200 24.70200
H  34.24500 0.05500 26.70400
H  35.44200 -0.18600 25.53100
H  34.05400 0.14300 23.81400
H  33.36800 1.61100 24.49900
H  32.82500 0.07400 25.10600
H  30.45700 3.20100 27.72200
H  30.00100 4.47600 28.92600
H  29.62500 2.81300 29.20100
H  31.48500 2.79400 33.99800
H  31.86200 6.16100 36.72000
H  30.10700 5.99700 36.52100
H  30.88200 6.94700 35.37500

