158

Mg -1.64200 17.20100 26.55500
C  -2.29300 15.15200 29.37700
C  -2.18000 19.95000 28.47400
C  -1.64500 19.18900 23.76200
C  -1.61800 14.34600 24.54800
N  -2.33900 17.53500 28.68800
C  -2.31900 16.55400 29.69000
C  -2.45000 17.20500 31.06400
C  -2.63900 18.74800 30.65500
C  -2.35900 18.71800 29.19700
C  -3.97500 19.42100 31.00700
C  -1.23000 16.78100 31.92100
C  -0.82600 17.73800 33.09000
H  -0.35100 17.09100 34.40900
N  -1.81400 19.30700 26.18600
C  -1.97600 20.33000 27.14700
C  -1.83000 21.64500 26.52200
C  -1.69500 21.39400 25.09600
C  -1.71700 19.93200 24.93700
C  -1.99600 22.97300 27.19100
C  -1.55600 22.41800 24.03700
O  -1.36000 22.00500 22.84400
C  -1.53700 23.96000 24.26200
N  -1.75800 16.84300 24.52100
C  -1.69800 17.76300 23.53600
C  -1.71100 17.14900 22.14100
C  -1.34100 15.67000 22.39600
C  -1.53600 15.58800 23.94200
C  -3.06200 17.25500 21.40700
C  0.11800 15.37800 21.85600
C  1.31000 15.77700 22.69100
N  -1.77900 15.23200 26.88600
C  -1.82500 14.16300 25.94100
C  -1.93100 12.97800 26.67700
C  -2.16200 13.29100 27.97300
C  -2.07100 14.67500 28.06300
C  -2.00900 11.63300 26.07000
C  -2.45300 12.76800 29.27100
O  -2.68300 11.62800 29.68500
C  -2.41800 13.98300 30.21100
C  -1.24600 13.76200 31.14700
O  -0.08700 14.05300 30.93400
O  -1.72900 13.22100 32.32200
C  -0.74700 12.86900 33.32500
H  -2.20300 20.78800 29.17400
H  -1.59200 19.70700 22.80200
H  -1.36700 13.51100 23.89100
H  -3.30500 16.69600 31.51000
H  -1.76300 19.21300 31.10800
H  -4.51200 18.76000 31.68600
H  -4.40600 19.89200 30.12300
H  -3.54300 20.23500 31.58900
H  -0.31200 16.75000 31.33500
H  -1.48000 15.84100 32.41500
H  -1.70200 18.37900 33.18700
H  -0.01700 18.32900 32.66200
H  -1.18700 23.67600 26.99500
H  -1.96700 22.78200 28.26400
H  -3.01000 23.34700 27.04900
H  -0.73200 24.43000 24.82700
H  -2.42000 24.21200 24.84900
H  -1.73100 24.45900 23.31200
H  -0.96000 17.64500 21.52600
H  -1.97500 14.96300 21.86100
H  -3.91700 17.25400 22.08300
H  -3.20500 16.45300 20.68400
H  -3.00500 18.21400 20.89100
H  0.27200 15.83500 20.87800
H  0.44000 14.34500 21.72700
H  1.27300 16.81300 23.02500
H  2.25700 15.69900 22.15700
H  1.29100 15.22000 23.62800
H  -1.59800 11.64500 25.06100
H  -3.07000 11.40100 25.97800
H  -1.45500 10.94600 26.70800
H  -3.31200 13.99000 30.83500
H  -0.61500 13.74700 33.95700
H  0.22900 12.63000 32.90100
H  -1.07700 12.00900 33.90700
Mg -0.13600 7.12300 26.93200
C  1.13500 9.33300 29.26300
C  -0.15500 4.62400 29.50600
C  -0.92600 4.90800 24.74900
C  0.80000 9.42100 24.41000
N  0.54800 6.95000 29.05500
C  0.97200 8.02300 29.77900
C  0.84100 7.69200 31.32400
C  0.73800 6.12100 31.33100
C  0.40000 5.82900 29.85200
C  2.00100 5.36100 31.80700
C  -0.32700 8.40000 32.09500
C  -0.22100 8.62500 33.66700
H  0.79800 7.94800 34.46800
N  -0.67800 5.02600 27.15400
C  -0.56500 4.18500 28.23000
C  -1.09100 2.87400 27.85200
C  -1.29000 2.89700 26.42600
C  -0.99400 4.28900 26.08900
C  -1.11400 1.68400 28.76200
C  -1.64800 1.83500 25.43700
O  -1.58000 2.02900 24.20600
C  -2.02400 0.51400 25.97500
N  0.03000 7.14200 24.91200
C  -0.47900 6.04700 24.22800
C  -0.89000 6.50200 22.79600
C  -0.19300 7.91800 22.64700
C  0.25500 8.22400 24.09000
C  -0.50900 5.46800 21.62900
C  -1.01100 9.00400 22.02000
C  -2.07600 9.69800 22.93200
N  0.75900 9.01700 26.80200
C  1.03300 9.88100 25.70400
C  1.36600 11.17700 26.17800
C  1.37000 11.07900 27.58200
C  1.04900 9.72800 27.88600
C  1.61200 12.36300 25.24900
C  1.66300 11.70800 28.83500
O  2.02200 12.85400 29.08400
C  1.48600 10.64200 29.97300
C  2.72100 10.72900 30.74900
O  3.79500 10.27500 30.40100
O  2.50700 11.51800 31.85700
C  3.62900 11.62300 32.73300
H  -0.32600 3.86400 30.27100
H  -1.48500 4.25300 24.07800
H  0.91500 10.24600 23.70400
H  1.76000 8.12800 31.71700
H  -0.07100 5.83500 32.00400
H  2.76000 6.06800 32.14300
H  2.46000 4.85100 30.96000
H  1.76100 4.53300 32.47400
H  -1.23100 7.79300 32.04700
H  -0.46900 9.31400 31.51800
H  -1.21600 8.42400 34.06300
H  -0.16600 9.70000 33.84200
H  -2.13500 1.34900 28.94000
H  -0.50200 1.85900 29.64700
H  -0.57900 0.95800 28.14900
H  -1.19100 -0.02800 26.42100
H  -2.43600 -0.10500 25.17700
H  -2.85000 0.53600 26.68600
H  -1.97200 6.57000 22.68800
H  0.64500 8.04600 21.96300
H  -0.19900 5.93900 20.69600
H  -1.28500 4.76400 21.32900
H  0.39400 4.92600 21.90900
H  -1.66900 8.56200 21.27200
H  -0.32400 9.68400 21.51700
H  -2.04500 10.78800 22.91200
H  -2.01700 9.48600 24.00000
H  -3.01000 9.48500 22.41200
H  1.25400 13.21800 25.82200
H  1.12000 12.34700 24.27600
H  2.70000 12.39200 25.19400
H  0.66800 11.01800 30.58700
H  4.54900 12.07200 32.35900
H  4.07900 10.69400 33.08400
H  3.25600 12.09900 33.64000

