158

Mg -2.26600 18.51300 27.16500
C  -2.96300 16.24000 29.88600
C  -3.22100 21.02400 29.25500
C  -1.96500 20.40800 24.45200
C  -2.21300 15.60800 25.07500
N  -3.07600 18.59100 29.34200
C  -3.10000 17.59400 30.26700
C  -3.45000 18.08000 31.62900
C  -3.67900 19.61600 31.38700
C  -3.30900 19.74200 29.90700
C  -5.01800 20.30100 31.70100
C  -2.34600 17.91100 32.68600
C  -2.80600 17.23200 34.01300
H  -1.73300 17.21600 35.15300
N  -2.47600 20.40700 26.90700
C  -2.85700 21.32300 27.87600
C  -2.79100 22.64600 27.20200
C  -2.22800 22.48800 25.89500
C  -2.26800 21.05700 25.67500
C  -3.16700 23.88500 28.03900
C  -1.69700 23.58800 24.98900
O  -1.36300 23.36900 23.80700
C  -1.57600 25.01700 25.49500
N  -2.08200 18.06200 25.07700
C  -1.90900 19.03600 24.18900
C  -1.88100 18.36300 22.79700
C  -1.63600 16.91000 23.07300
C  -2.11000 16.85200 24.44700
C  -3.22400 18.58300 22.07100
C  -0.19800 16.32500 22.91700
C  0.92000 17.20900 23.64500
N  -2.54900 16.38900 27.34300
C  -2.41800 15.37600 26.35200
C  -2.71700 14.07600 27.09100
C  -2.87000 14.38000 28.44400
C  -2.81200 15.75600 28.54600
C  -2.85800 12.80200 26.35600
C  -3.04100 13.80700 29.77900
O  -3.22800 12.66200 30.05300
C  -3.15000 15.02300 30.79000
C  -2.06200 14.87100 31.76200
O  -0.94200 15.37300 31.71500
O  -2.37900 13.97500 32.69600
C  -1.34000 13.68500 33.66800
H  -3.49900 21.87800 29.87600
H  -1.90000 20.93300 23.49700
H  -2.03700 14.66200 24.55900
H  -4.38600 17.55100 31.80200
H  -2.85700 20.15000 31.86300
H  -5.59500 19.69200 32.39700
H  -5.76100 20.30900 30.90300
H  -4.86400 21.28100 32.15400
H  -2.15100 18.91100 33.07200
H  -1.42700 17.53200 32.23900
H  -3.34100 16.29300 33.87500
H  -3.53400 17.91300 34.45200
H  -3.45300 23.63600 29.06100
H  -3.99500 24.35200 27.50500
H  -2.46400 24.69900 28.21300
H  -2.63900 25.23700 25.59500
H  -0.97300 25.58200 24.78500
H  -0.99300 25.03300 26.41600
H  -1.07000 18.79900 22.21400
H  -2.28800 16.28200 22.46600
H  -4.00100 19.02700 22.69400
H  -3.72500 17.67100 21.74800
H  -3.07200 19.33400 21.29500
H  0.16400 16.15700 21.90300
H  -0.23400 15.29400 23.26700
H  0.57700 17.15600 24.67800
H  0.88600 18.25200 23.32900
H  1.94700 16.84500 23.65700
H  -1.93400 12.46400 25.88700
H  -3.58700 12.87000 25.54900
H  -3.21200 12.06900 27.08200
H  -4.16700 14.98900 31.18100
H  -1.73700 12.97900 34.39800
H  -1.12400 14.56300 34.27700
H  -0.44700 13.44800 33.08900
Mg 17.03800 -0.50800 27.99200
C  16.00000 1.59200 30.63900
C  19.13600 -2.06200 30.18600
C  18.63000 -2.04500 25.35100
C  15.42100 1.66000 25.72700
N  17.56600 -0.14900 30.05500
C  16.92000 0.55500 31.02400
C  17.33600 0.19900 32.41300
C  18.54000 -0.78600 32.25100
C  18.39500 -1.02600 30.71800
C  19.95500 -0.10000 32.43700
C  16.20500 -0.31100 33.39000
C  16.73200 -0.70400 34.78100
H  17.88500 0.05200 35.51800
N  18.52600 -2.07400 27.86200
C  19.32400 -2.55100 28.87300
C  20.17600 -3.60100 28.38400
C  19.96600 -3.61600 26.99300
C  18.99800 -2.57900 26.65700
C  21.21300 -4.29200 29.31400
C  20.61900 -4.44400 25.87600
O  20.30900 -4.31200 24.68800
C  21.44200 -5.58200 26.17100
N  16.87500 -0.29400 25.81300
C  17.75000 -0.98100 25.03900
C  17.63900 -0.38300 23.64600
C  16.46600 0.63600 23.69300
C  16.24700 0.71500 25.16300
C  18.98100 0.18900 23.16400
C  15.22700 0.30300 22.87000
C  14.01100 -0.31300 23.48300
N  15.83100 1.16200 28.10000
C  15.22800 1.92800 27.14100
C  14.51900 3.02200 27.73400
C  14.80000 2.90300 29.09200
C  15.63400 1.81200 29.28200
C  13.65500 3.96300 27.14300
C  14.42900 3.49000 30.35000
O  13.66600 4.38600 30.66400
C  15.21100 2.61400 31.44600
C  15.97700 3.45900 32.35200
O  17.17500 3.64300 32.31100
O  15.16800 3.97000 33.31600
C  15.87600 4.41600 34.50900
H  19.57700 -2.65800 30.98800
H  19.21400 -2.33800 24.47600
H  14.98100 2.42500 25.08400
H  17.73100 1.09600 32.89000
H  18.52900 -1.60800 32.96600
H  20.61100 -0.33300 31.59800
H  20.55700 -0.27600 33.32800
H  19.77300 0.97400 32.42900
H  15.98700 -1.27600 32.93200
H  15.32900 0.33800 33.42400
H  17.04900 -1.74300 34.68900
H  15.90100 -0.62400 35.48200
H  21.23400 -5.37000 29.15300
H  20.83200 -4.28400 30.33600
H  22.23500 -3.93500 29.19500
H  21.14400 -6.15500 27.04800
H  22.41100 -5.18100 26.47000
H  21.51400 -6.20500 25.27900
H  17.40000 -1.24600 23.02400
H  16.79200 1.61000 23.32900
H  19.08100 1.26900 23.27100
H  19.10200 -0.10500 22.12200
H  19.83500 -0.11700 23.76800
H  15.51600 -0.34000 22.03800
H  14.92600 1.26000 22.44300
H  14.10500 -0.82400 24.44100
H  13.54700 -1.08500 22.86900
H  13.29700 0.48400 23.69300
H  13.70200 4.97400 27.54500
H  12.67200 3.50500 27.25100
H  13.88000 4.11500 26.08700
H  14.46800 2.00800 31.96600
H  16.69600 5.09100 34.26400
H  16.33100 3.52900 34.94900
H  15.22800 4.91300 35.23100

