158

Mg 45.43100 4.65000 47.54200
C  43.43100 7.47900 47.43000
C  42.71200 2.77800 46.40500
C  47.34400 1.86700 47.70600
C  48.12500 6.53600 48.28300
N  43.37700 5.12700 46.82500
C  42.73500 6.29500 46.93400
C  41.20600 6.19500 46.55400
C  41.03800 4.65000 46.70100
C  42.50100 4.14000 46.54800
C  40.37300 4.06700 47.98400
C  40.93100 6.77500 45.14500
C  39.70100 7.68900 45.05800
H  38.62200 7.34600 44.02800
N  45.04000 2.56300 47.11800
C  43.87600 1.98700 46.71700
C  44.09800 0.53700 46.47100
C  45.42500 0.25200 46.74000
C  46.02000 1.59400 47.26700
C  42.94900 -0.38000 46.24200
C  46.09900 -1.07000 46.41500
O  45.47500 -1.98900 45.90700
C  47.60400 -1.24700 46.54900
N  47.45400 4.27800 47.77500
C  47.96000 3.01500 47.94600
C  49.42000 3.05200 48.44500
C  49.75400 4.62000 48.54300
C  48.36400 5.17500 48.21000
C  49.72700 2.28100 49.77500
C  50.84400 5.13300 47.57300
C  51.75900 6.30600 48.19900
N  45.75600 6.63900 47.77400
C  46.91400 7.28000 48.15900
C  46.58400 8.66400 48.49400
C  45.22600 8.80300 48.21100
C  44.78000 7.55500 47.78000
C  47.56400 9.69000 49.06400
C  44.12700 9.67800 48.24000
O  43.97900 10.83300 48.72700
C  42.88900 8.84400 47.65800
C  41.84500 8.96300 48.78300
O  42.04200 8.71800 49.95800
O  40.71100 9.39900 48.28200
C  39.67800 9.75900 49.26300
H  41.81400 2.22200 46.12500
H  47.85600 0.90900 47.81800
H  48.95800 7.14000 48.65000
H  40.66800 6.70300 47.35400
H  40.49500 4.25500 45.84300
H  40.07500 4.87100 48.65600
H  41.04000 3.40500 48.53700
H  39.43800 3.62900 47.63600
H  40.81400 5.90100 44.50300
H  41.78700 7.39100 44.87100
H  40.18000 8.64700 44.85500
H  39.22700 7.77000 46.03700
H  43.03600 -0.98000 45.33600
H  41.96500 0.08300 46.16900
H  42.83100 -1.01200 47.12200
H  47.87600 -2.26200 46.26000
H  47.93200 -1.22800 47.58800
H  48.09000 -0.45200 45.98300
H  49.98000 2.62900 47.61100
H  50.10100 4.85200 49.54900
H  48.79000 2.05400 50.28500
H  50.33000 2.75400 50.55100
H  50.20300 1.31200 49.62700
H  50.44200 5.38200 46.59100
H  51.50200 4.27600 47.42700
H  52.70700 6.54200 47.71400
H  51.95200 6.00500 49.22900
H  51.15700 7.20200 48.04500
H  48.21000 9.26800 49.83400
H  46.96200 10.48800 49.49700
H  48.24300 10.16100 48.35400
H  42.44200 9.27200 46.76100
H  39.40500 10.79300 49.05100
H  39.85200 9.71200 50.33800
H  38.81400 9.11500 49.10100
Mg 9.63800 48.23300 25.60000
C  7.68300 49.01700 28.30500
C  12.31000 49.08900 27.31000
C  11.41400 47.57500 22.85000
C  6.67800 47.86300 23.56100
N  9.89100 48.83500 27.68900
C  9.01200 49.09100 28.69700
C  9.66800 49.47300 30.03300
C  11.09000 49.84600 29.50400
C  11.11800 49.22100 28.07200
C  11.23000 51.47000 29.43200
C  9.77500 48.33700 31.10700
C  9.47500 48.76100 32.55400
H  8.84800 47.59400 33.37700
N  11.65200 48.01900 25.21300
C  12.59900 48.44100 26.07200
C  13.92100 48.26000 25.47500
C  13.70900 47.76400 24.14500
C  12.22000 47.80400 24.02500
C  15.15500 48.52900 26.22800
C  14.66300 47.36000 22.93200
O  14.20900 46.90700 21.87000
C  16.20600 47.39000 23.23500
N  9.11200 47.68300 23.47800
C  10.10800 47.49200 22.55000
C  9.51200 47.15900 21.15900
C  7.98300 47.07800 21.48900
C  7.89500 47.56500 22.95900
C  9.86200 48.19800 20.04800
C  7.24100 45.72900 21.30800
C  7.74100 44.51200 22.21300
N  7.61200 48.36700 25.83900
C  6.51600 48.19800 24.96700
C  5.28700 48.33000 25.73000
C  5.64400 48.75900 27.01800
C  7.08400 48.70500 27.04800
C  3.85500 48.13200 25.24100
C  5.15300 48.98700 28.33900
O  4.03600 49.00500 28.80800
C  6.47100 49.28200 29.25400
C  6.25700 48.38900 30.45000
O  6.43100 47.18600 30.46500
O  5.54700 49.03300 31.41300
C  4.96900 48.12300 32.45200
H  13.21100 49.43000 27.82400
H  11.95100 47.24200 21.96000
H  5.75500 47.97100 22.98900
H  9.13100 50.30200 30.49500
H  11.92400 49.44600 30.08200
H  10.30600 52.04900 29.42700
H  11.77300 51.75400 28.53000
H  11.82400 51.86500 30.25600
H  10.81100 48.00000 31.14400
H  9.37500 47.40500 30.70700
H  8.76300 49.58300 32.48200
H  10.43700 49.14800 32.89100
H  15.89400 47.77900 25.94700
H  15.01300 48.50500 27.30800
H  15.54600 49.52500 26.02100
H  16.48700 46.48600 23.77500
H  16.41800 48.39100 23.61200
H  16.70000 47.37300 22.26300
H  9.95600 46.21200 20.85300
H  7.42500 47.72500 20.81200
H  10.77500 48.71400 20.34600
H  9.07700 48.91900 19.81800
H  10.17300 47.65800 19.15400
H  7.43000 45.38900 20.28900
H  6.19200 45.97100 21.47900
H  6.90100 44.14300 22.80100
H  8.64200 44.80700 22.75100
H  8.03000 43.77900 21.46000
H  3.83400 47.92700 24.17100
H  3.23000 49.00000 25.45200
H  3.55100 47.26900 25.83300
H  6.51400 50.33200 29.54400
H  4.32200 48.71100 33.10400
H  5.72100 47.75800 33.15100
H  4.48700 47.28700 31.94600

