158

Mg -2.11400 17.68400 26.76100
C  -2.72100 15.56700 29.50000
C  -2.54400 20.40300 28.79800
C  -2.03200 19.60200 23.91100
C  -2.50300 14.88100 24.69200
N  -2.74100 17.88200 28.91500
C  -2.57000 16.92500 29.92400
C  -2.69400 17.49800 31.26800
C  -2.82300 18.97000 30.99900
C  -2.76900 19.14800 29.44400
C  -4.19900 19.53300 31.49200
C  -1.41800 17.14300 32.15100
C  -1.28900 17.94500 33.47400
H  -1.07800 17.17000 34.80600
N  -2.20700 19.70200 26.40400
C  -2.39600 20.65400 27.39500
C  -2.23700 21.95200 26.78500
C  -1.92500 21.73900 25.42700
C  -2.03600 20.28500 25.16100
C  -2.25700 23.26200 27.59800
C  -1.69900 22.83400 24.37900
O  -1.57700 22.54300 23.17000
C  -1.42800 24.24000 24.70300
N  -2.51800 17.33300 24.62800
C  -2.27800 18.25900 23.68200
C  -2.21700 17.69200 22.20800
C  -2.30700 16.14700 22.55000
C  -2.43700 16.13400 24.05000
C  -3.31500 18.18900 21.31500
C  -1.11300 15.27800 22.04200
C  0.14900 15.47400 22.76900
N  -2.48100 15.61300 26.96700
C  -2.56200 14.58100 26.04900
C  -2.76200 13.31600 26.78400
C  -2.76700 13.64900 28.13500
C  -2.67300 15.06000 28.19000
C  -3.00700 11.91900 26.18500
C  -3.00900 13.05800 29.44200
O  -3.27000 11.85900 29.72600
C  -3.00500 14.29400 30.37200
C  -1.98600 14.05100 31.33100
O  -0.77300 14.07600 31.10300
O  -2.60000 13.71900 32.55600
C  -1.71500 13.20900 33.60300
H  -2.40400 21.12200 29.60800
H  -1.82900 20.15400 22.99200
H  -2.43700 14.04300 23.99400
H  -3.60800 17.02100 31.62000
H  -2.00800 19.56100 31.41800
H  -4.68900 18.79000 32.12200
H  -4.83500 19.73100 30.63000
H  -4.03400 20.46300 32.03700
H  -0.46900 17.13600 31.61600
H  -1.57000 16.09500 32.40900
H  -2.14600 18.60500 33.61600
H  -0.37900 18.54300 33.49700
H  -2.98000 23.93700 27.14000
H  -1.27600 23.73400 27.53400
H  -2.49400 22.91300 28.60300
H  -2.39200 24.71900 24.87400
H  -0.88100 24.75200 23.91100
H  -0.87400 24.31100 25.63900
H  -1.18200 17.86600 21.91500
H  -3.19400 15.67000 22.13200
H  -3.88900 17.46400 20.73700
H  -2.91500 18.84700 20.54400
H  -4.00800 18.83200 21.85800
H  -0.93700 15.54000 20.99900
H  -1.37000 14.22100 21.98500
H  0.07900 15.93400 23.75500
H  0.86900 15.95300 22.10600
H  0.52900 14.47300 22.96900
H  -2.22200 11.80600 25.43700
H  -3.91000 12.02800 25.58500
H  -3.04000 11.23000 27.02900
H  -3.96100 14.33400 30.89400
H  -1.96100 13.71200 34.53800
H  -0.67400 13.49600 33.45700
H  -1.70600 12.12100 33.67000
Mg -12.13700 16.29500 41.51200
C  -9.07600 14.54700 41.20500
C  -10.69300 18.92100 39.78400
C  -15.07800 17.73400 41.42600
C  -13.62300 13.30800 42.85000
N  -10.06500 16.69200 40.71600
C  -8.98800 15.82100 40.72200
C  -7.83000 16.34400 39.95600
C  -8.33100 17.81900 39.70700
C  -9.77000 17.82600 40.01300
C  -7.60600 18.92100 40.58400
C  -7.62600 15.49000 38.73500
C  -6.19600 15.20400 38.37400
H  -5.49700 15.99300 37.37500
N  -12.75400 18.11900 40.86600
C  -12.05900 19.08700 40.12800
C  -12.84300 20.22100 39.78300
C  -14.05300 19.92500 40.29900
C  -14.00600 18.57900 40.98400
C  -12.32800 21.42800 39.02100
C  -15.27200 20.81100 40.18800
O  -15.28600 21.88800 39.63400
C  -16.57100 20.61600 40.95900
N  -14.12200 15.60200 41.93500
C  -15.17300 16.41100 41.85900
C  -16.45100 15.63300 42.20300
C  -15.99100 14.35400 42.85400
C  -14.45700 14.42100 42.57100
C  -17.48200 16.34800 43.06900
C  -16.55900 12.99700 42.28900
C  -16.79900 12.04000 43.38500
N  -11.64200 14.31900 41.89200
C  -12.27000 13.24800 42.48900
C  -11.33000 12.18600 42.58500
C  -10.12800 12.65400 42.14600
C  -10.28500 13.96800 41.80300
C  -11.67500 10.79400 43.00000
C  -8.72200 12.21600 42.01900
O  -8.07300 11.24200 42.33600
C  -8.07900 13.45300 41.39400
C  -6.97000 13.81500 42.22800
O  -7.09500 14.00400 43.45700
O  -5.75400 13.75300 41.58800
C  -4.45300 14.09500 42.20300
H  -10.28000 19.75200 39.20800
H  -16.05400 18.17800 41.22000
H  -14.00000 12.36800 43.25900
H  -6.91200 16.34000 40.54300
H  -8.26700 18.17000 38.67700
H  -8.28600 19.22500 41.38000
H  -7.34500 19.75400 39.93100
H  -6.62100 18.65400 40.96600
H  -7.96600 16.02200 37.84600
H  -8.15500 14.53900 38.67700
H  -6.23100 14.20200 37.94700
H  -5.55700 15.16600 39.25600
H  -12.79000 22.36300 39.33800
H  -12.54800 21.33400 37.95700
H  -11.26700 21.48500 39.26200
H  -17.04000 19.78900 40.42500
H  -17.29500 21.43000 40.93400
H  -16.27400 20.47600 41.99900
H  -16.88700 15.52400 41.21000
H  -16.19400 14.36800 43.92500
H  -17.77900 15.97700 44.05000
H  -18.38600 16.46400 42.47200
H  -17.18300 17.38300 43.23500
H  -15.73400 12.59700 41.69900
H  -17.39600 13.13900 41.60500
H  -16.46200 12.38800 44.36100
H  -16.29700 11.09600 43.17600
H  -17.83700 11.71500 43.45600
H  -11.83200 10.20500 42.09700
H  -12.61600 10.74800 43.54800
H  -10.97600 10.28100 43.66100
H  -7.68800 13.09500 40.44200
H  -4.33200 15.16700 42.36100
H  -3.65000 13.93700 41.48300
H  -4.32600 13.50600 43.11100

