158

Mg 25.77300 -7.33300 47.38800
C  28.08300 -4.94900 46.34300
C  23.47500 -6.03400 45.04300
C  23.82000 -10.16100 47.79800
C  28.27900 -8.78100 49.38900
N  25.85700 -5.74200 45.90700
C  26.91200 -4.88000 45.66100
C  26.51600 -3.75300 44.60700
C  24.99900 -4.10200 44.38700
C  24.69400 -5.33600 45.25500
C  24.02800 -2.89500 44.57000
C  27.35700 -3.90400 43.30400
C  27.86900 -2.51600 42.70700
H  27.66400 -2.23600 41.19700
N  23.90400 -8.00800 46.60600
C  23.13900 -7.30100 45.66200
C  21.98400 -8.06400 45.33600
C  22.02100 -9.31500 46.06600
C  23.28400 -9.19900 46.92400
C  20.99200 -7.68000 44.24000
C  21.01900 -10.41300 45.94700
O  20.15600 -10.41100 45.08300
C  21.10300 -11.48400 46.87400
N  26.03800 -9.16000 48.46400
C  25.01900 -10.09400 48.55100
C  25.49100 -11.28900 49.56800
C  26.65400 -10.50900 50.31200
C  27.11100 -9.47900 49.29900
C  24.35400 -11.79600 50.51100
C  27.74600 -11.55900 50.61300
C  28.55600 -12.20000 49.56600
N  27.84600 -6.97200 47.78700
C  28.74300 -7.62000 48.63200
C  30.01100 -6.84800 48.59800
C  29.78900 -5.72400 47.74400
C  28.42900 -5.92500 47.26200
C  31.24300 -7.10700 49.39500
C  30.31600 -4.52900 47.16300
O  31.36600 -3.94800 47.23500
C  29.27000 -4.03200 46.18300
C  28.84700 -2.70400 46.58900
O  28.18000 -2.38200 47.54100
O  29.51200 -1.84300 45.84700
C  29.06000 -0.46100 45.69500
H  22.83300 -5.52100 44.32500
H  23.28500 -11.10500 47.92100
H  28.97000 -9.18600 50.13100
H  26.68000 -2.74700 44.99400
H  24.75900 -4.44300 43.38000
H  24.57900 -1.95600 44.51200
H  23.61100 -3.00800 45.57100
H  23.25300 -2.89100 43.80400
H  26.74800 -4.44500 42.58000
H  28.23400 -4.54800 43.37700
H  28.92900 -2.57300 42.95500
H  27.53400 -1.69200 43.33700
H  21.30300 -7.95800 43.23400
H  20.94800 -6.59200 44.29000
H  19.97500 -8.03800 44.40000
H  21.25900 -11.18900 47.91100
H  21.85400 -12.16700 46.47700
H  20.17100 -12.04300 46.78700
H  25.88900 -12.04200 48.88700
H  26.25700 -9.93600 51.15100
H  24.38900 -11.34300 51.50200
H  24.34500 -12.88300 50.58500
H  23.37000 -11.57100 50.09900
H  27.39000 -12.37100 51.24800
H  28.33400 -11.00000 51.34100
H  28.49200 -11.60500 48.65500
H  28.36600 -13.24200 49.30900
H  29.58100 -12.25800 49.93400
H  31.72800 -6.14300 49.55100
H  31.84900 -7.71600 48.72400
H  31.06900 -7.46300 50.41000
H  29.63600 -3.98300 45.15800
H  27.98200 -0.42600 45.85700
H  29.37000 -0.06600 44.72700
H  29.57300 0.12500 46.45800
Mg 26.15500 0.57100 29.10700
C  27.84900 -0.04100 32.07100
C  23.25800 0.93300 30.92100
C  24.50600 0.83900 26.13300
C  29.07700 -0.32700 27.26900
N  25.64900 0.57300 31.33300
C  26.49100 0.34800 32.32200
C  25.80400 0.80900 33.72800
C  24.34900 0.92900 33.30100
C  24.36500 0.78700 31.75200
C  23.30700 0.04600 34.02300
C  26.41500 2.03700 34.44800
C  26.22900 2.19000 35.99200
H  27.37000 2.49400 36.91700
N  24.19800 0.89800 28.63700
C  23.12500 0.91000 29.50100
C  21.86700 1.15000 28.72000
C  22.18800 1.14600 27.36400
C  23.67300 0.96800 27.36200
C  20.50700 1.15400 29.44400
C  21.33200 1.20000 26.12200
O  21.75500 1.05600 24.97000
C  19.84700 1.33800 26.22100
N  26.78900 0.42700 26.97100
C  25.90000 0.54000 25.96600
C  26.46900 0.11400 24.54800
C  27.99000 -0.01000 24.95700
C  27.98100 -0.02200 26.46900
C  25.80500 -1.11200 23.97600
C  28.83500 1.20300 24.36000
C  30.28200 0.85200 24.08500
N  27.99600 -0.23000 29.53900
C  29.08800 -0.47600 28.69600
C  30.24500 -0.83600 29.44900
C  29.84200 -0.60200 30.80200
C  28.47500 -0.34000 30.79000
C  31.67700 -1.15500 28.91800
C  30.19600 -0.56800 32.21500
O  31.26800 -0.73700 32.75900
C  28.94600 -0.18900 33.04000
C  28.61600 -1.27500 33.98700
O  28.00300 -2.28300 33.68000
O  29.05400 -0.99400 35.26300
C  28.91300 -2.09000 36.23500
H  22.38000 1.25200 31.48600
H  24.12900 1.01800 25.12400
H  30.00000 -0.67200 26.79900
H  25.84000 -0.08100 34.35700
H  24.00200 1.93700 33.53000
H  22.79700 0.78300 34.64200
H  23.70600 -0.78400 34.60700
H  22.71600 -0.45200 33.25500
H  25.87500 2.84300 33.95200
H  27.47500 2.07500 34.19500
H  25.82600 1.21200 36.25600
H  25.45800 2.93300 36.19400
H  19.78400 1.82600 28.98100
H  20.65600 1.52400 30.45900
H  20.17800 0.11900 29.53200
H  19.61500 2.34000 26.58100
H  19.40500 0.45700 26.68600
H  19.35400 1.28600 25.25000
H  26.32800 0.97200 23.89100
H  28.44300 -0.92300 24.57100
H  24.97500 -1.44600 24.59800
H  26.53000 -1.90400 23.78700
H  25.46600 -0.87100 22.96800
H  28.89100 1.96100 25.14100
H  28.41500 1.55500 23.41800
H  31.00000 1.66300 24.20800
H  30.42700 0.34800 23.13000
H  30.58800 0.02900 24.73200
H  31.56200 -1.82300 28.06500
H  32.28700 -1.56900 29.72200
H  32.09800 -0.21500 28.55900
H  29.10800 0.73200 33.59900
H  28.06300 -2.74600 36.04500
H  28.79800 -1.63700 37.21900
H  29.79800 -2.72600 36.22000

