158

Mg 1.70300 -1.12900 43.88200
C  4.99400 0.02300 43.28600
C  0.60100 1.88500 42.75800
C  -1.38800 -2.47900 43.90400
C  3.11300 -4.24200 44.73600
N  2.72300 0.72800 43.19700
C  4.06900 0.95300 42.99700
C  4.33100 2.41400 42.64700
C  2.87600 3.01400 42.68300
C  1.94900 1.78600 42.82900
C  2.59300 4.14100 43.80100
C  5.02800 2.49300 41.23900
C  5.81100 3.70700 40.86500
H  5.52100 4.52200 39.55300
N  -0.14400 -0.32500 43.47900
C  -0.43800 0.93800 43.04300
C  -1.88900 1.08500 42.90200
C  -2.43900 -0.20900 43.19200
C  -1.27900 -1.06900 43.59900
C  -2.54200 2.35200 42.57000
C  -3.92000 -0.56900 43.19600
O  -4.73400 0.31900 42.76400
C  -4.53500 -1.84400 43.78400
N  0.90800 -3.11900 44.17800
C  -0.39800 -3.36200 44.26600
C  -0.68500 -4.85600 44.70200
C  0.78700 -5.39500 44.95100
C  1.68800 -4.20000 44.62200
C  -1.72500 -5.02300 45.83300
C  1.32200 -6.50900 44.08300
C  1.68500 -7.89200 44.77500
N  3.59400 -1.98400 43.99400
C  3.97600 -3.22600 44.48200
C  5.40900 -3.24700 44.51200
C  5.80900 -2.02000 44.06300
C  4.74500 -1.30500 43.70300
C  6.17900 -4.43300 44.85400
C  6.95000 -1.15600 43.88900
O  8.15700 -1.32000 44.05800
C  6.48400 0.16800 43.24800
C  7.00000 1.25200 44.14100
O  6.62400 1.39500 45.29100
O  7.86400 2.13800 43.53700
C  8.32100 3.31200 44.39700
H  0.22400 2.83500 42.37400
H  -2.42400 -2.72000 44.15100
H  3.60800 -5.14800 45.09300
H  4.93000 2.94500 43.38700
H  2.71600 3.47800 41.71000
H  3.49400 4.36200 44.37400
H  1.89600 3.82400 44.57700
H  2.31900 5.09100 43.34100
H  4.23200 2.49500 40.49400
H  5.57100 1.57600 41.01200
H  6.83800 3.44100 40.61600
H  5.87000 4.39100 41.71100
H  -1.82200 3.14700 42.37600
H  -3.20800 2.55000 43.41000
H  -3.25700 2.24000 41.75500
H  -5.59500 -1.59600 43.72600
H  -4.20600 -2.09200 44.79300
H  -4.30000 -2.72500 43.18600
H  -0.96900 -5.52400 43.88900
H  1.02300 -5.56100 46.00300
H  -2.26000 -4.09600 46.03800
H  -1.17500 -5.40300 46.69400
H  -2.57800 -5.67700 45.64600
H  2.15100 -6.33000 43.39800
H  0.54700 -6.83800 43.39100
H  0.79400 -8.46000 45.04300
H  2.23700 -7.74800 45.70300
H  2.31600 -8.53200 44.15800
H  5.97700 -5.26100 44.17500
H  6.05500 -4.71100 45.90100
H  7.23800 -4.17600 44.84000
H  6.89500 0.23200 42.24000
H  8.52900 3.13900 45.45300
H  7.58500 4.10200 44.54600
H  9.18600 3.77500 43.92200
Mg 5.76200 53.86400 41.26800
C  5.49800 50.44700 40.60200
C  8.99400 53.76700 40.24500
C  5.74900 57.14600 41.45600
C  2.32800 53.86800 42.05700
N  6.99400 52.32000 40.30500
C  6.72700 50.98900 40.18900
C  7.92300 50.31400 39.55300
C  9.11800 51.25700 39.89900
C  8.35000 52.52600 40.11000
C  10.11100 50.79300 40.98700
C  7.96500 49.94000 38.04200
C  7.18000 50.83800 37.05400
H  6.26400 50.12300 36.03200
N  7.13700 55.27000 40.63800
C  8.42400 55.00700 40.41100
C  9.15800 56.28200 40.21800
C  8.25500 57.27800 40.61500
C  6.96700 56.57900 40.91400
C  10.64700 56.36900 39.91200
C  8.55500 58.73400 40.73500
O  9.70200 59.11100 40.57600
C  7.52900 59.86100 41.21500
N  4.22700 55.25500 41.56000
C  4.55900 56.55200 41.79600
C  3.39200 57.29600 42.44200
C  2.24100 56.34700 42.03000
C  3.00300 55.05100 41.95600
C  3.54200 57.65700 43.93900
C  1.56200 56.62300 40.68300
C  -0.02100 56.84100 40.70000
N  4.22300 52.43600 41.44000
C  2.90400 52.60200 41.91500
C  2.29200 51.32100 41.93700
C  3.25500 50.44700 41.45100
C  4.38100 51.18000 41.11200
C  0.89400 50.92000 42.54600
C  3.52400 49.02200 41.22400
O  2.82600 48.04800 41.43700
C  4.98300 48.95800 40.75100
C  5.14700 47.96700 39.70400
O  4.67000 48.01700 38.61400
O  5.66600 46.80700 40.27000
C  5.60100 45.61200 39.38400
H  10.04700 53.59000 40.01700
H  5.75100 58.20200 41.73300
H  1.25300 53.90400 42.24000
H  7.93800 49.42600 40.18500
H  9.82900 51.46300 39.09900
H  9.70800 49.84100 41.33300
H  10.19300 51.38700 41.89700
H  11.07400 50.78100 40.47600
H  7.55600 48.92900 38.03000
H  8.96800 49.95500 37.61700
H  7.96800 51.22900 36.41000
H  6.76500 51.75700 37.46800
H  10.78100 57.21300 39.23500
H  11.02600 55.45400 39.45700
H  11.18600 56.53700 40.84400
H  6.87000 60.05800 40.36900
H  8.09800 60.75100 41.48400
H  7.01000 59.59700 42.13600
H  3.23100 58.26500 41.96800
H  1.46500 56.28500 42.79300
H  3.62500 58.73600 44.06900
H  4.51200 57.38100 44.35200
H  2.71200 57.19000 44.47000
H  1.58900 55.69400 40.11400
H  1.95200 57.49100 40.15200
H  -0.48900 55.87600 40.50700
H  -0.25300 57.46200 39.83500
H  -0.33300 57.37700 41.59700
H  0.51300 51.90300 42.82300
H  0.93800 50.14000 43.30600
H  0.21900 50.61800 41.74500
H  5.52000 48.54800 41.60600
H  6.10400 45.84200 38.44500
H  4.54400 45.40800 39.21200
H  6.15100 44.78900 39.84000

