158

Mg 16.82900 -1.22100 28.54200
C  15.82600 0.53400 31.30900
C  18.96200 -2.96600 30.57200
C  18.18300 -2.59600 25.77100
C  14.95600 0.86500 26.48200
N  17.32000 -1.14000 30.72700
C  16.82400 -0.43000 31.65000
C  17.31500 -0.81500 33.04700
C  18.63900 -1.60000 32.75100
C  18.36400 -1.88900 31.30600
C  20.06200 -1.10100 33.13600
C  16.28900 -1.39800 34.02000
C  16.31800 -0.77300 35.44600
H  17.61600 -0.22100 35.93000
N  18.28600 -2.68500 28.28700
C  19.06300 -3.34800 29.21900
C  19.99500 -4.25700 28.47000
C  19.68400 -4.21500 27.10800
C  18.69100 -3.14000 26.97800
C  21.06300 -5.13800 29.22900
C  20.26800 -5.07600 25.90400
O  19.89600 -5.07800 24.72700
C  21.39800 -6.02400 26.13800
N  16.55600 -0.98400 26.37900
C  17.25100 -1.61000 25.48100
C  16.86200 -1.18400 24.06800
C  15.69600 -0.25700 24.27800
C  15.75000 -0.04200 25.80200
C  18.09500 -0.60600 23.16800
C  14.26700 -0.70600 23.85000
C  14.02300 -0.66800 22.34200
N  15.67300 0.37500 28.74100
C  14.93200 1.09500 27.85000
C  14.07200 2.10400 28.55200
C  14.38600 1.83600 29.90300
C  15.37400 0.81100 29.98500
C  13.12400 3.17300 27.93000
C  14.07700 2.20100 31.29700
O  13.20800 2.98900 31.70700
C  14.98600 1.44000 32.20000
C  15.88200 2.41200 32.82100
O  16.93200 2.76400 32.39300
O  15.25800 2.90000 33.94600
C  16.11800 3.80500 34.75600
H  19.69000 -3.56400 31.12500
H  18.55500 -3.05900 24.85500
H  14.48300 1.62200 25.85300
H  17.72600 0.09500 33.48700
H  18.44900 -2.52100 33.30200
H  20.57500 -0.78800 32.22600
H  20.61700 -1.88400 33.65400
H  19.93300 -0.24100 33.79300
H  16.33500 -2.48300 34.11100
H  15.30800 -1.29700 33.55500
H  16.02400 -1.50600 36.19700
H  15.58800 0.03200 35.36800
H  21.21600 -4.86700 30.27400
H  21.99300 -4.81300 28.76400
H  20.86600 -6.20800 29.17200
H  22.34200 -5.50900 26.31700
H  21.51600 -6.59100 25.21400
H  21.11700 -6.71200 26.93500
H  16.46200 -2.11700 23.67100
H  15.96600 0.68700 23.80600
H  18.59100 -1.44900 22.68700
H  18.85900 -0.22700 23.84800
H  17.61200 0.09800 22.49000
H  13.54900 0.00600 24.25600
H  14.07600 -1.76000 24.05100
H  13.37100 0.13800 22.00500
H  13.67900 -1.64700 22.00700
H  14.95700 -0.45300 21.82500
H  13.61600 3.56600 27.04000
H  12.96600 4.06800 28.53200
H  12.20400 2.66800 27.63500
H  14.39400 0.92200 32.95500
H  16.02100 3.52000 35.80300
H  15.81200 4.83400 34.57100
H  17.16600 3.67600 34.48600
Mg -11.33700 38.29500 41.98300
C  -8.88400 35.70400 41.61000
C  -9.29600 40.15000 39.88200
C  -13.89500 40.44100 41.58400
C  -13.41400 35.90900 43.35400
N  -9.30700 37.91200 40.77000
C  -8.44900 36.90900 41.00300
C  -7.12200 37.17100 40.30200
C  -7.23000 38.64400 39.78900
C  -8.69600 38.96000 40.18700
C  -6.31400 39.67700 40.38200
C  -6.76400 36.15100 39.12400
C  -5.29500 35.80800 38.82600
H  -4.50200 36.28200 37.57500
N  -11.52700 40.08900 41.01100
C  -10.56900 40.71600 40.22600
C  -11.06400 42.01700 39.99100
C  -12.35600 42.17300 40.51400
C  -12.67400 40.85200 41.04900
C  -10.31600 43.10900 39.21300
C  -13.24500 43.48500 40.49700
O  -12.81600 44.52400 40.06000
C  -14.66800 43.60600 41.08300
N  -13.37500 38.19300 42.25600
C  -14.25400 39.21400 42.16600
C  -15.65500 38.86000 42.61600
C  -15.55700 37.31200 42.89700
C  -13.99500 37.10900 42.84400
C  -16.16200 39.65200 43.88100
C  -16.34900 36.38300 42.00500
C  -17.74900 35.96100 42.53500
N  -11.20600 36.23500 42.51200
C  -12.10200 35.46600 43.14800
C  -11.50300 34.13500 43.38300
C  -10.21300 34.21200 42.77900
C  -10.09100 35.52100 42.23700
C  -12.18300 33.10400 44.18800
C  -8.99200 33.47200 42.59300
O  -8.64300 32.32600 42.97900
C  -8.09800 34.42100 41.75300
C  -6.77400 34.56500 42.36900
O  -5.95400 33.63000 42.36000
O  -6.66200 35.62400 43.15000
C  -5.45700 35.71600 43.97300
H  -8.80000 40.87800 39.23600
H  -14.76600 41.09700 41.54100
H  -14.14700 35.26400 43.84400
H  -6.44400 37.16600 41.15600
H  -7.13500 38.78700 38.71300
H  -5.56900 39.81700 39.59800
H  -5.76800 39.29400 41.24400
H  -6.72700 40.68400 40.42900
H  -7.01400 36.66400 38.19500
H  -7.50800 35.35600 39.08100
H  -5.23300 34.72500 38.93300
H  -4.81200 36.23200 39.70600
H  -9.55400 42.72000 38.53800
H  -9.78400 43.86300 39.79300
H  -11.01800 43.66000 38.58600
H  -14.69800 43.08200 42.03800
H  -15.16500 42.94400 40.37400
H  -15.11400 44.59300 40.95600
H  -16.37100 39.10600 41.83200
H  -15.93400 37.01200 43.87500
H  -16.84900 40.47900 43.70200
H  -15.26700 40.00500 44.39300
H  -16.58000 38.97900 44.62900
H  -15.71400 35.55300 41.69600
H  -16.59600 36.92000 41.08900
H  -18.33900 36.87200 42.43200
H  -17.84200 35.58700 43.55400
H  -18.04800 35.10200 41.93400
H  -12.32500 32.17400 43.63800
H  -13.12400 33.48300 44.58800
H  -11.71200 32.83700 45.13300
H  -7.95200 33.98500 40.76500
H  -4.71200 35.08100 43.49400
H  -5.67900 35.30600 44.95800
H  -5.25100 36.78100 44.07300

