158

Mg 41.02800 8.09600 29.08200
C  42.64200 9.06900 32.01600
C  38.66600 6.68400 31.01000
C  39.50500 6.85400 26.21600
C  43.66900 9.30400 27.16100
N  40.69000 8.10200 31.28600
C  41.45500 8.45900 32.30400
C  40.69500 8.31700 33.67500
C  39.41600 7.53700 33.31500
C  39.60700 7.45200 31.77300
C  39.28300 6.08900 33.93300
C  40.32700 9.75300 34.21900
C  39.30400 9.93700 35.29300
H  39.75000 10.93700 36.40000
N  39.27100 6.95900 28.70500
C  38.43100 6.41400 29.67200
C  37.44200 5.67900 29.02900
C  37.57800 5.87800 27.65900
C  38.82700 6.59100 27.48700
C  36.36100 5.05800 29.79100
C  36.53500 5.59300 26.55400
O  36.74900 5.92000 25.38900
C  35.15900 4.95300 26.88700
N  41.45900 8.15800 26.89500
C  40.78400 7.52000 25.98300
C  41.50300 7.61300 24.64500
C  42.78000 8.52500 24.94400
C  42.66100 8.70000 26.44400
C  41.93400 6.20300 24.02400
C  43.01000 9.78200 24.02600
C  42.93900 11.15000 24.63200
N  42.85500 8.99300 29.42000
C  43.81500 9.44800 28.52300
C  44.94700 10.01200 29.29900
C  44.44200 9.98600 30.64900
C  43.25600 9.28400 30.67200
C  46.17500 10.75200 28.79100
C  44.79700 10.37800 32.04300
O  45.80700 10.89300 32.47600
C  43.57500 9.85500 32.96100
C  44.19000 9.06700 34.01900
O  44.95300 8.11200 33.80500
O  43.55200 9.31200 35.17700
C  43.84100 8.36800 36.30400
H  37.97400 6.14600 31.66100
H  39.14800 6.45600 25.26400
H  44.39000 9.70400 26.44500
H  41.22600 7.84700 34.50300
H  38.49100 8.08200 33.50400
H  39.54500 5.27800 33.25300
H  38.24000 5.94600 34.21400
H  39.80900 6.10300 34.88700
H  40.12600 10.41200 33.37400
H  41.26000 10.10600 34.65900
H  38.78400 9.09200 35.74400
H  38.49800 10.50500 34.82700
H  36.54700 5.09200 30.86400
H  36.27600 3.99600 29.56000
H  35.43700 5.61400 29.63200
H  35.13200 4.05300 27.50100
H  34.73700 4.56600 25.96000
H  34.49900 5.78100 27.14500
H  40.91400 8.03400 23.83100
H  43.63200 7.84500 24.92300
H  41.39800 6.05200 23.08700
H  41.74000 5.43300 24.77000
H  42.99300 6.05000 23.81500
H  42.27600 9.63300 23.23400
H  44.01700 9.73400 23.61100
H  42.53500 10.99400 25.63200
H  42.25700 11.78500 24.06700
H  43.88600 11.68900 24.61200
H  45.92900 11.45600 27.99600
H  46.79800 10.05600 28.23000
H  46.72900 11.25200 29.58600
H  43.08700 10.74800 33.35100
H  44.89600 8.43900 36.56900
H  43.59500 7.31900 36.14200
H  43.21000 8.76500 37.09900
Mg 9.41900 47.85500 26.41600
C  7.62200 48.00200 29.39300
C  12.16800 49.00400 28.09000
C  11.22300 47.68200 23.59400
C  6.45800 47.33900 24.74800
N  9.79600 48.36300 28.52000
C  8.88500 48.45900 29.54200
C  9.54600 49.00400 30.83300
C  10.86000 49.62400 30.24600
C  10.96700 48.92800 28.88600
C  10.81800 51.15700 30.14100
C  9.87000 47.74100 31.74400
C  9.48300 47.86200 33.18600
H  9.29300 46.54300 34.01000
N  11.43900 48.16700 25.92700
C  12.38000 48.56600 26.77800
C  13.64400 48.57800 26.14900
C  13.40500 48.25900 24.82400
C  12.01300 48.02100 24.69100
C  14.93600 48.94100 26.88800
C  14.35500 48.05600 23.69000
O  13.97800 47.86900 22.52900
C  15.87400 48.30500 23.86200
N  8.95100 47.80100 24.43000
C  9.83100 47.58100 23.40100
C  9.23500 47.32300 22.04800
C  7.71800 47.18700 22.41700
C  7.67600 47.35200 24.01000
C  9.62900 48.48100 21.04700
C  7.06100 45.95400 21.88000
C  5.72100 46.22000 21.27300
N  7.43300 47.75500 26.91300
C  6.34600 47.63300 26.10500
C  5.13400 47.56700 26.90900
C  5.59800 47.77900 28.22500
C  7.00100 47.78500 28.16800
C  3.74600 47.27800 26.44200
C  5.22300 47.87000 29.68400
O  4.08700 47.84900 30.17100
C  6.52100 47.89100 30.52100
C  6.60900 46.57500 31.24900
O  7.06100 45.57400 30.86500
O  6.01500 46.76300 32.52600
C  5.64600 45.56100 33.33800
H  12.95000 49.44500 28.71200
H  11.66700 47.45300 22.62300
H  5.56500 47.11900 24.15800
H  8.81100 49.66200 31.29700
H  11.73700 49.39000 30.84900
H  10.77200 51.48600 29.10300
H  11.67000 51.62000 30.63800
H  10.01100 51.53400 30.76900
H  10.95900 47.70800 31.71200
H  9.49800 46.83400 31.26700
H  8.61700 48.48700 33.40300
H  10.26600 48.48100 33.62400
H  14.85300 48.92000 27.97500
H  15.21700 49.92900 26.52300
H  15.85500 48.37200 26.74400
H  16.01400 49.30500 24.27300
H  16.31100 48.20200 22.86900
H  16.31200 47.54300 24.50600
H  9.56900 46.40000 21.57200
H  7.17500 48.03600 22.00100
H  8.88400 49.23600 20.79500
H  10.08500 48.05600 20.15300
H  10.53200 48.94100 21.44600
H  6.75400 45.24800 22.65200
H  7.70700 45.54900 21.10100
H  5.75600 46.46000 20.21000
H  5.33000 47.11200 21.76200
H  5.00300 45.42700 21.48300
H  3.07900 48.11600 26.64300
H  3.45600 46.46200 27.10400
H  3.69600 47.15000 25.36100
H  6.39900 48.78500 31.13200
H  4.57600 45.63400 33.53300
H  6.28300 45.39400 34.20600
H  5.65200 44.62700 32.77600

