158

Mg -11.75200 17.16000 42.03700
C  -8.56100 15.73200 41.65900
C  -10.54500 20.15500 40.78400
C  -14.85300 18.04200 41.49600
C  -12.88300 13.76700 42.44800
N  -9.74900 17.85100 41.32100
C  -8.60100 17.13800 41.29400
C  -7.43200 18.01400 40.77800
C  -8.09400 19.46800 41.05300
C  -9.57100 19.10800 40.97200
C  -7.75000 20.21600 42.31500
C  -7.13100 17.69200 39.32000
C  -5.71300 17.35800 38.99700
H  -5.01200 18.12100 37.89500
N  -12.56500 18.90900 41.36100
C  -11.91500 20.07200 41.01600
C  -12.86700 21.16000 40.85500
C  -14.14400 20.57200 40.97900
C  -13.87000 19.10500 41.27800
C  -12.48400 22.53900 40.39900
C  -15.49900 21.26900 40.90300
O  -15.62000 22.52000 40.78000
C  -16.79400 20.53900 40.92300
N  -13.58000 16.06500 41.99400
C  -14.72000 16.70400 41.80300
C  -15.96800 15.84800 41.98100
C  -15.40200 14.44200 42.28900
C  -13.86600 14.74600 42.33400
C  -16.97000 16.45300 42.98900
C  -15.86300 13.35200 41.26600
C  -16.79300 12.27100 41.78900
N  -10.87500 15.17500 42.22900
C  -11.50600 13.94000 42.49900
C  -10.41000 12.90800 42.67600
C  -9.23200 13.60000 42.37400
C  -9.59500 14.91700 42.10900
C  -10.61400 11.49100 42.96500
C  -7.81500 13.37700 42.27500
O  -7.05800 12.39800 42.42000
C  -7.32400 14.76700 41.73800
C  -6.36800 15.33900 42.65500
O  -6.68300 15.80400 43.72800
O  -5.08400 15.28100 42.20300
C  -4.03000 15.86400 43.16100
H  -10.09500 21.12700 40.57100
H  -15.89700 18.22800 41.23200
H  -13.03100 12.68700 42.38100
H  -6.60400 17.94200 41.48300
H  -7.76900 20.13700 40.25500
H  -6.81000 20.71600 42.08300
H  -7.53900 19.56800 43.16600
H  -8.52200 20.95600 42.52700
H  -7.43700 18.52600 38.68800
H  -7.76400 16.86600 38.99400
H  -5.65500 16.27300 38.91900
H  -5.09900 17.54800 39.87800
H  -12.41700 22.38300 39.32300
H  -11.48400 22.72700 40.79000
H  -13.18200 23.28000 40.78800
H  -17.54900 21.32100 41.01100
H  -16.80300 19.93800 41.83200
H  -16.88400 20.08100 39.93800
H  -16.49500 15.87800 41.02700
H  -15.64900 14.17800 43.31700
H  -17.99200 16.46300 42.61000
H  -16.71600 17.48600 43.22800
H  -16.99000 15.94500 43.95400
H  -14.99900 12.84800 40.83200
H  -16.39000 13.82400 40.43700
H  -17.06800 12.46000 42.82600
H  -16.31200 11.30000 41.90900
H  -17.75300 12.24400 41.27300
H  -9.89700 11.18500 43.72700
H  -10.69500 10.91800 42.04100
H  -11.61000 11.43400 43.40400
H  -6.80700 14.66700 40.78400
H  -4.00600 16.95000 43.25000
H  -3.11300 15.36000 42.85400
H  -4.29000 15.51100 44.15900
Mg -6.25700 25.86200 26.17600
C  -4.92800 27.35300 29.00300
C  -7.69300 23.45000 28.17600
C  -7.04100 24.13900 23.49000
C  -4.55300 28.18000 24.21900
N  -6.36300 25.49200 28.35800
C  -5.79000 26.31900 29.34000
C  -6.10300 25.72600 30.74400
C  -6.74100 24.34100 30.35400
C  -6.90000 24.40800 28.83500
C  -5.88600 23.01100 30.71800
C  -6.91000 26.76600 31.56700
C  -7.81800 26.31100 32.74600
H  -7.32200 25.32200 33.80800
N  -7.45100 24.22300 25.83600
C  -7.98700 23.32700 26.80500
C  -8.91700 22.46300 26.16200
C  -8.78300 22.55000 24.72700
C  -7.70100 23.62000 24.66200
C  -9.75300 21.57200 26.99100
C  -9.28000 21.70900 23.56000
O  -9.15200 22.00100 22.40800
C  -10.12000 20.50800 23.93400
N  -5.69700 25.99900 24.16500
C  -6.22200 25.22200 23.20400
C  -5.86700 25.63700 21.76600
C  -5.28900 27.10800 22.05000
C  -5.26500 27.17100 23.56100
C  -4.86500 24.60000 21.23200
C  -6.23500 28.14600 21.48400
C  -5.72100 28.77000 20.13400
N  -5.03900 27.46400 26.48500
C  -4.45800 28.31300 25.61000
C  -3.76600 29.38200 26.34900
C  -3.81300 28.95300 27.69500
C  -4.65800 27.81500 27.68500
C  -3.04100 30.52400 25.76500
C  -3.22700 29.14300 28.98900
O  -2.32300 29.82100 29.39400
C  -4.00400 28.09000 29.92000
C  -3.09900 27.14900 30.67400
O  -2.47900 26.16000 30.27400
O  -3.32600 27.44600 31.99600
C  -2.65500 26.49700 32.91500
H  -8.16000 22.59500 28.66800
H  -7.48300 23.78900 22.55500
H  -4.11900 28.98600 23.62200
H  -5.16200 25.43900 31.21200
H  -7.75400 24.36100 30.75500
H  -5.36400 23.12100 31.66800
H  -5.21100 22.63700 29.94700
H  -6.71700 22.33300 30.91200
H  -7.74000 26.90500 30.87400
H  -6.50000 27.76500 31.71200
H  -8.66100 25.83400 32.24600
H  -7.99400 27.23200 33.30200
H  -10.77100 21.59300 26.60300
H  -9.95100 21.93500 28.00000
H  -9.34500 20.56200 26.96500
H  -10.42400 20.01400 23.01100
H  -11.03700 20.94300 24.33400
H  -9.53400 19.78700 24.50500
H  -6.73800 25.56800 21.11400
H  -4.28500 27.06900 21.62900
H  -4.10700 24.33900 21.97100
H  -4.34100 25.11200 20.42500
H  -5.38500 23.76800 20.75800
H  -6.42900 28.90000 22.24700
H  -7.23500 27.77200 21.26700
H  -5.62600 29.85500 20.08100
H  -6.33100 28.43600 19.29500
H  -4.69500 28.43600 19.97500
H  -3.27300 31.36400 26.42000
H  -3.39100 30.77800 24.76500
H  -1.95600 30.47100 25.86200
H  -4.57000 28.74700 30.58000
H  -1.61200 26.69500 33.16400
H  -2.71800 25.48800 32.50800
H  -3.33700 26.46700 33.76500

