158

Mg 25.79100 0.90900 28.81400
C  27.62600 0.38100 31.77800
C  23.03000 1.16600 30.78800
C  24.01800 1.19500 26.02500
C  28.59900 0.12900 26.97700
N  25.40100 0.70100 31.08400
C  26.30300 0.52200 32.11700
C  25.58100 0.57600 33.49600
C  24.09300 0.67100 33.05200
C  24.13500 0.90200 31.57600
C  23.29800 -0.61500 33.45700
C  26.10400 1.85100 34.26700
C  25.39100 2.27800 35.58300
H  26.24000 2.12300 36.85300
N  23.81400 1.14200 28.40900
C  22.77100 1.23200 29.36700
C  21.51700 1.30600 28.57700
C  21.84000 1.52400 27.24300
C  23.25600 1.28100 27.19900
C  20.21300 1.36100 29.28100
C  20.92800 1.74900 26.00300
O  21.38600 1.72100 24.86500
C  19.48800 1.91400 26.18800
N  26.27400 0.67200 26.76900
C  25.34000 0.85700 25.80900
C  25.90600 0.68600 24.39900
C  27.37200 0.29000 24.65100
C  27.41000 0.34600 26.24300
C  25.11400 -0.32000 23.51700
C  28.48900 1.13900 23.98600
C  29.67300 0.40200 23.35100
N  27.76600 0.28700 29.23700
C  28.79300 0.12000 28.38000
C  30.04200 -0.00000 29.11000
C  29.65900 0.14100 30.45900
C  28.25100 0.32300 30.48300
C  31.40000 -0.07700 28.55500
C  30.12400 0.23000 31.89900
O  31.29100 0.12000 32.31600
C  28.81200 0.37500 32.79100
C  28.76900 -0.76200 33.74600
O  28.37600 -1.87600 33.53400
O  29.13200 -0.40900 35.00800
C  28.93900 -1.38700 36.05700
H  22.10800 1.20300 31.37200
H  23.47200 1.04200 25.09100
H  29.46100 0.02400 26.31400
H  25.90500 -0.24100 34.14000
H  23.48500 1.44200 33.52500
H  22.74800 -0.90300 32.56100
H  22.62000 -0.45100 34.29500
H  23.97500 -1.43800 33.68600
H  26.18200 2.73000 33.62800
H  27.13200 1.66000 34.57700
H  24.54800 1.61300 35.77500
H  25.05300 3.30300 35.43300
H  19.85400 2.35500 29.01300
H  20.29800 1.24900 30.36200
H  19.50200 0.60700 28.94300
H  18.98800 0.98000 26.44500
H  18.98400 2.15300 25.25100
H  19.42200 2.73500 26.90200
H  25.91300 1.70700 24.01700
H  27.57800 -0.75400 24.41600
H  24.58100 0.25200 22.75700
H  24.32700 -0.93000 23.96100
H  25.85800 -0.94600 23.02400
H  28.84300 1.89700 24.68400
H  27.90100 1.62500 23.20700
H  29.47000 -0.16400 22.44200
H  30.00700 -0.31300 24.10300
H  30.44800 1.13700 23.13200
H  32.12300 -0.17300 29.36400
H  31.72800 0.78500 27.97400
H  31.58900 -0.92000 27.89000
H  29.00300 1.32100 33.29800
H  27.98500 -1.15300 36.52900
H  29.75900 -1.23100 36.75700
H  29.02300 -2.43700 35.77700
Mg 41.96700 41.23600 27.51500
C  41.14500 43.60600 30.04300
C  43.41800 39.35500 30.05800
C  42.58500 39.13100 25.34300
C  41.20800 43.76400 25.11100
N  42.32300 41.52700 29.80000
C  41.74300 42.47000 30.66200
C  41.93400 42.14300 32.13700
C  42.65100 40.76700 32.04200
C  42.79300 40.51900 30.48800
C  44.00100 40.64800 32.77800
C  40.66400 42.18400 32.99100
C  40.82500 41.49800 34.34400
H  39.87300 41.92500 35.46600
N  42.94900 39.51400 27.67900
C  43.46000 38.85400 28.77500
C  43.93700 37.55700 28.32800
C  43.60000 37.46700 26.97000
C  43.03500 38.73600 26.60400
C  44.48900 36.46800 29.19400
C  43.75800 36.27800 25.92500
O  43.73400 36.31600 24.71300
C  44.13900 34.95100 26.48100
N  42.06300 41.40300 25.56200
C  42.28400 40.35200 24.80900
C  42.25100 40.62600 23.29500
C  41.77000 42.07800 23.27000
C  41.57500 42.46800 24.77700
C  43.57000 40.23100 22.65600
C  40.73900 42.51800 22.22500
C  39.41600 41.74100 22.43600
N  41.41200 43.32500 27.45700
C  41.03600 44.19000 26.41900
C  40.68900 45.48100 26.89000
C  40.66700 45.28100 28.30500
C  41.08200 43.93600 28.59400
C  40.51200 46.77600 26.17100
C  40.52400 46.01900 29.53800
O  40.23900 47.22800 29.64800
C  40.81300 44.94400 30.74600
C  41.97800 45.53600 31.49800
O  43.07800 45.70100 31.02700
O  41.58000 45.87000 32.74300
C  42.60600 46.51800 33.58000
H  43.71800 38.62200 30.81000
H  42.80700 38.34700 24.61500
H  40.87000 44.50500 24.38500
H  42.60200 42.92100 32.50600
H  41.98200 40.00900 32.45100
H  43.90200 39.79900 33.45400
H  44.06000 41.45600 33.50800
H  44.88000 40.59300 32.13600
H  39.86700 41.80100 32.35400
H  40.39400 43.21100 33.23900
H  41.87400 41.54300 34.63900
H  40.66200 40.42400 34.25700
H  45.24300 35.87900 28.67200
H  43.65700 35.89000 29.59800
H  45.02800 36.96000 30.00400
H  43.50500 34.61900 27.30400
H  45.21000 34.95100 26.68500
H  43.87400 34.33800 25.61900
H  41.50900 40.00600 22.79200
H  42.66000 42.61100 22.93500
H  44.40500 40.65800 23.21200
H  43.64800 40.60600 21.63500
H  43.74200 39.15700 22.71600
H  41.07600 42.30100 21.21200
H  40.68600 43.59500 22.38300
H  39.59700 41.31900 23.42500
H  39.26600 40.98900 21.66100
H  38.65300 42.51900 22.42700
H  39.44700 46.96800 26.04100
H  40.95700 46.89500 25.18200
H  40.82000 47.60000 26.81400
H  40.00200 44.78400 31.45700
H  43.52000 46.79500 33.05500
H  43.00700 45.89000 34.37500
H  42.15900 47.38200 34.07200

