158

Mg -0.01500 7.84800 26.46900
C  0.84000 9.84400 29.39900
C  -0.28900 5.15800 28.59200
C  -0.42100 6.11900 23.78900
C  0.42400 10.74800 24.63100
N  0.48900 7.51400 28.72900
C  0.59200 8.49000 29.75900
C  0.44500 7.83900 31.11300
C  0.20600 6.32600 30.73100
C  0.13500 6.32400 29.24700
C  1.33500 5.39100 31.33300
C  -0.71300 8.39200 31.94300
C  -0.39800 8.74000 33.40300
H  0.83500 8.11900 33.99200
N  -0.28000 5.91400 26.22800
C  -0.41800 4.93500 27.18800
C  -0.83600 3.67300 26.58400
C  -0.81000 3.92600 25.18400
C  -0.55400 5.39000 25.01400
C  -1.23600 2.45600 27.38600
C  -1.04500 3.00100 24.01100
O  -1.02600 3.30600 22.82200
C  -1.29400 1.50300 24.21200
N  0.02500 8.26800 24.51300
C  -0.14700 7.37100 23.49800
C  0.05100 8.05300 22.14000
C  -0.26600 9.56800 22.44600
C  0.00500 9.53500 23.99700
C  1.36300 7.91300 21.36100
C  -1.71500 9.95500 22.30400
C  -2.10600 10.60600 20.99800
N  0.55100 9.90700 26.79400
C  0.76400 10.93200 25.97300
C  1.21700 12.15800 26.67700
C  1.13700 11.73900 28.02300
C  0.81600 10.36700 28.02000
C  1.54400 13.46800 26.02400
C  1.34900 12.19400 29.30400
O  1.68300 13.31700 29.64900
C  1.16000 10.97700 30.28600
C  2.33500 10.95000 31.13800
O  3.31500 10.28100 30.81100
O  2.20300 11.73900 32.24700
C  3.28000 11.82200 33.29800
H  -0.63300 4.27500 29.13400
H  -0.41400 5.56000 22.85000
H  0.61300 11.53500 23.89900
H  1.43300 7.85700 31.57300
H  -0.73100 5.91500 31.10600
H  0.99200 5.11000 32.32900
H  2.30500 5.87300 31.21200
H  1.48700 4.48300 30.74900
H  -1.58600 7.74500 32.03200
H  -1.01400 9.28600 31.39800
H  -1.27600 8.41100 33.95900
H  -0.28600 9.81300 33.55400
H  -0.90000 1.56400 26.85600
H  -2.31700 2.50200 27.25200
H  -0.87800 2.39200 28.41400
H  -0.53500 0.93800 24.75300
H  -1.54600 1.11300 23.22600
H  -2.20900 1.44700 24.80300
H  -0.72100 7.66800 21.47400
H  0.40700 10.25900 21.94000
H  2.05200 8.74100 21.53000
H  1.19300 7.71400 20.30300
H  1.94200 7.11100 21.81700
H  -1.97200 10.74000 23.01600
H  -2.33800 9.07900 22.48900
H  -1.55200 10.41700 20.07800
H  -2.01600 11.69100 21.06600
H  -3.10300 10.31000 20.67100
H  0.60600 14.02000 25.96000
H  2.06200 13.28900 25.08200
H  2.11800 14.07200 26.72600
H  0.27100 11.21900 30.86900
H  4.16900 11.41700 32.81500
H  3.18800 11.22000 34.20300
H  3.44600 12.86100 33.58100
Mg 24.26400 -4.82800 45.38900
C  26.29800 -2.38600 43.88200
C  21.72300 -3.82800 43.30600
C  22.45700 -7.47400 46.46300
C  27.12300 -5.86200 47.11600
N  24.07300 -3.29000 43.88700
C  24.99200 -2.44300 43.36600
C  24.52700 -1.75700 42.09300
C  22.98200 -1.90400 42.11500
C  22.91400 -3.05500 43.21000
C  22.14500 -0.68800 42.53800
C  25.14900 -2.30700 40.80300
C  25.69300 -1.21600 39.86800
H  25.22200 -1.25100 38.39900
N  22.31100 -5.48800 44.97000
C  21.40300 -4.92800 44.05400
C  20.22100 -5.76000 44.02100
C  20.40800 -6.82800 44.93600
C  21.78300 -6.61600 45.53400
C  19.01300 -5.28100 43.31500
C  19.34600 -7.88000 45.31500
O  18.17800 -7.85300 44.88900
C  19.53500 -9.01900 46.21600
N  24.84500 -6.49900 46.48000
C  23.82000 -7.39200 46.84400
C  24.45500 -8.42800 47.86400
C  25.93700 -7.96400 48.08200
C  26.00200 -6.65200 47.23600
C  23.60900 -8.42800 49.15600
C  27.07000 -8.95800 47.72500
C  27.87600 -9.35600 48.94900
N  26.40200 -4.29700 45.43900
C  27.32500 -4.76900 46.23000
C  28.57900 -4.05300 45.92500
C  28.28800 -3.08500 44.97800
C  26.89200 -3.26500 44.77800
C  29.93200 -4.25100 46.55900
C  28.69100 -1.96600 44.20100
O  29.79500 -1.42100 44.06200
C  27.40400 -1.41200 43.42700
C  27.21400 0.07700 43.74800
O  26.34000 0.50000 44.48700
O  28.01600 0.80900 42.88200
C  27.69800 2.24500 42.55400
H  20.93100 -3.46900 42.64500
H  22.03600 -8.42900 46.78400
H  28.00500 -6.24600 47.63400
H  24.71200 -0.68400 42.14900
H  22.61100 -2.25700 41.15200
H  22.78800 0.17100 42.73000
H  21.50000 -0.85500 43.40100
H  21.43800 -0.22900 41.84600
H  24.39800 -2.77200 40.16500
H  25.85500 -3.11400 41.00000
H  26.78200 -1.17600 39.87900
H  25.47000 -0.17200 40.08900
H  18.86300 -5.81200 42.37400
H  19.01600 -4.22300 43.05400
H  18.21600 -5.40700 44.04700
H  20.38000 -9.64600 45.93100
H  18.64900 -9.65100 46.26900
H  19.65800 -8.77300 47.27000
H  24.36700 -9.41700 47.41300
H  25.97500 -7.62200 49.11600
H  22.73900 -7.77200 49.12900
H  24.16300 -8.01200 49.99800
H  23.27400 -9.36300 49.60600
H  27.72400 -8.55600 46.95100
H  26.49700 -9.80100 47.33800
H  27.31300 -10.00900 49.61600
H  28.15100 -8.49900 49.56400
H  28.76300 -9.87800 48.59300
H  30.31200 -5.22400 46.24800
H  29.91700 -4.29700 47.64800
H  30.71200 -3.55400 46.25200
H  27.63700 -1.38600 42.36300
H  27.82100 2.73400 43.52000
H  26.78700 2.56600 42.04800
H  28.56300 2.55200 41.96500

