158

Mg 30.28700 57.63400 40.58800
C  27.53900 55.68200 40.01400
C  32.30200 55.16600 39.38200
C  32.87400 59.76700 40.65000
C  28.10500 60.41500 41.16400
N  29.93400 55.64400 39.90300
C  28.70400 55.01000 39.69900
C  28.89400 53.70800 38.93800
C  30.43700 53.41100 39.22900
C  30.96200 54.86300 39.53300
C  30.83200 52.41700 40.25300
C  28.59400 53.84100 37.42900
C  27.43600 53.13400 36.74100
H  26.75500 53.88600 35.56600
N  32.35300 57.43300 40.14200
C  32.99100 56.34800 39.72300
C  34.32200 56.54000 39.48800
C  34.52700 57.91700 39.94200
C  33.20000 58.46000 40.25700
C  35.29500 55.50300 38.84900
C  35.91300 58.50000 39.87900
O  36.90500 57.93800 39.40200
C  36.11500 59.83700 40.29100
N  30.51000 59.86500 40.79500
C  31.72200 60.44100 40.99300
C  31.54800 61.84100 41.38500
C  29.99100 61.93300 41.78300
C  29.49400 60.68700 41.17500
C  32.47100 62.29800 42.49800
C  29.23500 63.17800 41.23100
C  28.66500 63.94900 42.38200
N  28.25300 57.99400 40.73200
C  27.51200 59.15500 40.95000
C  26.13600 58.88500 40.83300
C  26.07400 57.45500 40.54000
C  27.37000 57.00700 40.47500
C  25.09700 59.90500 40.93500
C  25.20600 56.33100 40.31000
O  23.99400 56.32800 40.15600
C  26.09800 55.18200 39.83900
C  25.81300 53.98100 40.71500
O  25.82300 53.95000 41.91300
O  25.41000 52.91300 39.93400
C  24.84100 51.75800 40.66100
H  32.80600 54.34600 38.86600
H  33.70100 60.47800 40.59400
H  27.42500 61.18600 41.53300
H  28.26700 52.96900 39.43600
H  30.87000 53.15500 38.26200
H  31.22100 51.50900 39.79100
H  29.94700 52.21200 40.85500
H  31.49200 52.83300 41.01500
H  29.49100 53.52500 36.89700
H  28.35900 54.88900 37.24200
H  26.71400 52.75500 37.46400
H  27.96100 52.25200 36.37500
H  35.79300 55.99300 38.01200
H  34.77400 54.57100 38.63000
H  36.02400 55.17300 39.58900
H  35.69900 60.00600 41.28500
H  35.97200 60.59900 39.52500
H  37.18600 59.78100 40.48500
H  31.66700 62.40800 40.46200
H  29.87600 61.78700 42.85700
H  33.16900 62.98900 42.02600
H  33.11400 61.48800 42.84400
H  31.86700 62.75100 43.28400
H  28.42700 63.10200 40.50300
H  29.97800 63.85100 40.80200
H  27.70800 63.57400 42.74500
H  28.52300 64.97700 42.04800
H  29.33800 63.88600 43.23700
H  24.15400 59.56600 40.50500
H  25.32900 60.76100 40.30200
H  24.88600 60.14600 41.97800
H  25.81900 54.82400 38.84800
H  23.76800 51.62400 40.52200
H  24.98500 51.80900 41.74000
H  25.28300 50.85700 40.23400
Mg -10.94300 15.62300 42.67400
C  -7.67400 16.71200 42.89300
C  -11.97300 18.77300 42.10600
C  -13.96100 14.37900 42.58500
C  -9.65500 12.28300 42.72900
N  -9.87300 17.45800 42.47100
C  -8.55400 17.70700 42.65600
C  -8.19900 19.05000 42.25900
C  -9.59700 19.83200 42.35700
C  -10.56300 18.62800 42.31100
C  -9.75300 20.62900 43.66500
C  -7.51400 19.12500 40.85500
C  -6.20000 19.99300 40.66100
H  -5.18000 19.43000 39.73300
N  -12.78700 16.49000 42.38400
C  -13.06600 17.80300 42.23100
C  -14.50500 17.98400 42.11500
C  -15.08400 16.73100 42.23100
C  -13.93500 15.79500 42.41300
C  -15.12100 19.31500 41.91600
C  -16.55600 16.33200 42.14600
O  -17.36900 17.22500 42.18100
C  -17.03900 14.93200 41.70000
N  -11.67900 13.65500 42.58400
C  -12.97500 13.44000 42.69600
C  -13.35900 12.01100 42.97000
C  -12.01000 11.33700 42.70500
C  -11.07100 12.51700 42.55800
C  -13.90500 11.79000 44.40400
C  -12.08500 10.26500 41.58300
C  -12.15500 8.76200 42.02700
N  -9.07400 14.60500 42.86400
C  -8.69800 13.29200 42.83000
C  -7.30600 13.18600 43.17100
C  -6.79400 14.48600 43.10100
C  -7.93500 15.31900 42.98200
C  -6.43200 11.90200 43.28800
C  -5.63600 15.43600 43.15900
O  -4.45200 15.18200 43.36400
C  -6.14800 16.92500 43.09800
C  -5.73400 17.49300 44.37200
O  -6.21800 17.29500 45.48700
O  -4.73700 18.44600 44.27900
C  -4.42100 19.35400 45.38800
H  -12.27000 19.79900 41.88200
H  -14.94000 13.89800 42.64100
H  -9.28700 11.25500 42.72500
H  -7.47800 19.48400 42.95200
H  -9.74200 20.43200 41.45900
H  -10.70100 20.50700 44.18800
H  -9.75400 21.67700 43.36500
H  -8.90300 20.44100 44.32000
H  -8.17100 19.56500 40.10500
H  -7.39800 18.10200 40.49700
H  -5.77600 20.11100 41.65800
H  -6.41600 21.03900 40.44500
H  -15.46000 19.40300 40.88400
H  -14.35200 20.07600 42.04900
H  -15.93400 19.47300 42.62500
H  -18.03000 15.05700 41.26300
H  -17.26100 14.17300 42.45000
H  -16.38200 14.42400 40.99300
H  -14.15100 11.54300 42.38500
H  -11.63100 10.82500 43.58900
H  -14.95100 11.48400 44.38800
H  -13.85600 12.78300 44.85200
H  -13.31300 11.08500 44.98800
H  -11.16900 10.37200 41.00200
H  -12.85500 10.62400 40.90100
H  -11.51200 8.03100 41.53600
H  -13.20200 8.49600 41.87600
H  -12.12200 8.60400 43.10500
H  -5.38400 12.16700 43.42500
H  -6.68000 11.55600 42.28400
H  -6.68200 11.20100 44.08400
H  -5.75300 17.45000 42.22800
H  -5.16100 19.30400 46.18600
H  -4.35000 20.38700 45.04700
H  -3.53900 19.01100 45.92900

