158

Mg 47.45200 24.81800 28.37100
C  48.36100 27.07100 31.00900
C  46.21500 22.70300 30.75600
C  46.72600 22.67200 25.86700
C  48.99100 26.93800 26.17200
N  47.31100 24.93600 30.63500
C  47.70900 25.94000 31.48700
C  47.34500 25.65300 32.92700
C  46.78100 24.18700 32.86600
C  46.79800 23.88800 31.35500
C  47.78800 23.17300 33.55400
C  46.39900 26.70200 33.54000
C  46.75700 27.32500 34.89900
H  47.43600 26.45200 35.99800
N  46.62300 22.86600 28.28100
C  46.11200 22.16100 29.35700
C  45.64600 20.89700 28.93700
C  45.70500 20.87700 27.44300
C  46.34800 22.16500 27.14500
C  45.08600 19.87500 29.81500
C  45.28500 19.86600 26.47600
O  45.45100 19.96900 25.27000
C  44.60700 18.69600 26.93600
N  47.91800 24.73500 26.30800
C  47.34800 23.83600 25.50900
C  47.83300 24.18100 24.02600
C  48.32100 25.60600 24.08200
C  48.51800 25.73600 25.60700
C  48.90400 23.22900 23.58100
C  47.29000 26.66700 23.58300
C  45.89900 26.76300 24.13800
N  48.47800 26.61400 28.46700
C  49.01600 27.41100 27.48800
C  49.60800 28.60000 27.99400
C  49.28600 28.53600 29.39700
C  48.64900 27.27000 29.62000
C  50.32100 29.57300 27.22600
C  49.42000 29.23900 30.67400
O  50.03000 30.26400 30.93900
C  48.81500 28.24900 31.79900
C  49.91200 27.89200 32.76400
O  50.65100 26.93600 32.66600
O  49.90800 28.78800 33.73900
C  50.70300 28.50400 34.97400
H  45.79100 22.08500 31.55000
H  46.41700 22.08500 25.00000
H  49.52000 27.61600 25.49900
H  48.27500 25.75200 33.48700
H  45.79700 24.00900 33.29900
H  47.27300 22.62400 34.34200
H  48.55800 23.75500 34.06100
H  48.07100 22.33100 32.92200
H  45.39400 26.35900 33.78700
H  46.19300 27.40700 32.73400
H  45.87600 27.81500 35.31400
H  47.44100 28.15100 34.70200
H  45.55100 18.89600 29.69900
H  44.06900 19.79100 29.43300
H  44.93300 20.19500 30.84500
H  44.19800 18.22400 26.04200
H  43.71400 18.88000 27.53400
H  45.32600 18.09800 27.49400
H  46.99400 24.05000 23.34300
H  49.30700 25.70000 23.62600
H  48.97100 23.43300 22.51300
H  48.69300 22.19400 23.85400
H  49.80300 23.57600 24.09000
H  47.29100 26.47300 22.51100
H  47.69600 27.67600 23.64700
H  45.76400 27.80200 24.43800
H  45.78100 26.14500 25.02700
H  45.26400 26.46000 23.30500
H  50.92700 29.14400 26.42800
H  50.97100 30.11000 27.91700
H  49.59900 30.28500 26.82600
H  47.95900 28.68200 32.31700
H  50.02300 28.05700 35.69800
H  50.94000 29.50300 35.34200
H  51.64800 27.96100 34.98300
Mg 48.70500 35.03700 27.58900
C  46.71100 33.30200 30.10200
C  49.10700 37.55300 29.97600
C  50.14500 36.67800 25.18400
C  47.78300 32.49200 25.31500
N  48.09100 35.40300 29.79600
C  47.36900 34.48400 30.59900
C  47.43100 34.96300 32.06500
C  47.64700 36.49500 31.93000
C  48.25000 36.54100 30.46600
C  46.41600 37.53800 32.14000
C  48.59000 34.36700 32.79500
C  48.30100 34.29000 34.29200
H  47.28600 35.22100 34.92400
N  49.68800 36.71400 27.71500
C  49.73300 37.71000 28.68000
C  50.57600 38.73500 28.31100
C  50.76000 38.57800 26.89800
C  50.24200 37.23200 26.52100
C  50.95600 39.87600 29.19900
C  51.31800 39.51500 25.92700
O  51.62700 39.18700 24.76000
C  51.65600 40.99600 26.36200
N  48.79000 34.64900 25.43600
C  49.59900 35.42200 24.72100
C  49.79700 34.85100 23.27800
C  49.03300 33.52800 23.39500
C  48.48200 33.52200 24.76800
C  49.40900 35.88500 22.13300
C  49.99100 32.28000 23.14400
C  50.96900 31.72700 24.12300
N  47.45000 33.28400 27.57700
C  47.28500 32.26600 26.60400
C  46.42300 31.22800 27.22800
C  46.14900 31.63500 28.54300
C  46.82400 32.86000 28.72500
C  46.07200 29.90800 26.62500
C  45.54400 31.07500 29.74200
O  44.92300 30.02500 29.92700
C  45.72600 32.26700 30.77000
C  45.94700 31.70600 32.12900
O  46.90800 30.95500 32.48300
O  44.86800 32.08800 32.89900
C  44.89100 31.61300 34.31600
H  49.35400 38.25000 30.77900
H  50.74700 37.18400 24.42600
H  47.55200 31.64000 24.67200
H  46.48200 34.75400 32.55900
H  48.46800 36.84300 32.55700
H  46.56100 38.44500 32.72800
H  45.53300 37.03400 32.53200
H  46.21800 37.90700 31.13400
H  49.52300 34.92700 32.73400
H  48.74000 33.37800 32.36100
H  49.26000 34.25300 34.80900
H  47.96700 33.26300 34.44200
H  50.83100 40.88400 28.80500
H  52.01400 39.64900 29.32700
H  50.47400 39.87000 30.17700
H  50.71500 41.47900 26.62600
H  52.17800 41.45900 25.52400
H  52.31800 40.91600 27.22500
H  50.83900 34.53300 23.30900
H  48.29000 33.54400 22.59800
H  49.19900 36.84100 22.61300
H  48.58100 35.59900 21.48400
H  50.29500 35.92500 21.49900
H  50.54300 32.49200 22.22900
H  49.30500 31.48800 22.84300
H  51.95500 31.43200 23.76500
H  50.47900 30.89400 24.62700
H  51.12400 32.40400 24.96300
H  47.00900 29.35200 26.65700
H  45.69500 29.92100 25.60300
H  45.37500 29.33800 27.24000
H  44.80500 32.84900 30.75200
H  43.95800 31.52000 34.87200
H  45.45600 32.44300 34.73900
H  45.39200 30.65300 34.43800

