158

Mg 47.88300 16.23900 29.26400
C  45.65400 15.63600 31.96300
C  49.76100 18.12700 31.33700
C  49.58800 17.18500 26.53400
C  45.55600 14.75900 27.14300
N  47.68500 16.79700 31.38000
C  46.82700 16.30200 32.39800
C  47.26700 16.66600 33.75700
C  48.39100 17.71200 33.48600
C  48.65700 17.58000 31.94300
C  48.00800 19.21300 33.79900
C  47.73500 15.34900 34.45800
C  47.90700 15.41200 35.96400
H  47.81500 16.77700 36.73500
N  49.57900 17.29600 29.00000
C  50.24100 18.03200 29.99500
C  51.36500 18.59500 29.40300
C  51.39000 18.31000 28.03000
C  50.14300 17.56300 27.79500
C  52.41100 19.30700 30.24100
C  52.49000 18.54700 26.95100
O  52.16300 18.24100 25.83300
C  53.75900 19.12800 27.27800
N  47.51800 15.96200 27.08000
C  48.46600 16.45600 26.23300
C  48.15100 16.09300 24.78000
C  46.86100 15.17900 24.86500
C  46.58100 15.33400 26.37200
C  48.01800 17.36200 23.90500
C  46.95800 13.74200 24.33800
C  46.37800 13.37800 22.94800
N  45.95800 15.44400 29.47700
C  45.22500 14.82300 28.49500
C  44.01100 14.31200 29.12400
C  44.12700 14.55900 30.47000
C  45.32000 15.32400 30.63300
C  42.97000 13.40100 28.50900
C  43.58900 14.39000 31.79500
O  42.54300 13.88500 32.21500
C  44.54000 15.12500 32.82300
C  43.98800 16.16400 33.63300
O  43.34900 17.13200 33.27400
O  44.22500 15.75700 34.87300
C  43.86700 16.71700 35.94700
H  50.30100 18.77600 32.02900
H  50.02600 17.37900 25.55300
H  44.86600 14.25000 26.46700
H  46.43100 17.10900 34.29800
H  49.30500 17.47500 34.03000
H  48.46700 19.44000 34.76100
H  46.93700 19.21100 34.00500
H  48.23600 19.93600 33.01500
H  48.57200 14.84300 33.97800
H  46.96300 14.59900 34.28800
H  48.80900 14.89200 36.28700
H  46.96000 14.98400 36.29500
H  52.07000 20.24300 30.68300
H  53.39400 19.51300 29.81700
H  52.43400 18.58500 31.05700
H  53.59300 20.14900 27.62100
H  54.31800 19.25400 26.35100
H  54.18800 18.44100 28.00700
H  48.97100 15.43900 24.48200
H  46.06900 15.63000 24.26800
H  48.02600 18.25000 24.53600
H  47.09000 17.47400 23.34500
H  48.94400 17.24200 23.34400
H  46.50900 13.14000 25.12700
H  48.02400 13.52400 24.27000
H  45.92900 14.27900 22.52800
H  45.60200 12.65000 23.18400
H  47.13600 12.98800 22.26800
H  42.15200 13.99800 28.10600
H  42.53300 12.66900 29.18800
H  43.54100 12.87800 27.74200
H  44.86800 14.27400 33.42100
H  44.28000 17.70600 35.74900
H  44.23200 16.21900 36.84600
H  42.81200 16.70900 36.21800
Mg -10.97300 38.54100 40.87200
C  -9.80600 35.20100 40.09400
C  -7.94700 39.71000 39.60000
C  -12.28500 41.62400 40.72100
C  -14.07700 37.20200 41.69800
N  -9.11900 37.47700 39.76800
C  -8.82100 36.16800 39.70400
C  -7.48600 35.95600 39.11900
C  -6.76900 37.36700 39.47300
C  -7.99400 38.24500 39.65200
C  -5.75700 37.40000 40.63700
C  -7.36800 35.47100 37.64200
C  -7.94700 36.50100 36.58400
H  -9.21300 36.21100 35.80300
N  -10.28100 40.34000 40.17900
C  -9.00100 40.69000 39.67300
C  -8.93200 42.12700 39.34000
C  -10.18200 42.65900 39.67600
C  -11.02100 41.53600 40.23200
C  -7.77600 42.78500 38.61200
C  -10.61600 44.10200 39.34600
O  -9.83400 44.86100 38.82200
C  -12.09200 44.58800 39.49100
N  -12.97000 39.32000 40.99500
C  -13.19800 40.59500 41.10100
C  -14.64200 40.95700 41.54600
C  -15.16600 39.46400 41.76900
C  -13.96300 38.59200 41.53900
C  -14.82600 41.87200 42.75300
C  -16.47200 39.10500 40.98900
C  -17.64500 38.61200 41.82800
N  -11.76800 36.67500 40.91000
C  -13.03000 36.27000 41.35200
C  -13.06500 34.84500 41.33900
C  -11.84200 34.36300 40.89200
C  -11.08900 35.53100 40.61700
C  -14.28300 34.06600 41.69100
C  -11.05300 33.18600 40.67500
O  -11.36300 32.01800 40.74900
C  -9.70800 33.66900 40.08800
C  -8.54900 33.00400 40.80600
O  -8.45800 32.76200 42.01700
O  -7.52200 32.74100 39.90500
C  -6.35700 32.29100 40.49600
H  -6.90600 40.03500 39.54300
H  -12.71500 42.61900 40.85100
H  -15.10500 37.00100 42.00900
H  -7.07100 35.11000 39.66700
H  -6.21900 37.77700 38.62600
H  -4.79400 37.76800 40.28400
H  -5.73700 36.41100 41.09600
H  -6.07200 38.08000 41.42800
H  -8.10100 34.66900 37.55600
H  -6.37200 35.23000 37.27300
H  -7.15200 36.67400 35.85900
H  -8.01800 37.52300 36.95600
H  -8.03800 43.41400 37.76200
H  -7.00600 42.06700 38.32900
H  -7.26900 43.49800 39.26200
H  -12.34900 44.83500 40.52100
H  -12.80500 43.83300 39.16100
H  -12.11000 45.56200 39.00200
H  -15.19900 41.31300 40.67900
H  -15.29600 39.39500 42.84900
H  -14.00900 42.58300 42.87700
H  -14.94300 41.33400 43.69400
H  -15.80900 42.33200 42.65700
H  -16.33900 38.27900 40.29000
H  -16.78600 39.93300 40.35300
H  -18.52700 39.25300 41.80900
H  -17.34400 38.53000 42.87200
H  -17.93700 37.61800 41.49000
H  -13.99300 33.11900 42.14600
H  -14.88000 33.74300 40.83800
H  -14.94700 34.48600 42.44600
H  -9.84700 33.24800 39.09300
H  -6.27900 31.24500 40.79500
H  -6.11700 32.80100 41.42900
H  -5.53500 32.43100 39.79400

