158

Mg 47.57100 24.67400 28.89000
C  48.52400 27.25400 31.21200
C  46.87400 22.85300 31.71300
C  46.94700 22.18100 26.85500
C  49.28200 26.41000 26.44000
N  47.68100 25.16400 31.25700
C  47.88400 26.24000 31.91600
C  47.50000 26.11200 33.41100
C  47.26700 24.61800 33.58000
C  47.20600 24.17600 32.06400
C  48.35100 23.87300 34.44300
C  46.25900 27.02500 33.71900
C  46.15100 27.75500 35.06200
H  46.94100 27.09100 36.23400
N  46.92800 22.78800 29.22100
C  46.70600 22.15700 30.44600
C  46.18600 20.81500 30.20700
C  46.11000 20.60500 28.80100
C  46.60700 21.91800 28.18800
C  45.81700 19.89000 31.39700
C  45.76000 19.35000 28.07300
O  45.86300 19.27100 26.87900
C  45.31900 18.12700 28.91800
N  48.05900 24.30000 26.95400
C  47.56900 23.28500 26.24200
C  47.89200 23.32500 24.79000
C  48.54200 24.74400 24.54700
C  48.75800 25.15200 26.06700
C  48.74300 22.14000 24.25800
C  47.68300 25.70500 23.64400
C  46.47300 26.31900 24.37700
N  48.49800 26.43300 28.81800
C  49.10500 27.03800 27.73100
C  49.57400 28.36900 28.06000
C  49.29000 28.52100 29.45700
C  48.79700 27.27200 29.86100
C  50.30900 29.26900 27.05900
C  49.36200 29.44300 30.59000
O  49.65000 30.63100 30.66900
C  48.99400 28.54500 31.79300
C  50.24600 28.42200 32.55600
O  51.28800 28.05100 32.01600
O  49.99900 28.75700 33.84300
C  51.09700 28.45500 34.83200
H  46.50200 22.25500 32.54800
H  46.60300 21.34700 26.24000
H  49.61300 27.13800 25.69700
H  48.36000 26.38800 34.02100
H  46.29000 24.37500 33.99800
H  49.01000 24.50300 35.04000
H  48.94800 23.20700 33.82000
H  47.78200 23.25900 35.14200
H  45.35000 26.42800 33.63600
H  46.23700 27.73300 32.89100
H  45.11700 27.81600 35.40200
H  46.39300 28.80700 34.91100
H  44.77300 19.57800 31.35300
H  45.94300 20.32800 32.38700
H  46.40700 18.99300 31.58100
H  44.36200 18.32200 29.40100
H  46.06400 17.87500 29.67300
H  45.16300 17.29100 28.23600
H  46.91300 23.37900 24.31500
H  49.57200 24.72000 24.19100
H  49.54800 22.47800 23.60500
H  48.07400 21.45500 23.73800
H  49.14800 21.51300 25.05300
H  47.36100 25.13000 22.77600
H  48.42500 26.43200 23.31300
H  46.42400 27.39400 24.20000
H  46.47500 26.10200 25.44500
H  45.53700 25.96700 23.94200
H  50.58700 30.24500 27.45600
H  49.75700 29.48100 26.14300
H  51.25800 28.76600 26.87600
H  48.11100 28.89100 32.33000
H  51.54800 27.47600 34.67300
H  50.65300 28.50200 35.82600
H  51.81900 29.25400 34.66000
Mg 42.25400 41.42100 26.68700
C  41.44300 43.54400 29.31700
C  43.20800 39.04700 28.97200
C  43.36900 39.46400 24.08700
C  41.51900 43.92500 24.46100
N  42.28300 41.34100 28.93900
C  41.94000 42.35200 29.78800
C  42.17700 41.87900 31.24800
C  42.59600 40.41900 31.15200
C  42.64000 40.14900 29.59500
C  43.96700 40.02300 31.75200
C  41.08600 42.35100 32.24000
C  40.64800 41.38500 33.32400
H  39.96600 41.78100 34.62500
N  43.27300 39.54800 26.53100
C  43.51600 38.76700 27.59200
C  43.99800 37.48900 27.05500
C  44.01000 37.53800 25.62600
C  43.55500 38.90400 25.36400
C  44.46200 36.41700 28.05300
C  44.49700 36.48700 24.67900
O  44.46200 36.63600 23.48100
C  44.83200 35.12300 25.15700
N  42.43100 41.61800 24.57800
C  42.80500 40.65000 23.70000
C  42.68500 41.01600 22.22500
C  41.83000 42.32100 22.38300
C  41.98800 42.73300 23.86800
C  44.07400 41.14900 21.54300
C  40.43800 42.16000 21.79900
C  39.41600 41.61600 22.69700
N  41.70200 43.36900 26.78700
C  41.44900 44.30000 25.86700
C  40.88000 45.48000 26.43700
C  40.86900 45.18900 27.77600
C  41.49100 43.95200 27.97500
C  40.58500 46.68800 25.57900
C  40.48800 45.71000 29.05800
O  39.99700 46.83200 29.25100
C  40.88900 44.74200 30.09700
C  41.76400 45.39800 31.06600
O  43.01200 45.35700 31.07600
O  41.01400 46.14800 31.91300
C  41.68400 46.46400 33.28100
H  43.63800 38.36400 29.70800
H  43.58300 38.87100 23.19600
H  41.10700 44.57700 23.68800
H  43.02100 42.53500 31.46000
H  41.93600 39.71700 31.66200
H  44.76800 40.23100 31.04300
H  43.88500 38.98800 32.08200
H  44.18300 40.76800 32.51700
H  40.19900 42.47800 31.61900
H  41.40300 43.35700 32.51500
H  41.53100 40.80700 33.59700
H  40.01200 40.66200 32.81400
H  45.42800 36.16400 27.61700
H  43.69300 35.64500 28.09700
H  44.64700 36.72800 29.08100
H  45.73400 35.05600 25.76600
H  44.90700 34.49600 24.26900
H  43.96800 34.92400 25.79100
H  42.14800 40.18500 21.76900
H  42.17800 43.13100 21.74100
H  44.82400 40.85400 22.27700
H  44.37400 42.16200 21.27500
H  44.15700 40.44600 20.71400
H  40.54800 41.60400 20.86800
H  40.22600 43.19500 21.52900
H  39.91200 41.18700 23.56800
H  38.87200 40.86000 22.13100
H  38.73200 42.36900 23.08900
H  41.42700 46.89000 24.91700
H  40.27800 47.55300 26.16800
H  39.64500 46.41500 25.10000
H  39.92300 44.62700 30.58900
H  42.07900 45.53500 33.69300
H  41.01500 46.79600 34.07500
H  42.47900 47.19400 33.12700

