158

Mg 17.04000 -1.59800 27.49800
C  15.98600 0.50300 30.33800
C  18.52700 -3.51500 29.89800
C  18.47800 -3.06200 25.07600
C  15.76700 0.88000 25.49500
N  17.25700 -1.38100 29.92300
C  16.76700 -0.52500 30.80800
C  17.02000 -0.93500 32.31400
C  17.81200 -2.28700 32.10300
C  17.91300 -2.38400 30.55700
C  19.23600 -2.42300 32.83100
C  15.77600 -1.04300 33.27000
C  15.70500 -0.17800 34.47500
H  16.93300 0.48200 35.16500
N  18.33600 -2.99800 27.40400
C  18.78500 -3.76800 28.52700
C  19.45200 -4.97800 28.01200
C  19.48400 -4.80800 26.54300
C  18.79300 -3.61700 26.29800
C  20.13100 -6.06200 28.80300
C  20.08500 -5.83200 25.56900
O  20.09800 -5.76100 24.34900
C  20.70000 -7.16600 26.03000
N  17.00400 -1.21100 25.50100
C  17.85900 -1.87000 24.64400
C  17.78200 -1.34500 23.17800
C  16.78600 -0.16400 23.36100
C  16.42800 -0.17900 24.88800
C  19.17900 -0.98500 22.65800
C  15.52500 -0.26400 22.45300
C  14.43700 -1.23000 22.86200
N  15.82900 0.30400 27.80200
C  15.41100 1.13200 26.82200
C  14.62600 2.19600 27.47600
C  14.87000 2.01900 28.88400
C  15.61600 0.83400 28.99600
C  13.71900 3.21600 26.85200
C  14.58400 2.48700 30.23400
O  13.94100 3.51100 30.43600
C  15.35300 1.60200 31.27800
C  16.25500 2.55500 31.98200
O  17.40900 2.83200 31.73600
O  15.50800 3.25200 32.93100
C  16.23000 4.33200 33.61000
H  18.95600 -4.23400 30.60000
H  18.78500 -3.69700 24.24300
H  15.35400 1.58500 24.77100
H  17.70700 -0.20900 32.74800
H  17.13900 -3.11800 32.31300
H  19.44200 -1.52300 33.41000
H  19.91500 -2.55500 31.98800
H  19.46100 -3.24200 33.51400
H  15.62400 -2.08200 33.56300
H  14.83000 -0.81700 32.77800
H  15.19600 -0.72400 35.26900
H  14.98500 0.61500 34.27500
H  19.63000 -7.02900 28.74300
H  20.29900 -5.72100 29.82400
H  21.15900 -6.05100 28.44000
H  19.85000 -7.58700 26.56700
H  21.63000 -7.00500 26.57400
H  20.97900 -7.78300 25.17600
H  17.29700 -2.11800 22.58300
H  17.36700 0.74500 23.21100
H  19.43600 0.03700 22.93600
H  19.19800 -1.01200 21.56800
H  20.01500 -1.60500 22.98200
H  15.87400 -0.52100 21.45300
H  15.18200 0.76300 22.32900
H  13.55400 -0.78700 23.32200
H  14.86900 -2.05800 23.42500
H  14.05800 -1.73000 21.97000
H  13.07700 2.70800 26.13200
H  14.26200 4.03500 26.38100
H  13.19900 3.61400 27.72300
H  14.59700 1.24600 31.97800
H  16.92800 4.85400 32.95600
H  16.68600 4.10100 34.57300
H  15.34500 4.93300 33.81800
Mg 50.07600 45.64300 42.72200
C  46.85600 46.13500 41.18500
C  49.67700 42.25700 41.97200
C  53.31600 45.22800 43.29200
C  50.37600 49.01000 43.16100
N  48.38700 44.44500 41.66800
C  47.22600 44.83000 41.18100
C  46.51300 43.65400 40.50300
C  47.18500 42.42700 41.23200
C  48.53600 43.05000 41.67300
C  46.49400 41.70500 42.41800
C  46.60200 43.64300 38.98100
C  45.45300 43.08400 38.18200
H  45.85100 42.17300 36.96400
N  51.32600 43.94800 42.76200
C  50.98900 42.65600 42.34100
C  52.14400 41.81200 42.44100
C  53.25400 42.64000 42.91200
C  52.67300 43.98200 43.02200
C  52.22800 40.37600 42.10400
C  54.65200 42.20300 43.32900
O  54.93800 41.03100 43.19800
C  55.68800 43.17700 43.97300
N  51.67200 46.92900 43.02000
C  52.89300 46.52900 43.35600
C  53.82500 47.68800 43.53300
C  52.90300 48.93900 43.61500
C  51.55700 48.23700 43.25200
C  54.77100 47.57900 44.69500
C  53.23200 50.10200 42.59100
C  53.12900 51.50600 43.00000
N  48.82000 47.25400 42.43100
C  49.12900 48.55200 42.65000
C  47.95400 49.39600 42.18000
C  47.07500 48.46100 41.65400
C  47.67300 47.22600 41.79000
C  47.76900 50.99100 42.42500
C  45.75500 48.31900 41.05300
O  44.89700 49.21600 40.87100
C  45.65900 46.80100 40.62700
C  44.33900 46.21500 41.03400
O  43.58100 45.71100 40.19700
O  43.98800 46.50900 42.30300
C  42.69100 46.06300 42.73400
H  49.55400 41.19400 41.75500
H  54.38800 45.01800 43.32000
H  50.41700 50.08000 43.37600
H  45.45300 43.70000 40.75400
H  47.37500 41.62100 40.52200
H  47.13800 41.73000 43.29600
H  46.18500 40.68400 42.19300
H  45.61800 42.29900 42.68000
H  47.50600 43.12900 38.65200
H  46.71700 44.67300 38.64300
H  44.84800 43.79200 37.61600
H  44.74700 42.55900 38.82600
H  53.08800 40.36700 41.43400
H  51.42000 40.04100 41.45400
H  52.29300 39.72400 42.97600
H  56.10200 43.89200 43.26200
H  56.55100 42.57800 44.26500
H  55.43500 43.79600 44.83400
H  54.39000 47.70300 42.60100
H  52.85400 49.36300 44.61800
H  54.55800 46.71900 45.33000
H  54.91000 48.41600 45.38000
H  55.75400 47.43600 44.24800
H  52.47600 49.88200 41.83700
H  54.15400 49.97800 42.02300
H  52.58700 52.10300 42.26700
H  54.04800 52.08100 43.11600
H  52.56600 51.52700 43.93400
H  46.77100 51.19300 42.03500
H  48.59600 51.55700 41.99600
H  47.81600 51.17900 43.49800
H  45.71500 46.66800 39.54700
H  42.57300 45.00300 42.51000
H  41.84200 46.62600 42.34700
H  42.72800 46.20500 43.81500

