158

Mg 47.92100 25.28600 27.81200
C  48.74600 27.76800 30.14500
C  46.92200 23.22500 30.14800
C  47.47500 22.93700 25.32600
C  49.17000 27.54100 25.32800
N  47.97100 25.43900 29.97600
C  48.17200 26.56000 30.73600
C  47.81600 26.29300 32.21100
C  47.44300 24.71100 32.19800
C  47.39600 24.42700 30.67800
C  48.44700 23.75200 32.91000
C  46.80700 27.23900 32.80600
C  46.12700 26.87600 34.17600
H  45.93500 27.90100 35.33400
N  47.24500 23.32900 27.74600
C  46.76500 22.63600 28.82600
C  46.01500 21.40200 28.47500
C  46.16400 21.39700 27.04700
C  46.96500 22.55100 26.57400
C  45.42300 20.50300 29.43000
C  45.46400 20.42800 26.03300
O  45.46300 20.66800 24.82600
C  44.57700 19.40600 26.57400
N  48.37400 25.20200 25.58200
C  48.00100 24.14200 24.86300
C  48.30500 24.47900 23.42900
C  48.57500 26.01000 23.36200
C  48.72800 26.31400 24.77000
C  49.33100 23.57800 22.60500
C  47.45600 26.84900 22.80600
C  47.84700 27.93400 21.78700
N  48.83300 27.19400 27.67100
C  49.34900 27.92300 26.65000
C  50.00500 29.08400 27.11300
C  49.84300 29.09400 28.46200
C  49.08700 27.92700 28.80200
C  50.70000 30.14100 26.37300
C  50.13700 29.81500 29.69600
O  50.77600 30.84500 29.85300
C  49.35800 29.04900 30.86700
C  50.26900 28.59100 31.94500
O  51.08200 27.67100 31.89600
O  50.20500 29.45100 33.05000
C  51.10600 29.24900 34.18000
H  46.46100 22.71000 30.99300
H  47.24700 22.19900 24.55500
H  49.49900 28.22700 24.54400
H  48.75500 26.33400 32.76200
H  46.47400 24.45600 32.62600
H  48.90400 23.07900 32.18400
H  47.88700 23.03900 33.51500
H  49.20800 24.29000 33.47500
H  45.91500 27.13300 32.18700
H  47.21600 28.24400 32.90900
H  46.80100 26.16200 34.65000
H  45.11400 26.53000 33.97400
H  46.05700 19.67300 29.74500
H  44.47200 20.21500 28.98300
H  45.17200 21.03900 30.34500
H  44.38700 18.85000 25.65600
H  43.69200 20.01700 26.75100
H  44.96700 18.84100 27.42000
H  47.32900 24.33000 22.96700
H  49.54800 26.21800 22.91500
H  48.78500 23.23900 21.72400
H  49.60300 22.67900 23.15700
H  50.23200 24.11100 22.30200
H  46.85200 27.39900 23.52700
H  46.71600 26.27300 22.25000
H  47.39700 27.71900 20.81700
H  48.92400 28.02800 21.64900
H  47.50000 28.89500 22.16700
H  51.02900 29.76500 25.40400
H  51.49400 30.62100 26.94400
H  49.97900 30.88300 26.02800
H  48.55500 29.71000 31.19300
H  50.87300 28.38000 34.79600
H  51.05100 30.14400 34.79900
H  52.14100 29.07000 33.89200
Mg 51.09600 47.04100 42.06700
C  47.86400 48.23400 41.16700
C  50.17000 44.07500 40.73900
C  54.22600 46.13700 42.67600
C  51.84500 50.17600 43.40400
N  49.19800 46.29500 41.08800
C  48.05300 46.94600 40.77100
C  47.09500 46.10100 39.94600
C  47.80500 44.70600 39.97800
C  49.14400 45.05900 40.64800
C  47.05100 43.64600 40.86100
C  46.85500 46.75700 38.52900
C  45.33900 46.85600 38.41000
H  44.69500 46.15100 37.09500
N  52.08500 45.33800 41.72100
C  51.48400 44.19700 41.15200
C  52.51000 43.14500 41.08500
C  53.72400 43.72200 41.61500
C  53.38800 45.09700 42.08800
C  52.30200 41.75400 40.53600
C  55.05500 42.98900 41.72900
O  55.12300 41.84800 41.25100
C  56.20500 43.61700 42.44800
N  52.84900 48.09900 42.84300
C  54.02500 47.49000 42.96100
C  55.05100 48.37800 43.58400
C  54.29300 49.71500 43.77700
C  52.91600 49.33300 43.28500
C  55.76000 47.75000 44.84400
C  54.90400 50.88100 42.93800
C  54.41300 52.35200 43.36600
N  50.12500 48.88100 42.28600
C  50.52100 50.05300 42.88700
C  49.48800 51.06300 42.90000
C  48.41200 50.32100 42.22800
C  48.87000 49.05700 41.85600
C  49.42700 52.45600 43.42200
C  47.05000 50.49500 41.66100
O  46.27700 51.42800 41.69400
C  46.63400 49.12600 40.97900
C  45.47200 48.70900 41.76000
O  45.41900 48.18500 42.85800
O  44.37500 48.92700 40.99600
C  43.10500 48.39400 41.53000
H  49.71800 43.14100 40.39700
H  55.26900 45.90900 42.90600
H  52.02600 51.21600 43.68600
H  46.25500 45.98200 40.63000
H  47.95000 44.35400 38.95600
H  46.71100 42.84400 40.20600
H  46.14900 43.98700 41.37100
H  47.77800 43.28000 41.58600
H  47.31900 46.10400 37.78900
H  47.40900 47.68700 38.39800
H  45.06900 47.90400 38.27700
H  44.78900 46.50500 39.28300
H  53.13200 41.34400 39.96100
H  51.38800 41.82500 39.94600
H  52.15300 41.02400 41.33200
H  57.06200 42.96400 42.60900
H  55.87600 43.77900 43.47400
H  56.53200 44.51700 41.92700
H  55.72600 48.62700 42.76500
H  54.34000 50.01800 44.82300
H  55.47600 46.72400 45.08000
H  55.60400 48.42400 45.68600
H  56.83200 47.72000 44.64600
H  54.53800 50.65600 41.93600
H  55.96900 50.78100 42.72900
H  55.24800 52.98400 43.66600
H  53.78800 52.40600 44.25800
H  53.72500 52.69500 42.59400
H  49.47300 53.09000 42.53600
H  50.34800 52.51700 44.00000
H  48.51700 52.70000 43.97000
H  46.53200 49.25500 39.90100
H  43.06000 48.37900 42.61900
H  42.92200 47.36500 41.22000
H  42.29700 49.01700 41.14600

