158

Mg 47.27700 33.70000 26.47700
C  45.90300 32.56000 29.42000
C  48.25800 36.54700 28.28900
C  48.57900 35.08100 23.68800
C  46.48600 30.83400 24.78100
N  47.08800 34.43200 28.62400
C  46.50300 33.79000 29.66200
C  46.71800 34.45200 31.00500
C  47.10100 35.86100 30.51500
C  47.62000 35.58600 29.09000
C  45.94500 36.93500 30.58800
C  47.83200 33.85000 31.86600
C  47.81900 33.88300 33.41400
H  46.80900 34.79400 34.13300
N  48.46600 35.49800 26.08000
C  48.69900 36.54500 26.87700
C  49.48100 37.54300 26.13300
C  49.55700 37.14800 24.75200
C  48.87800 35.83400 24.79400
C  50.12200 38.82400 26.73200
C  50.10300 37.90500 23.50800
O  50.20500 37.45800 22.38200
C  50.38700 39.35500 23.73500
N  47.40200 33.07000 24.43900
C  47.92000 33.85300 23.45400
C  47.92000 33.08700 22.10700
C  47.52900 31.62700 22.55100
C  47.12600 31.83000 24.01000
C  46.99900 33.70600 20.95600
C  48.70100 30.48900 22.38400
C  50.10700 30.79600 22.99100
N  46.32500 32.05100 26.89500
C  46.04700 30.86700 26.12500
C  45.33900 29.86000 26.99300
C  45.19100 30.53400 28.21700
C  45.88900 31.80900 28.17900
C  44.93800 28.42200 26.63100
C  44.61300 30.39000 29.47600
O  43.92600 29.52800 30.00900
C  44.98100 31.76400 30.28600
C  45.23600 31.55500 31.73700
O  46.15400 30.93000 32.25000
O  44.10300 31.95900 32.42300
C  43.97000 31.41300 33.76500
H  48.49200 37.42800 28.89100
H  48.81900 35.57400 22.74300
H  46.42300 29.87800 24.25700
H  45.75100 34.40000 31.50500
H  47.95400 36.22900 31.08500
H  45.12100 36.44600 31.10800
H  45.65400 37.27200 29.59300
H  46.27100 37.84100 31.09900
H  48.73700 34.43900 31.71900
H  48.10500 32.82500 31.61700
H  48.84200 33.90000 33.78800
H  47.55900 32.85500 33.66400
H  49.99900 38.69300 27.80700
H  49.54100 39.68700 26.40600
H  51.09500 39.09000 26.32000
H  49.46100 39.76200 24.14100
H  50.53500 39.79100 22.74700
H  51.30000 39.49400 24.31300
H  48.93600 33.07600 21.71100
H  46.60900 31.36200 22.03000
H  47.48500 33.41200 20.02500
H  46.76900 34.77200 20.94200
H  46.09700 33.09600 20.92900
H  48.79200 30.17000 21.34500
H  48.37700 29.66300 23.01800
H  50.27000 30.13600 23.84300
H  50.31600 31.81700 23.31000
H  50.78400 30.53300 22.17900
H  45.81200 27.77200 26.60300
H  44.38000 28.32400 25.70000
H  44.24300 28.15300 27.42700
H  44.03200 32.29600 30.22100
H  43.89900 30.32600 33.79000
H  43.01000 31.55200 34.26300
H  44.67900 31.87600 34.45100
Mg 26.67700 50.04300 26.92500
C  24.62300 51.33500 29.63200
C  28.94100 49.05300 29.40600
C  28.69500 49.22800 24.53700
C  24.38100 51.53700 24.70200
N  26.73700 50.18200 29.27100
C  25.68200 50.66800 30.11700
C  26.05200 50.43600 31.58300
C  27.49100 49.71700 31.47200
C  27.76900 49.62900 29.93200
C  28.59900 50.48300 32.20500
C  25.00300 49.58700 32.33800
C  24.37300 50.26300 33.66100
H  24.59200 49.48600 34.94700
N  28.48200 49.22800 26.95100
C  29.27400 48.84500 28.02200
C  30.53000 48.23400 27.63000
C  30.51800 48.28800 26.13900
C  29.17200 48.88100 25.80100
C  31.51900 47.57800 28.61700
C  31.52700 47.86400 25.18700
O  31.33200 48.06900 24.01800
C  32.81900 47.27200 25.56100
N  26.52000 50.36400 24.93200
C  27.51800 49.88200 24.12700
C  27.13900 49.99100 22.61700
C  25.79400 50.76000 22.71700
C  25.46900 50.85200 24.21000
C  28.17700 50.81600 21.73700
C  24.58400 50.03600 21.96900
C  24.05200 48.63500 22.34000
N  24.88400 51.16300 27.08000
C  24.09700 51.74300 26.08100
C  22.94500 52.54400 26.62600
C  23.17000 52.37300 28.05200
C  24.34500 51.56600 28.24500
C  21.82200 53.24000 25.80800
C  22.60100 52.67900 29.36200
O  21.57800 53.26100 29.67500
C  23.52800 52.04100 30.44400
C  23.93600 53.16300 31.33600
O  24.73400 54.04000 31.09100
O  23.20500 53.11500 32.53200
C  23.66000 54.00200 33.60100
H  29.54000 48.57700 30.18500
H  29.20500 48.87700 23.63800
H  23.70800 52.07600 24.03200
H  26.17300 51.39600 32.08600
H  27.62000 48.72500 31.90300
H  29.54900 50.00000 31.97700
H  28.56200 50.65100 33.28100
H  28.65700 51.43400 31.67700
H  25.47200 48.64200 32.61300
H  24.15500 49.35300 31.69300
H  23.31400 50.42300 33.46100
H  24.77500 51.27100 33.75900
H  31.38500 47.88700 29.65300
H  32.55400 47.86300 28.42800
H  31.37200 46.49800 28.60200
H  33.29200 47.70300 26.44400
H  33.53600 47.35400 24.74400
H  32.60500 46.21400 25.71500
H  26.89900 49.03300 22.15600
H  25.81600 51.77400 22.31500
H  29.07800 51.05400 22.30100
H  27.79900 51.76800 21.36500
H  28.34900 50.18700 20.86300
H  24.89700 49.95500 20.92800
H  23.84300 50.83600 21.98600
H  24.61300 48.22400 23.17900
H  24.20300 48.03300 21.44400
H  23.00100 48.74900 22.60400
H  21.38700 52.67100 24.98500
H  22.05500 54.22000 25.39100
H  21.04700 53.37400 26.56200
H  22.94900 51.30200 30.99800
H  22.88600 54.12900 34.35800
H  23.87900 54.96300 33.13500
H  24.53700 53.64200 34.13900

