158

Mg 8.07400 2.51200 28.01500
C  9.87700 1.04100 30.63900
C  6.49900 4.57000 30.02500
C  6.38500 3.64600 25.28200
C  9.44600 -0.07800 25.90700
N  8.17200 2.66600 30.07500
C  8.99900 2.10500 30.98600
C  8.84000 2.74500 32.39300
C  7.67700 3.81300 32.11600
C  7.44600 3.64000 30.59300
C  6.41400 3.70300 32.99000
C  10.13100 3.23200 33.06600
C  10.24400 2.82700 34.54600
H  11.09800 3.66400 35.48400
N  6.82300 4.10100 27.65800
C  6.26900 4.81900 28.68400
C  5.29800 5.72300 28.07000
C  5.36600 5.56500 26.62600
C  6.22500 4.38500 26.43700
C  4.23000 6.51000 28.87100
C  4.58400 6.26200 25.50200
O  4.70100 5.91700 24.32800
C  3.89300 7.53600 25.85000
N  7.87600 1.77500 25.94300
C  7.14200 2.49900 25.02300
C  7.36900 2.03900 23.55200
C  8.20500 0.76500 23.84200
C  8.52700 0.79700 25.30800
C  6.12000 1.72600 22.64500
C  9.38500 0.50200 22.87000
C  9.36700 -0.84100 22.11900
N  9.51700 0.87400 28.21400
C  9.93600 -0.01900 27.24000
C  10.87500 -1.01300 27.92100
C  10.90600 -0.54900 29.27800
C  10.05300 0.51500 29.38200
C  11.53700 -2.23400 27.29500
C  11.40600 -0.80800 30.54600
O  12.01000 -1.81900 31.01600
C  10.82000 0.27000 31.55500
C  10.05700 -0.39600 32.66600
O  8.84300 -0.63300 32.67700
O  10.84100 -0.61000 33.78700
C  10.22000 -0.82700 35.07000
H  5.93900 5.23600 30.68500
H  5.88200 4.04300 24.39700
H  9.63100 -0.91100 25.22600
H  8.26900 1.97500 32.91100
H  8.09900 4.80700 32.26700
H  6.44000 4.69100 33.44800
H  6.39800 2.92300 33.75100
H  5.59700 3.57100 32.28000
H  10.15800 4.31800 32.97100
H  10.98400 2.84500 32.50900
H  10.51600 1.77200 34.58200
H  9.21000 2.84300 34.89200
H  4.01700 6.00700 29.81400
H  3.28000 6.61000 28.34600
H  4.69500 7.48900 28.98600
H  4.49600 7.98300 26.64000
H  2.96200 7.40700 26.40300
H  3.87100 8.15600 24.95400
H  7.98700 2.79500 23.06800
H  7.56600 -0.08300 23.59200
H  5.21700 1.89700 23.23200
H  6.14500 0.74700 22.16700
H  6.11900 2.53200 21.91100
H  10.27100 0.70100 23.47400
H  9.32200 1.33600 22.17000
H  8.69600 -0.63100 21.28500
H  9.02400 -1.58500 22.83800
H  10.34000 -1.10200 21.70300
H  12.32500 -1.83400 26.65600
H  10.72800 -2.77200 26.80200
H  12.00600 -2.85700 28.05700
H  11.63300 0.84200 32.00000
H  10.92500 -0.68300 35.88800
H  9.88800 -1.85500 35.21600
H  9.35800 -0.17500 35.20900
Mg -10.97100 37.85200 41.42700
C  -8.65400 35.19600 41.27900
C  -8.50500 39.85500 39.96300
C  -13.19600 40.16500 41.12600
C  -13.39900 35.40500 42.40400
N  -8.80100 37.57000 40.60100
C  -8.13200 36.37500 40.71200
C  -7.00100 36.47900 39.70400
C  -6.73800 38.01200 39.67600
C  -8.07500 38.54400 40.15700
C  -5.43000 38.39000 40.47100
C  -7.13000 35.76900 38.40600
C  -6.05700 34.80100 37.86800
H  -5.33800 35.32500 36.56900
N  -10.84100 39.79900 40.80800
C  -9.76200 40.48300 40.22100
C  -10.15600 41.88900 40.04800
C  -11.56200 41.94800 40.28300
C  -11.92900 40.57700 40.77600
C  -9.20400 43.02200 39.65000
C  -12.51500 43.16000 40.12100
O  -11.97200 44.12800 39.69100
C  -14.04100 43.20000 40.18000
N  -13.07800 37.77300 41.81300
C  -13.74900 38.92200 41.60000
C  -15.28000 38.60600 41.62900
C  -15.29000 37.09600 41.97000
C  -13.85900 36.71600 42.08100
C  -16.10200 39.58400 42.54500
C  -16.02100 36.06700 41.13200
C  -17.08100 35.29200 41.90100
N  -11.07700 35.73600 41.82300
C  -12.06800 34.94200 42.35000
C  -11.61400 33.64800 42.56800
C  -10.25900 33.66700 42.10600
C  -9.96500 35.01700 41.73600
C  -12.42200 32.48700 43.12700
C  -9.11400 32.89100 41.93700
O  -8.86000 31.75100 42.21800
C  -8.09500 33.79000 41.20600
C  -6.75700 33.65600 41.83900
O  -5.88000 32.95200 41.36000
O  -6.82100 34.13500 43.15000
C  -5.62200 34.00000 44.00100
H  -7.69000 40.45300 39.54900
H  -13.99700 40.88900 40.95800
H  -14.16000 34.69000 42.72300
H  -6.19900 35.97600 40.24400
H  -6.63100 38.39600 38.66100
H  -4.65600 37.62300 40.47000
H  -5.69900 38.58300 41.51000
H  -5.07800 39.28200 39.95400
H  -7.30900 36.53300 37.65000
H  -8.05600 35.19500 38.41800
H  -6.55100 33.85700 37.63600
H  -5.30100 34.67400 38.64200
H  -8.19600 42.65900 39.45100
H  -9.32900 43.90800 40.27300
H  -9.43700 43.47500 38.68700
H  -14.21700 44.17600 39.72600
H  -14.47100 43.14200 41.18000
H  -14.47700 42.43800 39.53400
H  -15.62000 38.75600 40.60400
H  -15.70000 36.97500 42.97300
H  -16.44200 40.39100 41.89600
H  -15.44800 39.89300 43.36000
H  -16.95900 38.96700 42.81800
H  -15.51500 35.28300 40.56900
H  -16.60100 36.58600 40.36900
H  -18.02200 35.39600 41.36100
H  -17.18400 35.60400 42.94000
H  -16.84600 34.22800 41.89200
H  -13.43400 32.55200 42.72700
H  -12.27800 32.43800 44.20600
H  -11.99300 31.55600 42.75600
H  -8.03600 33.45800 40.16900
H  -5.26800 35.03000 44.03800
H  -4.78800 33.38700 43.65800
H  -5.93100 33.71100 45.00600

