158

Mg 30.05200 58.18200 41.12900
C  27.32700 56.45700 39.79000
C  32.16000 56.08600 39.42900
C  32.61400 60.48200 41.30600
C  27.80000 60.79500 42.07000
N  29.79900 56.50900 39.68100
C  28.57400 55.93500 39.35600
C  28.83600 54.54300 38.70600
C  30.34600 54.42700 38.68200
C  30.82900 55.71200 39.33900
C  31.02600 53.21600 39.38900
C  28.18700 54.38400 37.31000
C  27.92500 55.67200 36.47500
H  27.82000 55.48000 34.92500
N  32.17400 58.16700 40.66800
C  32.81000 57.21400 39.94400
C  34.20200 57.58000 39.78000
C  34.39200 58.88100 40.34600
C  33.01300 59.26200 40.76100
C  35.22000 56.72000 39.08500
C  35.70800 59.71800 40.32100
O  36.72900 59.35300 39.71300
C  35.74200 61.08500 41.01300
N  30.14300 60.39000 41.59700
C  31.36600 60.95000 41.83000
C  31.17200 62.41300 42.27200
C  29.51300 62.51800 42.49700
C  29.09500 61.17700 42.04500
C  32.11800 62.95200 43.38300
C  28.91700 63.66300 41.74700
C  27.64200 64.35600 42.21100
N  28.08500 58.50700 41.16300
C  27.27500 59.56200 41.61100
C  25.88600 59.25100 41.47700
C  25.86100 58.06200 40.78500
C  27.16800 57.64800 40.58100
C  24.69200 60.10100 41.86500
C  24.99700 57.02100 40.26400
O  23.76900 56.97200 40.25400
C  25.93300 55.85200 39.59800
C  25.77500 54.51900 40.39100
O  26.43000 54.31100 41.39600
O  24.83500 53.70300 39.86600
C  24.64200 52.42900 40.55100
H  32.78900 55.47800 38.77600
H  33.24200 61.37400 41.26600
H  27.09900 61.57200 42.38200
H  28.41600 53.65600 39.18000
H  30.64600 54.39700 37.63500
H  31.51300 53.46600 40.33100
H  31.80100 52.75800 38.77400
H  30.39600 52.36900 39.65800
H  27.26000 53.81600 37.37600
H  28.83400 53.74600 36.70800
H  28.72800 56.37700 36.69000
H  26.96900 56.07600 36.81000
H  35.95800 57.31000 38.54200
H  34.78000 56.02100 38.37300
H  35.75400 56.16800 39.85900
H  35.20300 61.83900 40.43900
H  36.76100 61.47000 41.04000
H  35.41900 60.83700 42.02400
H  31.36600 63.07400 41.42800
H  29.17500 62.56600 43.53200
H  32.81000 63.67700 42.95400
H  32.44000 62.06700 43.93100
H  31.51800 63.49800 44.11200
H  28.87900 63.47700 40.67400
H  29.70800 64.41100 41.70100
H  26.97100 64.26800 41.35700
H  27.80600 65.40600 42.45600
H  27.21000 63.94200 43.12200
H  24.86100 60.49300 42.86800
H  23.77900 59.51400 41.76900
H  24.72900 60.93800 41.16700
H  25.64600 55.61700 38.57300
H  23.75200 51.91800 40.18300
H  24.50800 52.49300 41.63000
H  25.47800 51.79900 40.24700
Mg 9.24700 48.53400 25.22900
C  7.09800 48.85400 28.07600
C  11.76300 49.74800 27.14600
C  11.16900 48.53600 22.46400
C  6.40000 47.82700 23.26700
N  9.31900 49.33700 27.34400
C  8.40700 49.24600 28.32200
C  8.97900 49.82300 29.69900
C  10.36000 50.37600 29.24400
C  10.51400 49.74700 27.79500
C  10.64600 51.97500 29.18900
C  9.06500 48.73100 30.83200
C  9.88900 49.01700 32.03200
H  9.38500 48.43500 33.34400
N  11.27200 49.05700 24.86000
C  12.13100 49.46800 25.83100
C  13.39700 49.52300 25.26200
C  13.30800 49.18000 23.84800
C  11.90800 48.91700 23.64800
C  14.54800 49.88300 26.18500
C  14.36600 49.04800 22.69700
O  14.01900 48.92900 21.49500
C  15.80500 49.07600 23.08900
N  8.83900 48.24600 23.20700
C  9.79200 48.29100 22.30500
C  9.30000 47.86400 20.90100
C  7.76200 47.45500 21.13900
C  7.63800 47.78200 22.63800
C  9.51300 48.87100 19.77400
C  7.38800 46.01300 20.67500
C  7.78600 44.77800 21.51000
N  7.18000 48.38100 25.56300
C  6.15200 48.13800 24.61900
C  4.83500 48.12200 25.28900
C  5.14900 48.37100 26.67400
C  6.60000 48.57200 26.77500
C  3.52100 47.77200 24.59400
C  4.63200 48.51400 28.03100
O  3.48700 48.39000 28.44800
C  5.80100 48.72700 28.96300
C  5.76700 47.57900 29.90300
O  6.37600 46.55200 29.83200
O  4.76700 47.80700 30.81900
C  4.42700 46.86800 31.82300
H  12.46900 50.27800 27.79000
H  11.66000 48.29900 21.51800
H  5.54900 47.68400 22.59900
H  8.38800 50.63500 30.12300
H  11.17600 49.97600 29.84500
H  11.07200 52.15000 28.20000
H  11.48600 52.15400 29.86100
H  9.72100 52.53100 29.33800
H  9.42400 47.84200 30.31400
H  8.02700 48.46300 31.03100
H  10.22800 50.04000 32.19500
H  10.85100 48.51300 31.94200
H  14.57700 50.95700 26.36900
H  15.54700 49.58300 25.86600
H  14.51600 49.33800 27.12800
H  16.36900 49.10500 22.15700
H  16.08600 48.26600 23.76200
H  15.94900 49.99500 23.65700
H  9.87000 46.96600 20.66200
H  7.10100 48.13600 20.60200
H  9.68900 49.89100 20.11400
H  8.58500 48.98900 19.21400
H  10.26600 48.48400 19.08800
H  7.76700 45.90300 19.65900
H  6.30000 45.96800 20.63100
H  6.99000 44.29500 22.07600
H  8.50100 45.04700 22.28700
H  8.27500 44.00500 20.91600
H  3.44800 46.69300 24.45700
H  3.61100 48.19100 23.59100
H  2.61900 48.19000 25.03800
H  5.70600 49.66900 29.50300
H  3.50400 47.29200 32.22000
H  5.23900 46.81000 32.54900
H  4.02200 45.95800 31.38200

