158

Mg 46.79900 45.01000 43.31700
C  43.45700 44.27400 42.84400
C  47.48800 41.65200 42.54900
C  49.90400 45.80000 42.89000
C  45.73500 48.48300 43.52000
N  45.57500 43.14700 42.66300
C  44.24100 43.09200 42.67100
C  43.73600 41.64700 42.43100
C  45.03600 40.74100 42.59800
C  46.12400 41.89700 42.57400
C  45.08700 39.86200 43.80500
C  42.90200 41.32700 41.18300
C  43.19300 42.19100 39.93800
H  43.23400 41.47500 38.58700
N  48.53400 43.86600 42.72000
C  48.62300 42.54700 42.56300
C  50.01300 42.14500 42.59300
C  50.77000 43.37800 42.51100
C  49.75300 44.42600 42.61700
C  50.52900 40.67300 42.63200
C  52.22100 43.53600 42.39400
O  52.90600 42.50900 42.40500
C  52.96400 44.84900 42.31100
N  47.70100 46.85300 43.19700
C  49.05100 46.88500 43.35400
C  49.56400 48.35100 43.44200
C  48.25000 49.17100 43.62600
C  47.14200 48.09300 43.42900
C  50.56000 48.54200 44.55000
C  48.05300 50.35400 42.73100
C  47.66400 50.01700 41.25800
N  44.98100 46.14000 43.34200
C  44.72400 47.46800 43.39800
C  43.30300 47.69300 43.38100
C  42.76700 46.44200 43.12600
C  43.81600 45.55000 43.14600
C  42.61800 49.07300 43.51700
C  41.52000 45.77400 42.85300
O  40.39500 46.18200 42.79700
C  41.95900 44.32000 42.74200
C  41.38400 43.50600 43.81400
O  40.75500 42.44400 43.66400
O  41.62800 44.01900 45.05300
C  41.36500 43.16000 46.16900
H  47.87200 40.63100 42.60100
H  50.91600 46.20900 42.94800
H  45.46700 49.52400 43.71000
H  43.11000 41.49900 43.31100
H  45.14700 40.15600 41.68500
H  45.91900 40.16500 44.44000
H  45.31000 38.83900 43.49800
H  44.14200 39.78200 44.34100
H  41.86700 41.47400 41.49200
H  43.09700 40.27700 40.96700
H  44.13100 42.71500 40.12900
H  42.41000 42.93400 39.78600
H  50.52200 40.39100 41.57900
H  49.85300 40.05400 43.22200
H  51.55700 40.55900 42.97400
H  52.44400 45.53700 41.64400
H  53.96300 44.68900 41.90600
H  53.03700 45.28100 43.30900
H  50.11500 48.38800 42.50200
H  48.06200 49.54200 44.63300
H  51.60400 48.57800 44.23800
H  50.46900 47.63200 45.14300
H  50.29900 49.45800 45.08000
H  49.01700 50.84500 42.60000
H  47.27900 51.05200 43.05000
H  46.80500 50.57700 40.88700
H  47.38400 48.97500 41.10400
H  48.46800 50.23800 40.55600
H  43.12100 49.63200 44.30500
H  41.54000 48.95200 43.62500
H  42.77000 49.70900 42.64500
H  41.64800 43.92500 41.77400
H  41.96700 42.25600 46.07500
H  40.29300 42.98000 46.25200
H  41.71500 43.50800 47.14100
Mg 25.69300 52.13400 26.07700
C  23.71200 53.25100 28.87000
C  28.38200 51.84800 28.30500
C  27.86000 52.01000 23.47900
C  23.19500 53.37200 23.97800
N  25.99700 52.46400 28.27500
C  25.01400 52.75700 29.22000
C  25.46300 52.54100 30.72000
C  26.98100 52.14300 30.51000
C  27.14400 52.06800 28.94200
C  27.98500 53.12900 31.33200
C  24.59300 51.37500 31.47800
C  23.87400 51.74800 32.74500
H  24.64800 52.51600 33.78400
N  27.77500 51.71300 25.89300
C  28.67500 51.63000 26.95500
C  30.04500 51.36500 26.42300
C  29.86900 51.47100 24.96900
C  28.49900 51.81900 24.69400
C  31.23000 51.09100 27.28400
C  30.95100 51.45800 23.96100
O  30.69900 51.78000 22.80300
C  32.31100 51.08800 24.45900
N  25.58700 52.55800 24.05100
C  26.55500 52.30500 23.19600
C  26.13600 52.80300 21.79800
C  24.62800 53.02900 21.90500
C  24.38700 52.94200 23.41600
C  27.04900 53.98300 21.20100
C  23.67000 52.11100 21.12900
C  23.40500 52.44500 19.64700
N  23.81400 53.06300 26.28900
C  22.89000 53.45300 25.33900
C  21.69000 53.99900 25.94200
C  22.05800 53.98300 27.35000
C  23.28900 53.38700 27.49800
C  20.46100 54.48400 25.19400
C  21.56600 54.35700 28.69800
O  20.48000 54.83800 29.06600
C  22.52800 53.71300 29.74800
C  23.01200 54.82600 30.63100
O  24.01400 55.45300 30.53200
O  22.07400 55.01700 31.63000
C  22.46800 56.13900 32.52100
H  29.24300 51.64800 28.94800
H  28.42500 51.99600 22.54400
H  22.39800 53.64600 23.28400
H  25.42700 53.49100 31.25400
H  27.15200 51.21500 31.05500
H  28.69800 53.66500 30.70600
H  28.53100 52.57900 32.09900
H  27.41700 53.85600 31.91200
H  25.14100 50.48100 31.77400
H  23.78600 51.10000 30.79900
H  23.56000 50.88300 33.32900
H  23.00000 52.34300 32.47800
H  31.76100 50.19700 26.95600
H  30.93300 50.88700 28.31200
H  31.96900 51.89200 27.28100
H  32.92700 50.95100 23.57100
H  32.34200 50.07600 24.86400
H  32.72800 51.83500 25.13500
H  26.26600 51.91700 21.17800
H  24.50900 54.04600 21.53000
H  26.37100 54.83500 21.14200
H  27.38000 53.76100 20.18600
H  27.91100 54.14900 21.84700
H  22.71200 52.18200 21.64300
H  24.10500 51.11300 21.18200
H  24.18200 53.16000 19.37800
H  22.39800 52.86100 19.67500
H  23.49100 51.53900 19.04600
H  20.17000 53.75000 24.44300
H  20.58800 55.39600 24.61000
H  19.65700 54.69500 25.90000
H  21.94200 53.00500 30.33300
H  22.64700 56.94700 31.81100
H  23.39000 55.91600 33.05800
H  21.62900 56.30500 33.19700

