158

Mg 17.29100 -1.42500 27.93300
C  16.24900 0.81400 30.49100
C  19.32900 -2.89900 30.18400
C  18.52800 -3.13400 25.40900
C  15.47700 0.60700 25.69900
N  17.81600 -0.95700 30.05300
C  17.11200 -0.19800 30.91200
C  17.65100 -0.25700 32.34500
C  18.67700 -1.44200 32.24100
C  18.69800 -1.77700 30.71000
C  20.09300 -1.14800 32.72100
C  16.53800 -0.57900 33.44000
C  16.68600 0.15600 34.81400
H  18.05100 0.59100 35.26300
N  18.80400 -2.80700 27.85000
C  19.44200 -3.37400 28.90800
C  20.26800 -4.46400 28.39600
C  20.01700 -4.58900 26.96600
C  19.11400 -3.45100 26.65400
C  21.25100 -5.19900 29.30600
C  20.61100 -5.53600 25.90600
O  20.54600 -5.47900 24.71300
C  21.51100 -6.74200 26.36900
N  17.10800 -1.17400 25.84100
C  17.62800 -2.14700 25.02900
C  17.35800 -1.80700 23.54000
C  16.41900 -0.56900 23.67500
C  16.27400 -0.37100 25.19200
C  18.63700 -1.35400 22.78200
C  15.03700 -0.72600 23.05400
C  14.00000 -1.60500 23.75100
N  15.99500 0.28200 28.03100
C  15.24000 0.94300 27.06100
C  14.49500 2.00800 27.64200
C  14.84100 2.03200 29.05600
C  15.77400 0.96900 29.17500
C  13.62400 3.07300 26.90400
C  14.68900 2.70100 30.30600
O  14.01600 3.69000 30.63600
C  15.59500 1.95500 31.29300
C  16.41300 2.99900 32.03900
O  17.52900 3.39800 31.72700
O  15.64700 3.47600 33.06500
C  16.31600 4.51500 33.90300
H  19.92200 -3.43100 30.93100
H  18.88100 -3.69300 24.54000
H  14.96100 1.27700 25.00900
H  18.12700 0.68100 32.63500
H  18.16300 -2.19400 32.84000
H  20.44400 -1.85900 33.46900
H  20.07300 -0.12000 33.08100
H  20.83000 -1.13800 31.91800
H  16.32700 -1.61300 33.71400
H  15.56300 -0.16600 33.18300
H  16.20400 -0.44000 35.59000
H  16.07900 1.06100 34.77500
H  20.74800 -5.93400 29.93500
H  21.59800 -4.56300 30.12100
H  22.14100 -5.65400 28.87200
H  20.88900 -7.17100 27.15400
H  22.45600 -6.34100 26.73500
H  21.61800 -7.51900 25.61200
H  16.92500 -2.63000 22.97300
H  16.83000 0.37000 23.30200
H  18.77300 -0.27400 22.73400
H  18.60600 -1.79200 21.78400
H  19.53900 -1.76700 23.23500
H  15.07300 -1.02200 22.00600
H  14.60500 0.26400 22.90800
H  13.30800 -0.94700 24.27700
H  14.36800 -2.38000 24.42300
H  13.38100 -2.05200 22.97400
H  12.55700 2.86300 26.96100
H  13.86500 3.10200 25.84100
H  13.72800 3.99100 27.48300
H  14.90700 1.53700 32.02800
H  16.89000 5.31400 33.43400
H  17.01200 4.06300 34.60900
H  15.56900 5.06500 34.47400
Mg 27.35000 50.16600 27.02600
C  25.11500 51.07900 29.65500
C  29.70500 49.42600 29.36900
C  29.57300 49.63700 24.55700
C  24.99500 51.23200 24.75500
N  27.33000 50.28800 29.24200
C  26.33600 50.65800 30.11100
C  26.73600 50.38100 31.60600
C  28.27400 49.89300 31.41200
C  28.46400 49.81700 29.90200
C  29.21000 50.93300 32.07100
C  25.86100 49.29100 32.22300
C  25.09100 49.67100 33.51500
H  25.25500 48.77100 34.70000
N  29.36800 49.53800 26.95400
C  30.15400 49.22500 28.00300
C  31.48900 48.68700 27.55100
C  31.49300 49.04600 26.17700
C  30.09400 49.40700 25.82200
C  32.59700 48.16500 28.42900
C  32.62900 49.11700 25.19700
O  32.52300 49.65000 24.10000
C  33.98700 48.67200 25.65500
N  27.30600 50.43900 24.94500
C  28.26900 49.98800 24.08900
C  27.80500 50.07200 22.60900
C  26.38000 50.71800 22.73900
C  26.22800 50.76600 24.21300
C  28.88500 50.70000 21.61500
C  25.20600 50.00500 22.06400
C  24.28500 50.72500 21.07900
N  25.37200 50.92800 27.10800
C  24.58900 51.39800 26.11900
C  23.38700 51.89000 26.61200
C  23.56900 51.82700 28.02000
C  24.78500 51.21300 28.27400
C  22.19800 52.53300 25.79100
C  22.96900 52.11700 29.27700
O  21.96200 52.69700 29.61500
C  23.92900 51.56200 30.43400
C  24.08600 52.77300 31.30000
O  24.36400 53.85100 30.90100
O  23.70100 52.39000 32.54300
C  23.87200 53.36600 33.61300
H  30.36600 49.08800 30.17000
H  30.26700 49.47900 23.72900
H  24.23600 51.35600 23.98000
H  26.68300 51.26000 32.24800
H  28.38200 48.90500 31.86000
H  29.81200 50.54900 32.89500
H  28.67500 51.74300 32.56600
H  29.83900 51.42600 31.33000
H  26.36600 48.35800 32.47500
H  25.07100 49.00200 31.53000
H  24.05000 49.58400 33.20400
H  25.29800 50.68900 33.84600
H  33.28700 47.52100 27.88300
H  32.21700 47.51300 29.21500
H  33.09100 48.96700 28.97800
H  34.72700 49.06200 24.95700
H  33.94200 47.58500 25.72500
H  34.06500 49.20700 26.60100
H  27.84000 49.07300 22.17300
H  26.50400 51.76700 22.46700
H  29.69500 51.21000 22.13700
H  28.32000 51.39400 20.99200
H  29.26600 49.98100 20.89000
H  24.68300 49.44500 22.84000
H  25.64900 49.23400 21.43400
H  24.53400 50.26500 20.12200
H  24.57300 51.77600 21.10800
H  23.23000 50.75400 21.35200
H  22.16000 51.86500 24.93000
H  22.39900 53.58500 25.59000
H  21.28300 52.49100 26.38200
H  23.43200 50.77900 31.00700
H  24.16400 54.35000 33.24700
H  24.61700 53.02000 34.33000
H  22.90000 53.52700 34.08000

