158

Mg -1.96800 17.85600 27.30000
C  -2.46100 15.31400 29.70100
C  -2.87400 20.13100 29.69900
C  -2.37600 20.15300 24.91100
C  -2.05700 15.34400 24.94000
N  -2.46700 17.70900 29.51600
C  -2.53600 16.59900 30.30500
C  -2.72000 16.94400 31.80000
C  -3.06900 18.50200 31.69200
C  -2.72800 18.81400 30.24000
C  -4.50500 18.95800 32.18200
C  -1.52300 16.70100 32.71700
C  -1.80300 16.03900 34.07100
H  -0.85900 16.36100 35.29700
N  -2.27200 19.90600 27.34800
C  -2.62300 20.63100 28.43900
C  -2.71300 22.03600 28.09200
C  -2.43400 22.16700 26.68400
C  -2.33700 20.71400 26.19200
C  -3.01500 23.17600 29.03100
C  -2.15400 23.42800 25.84900
O  -1.84100 23.34700 24.67500
C  -2.01300 24.70200 26.54400
N  -2.04400 17.79200 25.23200
C  -2.32200 18.88000 24.45100
C  -2.40200 18.44200 22.95300
C  -2.27100 16.88600 23.02400
C  -2.01200 16.65100 24.49200
C  -3.68300 18.91700 22.17900
C  -1.13600 16.37500 22.11400
C  0.25600 16.34800 22.70100
N  -2.13700 15.74700 27.19200
C  -2.12000 14.88000 26.20800
C  -2.27300 13.52700 26.57200
C  -2.33100 13.59600 27.99000
C  -2.34300 14.98900 28.29400
C  -2.40700 12.26100 25.78100
C  -2.51800 12.89100 29.23900
O  -2.44600 11.61400 29.35600
C  -2.61600 13.95300 30.38900
C  -1.60800 13.48400 31.43100
O  -0.38800 13.66100 31.37800
O  -2.29800 12.75400 32.33600
C  -1.52900 12.23600 33.50000
H  -3.15400 20.87500 30.44900
H  -2.55700 20.90500 24.14000
H  -2.05000 14.57000 24.17000
H  -3.57700 16.41500 32.21700
H  -2.34600 19.19100 32.12900
H  -5.14900 19.05500 31.30800
H  -4.35000 19.87500 32.75000
H  -4.80800 18.19300 32.89700
H  -1.02200 17.66300 32.82800
H  -0.79900 16.11900 32.14600
H  -1.87600 14.95700 33.96800
H  -2.79700 16.36600 34.37700
H  -2.15400 23.82300 29.19500
H  -3.51500 22.96200 29.97600
H  -3.73400 23.74800 28.44500
H  -1.78900 25.50200 25.83800
H  -1.18700 24.54700 27.23800
H  -2.99200 25.00000 26.91700
H  -1.65800 18.93900 22.33100
H  -3.16900 16.33900 22.73800
H  -3.53400 19.67400 21.40900
H  -4.41800 19.44300 22.78700
H  -4.18800 18.04200 21.77000
H  -1.30300 16.98800 21.22800
H  -1.34100 15.35000 21.80600
H  0.46200 15.27800 22.71000
H  0.43300 16.58600 23.75000
H  0.99700 16.89400 22.11700
H  -2.33000 11.35700 26.38500
H  -1.57000 12.31000 25.08600
H  -3.31900 12.22200 25.18500
H  -3.61000 13.71700 30.77000
H  -1.51100 11.14600 33.52200
H  -1.91300 12.65900 34.42800
H  -0.50100 12.59400 33.56700
Mg 35.43400 48.59200 26.15800
C  36.17200 46.42700 28.90600
C  34.06400 50.89000 28.28600
C  34.34100 50.34000 23.33200
C  36.16700 45.76000 24.04000
N  35.09900 48.57500 28.31900
C  35.58500 47.67800 29.26400
C  35.43600 48.23000 30.69900
C  34.55200 49.56300 30.45600
C  34.58100 49.71500 28.92300
C  33.12200 49.63300 31.05800
C  36.82300 48.55400 31.17800
C  37.22800 48.14200 32.56500
H  37.16900 49.18500 33.66300
N  34.49900 50.35800 25.86300
C  34.02300 51.19900 26.88300
C  33.47400 52.40500 26.35400
C  33.73200 52.36300 24.90100
C  34.26600 50.93200 24.64400
C  32.75700 53.43900 27.22700
C  33.63800 53.46900 23.87600
O  33.90100 53.39100 22.69300
C  33.17700 54.83200 24.30700
N  35.10100 48.03400 23.97200
C  34.80000 49.04000 23.10000
C  34.82300 48.44700 21.72800
C  35.74000 47.18000 21.87200
C  35.70600 46.93900 23.35200
C  33.46100 48.22600 21.10900
C  37.25600 47.22800 21.45700
C  37.57300 46.06000 20.56100
N  36.02100 46.50500 26.38600
C  36.34000 45.53800 25.42000
C  36.82500 44.33700 26.09700
C  36.77500 44.67800 27.43600
C  36.26600 45.95200 27.60700
C  37.25500 42.97400 25.47400
C  37.04700 44.12500 28.77800
O  37.44300 43.08800 29.20200
C  36.72500 45.26800 29.74000
C  35.86500 44.75200 30.81000
O  34.72100 44.38600 30.64000
O  36.54100 44.70300 32.00800
C  35.82800 44.23200 33.17900
H  33.71100 51.68200 28.95000
H  34.07800 50.91000 22.43800
H  36.58600 44.96500 23.42000
H  34.92100 47.53100 31.35800
H  35.12200 50.37600 30.90400
H  33.02300 48.78300 31.73300
H  32.37800 49.47100 30.27800
H  32.86000 50.60400 31.47900
H  36.99000 49.62800 31.26400
H  37.58100 48.11200 30.53100
H  38.22900 47.70900 32.57600
H  36.47300 47.41000 32.85100
H  32.07100 53.07500 27.99100
H  32.20200 54.01200 26.48400
H  33.48700 54.15200 27.61000
H  33.57900 55.20200 25.25000
H  32.09200 54.79400 24.40400
H  33.28500 55.63400 23.57600
H  35.35700 49.19600 21.14400
H  35.20000 46.32700 21.46200
H  33.16700 47.18000 21.01800
H  33.46900 48.58900 20.08100
H  32.66100 48.73900 21.64300
H  37.96800 47.20300 22.28200
H  37.50500 48.12500 20.89100
H  37.25000 46.36400 19.56500
H  37.00500 45.15700 20.78300
H  38.60700 45.72200 20.63700
H  37.53200 43.10700 24.42900
H  36.54900 42.16500 25.66000
H  38.17000 42.60800 25.94000
H  37.63700 45.61200 30.22900
H  36.01200 44.91800 34.00500
H  36.25200 43.29700 33.54700
H  34.77000 44.07000 32.97600

