158

Mg 2.89400 -2.75800 43.71000
C  6.06100 -1.10800 43.17700
C  1.44600 -0.27900 42.04800
C  0.18800 -4.59600 43.63100
C  4.82700 -5.48400 45.05800
N  3.70300 -1.07900 42.67500
C  4.93000 -0.56300 42.49600
C  5.03000 0.76100 41.80800
C  3.52900 1.12800 41.72500
C  2.82900 -0.09800 42.23800
C  3.18900 2.45200 42.44400
C  5.86200 0.61200 40.43600
C  6.89200 1.78500 40.12400
H  6.49400 2.86000 39.11900
N  1.04500 -2.46300 42.89000
C  0.58800 -1.31700 42.31500
C  -0.77800 -1.46700 41.98600
C  -1.20100 -2.73000 42.47500
C  0.02000 -3.26700 43.08800
C  -1.56300 -0.42300 41.28100
C  -2.63200 -3.30800 42.39700
O  -3.51800 -2.67500 41.78400
C  -3.00000 -4.65100 43.08500
N  2.60900 -4.81700 44.23000
C  1.30000 -5.26100 44.13800
C  1.21600 -6.74900 44.66900
C  2.74300 -7.03100 45.02700
C  3.44200 -5.69700 44.77100
C  0.21300 -6.92000 45.81800
C  3.34000 -8.21000 44.23300
C  4.07400 -9.29900 45.02600
N  5.03400 -3.17100 44.23600
C  5.60400 -4.31200 44.70800
C  7.03900 -3.97900 44.97000
C  7.23600 -2.74300 44.40800
C  6.00100 -2.27000 43.94800
C  7.94300 -4.87900 45.77100
C  8.22200 -1.73900 44.17400
O  9.44300 -1.76000 44.36000
C  7.49300 -0.67500 43.26900
C  7.69300 0.59600 44.01600
O  7.21800 0.83500 45.15000
O  8.34400 1.55900 43.22200
C  8.26000 2.95900 43.77800
H  0.89900 0.58300 41.66000
H  -0.71500 -5.21000 43.62900
H  5.34100 -6.40800 45.33200
H  5.45100 1.53900 42.44500
H  3.04000 1.26200 40.76000
H  3.89300 3.24400 42.19000
H  3.19300 2.38400 43.53200
H  2.20000 2.73100 42.07900
H  5.20300 0.66300 39.56900
H  6.21900 -0.40300 40.26500
H  7.85600 1.38400 39.81100
H  6.98600 2.32800 41.06500
H  -0.85700 0.22800 40.76600
H  -2.28700 0.04800 41.94500
H  -2.19900 -0.95100 40.57000
H  -2.59900 -5.46900 42.48700
H  -4.08700 -4.71500 43.11500
H  -2.77900 -4.78000 44.14500
H  0.93400 -7.25000 43.74300
H  2.82100 -7.20900 46.10000
H  -0.29100 -7.88300 45.90400
H  -0.47200 -6.07600 45.73900
H  0.62500 -6.73800 46.81100
H  4.09900 -7.83100 43.54900
H  2.54100 -8.71300 43.68900
H  4.01500 -9.09000 46.09400
H  5.13800 -9.29100 44.78900
H  3.62600 -10.27900 44.86100
H  7.93900 -5.91100 45.41900
H  7.68700 -4.89500 46.83100
H  8.98300 -4.55900 45.71100
H  7.90900 -0.69300 42.26200
H  9.25400 3.36700 43.59600
H  8.14700 3.07800 44.85500
H  7.36900 3.42200 43.35200
Mg 1.20600 42.99200 26.40200
C  3.29700 43.09600 29.20100
C  -1.39300 42.11600 28.50700
C  -0.62100 42.34400 23.72900
C  3.89100 43.72500 24.32300
N  1.00700 42.76000 28.61500
C  2.02600 42.75800 29.55200
C  1.46800 42.47300 31.01000
C  0.00400 41.89000 30.66400
C  -0.07900 42.16400 29.13600
C  -0.23900 40.45500 30.99600
C  1.52800 43.72900 31.91800
C  1.60800 43.40500 33.42400
H  1.22700 41.98300 33.95700
N  -0.72500 42.49200 26.19500
C  -1.67000 42.31300 27.18400
C  -2.98000 42.09500 26.53200
C  -2.72400 42.08300 25.09500
C  -1.34200 42.32200 24.96500
C  -4.33200 41.91600 27.37800
C  -3.73200 41.96100 24.03500
O  -3.48300 42.04000 22.81500
C  -5.18500 41.65900 24.43800
N  1.67000 42.82400 24.32500
C  0.67400 42.54700 23.44100
C  1.29800 42.45600 22.05600
C  2.56500 43.34800 22.16400
C  2.71000 43.30600 23.67300
C  1.70100 40.99200 21.84700
C  2.46600 44.73700 21.54800
C  2.30200 45.96600 22.51700
N  3.19300 43.38800 26.63600
C  4.19200 43.60900 25.71300
C  5.46100 43.79500 26.45300
C  5.11800 43.65000 27.80800
C  3.75600 43.29000 27.85900
C  6.73600 44.08800 25.81200
C  5.70200 43.62800 29.03300
O  6.88100 43.74000 29.35700
C  4.49800 43.39600 30.04600
C  4.88000 42.34500 31.05200
O  5.05700 41.16700 30.86500
O  4.89200 43.01900 32.26800
C  5.04900 42.08600 33.38200
H  -2.25100 41.72800 29.06000
H  -1.23700 42.19100 22.84100
H  4.71800 43.95800 23.65000
H  1.96800 41.69200 31.58300
H  -0.76000 42.49100 31.15700
H  -0.09900 39.85400 30.09700
H  -1.21100 40.36700 31.48100
H  0.35700 40.15300 31.85700
H  0.66700 44.28400 31.54500
H  2.38900 44.33800 31.64200
H  0.90800 44.08700 33.90500
H  2.58300 43.68700 33.82100
H  -5.04300 42.63500 26.97000
H  -4.21300 42.14700 28.43700
H  -4.68000 40.88500 27.31600
H  -5.59200 42.53500 24.94200
H  -5.19200 40.83400 25.15000
H  -5.84300 41.45200 23.59400
H  0.64500 42.83300 21.26900
H  3.48200 42.85400 21.84100
H  2.68000 40.83700 21.39300
H  1.08600 40.74200 20.98200
H  1.56500 40.33300 22.70500
H  1.70000 44.76600 20.77300
H  3.43300 44.88100 21.06700
H  3.27200 46.46400 22.52200
H  2.13700 45.69400 23.55900
H  1.55900 46.69600 22.19500
H  7.30000 43.97900 26.73800
H  6.57100 45.11000 25.46900
H  6.87200 43.38700 24.98800
H  4.37600 44.33000 30.59400
H  4.79700 41.04400 33.18400
H  4.25400 42.25400 34.11000
H  6.04200 42.21900 33.81200

