158

Mg -1.90700 34.36700 27.22400
C  -3.34000 32.71600 29.80000
C  -0.24500 36.28700 29.52200
C  -0.81200 36.32700 24.68700
C  -3.75300 32.55500 24.92900
N  -1.91200 34.55100 29.44800
C  -2.48800 33.65500 30.28100
C  -2.13700 33.88900 31.74800
C  -1.09200 35.09700 31.64200
C  -1.07100 35.32100 30.12200
C  -1.33400 36.40000 32.39500
C  -1.51700 32.60300 32.50100
C  -2.16400 32.00800 33.75000
H  -1.36100 31.64300 35.01100
N  -0.64800 36.03700 27.10100
C  -0.02700 36.65400 28.17900
C  0.91900 37.60000 27.64200
C  0.67500 37.73900 26.23500
C  -0.32700 36.72000 25.96300
C  1.70900 38.49100 28.65700
C  1.17400 38.77700 25.13600
O  0.77800 38.90900 24.03300
C  2.37000 39.54900 25.56500
N  -2.30100 34.47800 25.15700
C  -1.65600 35.32800 24.33700
C  -2.15100 35.16100 22.93300
C  -2.85200 33.77000 22.93900
C  -3.02100 33.58400 24.40100
C  -3.10000 36.25200 22.46100
C  -2.08000 32.65000 22.22400
C  -0.56900 32.39200 22.69500
N  -3.32800 33.00200 27.30400
C  -3.89700 32.17300 26.30000
C  -4.70000 31.12000 26.88700
C  -4.58000 31.33900 28.26400
C  -3.65100 32.42900 28.43400
C  -5.56500 30.06900 26.25400
C  -4.91400 30.81400 29.52800
O  -5.48900 29.77700 29.77700
C  -4.14700 31.77600 30.61300
C  -5.25500 32.43400 31.29200
O  -6.14500 33.05000 30.80800
O  -5.14500 32.01600 32.61600
C  -6.22000 32.53000 33.48700
H  0.35700 36.64100 30.36200
H  -0.47100 36.93000 23.84200
H  -4.17000 31.89700 24.16400
H  -3.01700 34.22600 32.29500
H  -0.09400 34.87900 32.02100
H  -0.43200 36.75100 32.89600
H  -2.09900 36.37000 33.17000
H  -1.69600 37.18300 31.72900
H  -0.47100 32.85900 32.67300
H  -1.52000 31.78800 31.77800
H  -2.71000 31.10600 33.47500
H  -2.77700 32.81000 34.16200
H  2.74200 38.61500 28.33200
H  1.73400 38.10500 29.67600
H  1.30600 39.49500 28.79100
H  2.87800 39.98700 24.70500
H  3.07600 38.88300 26.05900
H  1.95300 40.34100 26.18700
H  -1.29600 35.13900 22.25800
H  -3.87000 33.71100 22.55400
H  -3.33200 36.78800 23.38100
H  -4.02600 35.85600 22.04500
H  -2.54800 36.83200 21.72100
H  -2.09600 32.79000 21.14300
H  -2.63800 31.72600 22.37400
H  0.14800 32.55600 21.89000
H  -0.42600 31.36900 23.04100
H  -0.31100 33.12600 23.45900
H  -5.22800 29.87200 25.23600
H  -6.59600 30.40200 26.37700
H  -5.39500 29.06500 26.64300
H  -3.59000 31.10200 31.26400
H  -7.16700 32.08900 33.17600
H  -6.31000 33.61600 33.45400
H  -5.91700 32.29600 34.50800
Mg -5.38600 24.84900 26.64300
C  -3.60500 26.28500 29.40200
C  -6.51100 22.60700 28.97600
C  -6.55200 23.37800 24.11700
C  -3.74700 27.24000 24.49300
N  -5.31900 24.74600 29.05600
C  -4.50000 25.34900 29.87600
C  -5.01100 25.15000 31.30900
C  -5.59900 23.66800 31.12700
C  -5.86200 23.65800 29.66700
C  -4.49700 22.59200 31.45400
C  -5.98100 26.23500 31.87300
C  -5.71400 26.75600 33.22300
H  -5.45000 25.69000 34.24400
N  -6.41400 23.25900 26.55100
C  -6.72200 22.37300 27.60000
C  -7.36400 21.21600 27.07000
C  -7.38300 21.38700 25.60200
C  -6.81400 22.70600 25.33100
C  -7.83600 20.14000 27.92700
C  -7.91000 20.44500 24.52100
O  -7.88600 20.70000 23.28800
C  -8.52100 19.22600 24.98000
N  -5.30800 25.35800 24.58400
C  -5.86900 24.55300 23.70600
C  -5.71600 24.95100 22.24700
C  -4.87500 26.28700 22.41500
C  -4.67800 26.37600 23.95900
C  -5.07800 23.79900 21.38100
C  -5.33300 27.51400 21.69000
C  -4.30100 28.33500 20.80100
N  -4.10200 26.45400 26.87600
C  -3.44700 27.26100 25.88700
C  -2.44900 28.16400 26.57400
C  -2.48100 27.75900 27.89600
C  -3.47200 26.74300 28.08900
C  -1.62400 29.39300 26.06600
C  -1.89200 28.03500 29.22200
O  -0.99600 28.80800 29.57300
C  -2.74100 27.21800 30.17700
C  -1.92500 26.50800 31.23500
O  -1.08100 25.62000 30.95200
O  -2.12600 26.99600 32.43600
C  -1.25900 26.60300 33.51900
H  -6.91200 21.97600 29.77200
H  -6.99600 22.98700 23.19800
H  -3.29800 28.00400 23.85500
H  -4.15000 25.03300 31.96600
H  -6.63400 23.51400 31.43300
H  -4.84600 21.64700 31.03800
H  -4.36300 22.41700 32.52100
H  -3.52900 22.90900 31.06500
H  -6.96600 25.77500 31.79600
H  -5.88900 27.05300 31.15900
H  -6.61400 27.26800 33.56200
H  -4.89900 27.47700 33.16100
H  -7.21500 20.09600 28.82100
H  -7.69900 19.18300 27.42400
H  -8.92200 20.22700 27.89300
H  -7.69000 18.60500 25.31300
H  -9.02200 18.81400 24.10400
H  -9.22800 19.38200 25.79500
H  -6.74100 25.09500 21.90500
H  -3.87000 26.12000 22.02600
H  -4.38700 24.13000 20.60500
H  -5.98200 23.39300 20.92700
H  -4.72200 23.04700 22.08500
H  -5.58300 28.22200 22.48000
H  -6.18500 27.16400 21.10800
H  -3.30600 27.91300 20.65600
H  -4.18600 29.31300 21.26800
H  -4.64700 28.60700 19.80500
H  -1.77100 30.31800 26.62400
H  -1.78800 29.57600 25.00400
H  -0.54900 29.22000 26.10700
H  -3.39500 27.90200 30.71700
H  -0.29400 26.20100 33.21000
H  -1.75900 25.87600 34.16000
H  -1.25500 27.57600 34.01100

