158

Mg 47.85300 16.30100 28.99800
C  45.83100 16.33500 31.92100
C  50.13400 18.18500 30.70000
C  49.55700 16.70600 26.08800
C  45.06300 15.26600 27.14600
N  48.01600 17.11000 31.09300
C  47.05200 17.00500 32.08600
C  47.52600 17.72500 33.37800
C  48.74500 18.49800 32.88500
C  48.96300 17.91300 31.49400
C  48.69500 20.10700 32.95100
C  47.78700 16.73200 34.56600
C  47.38200 17.08700 36.01500
H  47.50600 18.52800 36.45400
N  49.70700 17.20700 28.47300
C  50.53700 17.80900 29.34400
C  51.72500 18.20300 28.68000
C  51.58700 17.77800 27.29900
C  50.27500 17.12000 27.23800
C  52.78600 19.04300 29.32500
C  52.61400 17.88400 26.14700
O  52.25100 17.51600 25.02300
C  53.98500 18.52500 26.29200
N  47.44300 15.89100 26.85100
C  48.33100 16.09900 25.89900
C  47.71100 15.81900 24.53400
C  46.19000 15.41400 24.88200
C  46.25100 15.57000 26.39400
C  47.72900 17.01400 23.44700
C  45.74800 14.02300 24.32300
C  44.67600 14.09100 23.28600
N  45.88800 15.68600 29.41500
C  44.88500 15.23600 28.55600
C  43.79000 14.76500 29.36900
C  44.11100 15.13200 30.73500
C  45.39200 15.75400 30.67100
C  42.54800 14.08600 28.89800
C  43.65300 15.12500 32.10300
O  42.67400 14.60400 32.59400
C  44.66500 16.00600 32.88900
C  44.04500 17.27200 33.39400
O  43.87300 18.29200 32.77900
O  43.77800 17.11000 34.68200
C  43.36200 18.28600 35.43300
H  50.86500 18.92100 31.04200
H  49.88100 16.90500 25.06400
H  44.18100 14.85500 26.65000
H  46.80300 18.42800 33.79100
H  49.59500 18.17400 33.48600
H  48.77300 20.52200 31.94600
H  49.57000 20.51000 33.46000
H  47.80200 20.35500 33.52500
H  48.78200 16.28800 34.52500
H  47.23400 15.80500 34.42000
H  48.01300 16.44000 36.62500
H  46.33400 16.79700 36.08700
H  53.82200 18.76400 29.13400
H  52.70600 18.86600 30.39800
H  52.63700 20.09400 29.07500
H  54.40800 18.85800 25.34500
H  54.55700 17.72000 26.75400
H  53.80000 19.42500 26.87800
H  48.21800 14.93700 24.14200
H  45.48800 16.17100 24.53100
H  48.19900 16.61900 22.54600
H  48.35400 17.83800 23.79000
H  46.76100 17.47200 23.24200
H  45.34700 13.43900 25.15100
H  46.53300 13.43200 23.85100
H  44.75300 13.26500 22.58000
H  44.73300 15.06800 22.80600
H  43.75700 13.93100 23.85000
H  42.39600 14.68400 28.00000
H  41.65100 14.14100 29.51500
H  42.77400 13.04600 28.66700
H  44.99000 15.43500 33.75800
H  42.28400 18.40900 35.33700
H  43.92900 19.15800 35.10700
H  43.65700 18.24100 36.48200
Mg 30.33800 58.31800 40.48000
C  27.91000 56.11400 39.24300
C  32.69900 55.86800 39.64900
C  32.77400 60.66100 40.58900
C  27.94800 60.79700 40.53600
N  30.26700 56.19900 39.57000
C  29.17100 55.54700 39.12800
C  29.56500 54.22100 38.43700
C  30.94800 53.97100 39.10800
C  31.37800 55.41400 39.51800
C  30.90700 53.02000 40.35500
C  29.48400 54.44300 36.88400
C  29.10900 53.27300 35.98700
H  28.06200 53.41900 34.87600
N  32.37700 58.23600 40.31000
C  33.21200 57.14500 39.90800
C  34.58900 57.58900 39.78900
C  34.69400 58.89200 40.20700
C  33.23200 59.29900 40.36800
C  35.77000 56.79200 39.39000
C  36.04000 59.68200 40.54800
O  37.09900 59.13700 40.37500
C  35.98800 61.07800 41.08500
N  30.40000 60.39500 40.60700
C  31.50500 61.13800 40.69800
C  31.22100 62.63200 40.87900
C  29.64200 62.58500 41.00400
C  29.31200 61.14800 40.66200
C  31.99500 63.28600 42.01400
C  28.84100 63.49700 40.03300
C  27.69500 64.31000 40.57100
N  28.31600 58.46300 40.32400
C  27.44400 59.57300 40.32200
C  26.09200 59.13300 40.10800
C  26.21200 57.77600 39.64100
C  27.58900 57.44700 39.78500
C  24.87800 60.03300 40.20200
C  25.47500 56.62600 39.18300
O  24.32000 56.51400 38.80500
C  26.59500 55.54800 38.85100
C  26.10400 54.33600 39.64600
O  26.11900 54.26100 40.87200
O  25.80500 53.31200 38.73300
C  25.48600 52.09700 39.38000
H  33.51300 55.15800 39.49100
H  33.62800 61.34100 40.54800
H  27.16000 61.55200 40.58900
H  28.83400 53.48100 38.76100
H  31.68100 53.70100 38.34700
H  31.17700 53.64600 41.20600
H  31.69500 52.27300 40.26000
H  29.92500 52.55200 40.42500
H  30.51600 54.64700 36.59600
H  28.89800 55.34000 36.68300
H  28.80300 52.53500 36.72800
H  30.03700 52.93400 35.52600
H  35.39600 55.86900 38.94700
H  36.40400 56.49100 40.22400
H  36.38700 57.38900 38.71800
H  36.98100 61.26500 41.49200
H  35.19000 61.13100 41.82600
H  35.86700 61.68600 40.18800
H  31.47000 63.00900 39.88700
H  29.39700 62.79700 42.04500
H  32.51600 62.53200 42.60500
H  31.34600 63.89800 42.64000
H  32.66000 63.99300 41.51700
H  28.34100 62.96300 39.22500
H  29.53800 64.19300 39.56500
H  27.98200 65.32700 40.30300
H  27.41600 64.17300 41.61500
H  26.75600 64.18500 40.03200
H  24.79800 60.27200 41.26200
H  24.04600 59.47800 39.76800
H  25.06100 60.94300 39.63100
H  26.53100 55.26800 37.79900
H  25.10700 51.47800 38.56700
H  24.67300 52.31100 40.07300
H  26.36500 51.69000 39.87900

