158

Mg 16.55500 -1.33800 27.93200
C  15.27700 0.54300 30.73600
C  18.61900 -3.02800 29.95400
C  17.60100 -2.81000 25.17500
C  14.53000 0.83800 25.95000
N  16.98100 -1.10100 30.10700
C  16.31200 -0.41100 31.04500
C  16.85100 -0.68900 32.45300
C  17.94100 -1.76800 32.21700
C  17.88500 -1.99900 30.67000
C  19.37900 -1.33800 32.63800
C  15.62000 -1.28500 33.36500
C  15.30900 -0.70400 34.75000
H  16.32500 0.15600 35.46400
N  17.75400 -2.77000 27.64300
C  18.57600 -3.36700 28.56400
C  19.38800 -4.42500 27.97800
C  19.13500 -4.35700 26.60200
C  18.14500 -3.27600 26.42100
C  20.24100 -5.37800 28.83200
C  19.94700 -5.01200 25.46500
O  19.68400 -4.80200 24.29400
C  20.93100 -6.06000 25.85700
N  16.16300 -0.88000 25.84400
C  16.71000 -1.75500 24.95700
C  16.37000 -1.24800 23.53100
C  15.06500 -0.34100 23.79400
C  15.26300 -0.07800 25.26500
C  17.50900 -0.48700 22.79300
C  13.71700 -1.09200 23.51100
C  12.67400 -0.11500 22.91200
N  15.33100 0.45800 28.21400
C  14.55800 1.14500 27.31900
C  13.64000 2.02800 27.98600
C  13.87700 1.86900 29.33500
C  14.92800 0.90300 29.44700
C  12.69400 3.06900 27.40500
C  13.55500 2.30400 30.67400
O  12.82800 3.17500 31.03400
C  14.45400 1.41800 31.63800
C  15.32800 2.42000 32.23700
O  16.43900 2.80900 31.82800
O  14.80300 2.90200 33.39700
C  15.66600 3.88800 34.02900
H  19.22100 -3.65500 30.61500
H  17.86800 -3.42300 24.31100
H  13.84100 1.49500 25.41600
H  17.23100 0.21900 32.92100
H  17.74700 -2.74900 32.65000
H  19.98600 -1.45400 31.74100
H  19.66600 -1.92700 33.50900
H  19.52300 -0.28300 32.87200
H  15.62500 -2.36900 33.48300
H  14.76000 -1.32200 32.69600
H  15.08100 -1.60300 35.32200
H  14.38900 -0.12100 34.80400
H  19.85100 -6.39600 28.84400
H  20.34100 -5.23500 29.90800
H  21.28600 -5.37700 28.52100
H  21.78200 -5.60800 26.36800
H  21.30900 -6.38900 24.88900
H  20.44900 -6.86600 26.41000
H  16.17300 -2.15000 22.95200
H  15.21200 0.54800 23.18100
H  17.06900 0.45100 22.45300
H  17.77100 -1.14200 21.96200
H  18.38700 -0.32100 23.41700
H  13.32200 -1.77600 24.26100
H  13.87300 -1.81400 22.70900
H  11.91400 -0.84900 22.64600
H  12.97400 0.54700 22.09900
H  12.26800 0.47400 23.73500
H  11.86600 2.93300 28.10100
H  12.30400 2.73300 26.44500
H  13.19900 4.03500 27.37000
H  13.82600 0.95500 32.39800
H  16.13400 4.57400 33.32200
H  16.45800 3.39800 34.59400
H  15.05300 4.35300 34.80100
Mg 24.87200 1.19700 30.05100
C  26.97500 1.45400 32.78300
C  22.28500 1.97600 31.94400
C  23.12500 1.36700 27.18600
C  27.73400 0.28800 28.10100
N  24.72100 1.89300 32.12000
C  25.63400 1.71800 33.09000
C  25.07000 2.09100 34.49000
C  23.49900 1.98600 34.24200
C  23.49300 2.03800 32.64900
C  22.94200 0.65700 34.84000
C  25.67100 3.39900 35.03400
C  26.61700 3.31700 36.21700
H  26.27600 4.23400 37.40100
N  22.94800 1.65700 29.60300
C  21.96900 1.90300 30.54700
C  20.70400 1.88000 29.90700
C  20.97600 1.81900 28.54900
C  22.41500 1.63200 28.34400
C  19.38900 2.04400 30.69600
C  19.94500 1.83500 27.38600
O  20.29500 1.79200 26.22200
C  18.51500 1.86500 27.68900
N  25.32400 0.74500 27.89600
C  24.44000 0.93700 26.90300
C  25.08700 0.77000 25.49800
C  26.59500 0.41500 25.86100
C  26.55500 0.39200 27.36400
C  24.38100 -0.24900 24.55400
C  27.61200 1.45500 25.32300
C  27.61600 2.90800 25.77800
N  26.92600 0.84700 30.32900
C  27.99100 0.51400 29.44500
C  29.25300 0.42400 30.14000
C  28.79600 0.77700 31.48700
C  27.46000 1.05600 31.52400
C  30.67000 0.14600 29.74300
C  29.37300 1.02200 32.88800
O  30.50300 0.98200 33.29600
C  28.19100 1.42000 33.75000
C  28.11400 0.30300 34.66400
O  27.54900 -0.78600 34.44300
O  28.78700 0.56900 35.83000
C  28.72300 -0.42800 36.93200
H  21.45500 1.95300 32.65300
H  22.57400 1.48200 26.25000
H  28.65000 0.15900 27.52000
H  25.35900 1.26800 35.14300
H  22.99700 2.86500 34.64700
H  22.47700 0.98000 35.77200
H  23.67800 -0.14600 34.87200
H  22.10800 0.24300 34.27400
H  24.94000 4.04700 35.51800
H  26.22400 3.88800 34.23200
H  27.64800 3.59300 35.99700
H  26.68400 2.32800 36.67300
H  18.79900 1.14800 30.50800
H  18.78900 2.91600 30.43600
H  19.57900 2.09500 31.76800
H  18.40300 1.10600 28.46300
H  17.95000 1.77900 26.76100
H  18.23500 2.83200 28.10800
H  24.88900 1.75100 25.06600
H  26.83800 -0.61600 25.60200
H  23.33300 -0.46700 24.75800
H  25.01000 -1.14000 24.53700
H  24.51100 0.13400 23.54200
H  27.21500 1.46100 24.30800
H  28.61400 1.02700 25.28400
H  27.01300 3.04800 26.67500
H  27.19500 3.49900 24.96500
H  28.58000 3.33200 26.05900
H  30.78600 0.26000 28.66500
H  30.86600 -0.90500 29.95500
H  31.43700 0.73100 30.25000
H  28.36300 2.37400 34.24900
H  28.04200 -1.23800 36.67100
H  28.47500 0.15900 37.81600
H  29.73100 -0.79900 37.11500

