158

Mg -0.27200 7.26400 27.17600
C  0.69100 9.75900 29.57200
C  -0.11600 4.94400 29.53800
C  -1.07000 5.30600 24.75700
C  0.44200 9.91000 24.65600
N  0.22400 7.40200 29.29500
C  0.44600 8.48200 30.04700
C  0.39800 8.10700 31.53000
C  0.32600 6.51500 31.52700
C  0.14100 6.24100 30.06200
C  1.63200 5.81500 32.07800
C  -0.90200 8.67000 32.22500
C  -0.81200 8.69700 33.75400
H  0.54400 8.42600 34.47600
N  -0.58300 5.35500 27.21200
C  -0.43500 4.47100 28.26500
C  -0.60500 3.11400 27.79300
C  -0.79700 3.22600 26.35500
C  -0.82700 4.68300 26.01100
C  -0.48500 1.86700 28.62900
C  -0.98300 2.10200 25.37000
O  -1.01600 2.26800 24.17400
C  -1.03700 0.67100 25.80800
N  -0.26100 7.56300 25.03000
C  -0.89100 6.59000 24.30000
C  -1.19300 7.07000 22.82000
C  -0.79100 8.61100 22.93500
C  -0.15300 8.71600 24.27600
C  -0.42500 6.34000 21.66400
C  -2.07000 9.48100 22.93400
C  -2.22700 10.45600 21.82700
N  0.44800 9.40600 27.06400
C  0.78700 10.21200 26.00100
C  1.34000 11.42700 26.49900
C  1.28200 11.35600 27.85900
C  0.72800 10.14500 28.15400
C  1.85800 12.63300 25.69700
C  1.64300 11.97400 29.09900
O  2.25100 13.06400 29.19500
C  1.21300 11.01200 30.23600
C  2.46700 10.84600 31.04500
O  3.44500 10.15100 30.70400
O  2.46100 11.62900 32.14800
C  3.72500 11.73100 32.89100
H  0.00100 4.17500 30.30300
H  -1.52100 4.79500 23.90400
H  0.60900 10.68100 23.90200
H  1.32500 8.43900 31.99700
H  -0.45800 6.06500 32.13700
H  1.34200 4.97800 32.71300
H  2.15200 6.58900 32.64300
H  2.18200 5.40100 31.23200
H  -1.79200 8.19300 31.81600
H  -0.95800 9.73100 31.98000
H  -1.55900 8.02000 34.16800
H  -1.08500 9.71900 34.01500
H  0.42800 1.31500 28.40600
H  -1.45900 1.38300 28.70500
H  -0.34000 2.08500 29.68700
H  -1.19600 0.03800 24.93500
H  -1.82100 0.39800 26.51400
H  -0.02000 0.40200 26.09300
H  -2.24800 6.91700 22.58900
H  -0.11900 8.93100 22.13900
H  -0.11700 7.04400 20.89000
H  -0.99500 5.62500 21.07100
H  0.47900 5.86400 22.04300
H  -2.09300 10.05200 23.86200
H  -3.05200 9.01000 22.96400
H  -1.52500 11.28500 21.91700
H  -3.23200 10.87700 21.80800
H  -1.99300 10.05000 20.84300
H  2.52300 12.26400 24.91600
H  2.42700 13.28700 26.35800
H  1.16800 13.21100 25.08100
H  0.37200 11.43900 30.78200
H  3.65400 12.34600 33.78800
H  4.55600 12.18200 32.34800
H  3.93200 10.69600 33.16400
Mg 41.61200 8.47600 29.79900
C  43.54600 9.47600 32.50400
C  39.24500 7.34800 32.12800
C  39.90300 7.17500 27.25000
C  44.26700 9.18200 27.66600
N  41.55000 8.29500 32.04300
C  42.36600 8.90600 32.95000
C  41.86000 8.86500 34.38800
C  40.51500 8.01100 34.22100
C  40.40200 7.84100 32.69900
C  40.61500 6.65500 34.99100
C  41.57000 10.34100 34.87600
C  40.67700 10.49700 36.10700
H  41.19000 11.30200 37.27400
N  39.82000 7.41100 29.69700
C  38.95300 7.09300 30.76600
C  37.77100 6.48500 30.21000
C  37.84200 6.61300 28.74000
C  39.23900 7.05700 28.51300
C  36.55200 5.85100 31.07200
C  36.71200 6.42400 27.73000
O  36.98900 6.41100 26.46400
C  35.31500 6.27500 28.23100
N  42.06500 8.04400 27.75300
C  41.12900 7.57200 26.92300
C  41.51800 7.64400 25.48400
C  42.95600 8.35000 25.55100
C  43.11600 8.60800 27.07100
C  41.59900 6.20500 24.78900
C  42.98700 9.65700 24.73400
C  42.19400 10.92500 25.16000
N  43.53500 9.16800 29.99000
C  44.45500 9.50400 29.03000
C  45.63500 10.01300 29.65300
C  45.30000 10.11000 30.99800
C  44.02500 9.54600 31.12900
C  46.88700 10.34800 29.04200
C  45.78500 10.49500 32.30900
O  46.85900 11.00600 32.62300
C  44.59400 10.21400 33.31200
C  45.15200 9.41100 34.40700
O  45.79500 8.35300 34.26300
O  45.06100 10.05400 35.61200
C  45.67800 9.42000 36.75400
H  38.47900 7.14300 32.87800
H  39.34600 7.01800 26.32400
H  45.13500 9.44800 27.05900
H  42.58500 8.35300 35.02100
H  39.68700 8.61600 34.59200
H  40.72000 5.80100 34.32100
H  39.78700 6.51900 35.68600
H  41.46800 6.54600 35.66100
H  41.37900 10.92500 33.97500
H  42.48800 10.67700 35.35600
H  40.47700 9.49100 36.47400
H  39.76000 11.00200 35.80400
H  36.78900 5.94000 32.13200
H  36.30400 4.82000 30.81900
H  35.65500 6.42500 30.84100
H  34.67800 6.13900 27.35700
H  34.91700 7.06600 28.86700
H  35.41400 5.35200 28.80200
H  40.88500 8.31900 24.90800
H  43.76800 7.72300 25.18300
H  41.47100 5.33900 25.43900
H  42.47300 6.05400 24.15600
H  40.81100 6.21900 24.03600
H  42.55000 9.53200 23.74300
H  44.01400 9.89100 24.45400
H  41.40400 11.17700 24.45300
H  42.88200 11.76900 25.14900
H  41.74100 10.80500 26.14500
H  46.75800 10.97200 28.15800
H  47.44000 9.48800 28.66300
H  47.44500 10.88800 29.80700
H  44.25400 11.16100 33.73000
H  46.41900 10.09900 37.17700
H  46.31700 8.56900 36.51900
H  44.91400 9.12200 37.47100

