158

Mg -11.08800 38.94500 41.36300
C  -8.74000 36.12100 40.96100
C  -9.04200 40.80000 39.51300
C  -13.63700 41.07800 40.99500
C  -13.36500 36.43500 42.38300
N  -9.17000 38.46500 40.21600
C  -8.40800 37.30800 40.24300
C  -7.10300 37.54400 39.51400
C  -7.15700 39.07100 39.09500
C  -8.53500 39.48900 39.67200
C  -5.96600 39.97600 39.61800
C  -7.05900 36.62600 38.26500
C  -5.72400 35.89100 38.20900
H  -4.95700 36.11900 36.93900
N  -11.19900 40.73700 40.47800
C  -10.22800 41.33900 39.84400
C  -10.61500 42.69700 39.51200
C  -11.98400 42.80600 39.83500
C  -12.35100 41.51400 40.48000
C  -9.73400 43.83200 38.79000
C  -12.87400 43.98600 39.55300
O  -12.40200 45.01700 38.97400
C  -14.31500 44.04400 39.81200
N  -13.21000 38.76900 41.67600
C  -14.02300 39.86000 41.54800
C  -15.50700 39.48800 41.96500
C  -15.36500 37.95200 42.36400
C  -13.91700 37.70400 42.13600
C  -16.14400 40.32100 43.15100
C  -16.30100 37.02700 41.59500
C  -17.06900 36.02600 42.55600
N  -11.14500 36.74700 41.72000
C  -12.10400 35.92700 42.20100
C  -11.57300 34.61900 42.47600
C  -10.33400 34.66600 41.97700
C  -10.05000 35.97500 41.51700
C  -12.37700 33.59200 43.10400
C  -9.13000 33.85800 41.81400
O  -8.96500 32.67600 41.99600
C  -8.07800 34.78700 41.05500
C  -6.72600 34.78500 41.70400
O  -5.83800 33.95100 41.61300
O  -6.55700 36.00900 42.38600
C  -5.25800 36.25900 43.14700
H  -8.28500 41.45700 39.07900
H  -14.54800 41.67300 40.90000
H  -14.04000 35.74700 42.89600
H  -6.17000 37.50400 40.07600
H  -7.20400 39.23000 38.01800
H  -6.41300 40.62000 40.37600
H  -5.56700 40.60700 38.82400
H  -5.10500 39.54800 40.13200
H  -7.34100 37.20400 37.38400
H  -7.87000 35.89800 38.24200
H  -5.92400 34.82700 38.32700
H  -5.05700 36.19300 39.01800
H  -10.16800 43.99300 37.80400
H  -8.71800 43.47500 38.62800
H  -9.65500 44.79700 39.29200
H  -14.31700 43.94200 40.89700
H  -14.83900 43.23000 39.31100
H  -14.73200 44.98600 39.45700
H  -16.20600 39.59300 41.13500
H  -15.53400 37.82300 43.43400
H  -16.51500 41.28600 42.80600
H  -15.54600 40.43600 44.05500
H  -16.90200 39.65600 43.56500
H  -15.79000 36.43300 40.83700
H  -17.05900 37.57700 41.03700
H  -17.00100 35.02500 42.13000
H  -18.01500 36.47600 42.85800
H  -16.55600 35.93200 43.51300
H  -13.04400 33.91300 43.90500
H  -11.60300 33.07200 43.66900
H  -12.78200 32.97100 42.30600
H  -8.06200 34.46900 40.01300
H  -5.24800 35.57700 43.99700
H  -5.04800 37.30200 43.38200
H  -4.51200 36.15600 42.35900
Mg 1.85800 42.52000 26.02600
C  2.96300 43.03400 29.34200
C  -1.07800 41.22500 27.18800
C  0.92600 42.06500 22.74400
C  4.89600 43.76900 24.87600
N  1.00100 42.30000 28.03600
C  1.62800 42.62300 29.23900
C  0.64600 42.43500 30.38900
C  -0.64900 41.78100 29.67500
C  -0.23400 41.69600 28.19400
C  -1.07800 40.41300 30.35000
C  0.30300 43.64800 31.22000
C  0.69200 43.47700 32.78400
H  -0.41400 43.12200 33.75300
N  0.15500 41.80100 25.08200
C  -0.91200 41.22600 25.75400
C  -1.86100 40.67600 24.80600
C  -1.41100 41.06900 23.50400
C  -0.03700 41.73600 23.73100
C  -3.08500 39.93300 25.28600
C  -2.03900 40.84300 22.13800
O  -1.48200 41.14000 21.08400
C  -3.41800 40.11300 22.01400
N  2.86100 42.68000 24.06400
C  2.19000 42.53000 22.89000
C  3.06200 43.06300 21.73800
C  4.39600 43.70100 22.39100
C  4.07500 43.36500 23.85400
C  3.47800 41.91500 20.80800
C  4.50700 45.26600 22.17700
C  5.00000 45.69700 20.76900
N  3.64300 43.13500 26.85800
C  4.76500 43.65300 26.28900
C  5.73200 44.05000 27.28700
C  5.06700 43.72800 28.49500
C  3.78800 43.28000 28.17400
C  7.07700 44.68100 27.04200
C  5.11800 43.74000 29.96600
O  6.09700 44.07000 30.66200
C  3.81200 43.33900 30.60500
C  4.11200 42.15200 31.45400
O  4.45300 41.08800 31.02200
O  3.92900 42.43100 32.77300
C  4.20400 41.35100 33.68400
H  -1.95700 40.83300 27.70500
H  0.62200 41.82200 21.72400
H  5.84400 44.28000 24.69800
H  1.10500 41.69900 31.04800
H  -1.44200 42.52800 29.72400
H  -1.96100 40.60400 30.95900
H  -0.33800 39.81200 30.88000
H  -1.38300 39.80200 29.50000
H  -0.78200 43.74600 31.25800
H  0.79800 44.50100 30.75500
H  1.08500 44.43200 33.13400
H  1.35900 42.65300 33.03700
H  -4.00600 40.33100 24.85800
H  -3.32700 40.12700 26.33100
H  -3.06600 38.86400 25.07600
H  -4.19200 40.87500 22.09900
H  -3.49300 39.42900 22.86000
H  -3.53700 39.55000 21.08800
H  2.56000 43.87300 21.20900
H  5.28000 43.23200 21.95800
H  2.83500 41.03900 20.89300
H  4.41200 41.42200 21.07400
H  3.63100 42.30000 19.79900
H  4.99500 45.71500 23.04200
H  3.51100 45.63500 22.42200
H  4.16600 46.05500 20.16500
H  5.43200 44.87300 20.20100
H  5.72600 46.46100 21.04900
H  7.71700 44.54100 27.91300
H  6.91100 45.71600 26.74200
H  7.50200 44.19800 26.16200
H  3.49100 44.23100 31.14300
H  3.84300 40.38800 33.32200
H  3.69400 41.63700 34.60400
H  5.27900 41.22500 33.80500

