158

Mg 7.07700 53.81000 40.95400
C  6.63800 50.24300 40.52400
C  10.13400 53.50000 39.73300
C  7.04400 57.05200 40.33500
C  3.45000 53.80900 41.57700
N  8.21400 52.06800 40.16600
C  7.91400 50.75800 40.16400
C  9.14700 49.87600 39.76900
C  10.29900 50.88800 40.00200
C  9.48300 52.27800 39.94600
C  11.15700 50.78200 41.25500
C  9.06000 49.28500 38.34900
C  8.81100 50.25100 37.23200
H  7.41700 50.31600 36.52100
N  8.41600 55.15800 40.20200
C  9.67100 54.81700 39.80500
C  10.36900 56.02800 39.40800
C  9.51100 57.15600 39.55500
C  8.28700 56.51000 40.10600
C  11.78600 56.01400 38.95100
C  9.81900 58.65600 39.26900
O  10.90300 59.02200 38.79800
C  8.80000 59.78600 39.54000
N  5.42800 55.16700 40.81900
C  5.77000 56.45900 40.71800
C  4.52500 57.31000 40.85200
C  3.36700 56.25100 41.11400
C  4.10400 54.92000 41.09500
C  4.64600 58.41700 41.89300
C  2.17400 56.35500 40.12600
C  0.87300 56.58000 40.94400
N  5.36500 52.35300 41.21200
C  4.01400 52.48900 41.52900
C  3.42300 51.21500 41.67200
C  4.36900 50.34900 41.32000
C  5.53600 51.00900 40.98100
C  2.00500 50.98500 42.12500
C  4.71400 48.94000 41.22000
O  4.04500 47.98900 41.58800
C  6.14300 48.74300 40.65600
C  5.94900 48.06900 39.34000
O  5.43000 48.55000 38.36400
O  6.50600 46.79300 39.40900
C  6.27600 45.88400 38.25500
H  11.13600 53.40500 39.30800
H  7.03400 58.13000 40.15500
H  2.41900 53.97700 41.89600
H  9.20400 49.03700 40.46300
H  10.94500 50.93800 39.12500
H  10.88600 49.89900 41.83300
H  10.97400 51.62700 41.91900
H  12.19900 50.68100 40.95000
H  8.24900 48.55700 38.30600
H  9.91300 48.64900 38.11000
H  9.54700 49.97200 36.47700
H  9.03900 51.28500 37.49000
H  12.24200 57.00400 38.98400
H  11.98900 55.43100 38.05300
H  12.30700 55.46900 39.73800
H  7.85200 59.68200 39.01100
H  9.26400 60.71100 39.19700
H  8.51300 59.85100 40.59000
H  4.35900 57.76400 39.87500
H  3.02400 56.31000 42.14700
H  3.94500 58.27000 42.71500
H  4.72000 59.36700 41.36500
H  5.64300 58.33700 42.32500
H  2.00000 55.44300 39.55400
H  2.32700 57.22300 39.48500
H  0.87000 56.16700 41.95300
H  0.05900 56.00400 40.50500
H  0.63800 57.64400 40.93200
H  1.52500 50.53100 41.25800
H  1.47200 51.90900 42.35300
H  2.00500 50.34200 43.00500
H  6.82400 48.12900 41.24600
H  7.20700 46.03500 37.70900
H  5.39000 45.98500 37.62700
H  6.38800 44.87100 38.64200
Mg -11.34100 17.04100 43.34000
C  -7.87300 17.48000 43.39300
C  -11.74100 20.44700 43.30300
C  -14.64600 16.48400 43.23400
C  -10.75000 13.63800 42.55300
N  -9.91500 18.80500 43.24600
C  -8.58900 18.69500 43.35200
C  -7.93400 20.09500 43.41600
C  -9.22000 21.06900 43.58100
C  -10.38400 20.04400 43.36100
C  -9.28600 21.87800 44.85500
C  -7.08100 20.35800 42.08300
C  -5.66600 20.98500 42.22100
H  -5.22800 21.64400 40.93200
N  -12.98500 18.26500 43.21200
C  -12.95000 19.63200 43.16500
C  -14.28700 20.08100 43.11800
C  -15.18900 18.96100 43.03400
C  -14.29100 17.82200 43.11300
C  -14.69800 21.53700 43.32300
C  -16.69200 19.07700 43.01400
O  -17.29700 20.19100 42.98000
C  -17.49900 17.78100 42.84200
N  -12.49200 15.34900 42.83200
C  -13.79400 15.34500 43.06600
C  -14.38000 13.90100 43.09400
C  -13.21700 13.06000 42.53400
C  -12.07700 14.08400 42.51900
C  -14.90900 13.43700 44.48900
C  -13.63000 12.42700 41.09300
C  -12.84000 11.23500 40.58600
N  -9.68100 15.80500 42.99800
C  -9.64300 14.46300 42.70000
C  -8.24800 14.02500 42.76100
C  -7.53900 15.19600 43.07800
C  -8.47100 16.27100 43.14200
C  -7.68600 12.67300 42.68100
C  -6.19800 15.73200 43.28200
O  -5.16500 15.15300 43.22800
C  -6.32600 17.28900 43.58000
C  -5.99300 17.43100 45.07000
O  -6.45000 16.81500 46.00600
O  -5.05200 18.48400 45.17800
C  -4.96500 19.07600 46.56200
H  -11.86500 21.53000 43.36800
H  -15.67300 16.11500 43.25100
H  -10.67600 12.56800 42.34800
H  -7.22300 20.19800 44.23600
H  -9.24200 21.71000 42.69900
H  -9.53200 21.29700 45.74300
H  -9.95100 22.73400 44.73700
H  -8.27600 22.28300 44.93000
H  -7.60500 21.15800 41.55900
H  -6.95300 19.58800 41.32200
H  -4.93300 20.22000 42.47600
H  -5.63600 21.60300 43.11900
H  -13.95400 22.26800 43.00700
H  -15.03800 21.77800 44.33100
H  -15.48600 21.61200 42.57400
H  -17.21100 17.35200 41.88200
H  -18.55600 18.04100 42.79300
H  -17.41600 17.11000 43.69700
H  -15.23500 13.91600 42.41800
H  -13.05100 12.26000 43.25500
H  -15.96800 13.32100 44.25500
H  -14.79700 14.18100 45.27800
H  -14.63300 12.45000 44.86100
H  -13.60700 13.17800 40.30300
H  -14.64600 12.05300 41.21800
H  -12.56300 11.34200 39.53700
H  -13.40500 10.30400 40.62100
H  -11.84500 11.15400 41.02300
H  -8.28800 12.06900 43.36100
H  -6.64000 12.69800 42.98500
H  -7.90600 12.33600 41.66700
H  -5.73700 17.85200 42.85600
H  -5.80800 18.86800 47.22200
H  -5.05300 20.16200 46.54800
H  -4.00700 18.92600 47.05800

