158

Mg 40.70500 9.89400 30.04500
C  42.56300 11.10300 32.68300
C  38.23200 8.79300 32.12300
C  39.12200 8.54200 27.49700
C  43.36300 10.82900 27.83400
N  40.49100 9.84500 32.19200
C  41.33700 10.48800 33.04400
C  40.65000 10.55900 34.49500
C  39.34100 9.73700 34.26000
C  39.35300 9.41700 32.83500
C  39.20900 8.42500 35.06400
C  40.28400 11.96700 34.94200
C  39.95200 12.06600 36.42400
H  40.91500 12.90000 37.34500
N  38.96000 8.64400 29.85600
C  38.04100 8.41000 30.83800
C  36.86000 7.87200 30.31500
C  37.13400 7.67600 28.90000
C  38.46900 8.24700 28.68900
C  35.69300 7.29700 31.20100
C  36.29500 7.07800 27.76700
O  36.72900 6.90000 26.58500
C  34.92000 6.60100 28.17500
N  41.20400 9.79600 27.93700
C  40.32800 9.11900 27.16500
C  40.81500 9.14000 25.70600
C  42.15300 10.00900 25.74500
C  42.31000 10.13100 27.24500
C  41.11500 7.66000 25.16000
C  41.89100 11.46700 25.23400
C  40.60200 12.25400 25.60500
N  42.60200 10.78500 30.20100
C  43.48500 11.15400 29.25700
C  44.59200 11.79800 29.84100
C  44.21200 11.95000 31.21100
C  43.03600 11.19300 31.35600
C  45.93300 12.21000 29.20800
C  44.66900 12.49100 32.46000
O  45.63000 13.12700 32.76900
C  43.45900 12.03400 33.48500
C  44.11200 11.33100 34.54200
O  44.86300 10.36700 34.46500
O  43.71100 11.83500 35.72500
C  44.06400 11.13900 36.92300
H  37.33600 8.54800 32.69700
H  38.67800 8.27300 26.53600
H  44.26000 11.06900 27.26000
H  41.27800 10.08600 35.25000
H  38.40000 10.28700 34.27400
H  38.14200 8.20500 35.08700
H  39.66300 8.64600 36.02900
H  39.80800 7.67000 34.55600
H  39.51000 12.29900 34.25100
H  41.15000 12.61900 34.83200
H  39.99500 11.07900 36.88600
H  38.93500 12.45600 36.43200
H  34.68900 7.37900 30.78400
H  35.69700 7.54500 32.26200
H  35.73600 6.20800 31.21700
H  35.08800 5.84700 28.94400
H  34.43200 6.13800 27.31700
H  34.39600 7.51600 28.45200
H  40.10200 9.59600 25.02000
H  42.96900 9.40900 25.34200
H  41.67200 7.03100 25.85400
H  41.61500 7.61900 24.19200
H  40.16800 7.13300 25.04400
H  42.04200 11.49500 24.15500
H  42.65300 12.19500 25.51300
H  40.18600 12.56400 24.64700
H  40.77000 13.11100 26.25600
H  39.89000 11.59100 26.09700
H  46.69300 12.43800 29.95600
H  45.79100 13.06700 28.54900
H  46.38500 11.43800 28.58500
H  43.15900 13.00000 33.89200
H  45.15300 11.13300 36.97000
H  43.70400 10.11800 36.79400
H  43.59400 11.50800 37.83400
Mg -12.20400 16.59600 41.82800
C  -9.67500 14.32600 41.04900
C  -10.34400 19.00600 40.15300
C  -14.94900 18.49600 41.62900
C  -14.31100 13.79700 42.58700
N  -10.26100 16.47500 40.55100
C  -9.36700 15.54600 40.46600
C  -8.05000 16.01900 39.82900
C  -8.28500 17.53300 39.65500
C  -9.76000 17.70800 40.14100
C  -7.26100 18.49500 40.25900
C  -7.70500 15.15700 38.60400
C  -6.16200 15.10400 38.46300
H  -5.53200 15.86700 37.28200
N  -12.55700 18.51100 41.09300
C  -11.72300 19.39500 40.45700
C  -12.33400 20.70600 40.36500
C  -13.70600 20.52100 40.75900
C  -13.77900 19.13300 41.20600
C  -11.66600 21.90100 39.79100
C  -14.78500 21.65900 40.84000
O  -14.55300 22.72300 40.31200
C  -16.21800 21.59100 41.41200
N  -14.39700 16.27100 42.24400
C  -15.29300 17.21000 42.01000
C  -16.74600 16.71300 42.29600
C  -16.50700 15.13900 42.60400
C  -14.98900 15.01700 42.51400
C  -17.48600 17.63900 43.30800
C  -17.36300 14.15000 41.69900
C  -18.70500 13.70900 42.25500
N  -12.02600 14.59000 42.11300
C  -12.98100 13.56500 42.39300
C  -12.36900 12.27400 42.43400
C  -11.05100 12.53000 42.03300
C  -10.91000 13.90700 41.71000
C  -13.04200 11.07100 42.92000
C  -9.74400 11.99600 41.88300
O  -9.29000 10.91100 42.17700
C  -8.78900 13.06200 41.20500
C  -7.59300 13.44000 41.94400
O  -7.35800 13.73700 43.10200
O  -6.56000 13.34500 41.05400
C  -5.27300 13.84900 41.53200
H  -9.67300 19.81500 39.85500
H  -15.80600 19.17000 41.56700
H  -15.01300 12.97700 42.75000
H  -7.35100 15.81000 40.63900
H  -8.41600 17.70800 38.58700
H  -7.60000 19.04700 41.13500
H  -6.79900 19.09500 39.47500
H  -6.45100 17.84800 40.59600
H  -8.09000 15.74200 37.76900
H  -8.15500 14.16400 38.58600
H  -5.76700 14.09100 38.37700
H  -5.68400 15.62000 39.29600
H  -12.25300 22.81900 39.81600
H  -11.58000 21.59400 38.74900
H  -10.70700 22.14700 40.24900
H  -16.81700 21.02000 40.70200
H  -16.51700 22.63900 41.44500
H  -16.30600 20.99300 42.32000
H  -17.30900 16.81900 41.36800
H  -16.90500 15.04000 43.61400
H  -18.25700 18.13400 42.71700
H  -16.77400 18.39400 43.63900
H  -18.03100 17.22000 44.15500
H  -16.81600 13.27400 41.34900
H  -17.57600 14.72700 40.79900
H  -19.41400 14.13200 41.54300
H  -18.83700 14.04600 43.28300
H  -18.63400 12.62300 42.31600
H  -13.92800 11.02200 42.28800
H  -13.48100 11.14000 43.91600
H  -12.45600 10.15200 42.92800
H  -8.60200 12.64000 40.21800
H  -5.15600 14.92500 41.39900
H  -4.45800 13.41700 40.95000
H  -4.90100 13.63000 42.53300

