158

Mg -1.98400 17.72400 27.74600
C  -3.04300 15.74500 30.39200
C  -3.04300 20.49700 29.44900
C  -1.81100 19.46400 24.81800
C  -1.82400 14.75600 25.76700
N  -2.79800 18.13200 29.69300
C  -3.18000 17.11700 30.65000
C  -3.66200 17.88400 31.90900
C  -3.76000 19.42300 31.56400
C  -3.16700 19.35600 30.19900
C  -5.14600 19.94300 31.76200
C  -2.71300 17.71100 33.11400
C  -3.34800 17.65300 34.50500
H  -2.44400 17.29900 35.63700
N  -2.11400 19.72400 27.32500
C  -2.56200 20.70400 28.16100
C  -2.53700 21.96200 27.47400
C  -2.02300 21.72300 26.17000
C  -1.98900 20.23300 26.04600
C  -2.91300 23.33100 28.16600
C  -1.61600 22.63900 24.99800
O  -1.17100 22.21200 23.91900
C  -1.74800 24.08000 25.14000
N  -1.84800 17.15800 25.63900
C  -1.68500 18.10500 24.64300
C  -1.48100 17.46300 23.21500
C  -1.36700 15.97900 23.61600
C  -1.63900 15.98700 25.14100
C  -2.62100 17.76200 22.23700
C  -0.09300 15.25800 23.23500
C  1.15100 15.77400 23.94100
N  -2.24400 15.58800 28.01800
C  -2.09900 14.52700 27.13000
C  -2.32200 13.30500 27.79600
C  -2.66800 13.73400 29.08800
C  -2.50900 15.11800 29.22400
C  -2.30100 12.01800 27.18600
C  -3.07300 13.21300 30.40600
O  -3.23800 12.10500 30.84600
C  -3.31600 14.52500 31.26700
C  -2.55900 14.35100 32.54300
O  -1.35900 14.57100 32.77600
O  -3.51600 14.02100 33.50600
C  -3.00800 13.84400 34.88600
H  -3.47000 21.39600 29.89800
H  -1.78200 20.04200 23.89200
H  -1.79700 13.95500 25.02600
H  -4.59300 17.44300 32.26400
H  -3.19600 20.08600 32.22100
H  -5.52900 20.00100 30.74300
H  -5.07200 20.92900 32.22000
H  -5.81400 19.36100 32.39700
H  -2.01800 18.54900 33.16700
H  -2.00800 16.90900 32.90000
H  -4.05000 16.82000 34.53200
H  -3.82300 18.60100 34.75800
H  -2.25700 24.13800 27.83700
H  -2.76400 23.19400 29.23700
H  -3.91500 23.58700 27.82000
H  -2.78600 24.36300 25.31300
H  -1.45300 24.54800 24.20000
H  -1.14600 24.54100 25.92300
H  -0.54800 17.77600 22.74600
H  -2.15700 15.42600 23.10700
H  -2.97500 18.71300 22.63500
H  -3.47300 17.08200 22.19900
H  -2.24000 17.92600 21.22900
H  0.23400 15.30900 22.19700
H  -0.28800 14.20200 23.42300
H  1.05300 16.76200 24.39200
H  1.95800 15.94700 23.22900
H  1.41500 14.97600 24.63500
H  -1.94700 12.16000 26.16500
H  -3.36000 11.78000 27.28500
H  -1.67100 11.39600 27.82300
H  -4.38100 14.47500 31.49400
H  -2.31300 14.67500 35.00800
H  -2.57400 12.85700 35.04200
H  -3.77100 14.04000 35.64000
Mg 29.84200 58.23900 40.70900
C  26.83700 56.60900 39.39200
C  31.66600 55.90800 39.44000
C  32.40800 60.39200 40.92700
C  27.64200 60.87400 41.59600
N  29.26600 56.52100 39.55600
C  28.07400 55.98300 39.12500
C  28.26300 54.65600 38.36100
C  29.71200 54.33700 38.78400
C  30.33800 55.64000 39.24700
C  29.85400 53.10700 39.79400
C  28.09800 54.95800 36.83600
C  27.31300 53.91000 36.05600
H  27.48300 53.96900 34.54100
N  31.83500 58.19300 40.31400
C  32.40200 57.12800 39.81900
C  33.81500 57.30600 39.80300
C  34.09700 58.63500 40.26200
C  32.77700 59.16000 40.52900
C  34.82000 56.24400 39.34100
C  35.51500 59.15400 40.49200
O  36.51500 58.42100 40.46000
C  35.77100 60.71800 40.87900
N  30.02200 60.29300 41.24800
C  31.14900 61.02700 41.18400
C  30.97600 62.49200 41.58100
C  29.50200 62.48500 42.05000
C  28.96400 61.16500 41.52000
C  32.02400 63.14900 42.47200
C  28.80100 63.83500 41.54800
C  27.79000 64.40000 42.56100
N  27.65400 58.61500 40.66400
C  26.94900 59.80400 40.99900
C  25.48900 59.57000 40.84300
C  25.43400 58.37100 40.16700
C  26.75100 57.81000 40.09700
C  24.38700 60.49000 41.13400
C  24.50100 57.37400 39.52100
O  23.31900 57.53500 39.30100
C  25.36600 56.20500 39.22000
C  24.93100 55.00500 40.05800
O  25.50600 54.55000 41.02800
O  23.88200 54.43500 39.44100
C  23.03800 53.71500 40.37300
H  32.28700 55.03800 39.21400
H  33.16500 61.17200 41.03300
H  26.94600 61.62600 41.97200
H  27.49000 53.93700 38.63300
H  30.24900 54.08200 37.87000
H  28.89700 52.59300 39.89000
H  30.17200 53.52300 40.75000
H  30.66200 52.43000 39.51600
H  29.06100 54.95800 36.32600
H  27.78800 55.99700 36.72500
H  26.27200 54.08700 36.32700
H  27.66400 52.91600 36.33500
H  34.38900 55.50700 38.66300
H  35.26100 55.64800 40.14000
H  35.64600 56.65900 38.76200
H  36.79200 61.08600 40.77300
H  35.20500 60.92700 41.78600
H  35.32600 61.43000 40.18400
H  31.05600 62.95600 40.59800
H  29.43600 62.28600 43.12000
H  31.41200 63.52400 43.29200
H  32.55700 63.92900 41.92800
H  32.70900 62.40800 42.88200
H  28.19800 63.58100 40.67600
H  29.41300 64.65900 41.18100
H  27.86400 65.48400 42.65100
H  27.98100 63.90500 43.51400
H  26.79000 64.09000 42.25900
H  23.83500 60.15400 42.01200
H  23.79200 60.62200 40.23100
H  24.80700 61.48300 41.29400
H  25.26700 55.81300 38.20800
H  23.51100 52.82300 40.78300
H  22.08800 53.46100 39.90300
H  22.75400 54.37600 41.19100

