158

Mg 54.14100 25.08800 44.76600
C  51.41500 27.17800 43.80300
C  52.22600 22.52600 43.72200
C  57.00900 23.31200 44.78000
C  55.99300 27.97000 45.48800
N  52.09000 24.95400 43.64100
C  51.19800 25.83800 43.39300
C  50.04400 25.29100 42.57400
C  50.01100 23.81100 43.15300
C  51.56000 23.73500 43.52900
C  48.95400 23.53800 44.29200
C  50.39100 25.38000 41.10600
C  49.13900 25.54000 40.18600
H  48.99300 24.72000 38.94700
N  54.50200 23.08000 44.36100
C  53.57200 22.21900 43.94700
C  54.17800 20.90700 43.84600
C  55.62800 21.07600 44.21800
C  55.79400 22.54000 44.48400
C  53.39400 19.70700 43.51000
C  56.66800 19.88200 44.41700
O  56.22300 18.74300 44.37200
C  58.02200 20.14800 44.93600
N  56.21600 25.54700 45.10600
C  57.21800 24.65500 45.09400
C  58.57300 25.27300 45.45100
C  58.19800 26.71300 45.68500
C  56.69100 26.76900 45.39500
C  59.22800 24.65500 46.79400
C  59.03600 27.56100 44.68700
C  60.54000 27.75000 45.12400
N  53.86200 27.10500 44.76800
C  54.57200 28.16500 45.25900
C  53.79900 29.38200 45.25700
C  52.57700 28.94300 44.68700
C  52.58200 27.62200 44.50600
C  54.27400 30.72200 45.59000
C  51.32800 29.48800 44.35800
O  50.93200 30.65300 44.42100
C  50.50700 28.38300 43.73400
C  50.16900 28.73400 42.30400
O  50.95400 29.10900 41.48600
O  48.82800 28.67000 42.19200
C  48.38000 29.29200 40.90100
H  51.54300 21.68100 43.60700
H  57.86100 22.64400 44.63600
H  56.63700 28.81900 45.72400
H  49.07500 25.72600 42.81700
H  49.94100 23.15600 42.28400
H  48.56700 24.54000 44.47700
H  49.36700 23.20800 45.24600
H  48.17400 22.88500 43.90200
H  50.86600 24.44100 40.82100
H  51.09900 26.19400 40.95100
H  49.10600 26.59700 39.92500
H  48.22600 25.36100 40.75500
H  54.10900 19.01200 43.07000
H  52.69900 19.90900 42.69400
H  52.82400 19.30300 44.34600
H  58.01300 20.58700 45.93400
H  58.60900 20.66600 44.17600
H  58.40300 19.15500 45.17100
H  59.39600 25.24100 44.73600
H  58.33600 26.97900 46.73300
H  58.83100 23.67000 47.04100
H  59.21500 25.27500 47.69000
H  60.29300 24.44400 46.69300
H  58.67000 28.58700 44.66800
H  58.96900 27.18100 43.66800
H  60.67100 27.51500 46.18000
H  60.84900 28.78300 44.96200
H  61.16000 27.09300 44.51400
H  53.55500 31.33400 46.13300
H  54.53100 31.16200 44.62600
H  55.19100 30.61100 46.17000
H  49.61700 28.21500 44.34000
H  48.86400 30.26200 40.78700
H  47.30500 29.47300 40.89800
H  48.68300 28.72800 40.01900
Mg 47.55800 33.78500 25.87100
C  45.67700 32.38900 28.69400
C  48.30800 36.32900 27.93000
C  48.87900 35.21600 23.27100
C  46.58300 30.95600 24.07500
N  46.99400 34.25700 28.07900
C  46.31700 33.58800 29.03500
C  46.53500 34.21600 30.39800
C  47.12100 35.56100 30.00100
C  47.55300 35.35000 28.57800
C  46.21800 36.91900 30.20200
C  47.60000 33.39900 31.25000
C  47.59000 33.57100 32.79300
H  46.77800 34.67400 33.49500
N  48.54300 35.55600 25.61200
C  48.74800 36.42800 26.62500
C  49.44000 37.58500 26.07900
C  49.61400 37.35900 24.65300
C  48.98500 36.03500 24.45400
C  50.04400 38.72700 26.86700
C  50.36700 38.16000 23.57900
O  50.32200 37.81800 22.38800
C  50.96500 39.52200 23.96300
N  47.44300 33.36100 23.86400
C  48.19600 34.04600 22.97700
C  48.33200 33.33700 21.67500
C  47.80200 31.86600 22.00800
C  47.25000 32.04800 23.37400
C  47.44800 33.96400 20.52500
C  48.99300 30.84800 21.98700
C  49.34700 30.13900 20.72100
N  46.28500 32.13800 26.20600
C  46.02900 31.04500 25.37500
C  45.33400 30.01000 26.09300
C  45.08200 30.49400 27.34700
C  45.74700 31.79300 27.36900
C  45.12100 28.63600 25.56600
C  44.49400 30.23400 28.68100
O  43.93500 29.27100 29.14900
C  44.70900 31.52300 29.54600
C  45.05600 31.24600 30.96500
O  45.88200 30.47000 31.37400
O  44.14000 31.92500 31.73600
C  44.05400 31.55200 33.21300
H  48.75700 36.98200 28.68200
H  49.37200 35.59900 22.37500
H  46.68900 30.00800 23.54300
H  45.56500 34.30000 30.88900
H  48.02600 35.84100 30.54000
H  46.81800 37.76800 30.53100
H  45.46200 36.79500 30.97700
H  45.81500 37.14500 29.21400
H  48.59500 33.73400 30.95800
H  47.50600 32.33000 31.05800
H  48.64800 33.71600 33.01400
H  47.28500 32.62600 33.24200
H  51.10300 38.78000 26.61400
H  50.03400 38.56800 27.94500
H  49.48500 39.65100 26.71800
H  50.24100 40.11700 24.52000
H  51.26100 40.00600 23.03100
H  51.89200 39.41500 24.52600
H  49.35600 33.46100 21.32200
H  47.03200 31.64400 21.26800
H  48.07700 34.22500 19.67400
H  46.84800 34.81900 20.83600
H  46.60500 33.38100 20.15500
H  48.65200 30.04200 22.63600
H  49.94200 31.13000 22.44400
H  49.37600 29.05100 20.76500
H  50.30000 30.53100 20.36700
H  48.51400 30.37900 20.06000
H  46.00500 28.21800 25.08300
H  44.31500 28.65800 24.83300
H  44.83700 28.02800 26.42500
H  43.90100 32.25400 29.50600
H  44.63300 30.71600 33.60500
H  43.00900 31.34400 33.44400
H  44.42800 32.51400 33.56500

