158

Mg -2.31900 17.09100 25.67800
C  -2.93300 14.83400 28.26100
C  -2.63400 19.70400 27.87300
C  -2.18500 19.22900 23.07000
C  -2.02200 14.34900 23.53800
N  -2.91400 17.25100 27.80100
C  -2.91100 16.20500 28.68400
C  -3.05700 16.66800 30.11400
C  -3.15800 18.23700 29.93000
C  -2.88300 18.47500 28.47000
C  -4.47100 18.99600 30.33700
C  -1.77700 16.26800 30.96800
C  -1.44200 17.21100 32.16900
H  -1.09500 16.64800 33.58100
N  -2.48000 19.15700 25.48100
C  -2.47500 20.06700 26.50300
C  -2.65200 21.40500 25.94200
C  -2.50400 21.30700 24.59000
C  -2.31400 19.84600 24.31100
C  -2.87700 22.64000 26.76000
C  -2.60400 22.41100 23.55400
O  -2.43100 22.23000 22.31700
C  -2.73400 23.91600 24.00200
N  -2.20900 16.90200 23.60100
C  -2.13000 17.85900 22.66300
C  -2.18200 17.34200 21.23400
C  -1.69900 15.91100 21.43400
C  -1.98300 15.70200 22.97300
C  -3.57500 17.40700 20.50500
C  -0.29400 15.72900 20.93400
C  0.81700 16.25400 21.84500
N  -2.59300 14.97200 25.72700
C  -2.31500 13.95600 24.85700
C  -2.32400 12.63400 25.46300
C  -2.75900 12.98400 26.81600
C  -2.77600 14.35200 26.92300
C  -2.29400 11.32200 24.77900
C  -3.03400 12.41600 28.08200
O  -3.00600 11.21800 28.42400
C  -3.12500 13.60300 29.01900
C  -2.05800 13.30000 30.02000
O  -0.85700 13.58900 29.85100
O  -2.53600 12.63700 31.12200
C  -1.56600 12.13600 32.14600
H  -2.70000 20.45300 28.66500
H  -2.19600 19.94400 22.24500
H  -1.71400 13.42300 23.05000
H  -3.98700 16.40000 30.61500
H  -2.34800 18.78400 30.41300
H  -4.94900 19.60100 29.56600
H  -4.24800 19.70700 31.13300
H  -5.22600 18.26400 30.62200
H  -0.90500 16.00300 30.37000
H  -2.08800 15.35700 31.47900
H  -2.27600 17.88400 32.37100
H  -0.68700 17.85400 31.71800
H  -3.63900 23.26500 26.29500
H  -1.99000 23.23400 26.98000
H  -3.29000 22.27500 27.70100
H  -3.74300 23.94900 24.41400
H  -2.65600 24.47400 23.06900
H  -1.93000 24.19100 24.68400
H  -1.54800 18.04100 20.68900
H  -2.33800 15.19500 20.91700
H  -4.09700 18.26400 20.93000
H  -4.18900 16.51100 20.58900
H  -3.39000 17.79100 19.50200
H  -0.20700 16.11200 19.91700
H  -0.24900 14.65600 20.75300
H  1.65200 16.57200 21.22200
H  1.10000 15.40100 22.46200
H  0.53100 17.04600 22.53600
H  -3.25300 11.16100 24.28700
H  -2.26200 10.59300 25.58900
H  -1.42600 11.23500 24.12500
H  -4.03600 13.50800 29.60900
H  -1.15200 11.15300 31.92000
H  -1.93300 12.07800 33.17100
H  -0.64900 12.72400 32.13400
Mg 43.07300 41.63900 25.95400
C  42.45300 44.02000 28.58200
C  43.86700 39.41200 28.27400
C  44.19800 39.75000 23.44800
C  42.55900 44.27200 23.68800
N  43.24400 41.74900 28.19400
C  42.80500 42.75700 29.07000
C  43.13600 42.36700 30.52000
C  43.59300 40.85700 30.43000
C  43.53200 40.60700 28.86800
C  44.94800 40.50900 31.06200
C  41.90000 42.44800 31.41800
C  42.09300 41.87500 32.85900
H  41.92700 42.83000 34.06000
N  43.96400 39.72700 25.87000
C  44.12700 38.95100 26.92100
C  44.66800 37.68400 26.47800
C  44.81300 37.77200 25.04300
C  44.36200 39.11500 24.72100
C  45.00000 36.56200 27.51200
C  45.04100 36.74800 24.02800
O  45.08600 36.96600 22.84900
C  45.36800 35.33900 24.57300
N  43.58200 42.04500 23.89500
C  43.97100 41.03600 23.04100
C  43.94300 41.49500 21.52500
C  43.20500 42.91800 21.66400
C  43.11000 43.12200 23.18200
C  45.29500 41.65300 20.83600
C  41.82700 42.87300 21.00300
C  40.79600 41.90700 21.58600
N  42.52000 43.66800 26.03400
C  42.36600 44.55500 25.03500
C  41.97600 45.85500 25.56700
C  41.92300 45.61800 26.95800
C  42.36000 44.32600 27.17300
C  41.63300 47.15000 24.86100
C  41.68000 46.26200 28.28600
O  41.29900 47.37500 28.61000
C  41.91700 45.22300 29.35800
C  42.80700 45.76900 30.36300
O  44.03500 45.76700 30.30600
O  42.09900 46.37900 31.39000
C  42.88600 46.73100 32.53100
H  44.03300 38.58900 28.97200
H  44.43900 39.15100 22.56600
H  42.35700 45.02600 22.92400
H  43.97600 42.99500 30.81800
H  42.93900 40.13700 30.92300
H  44.85700 39.63400 31.70400
H  45.39000 41.36500 31.57200
H  45.71100 40.18800 30.35300
H  41.11300 41.78900 31.05300
H  41.40700 43.42000 31.44000
H  43.04200 41.33900 32.85900
H  41.41900 41.03800 33.04100
H  44.51200 35.64000 27.19800
H  44.71300 36.73000 28.55000
H  46.07100 36.36600 27.46500
H  46.04800 35.31700 25.42500
H  45.80800 34.85500 23.70200
H  44.41700 34.88900 24.85900
H  43.39000 40.63900 21.13900
H  43.78200 43.79600 21.37400
H  45.33700 40.86100 20.08800
H  46.17100 41.62500 21.48300
H  45.32000 42.59100 20.28200
H  42.07200 42.59200 19.97900
H  41.48800 43.90800 21.02500
H  40.16000 42.48000 22.26100
H  41.24200 41.03900 22.07100
H  40.12600 41.49500 20.83100
H  42.40600 47.13500 24.09300
H  41.85800 47.93700 25.58100
H  40.69100 47.17400 24.31300
H  40.93400 45.07600 29.80600
H  43.39500 47.65300 32.25300
H  43.55100 45.94300 32.88500
H  42.08600 46.99800 33.22100

