158

Mg -12.56000 17.69700 40.89800
C  -9.48800 16.03800 40.25500
C  -11.03300 20.59200 40.14000
C  -15.68600 19.22200 40.58400
C  -14.19500 14.55900 40.53800
N  -10.49800 18.28400 40.39700
C  -9.36800 17.49600 40.24500
C  -8.03000 18.28500 40.19700
C  -8.61000 19.76300 40.44800
C  -10.14200 19.58600 40.39500
C  -8.05700 20.52300 41.71200
C  -7.42400 18.13100 38.73800
C  -5.85900 17.91100 38.49800
H  -5.39900 16.87900 37.56300
N  -13.29900 19.73300 40.62200
C  -12.44900 20.68000 40.15700
C  -13.24500 21.82100 39.80100
C  -14.57900 21.51600 40.07200
C  -14.61900 20.13600 40.49400
C  -12.61900 23.21200 39.37100
C  -15.70100 22.48300 39.83000
O  -15.57400 23.60600 39.52800
C  -17.11800 22.06600 40.11500
N  -14.56600 17.02200 40.74800
C  -15.64200 17.83500 40.77300
C  -16.99400 17.12800 40.57600
C  -16.53100 15.67700 40.27500
C  -14.99500 15.73800 40.52500
C  -18.03000 17.21500 41.73600
C  -16.77900 15.21300 38.77300
C  -18.20800 14.67700 38.41600
N  -11.96500 15.71400 40.64500
C  -12.76800 14.54000 40.56000
C  -11.89900 13.43100 40.45000
C  -10.60100 13.96500 40.33600
C  -10.71400 15.32800 40.41700
C  -12.23900 11.96300 40.52800
C  -9.13700 13.63600 40.26400
O  -8.63900 12.55200 40.01900
C  -8.36600 15.03700 40.26000
C  -7.54200 15.20600 41.45200
O  -7.95500 15.43300 42.55400
O  -6.24800 15.28900 41.00800
C  -5.21000 15.37100 42.03300
H  -10.46400 21.44700 39.77000
H  -16.69500 19.58500 40.38000
H  -14.63600 13.59000 40.29900
H  -7.34600 17.99600 40.99500
H  -8.36400 20.46000 39.64700
H  -8.41400 21.55000 41.79800
H  -6.96700 20.53600 41.69900
H  -8.44200 19.94700 42.55300
H  -7.60700 18.95600 38.04900
H  -7.87300 17.28400 38.21900
H  -5.43800 17.78200 39.49500
H  -5.49600 18.91900 38.29700
H  -12.78700 23.48000 38.32800
H  -11.59200 23.23200 39.73700
H  -13.12100 23.90800 40.04400
H  -17.46000 21.24500 39.48600
H  -17.75600 22.94000 39.99100
H  -17.27300 21.59800 41.08700
H  -17.50300 17.46000 39.67200
H  -17.08000 14.97400 40.90100
H  -18.09400 16.22800 42.19400
H  -18.95700 17.57500 41.28900
H  -17.78600 18.06200 42.37600
H  -16.09400 14.51600 38.29100
H  -16.64800 16.12200 38.18600
H  -18.73400 15.38600 37.77700
H  -18.66600 14.62800 39.40400
H  -18.07200 13.70100 37.95200
H  -11.46400 11.39600 41.04200
H  -12.28200 11.43800 39.57300
H  -13.12300 11.71300 41.11400
H  -7.72200 15.18600 39.39300
H  -5.52800 14.96600 42.99400
H  -4.97500 16.43500 42.02900
H  -4.35300 14.80200 41.67200
Mg -5.76200 25.63300 25.70600
C  -4.53000 27.09800 28.75700
C  -7.66700 23.48800 27.74400
C  -6.80700 24.05500 23.01900
C  -3.48200 27.48900 23.95000
N  -6.21300 25.47500 28.00500
C  -5.54700 26.12700 28.98600
C  -6.07600 25.75300 30.36600
C  -7.06800 24.57500 30.03700
C  -6.98400 24.46000 28.48800
C  -6.63500 23.27700 30.76000
C  -6.72400 26.93700 31.13000
C  -6.53600 26.80400 32.65300
H  -6.14600 25.49200 33.29600
N  -7.18900 24.15900 25.38500
C  -7.70200 23.30100 26.36000
C  -8.67100 22.49900 25.68500
C  -8.43500 22.51100 24.32600
C  -7.44100 23.59300 24.15200
C  -9.72600 21.69500 26.52900
C  -9.16700 21.80900 23.20800
O  -8.93200 22.03500 22.01500
C  -10.24100 20.70100 23.54700
N  -5.20300 25.75700 23.82500
C  -5.75700 24.99000 22.85700
C  -5.09200 25.25100 21.52800
C  -4.05700 26.38700 21.77300
C  -4.23000 26.57300 23.25900
C  -4.30800 23.85000 21.13000
C  -4.33100 27.64400 21.01100
C  -3.40300 27.98400 19.74300
N  -4.30800 27.04100 26.20700
C  -3.41100 27.68100 25.35800
C  -2.70900 28.63000 26.11100
C  -3.02200 28.34600 27.41600
C  -4.07600 27.43000 27.45900
C  -1.72900 29.58300 25.58900
C  -2.66800 28.72200 28.71900
O  -1.83100 29.45400 29.15300
C  -3.71300 28.01300 29.71100
C  -2.97500 27.22400 30.81000
O  -2.55400 26.05300 30.66300
O  -2.77000 28.02100 31.88600
C  -2.26900 27.17800 33.05100
H  -8.20900 22.73800 28.32500
H  -7.10100 23.63600 22.05400
H  -2.92900 28.27500 23.43200
H  -5.15300 25.48700 30.88100
H  -8.04700 24.90500 30.38500
H  -6.46200 22.43200 30.09300
H  -7.27400 22.99200 31.59500
H  -5.69200 23.39800 31.29300
H  -7.80500 26.96400 30.99100
H  -6.22000 27.85400 30.82300
H  -7.49900 27.16400 33.01600
H  -5.85100 27.58900 32.97500
H  -10.67800 21.56700 26.01500
H  -9.94000 22.06900 27.53000
H  -9.35200 20.67300 26.58900
H  -10.03300 20.02600 24.37600
H  -10.30700 20.15500 22.60600
H  -11.12300 21.32000 23.71400
H  -5.82100 25.44500 20.74200
H  -3.02300 26.04900 21.70400
H  -3.24500 24.09000 21.09100
H  -4.77200 23.70600 20.15400
H  -4.53600 23.05700 21.84200
H  -4.34000 28.45800 21.73600
H  -5.34700 27.61500 20.61700
H  -3.13200 29.03800 19.80200
H  -4.02600 27.81700 18.86400
H  -2.47700 27.41000 19.71000
H  -0.99900 29.05600 24.97400
H  -1.23900 30.03200 26.45300
H  -2.16000 30.36600 24.96500
H  -4.42700 28.68800 30.18400
H  -1.22800 27.44100 33.23700
H  -2.54400 26.12300 33.04600
H  -2.87100 27.54800 33.88000

