158

Mg 47.19400 25.92000 27.62200
C  48.50500 27.84200 30.09300
C  46.50400 23.50000 29.87000
C  46.12100 23.97700 25.09500
C  48.31000 28.24700 25.17600
N  47.46400 25.70800 29.71800
C  47.96500 26.64100 30.56400
C  47.75200 26.24600 32.05000
C  47.11300 24.90900 31.98100
C  46.98800 24.65700 30.42500
C  47.85200 23.80200 32.66600
C  46.91300 27.30500 32.85600
C  47.32800 27.41200 34.41400
H  46.16000 27.62700 35.39200
N  46.26900 24.05100 27.53700
C  46.18700 23.17700 28.53900
C  45.59700 21.92700 28.09400
C  45.34900 22.11600 26.70700
C  45.93900 23.44600 26.35900
C  45.33200 20.72600 28.98400
C  44.63100 21.19000 25.71000
O  44.70700 21.25800 24.49800
C  43.91600 20.01800 26.17300
N  47.33400 26.07500 25.41800
C  46.70300 25.11100 24.56500
C  46.70400 25.54700 23.16200
C  47.24800 27.04900 23.25500
C  47.66000 27.17200 24.67100
C  47.52800 24.59800 22.30700
C  46.31600 28.20500 22.81700
C  46.90200 29.11800 21.69400
N  48.32100 27.59600 27.59100
C  48.60000 28.43700 26.50600
C  49.34700 29.54000 27.06700
C  49.27200 29.43500 28.47700
C  48.66600 28.22100 28.72500
C  49.91700 30.58700 26.22200
C  49.69300 30.02200 29.76800
O  50.19700 31.11700 30.04600
C  49.16400 28.91400 30.86300
C  50.23800 28.52300 31.78700
O  51.07800 27.64500 31.59000
O  49.99400 29.10300 33.05900
C  50.82700 28.54700 34.16400
H  46.26800 22.77100 30.64900
H  45.55700 23.35700 24.39500
H  48.59700 29.02700 24.46700
H  48.72600 26.25400 32.54000
H  46.12100 24.87100 32.43100
H  48.64000 24.31700 33.21400
H  48.18600 23.04000 31.96100
H  47.20600 23.23500 33.33700
H  45.83200 27.17400 32.81800
H  46.92100 28.32500 32.47200
H  47.74600 28.41400 34.32000
H  48.04800 26.70200 34.82100
H  44.28300 20.43000 28.98800
H  45.67900 20.84100 30.01000
H  45.89700 19.87900 28.59200
H  44.64700 19.23600 26.37800
H  43.27000 19.50400 25.46100
H  43.21700 20.32900 26.94900
H  45.66200 25.46900 22.85100
H  48.16500 27.02300 22.66600
H  47.79600 23.69300 22.85100
H  48.40000 25.00100 21.79100
H  46.81500 24.26900 21.55100
H  46.13700 28.80000 23.71300
H  45.34800 27.87200 22.44400
H  46.07700 29.18800 20.98500
H  47.67000 28.57100 21.14700
H  47.04800 30.17400 21.92100
H  49.28300 30.79800 25.36000
H  50.86600 30.17300 25.88200
H  50.17400 31.33700 26.97000
H  48.39400 29.36200 31.49100
H  50.24300 28.16000 34.99900
H  51.33300 29.42300 34.57000
H  51.58800 27.81300 33.89900
Mg 49.24700 36.08500 27.58800
C  47.48300 34.25400 30.06200
C  49.97400 38.53900 30.05900
C  51.13100 37.67000 25.30500
C  48.26300 33.81600 25.26100
N  48.69100 36.33300 29.81800
C  48.08000 35.41300 30.61500
C  48.09100 35.90300 32.10400
C  48.54400 37.37100 31.92700
C  49.03900 37.47400 30.45000
C  47.38700 38.39400 32.41800
C  49.19600 34.95500 32.87100
C  49.08000 34.72600 34.39500
H  48.29600 35.64300 35.24700
N  50.33400 37.86900 27.63300
C  50.52700 38.71000 28.75000
C  51.41900 39.80300 28.41700
C  51.72300 39.61300 26.98600
C  51.06300 38.36000 26.56100
C  51.55200 40.94900 29.37500
C  52.47400 40.53200 26.05100
O  52.65000 40.35300 24.88200
C  53.27700 41.72300 26.67300
N  49.57400 35.84500 25.53400
C  50.42800 36.60400 24.81000
C  50.35900 36.31500 23.32500
C  49.44200 35.08400 23.23600
C  49.08800 34.83500 24.77800
C  49.86500 37.44400 22.48400
C  50.05800 33.79100 22.59600
C  49.51300 33.42000 21.19100
N  48.21700 34.30800 27.59200
C  47.83600 33.56900 26.56900
C  46.80000 32.58300 27.00400
C  46.67100 32.81200 28.35000
C  47.53000 33.89800 28.68700
C  46.16900 31.57300 26.15500
C  46.05600 32.35700 29.51900
O  45.27800 31.43800 29.68300
C  46.48600 33.34500 30.61900
C  46.85300 32.63700 31.92300
O  47.83700 31.93800 32.05100
O  45.85000 32.89200 32.81500
C  45.91600 31.98400 34.00800
H  50.18800 39.30500 30.80800
H  51.62000 38.16300 24.46200
H  47.81400 33.10800 24.56200
H  47.12500 35.77800 32.59300
H  49.49700 37.55900 32.42100
H  46.42600 37.88400 32.48400
H  47.30300 39.27400 31.78100
H  47.69200 38.70700 33.41700
H  50.22600 35.15700 32.57700
H  49.20400 33.95500 32.43500
H  50.10100 34.65100 34.76900
H  48.83300 33.68500 34.60100
H  52.19500 41.76300 29.04100
H  52.08600 40.63500 30.27200
H  50.62300 41.49200 29.54900
H  53.85900 41.44300 27.55100
H  52.59100 42.53200 26.92300
H  53.89000 42.07800 25.84400
H  51.36600 36.00200 23.05000
H  48.45600 35.20100 22.78700
H  49.10800 37.96000 23.07500
H  49.34700 37.06800 21.60200
H  50.71900 38.06900 22.22200
H  49.82800 32.90400 23.18700
H  51.13800 33.93200 22.58700
H  48.78800 34.13900 20.81100
H  49.06500 32.42800 21.24700
H  50.30100 33.51500 20.44300
H  45.25800 32.02300 25.76000
H  45.86600 30.76200 26.81700
H  46.82000 31.26400 25.33700
H  45.58000 33.92900 30.78000
H  45.32200 32.49300 34.76700
H  46.89200 31.72300 34.41700
H  45.36700 31.07800 33.75000

