158

Mg 47.54300 16.74600 28.31100
C  45.83300 16.60800 31.46700
C  49.96500 18.75100 29.96700
C  49.05600 17.16700 25.47400
C  44.91300 15.14100 26.91200
N  47.76100 17.73300 30.44900
C  47.01900 17.33900 31.56700
C  47.55100 18.01800 32.82100
C  48.73200 18.84500 32.22800
C  48.91000 18.39100 30.79100
C  48.48000 20.38100 32.21300
C  47.98200 17.02000 33.93500
C  47.83300 17.59100 35.45100
H  47.91200 19.08900 35.62200
N  49.36100 17.72000 27.79900
C  50.13000 18.51100 28.64200
C  51.31000 18.85100 27.87900
C  51.07000 18.45800 26.47100
C  49.81000 17.68800 26.54300
C  52.50600 19.60700 28.47900
C  51.75500 18.70600 25.24600
O  51.33900 18.27900 24.21800
C  52.92500 19.60200 25.26300
N  47.07000 16.15200 26.46100
C  47.84500 16.46800 25.44100
C  47.19700 15.98200 24.14400
C  46.14000 14.97600 24.63700
C  45.96900 15.52600 26.08700
C  46.71300 17.12600 23.19500
C  46.58500 13.48700 24.67000
C  46.16200 12.71100 23.40500
N  45.68400 16.11000 28.94500
C  44.67500 15.50900 28.21900
C  43.56200 15.16500 29.12000
C  44.01900 15.58000 30.37300
C  45.26400 16.12700 30.25500
C  42.30000 14.32100 28.88400
C  43.72100 15.44800 31.74600
O  42.81900 14.85600 32.31900
C  44.88200 16.12200 32.55900
C  44.29200 17.22900 33.33000
O  43.66100 18.19500 32.94100
O  44.48000 16.96600 34.66000
C  43.92900 17.82200 35.70300
H  50.75300 19.19600 30.57900
H  49.47600 17.26100 24.47000
H  44.10300 14.52200 26.52100
H  46.74800 18.64400 33.21100
H  49.68800 18.66800 32.72200
H  47.62900 20.75500 32.78300
H  48.39900 20.60600 31.15000
H  49.44000 20.73700 32.58800
H  49.06400 16.94900 33.82700
H  47.51300 16.03800 33.87400
H  48.44400 17.04700 36.17100
H  46.82300 17.28200 35.72100
H  53.45200 19.06600 28.48900
H  52.27500 19.90000 29.50400
H  52.57900 20.44500 27.78500
H  53.41800 19.65600 24.29200
H  53.67100 19.13400 25.90500
H  52.69600 20.63200 25.54000
H  47.97200 15.35700 23.69800
H  45.18800 15.11300 24.12500
H  46.27900 16.63200 22.32600
H  47.61700 17.59400 22.80500
H  45.93200 17.68300 23.71400
H  46.39300 13.01800 25.63500
H  47.66200 13.31800 24.65600
H  47.04100 12.16500 23.06300
H  45.75900 13.38000 22.64500
H  45.36400 12.04300 23.73100
H  41.92600 14.33600 27.86000
H  41.54000 14.46800 29.65100
H  42.62000 13.29500 29.06400
H  45.26400 15.28900 33.14900
H  42.90600 17.55800 35.97300
H  43.80600 18.85400 35.37400
H  44.56500 17.85100 36.58700
Mg 41.73500 41.12500 26.67900
C  40.65400 43.21800 29.29500
C  42.66100 38.89700 29.30700
C  43.06800 39.12400 24.41000
C  41.16200 43.66000 24.33300
N  41.70400 41.11900 29.06900
C  41.10900 42.05600 29.86300
C  41.25200 41.67300 31.35900
C  42.12300 40.43600 31.36600
C  42.21700 40.13200 29.81200
C  43.55200 40.66700 32.03400
C  39.88700 41.65700 32.17400
C  39.57600 42.70300 33.30400
H  38.74400 42.45600 34.53400
N  42.70900 39.30500 26.81500
C  43.00100 38.53000 27.95300
C  43.59000 37.30600 27.58700
C  43.79100 37.31000 26.15000
C  43.19100 38.65100 25.73200
C  44.00500 36.26100 28.58300
C  44.28300 36.22500 25.21300
O  44.17300 36.26700 23.98300
C  44.74200 34.96100 25.84000
N  42.13400 41.37600 24.64700
C  42.49100 40.28100 23.90100
C  42.44400 40.66600 22.37700
C  41.87100 42.08000 22.38500
C  41.69100 42.45700 23.87200
C  43.85200 40.63800 21.66200
C  40.50000 42.03900 21.80100
C  39.98900 43.43000 21.38000
N  40.94100 42.99600 26.72200
C  40.80300 43.92400 25.69400
C  40.27100 45.11100 26.31400
C  40.18400 44.88100 27.67800
C  40.70000 43.57600 27.91400
C  39.95300 46.36300 25.70200
C  39.99000 45.48000 28.93900
O  39.60400 46.65100 29.24000
C  40.16400 44.39000 30.06000
C  41.08900 44.94800 31.04000
O  42.29400 44.91900 30.87500
O  40.43000 45.64700 32.04800
C  41.35900 46.35200 32.95600
H  42.87300 38.29200 30.19100
H  43.61300 38.56500 23.64700
H  40.89700 44.54700 23.75300
H  41.82500 42.49800 31.78300
H  41.55600 39.62600 31.82400
H  44.38500 40.61300 31.33300
H  43.56800 39.89900 32.80800
H  43.67600 41.66900 32.44300
H  39.82400 40.73400 32.75000
H  39.07200 41.74500 31.45500
H  38.89500 43.37500 32.78100
H  40.51400 43.22600 33.48700
H  43.63500 35.28900 28.25600
H  43.84200 36.43400 29.64600
H  45.07500 36.08900 28.46000
H  45.17600 34.32300 25.07100
H  43.94600 34.31500 26.21000
H  45.57200 35.19900 26.50500
H  41.94000 39.94500 21.73400
H  42.65400 42.76700 22.06400
H  44.07200 39.63800 21.28900
H  44.55400 41.02000 22.40300
H  43.79900 41.20200 20.73100
H  39.90800 41.59700 22.60200
H  40.44100 41.34500 20.96300
H  39.75600 43.35600 20.31800
H  40.75300 44.20500 21.32500
H  39.07500 43.77000 21.86700
H  38.87800 46.51400 25.79800
H  40.24300 46.46000 24.65600
H  40.51600 47.08500 26.29400
H  39.21000 44.33700 30.58500
H  42.02200 45.54400 33.26500
H  40.84000 46.64100 33.87000
H  41.90400 47.18000 32.50300

