158

Mg -1.63400 17.64100 25.79900
C  -2.29100 15.51700 28.62000
C  -1.91100 20.32600 27.99600
C  -1.25300 19.65900 23.13900
C  -1.44100 14.78400 23.80200
N  -2.23900 17.88200 28.05300
C  -2.24500 16.87900 29.04100
C  -2.05800 17.43800 30.49800
C  -2.18500 18.97000 30.19500
C  -2.01700 19.09100 28.66500
C  -3.53500 19.63600 30.59100
C  -0.83600 16.94000 31.34800
C  -0.44600 17.80500 32.60100
H  -0.35900 17.05700 33.90800
N  -1.52300 19.73800 25.56400
C  -1.69200 20.66800 26.61100
C  -1.67200 21.99600 26.03000
C  -1.59000 21.76200 24.65100
C  -1.46200 20.33100 24.39800
C  -1.81100 23.29500 26.86800
C  -1.75000 22.73400 23.51800
O  -1.88600 22.48200 22.30200
C  -1.82100 24.23400 23.89500
N  -1.30900 17.28500 23.78600
C  -1.19400 18.27600 22.84800
C  -0.97100 17.72400 21.45500
C  -0.83300 16.16000 21.68700
C  -1.18300 16.03700 23.18000
C  -2.10400 18.17500 20.54800
C  0.61500 15.68600 21.33400
C  1.66400 16.04900 22.38900
N  -1.91700 15.56800 26.03800
C  -1.84700 14.53100 25.11000
C  -2.10200 13.25000 25.74800
C  -2.30500 13.57200 27.17400
C  -2.17900 15.03400 27.26500
C  -1.94700 11.97300 25.06300
C  -2.49100 13.06600 28.54200
O  -2.50300 11.88900 28.93000
C  -2.55200 14.30400 29.52700
C  -1.44900 14.06400 30.45300
O  -0.28100 14.04900 30.14600
O  -1.94400 13.70000 31.65300
C  -1.17200 12.96800 32.66300
H  -2.09100 21.20800 28.61500
H  -1.18900 20.26700 22.23400
H  -1.38000 13.89700 23.16700
H  -2.96100 17.12900 31.02500
H  -1.37500 19.52200 30.67200
H  -4.07700 18.88000 31.15900
H  -4.08800 20.09600 29.77100
H  -3.38900 20.49000 31.25200
H  0.01200 16.87300 30.66700
H  -1.20700 16.04500 31.84800
H  -1.14500 18.61400 32.81600
H  0.51600 18.25300 32.35100
H  -2.62800 23.94400 26.55200
H  -0.90500 23.88000 26.71000
H  -2.11300 23.16700 27.90700
H  -2.83500 24.43000 24.24400
H  -1.66100 24.78100 22.96600
H  -1.03000 24.50200 24.59600
H  -0.00900 18.13600 21.14800
H  -1.56500 15.51300 21.20400
H  -2.86200 18.63200 21.18400
H  -2.57300 17.33600 20.03300
H  -1.67400 18.96600 19.93300
H  0.94600 16.28600 20.48600
H  0.64100 14.60500 21.19500
H  1.33900 16.86100 23.04000
H  2.52400 16.40200 21.82100
H  1.95400 15.20800 23.01900
H  -1.14800 11.90900 24.32300
H  -2.77700 11.79700 24.37900
H  -2.00800 11.09600 25.70800
H  -3.51600 14.26300 30.03400
H  -0.38600 12.30600 32.29900
H  -1.86700 12.47700 33.34400
H  -0.58800 13.78600 33.08600
Mg 40.88400 8.22600 29.81800
C  42.59900 9.79800 32.48600
C  38.40300 7.35500 32.14000
C  39.60200 6.13600 27.50600
C  43.70000 8.57500 27.92700
N  40.50400 8.57200 32.14800
C  41.39900 9.21700 32.97500
C  40.80400 9.31200 34.41600
C  39.36400 8.58200 34.26300
C  39.40600 8.04800 32.74200
C  39.13800 7.32400 35.16900
C  40.81000 10.65000 35.20700
C  39.56800 11.01100 36.06000
H  39.95900 12.09400 37.17600
N  39.24400 7.03100 29.82400
C  38.30000 6.89800 30.77400
C  37.14800 6.23600 30.24500
C  37.36200 6.07200 28.86500
C  38.82800 6.39100 28.67900
C  35.95100 5.92400 31.10400
C  36.36600 5.64500 27.82800
O  36.63400 5.45500 26.62900
C  35.01000 5.25100 28.21400
N  41.53700 7.54700 27.85700
C  40.85300 6.62300 27.13400
C  41.59200 6.30800 25.84100
C  42.87300 7.27200 25.93000
C  42.74800 7.87100 27.31700
C  41.99300 4.83100 25.80500
C  43.18900 8.41100 24.90000
C  42.06500 9.43400 24.65800
N  42.70400 9.14100 30.02300
C  43.72600 9.27800 29.14100
C  44.89200 9.91000 29.79800
C  44.40700 10.23900 31.05100
C  43.08300 9.65100 31.19100
C  46.22300 10.17700 29.12500
C  44.76000 10.89200 32.33700
O  45.77100 11.59700 32.66200
C  43.62700 10.49500 33.30700
C  44.20700 9.69000 34.44300
O  44.59400 8.52800 34.34400
O  44.28500 10.54200 35.54900
C  44.74800 9.86800 36.76100
H  37.48500 7.13200 32.68800
H  39.10000 5.63800 26.67400
H  44.56600 8.89600 27.34400
H  41.43400 8.65300 35.01400
H  38.54100 9.29700 34.23900
H  39.32900 6.49400 34.48900
H  38.12200 7.41300 35.55500
H  39.83900 7.27800 36.00300
H  40.94700 11.46400 34.49600
H  41.65100 10.59300 35.89900
H  39.12400 10.15800 36.57400
H  38.69500 11.27800 35.46400
H  36.41400 5.53200 32.00900
H  35.21700 5.20600 30.74000
H  35.48300 6.80500 31.54500
H  34.53600 5.91200 28.94000
H  35.12500 4.22200 28.55300
H  34.30000 5.22800 27.38800
H  41.08500 6.46800 24.88900
H  43.76900 6.65100 25.94400
H  41.04100 4.30400 25.87700
H  42.59400 4.53800 26.66600
H  42.55100 4.75100 24.87200
H  43.52500 8.03200 23.93500
H  44.01600 8.95800 25.35400
H  41.12100 9.27900 25.18000
H  41.87200 9.39500 23.58500
H  42.42900 10.44100 24.85800
H  46.54200 11.20600 29.29000
H  46.19500 10.02000 28.04600
H  46.99300 9.66700 29.70300
H  43.24600 11.41700 33.74700
H  45.58100 10.47400 37.11800
H  45.06100 8.82700 36.67900
H  44.03700 9.95200 37.58400

