158

Mg 9.26200 4.20700 27.67600
C  10.66300 2.69100 30.64700
C  7.74000 6.51700 29.77600
C  7.93200 5.42600 24.94400
C  10.90800 1.72700 25.81000
N  9.25600 4.53300 29.92600
C  9.92500 3.85600 30.86800
C  9.61700 4.46300 32.24400
C  8.73200 5.62800 31.99000
C  8.54800 5.56100 30.46100
C  7.37400 5.79500 32.73000
C  10.83200 4.94500 33.21600
C  10.79700 4.35900 34.65900
H  11.41000 5.17800 35.85300
N  7.98500 5.74600 27.36700
C  7.45400 6.60700 28.35800
C  6.62500 7.58200 27.71800
C  6.70500 7.25100 26.32000
C  7.61000 6.13300 26.12100
C  5.84300 8.63600 28.50200
C  5.87800 7.95000 25.22000
O  5.90300 7.63100 24.04300
C  4.94000 8.96900 25.62200
N  9.42300 3.59600 25.70700
C  8.74800 4.31800 24.73200
C  9.03500 3.82200 23.34600
C  10.18400 2.81300 23.62800
C  10.12600 2.66300 25.14700
C  7.85100 3.02700 22.69700
C  11.58700 3.47100 23.37700
C  12.10100 3.20700 21.92700
N  10.35900 2.44600 28.15600
C  10.99900 1.65400 27.25800
C  11.71500 0.62100 28.01100
C  11.64900 1.04000 29.37500
C  10.83500 2.16400 29.36500
C  12.47600 -0.58500 27.40500
C  12.03700 0.71000 30.68700
O  12.57900 -0.27400 31.14000
C  11.45000 1.80000 31.59900
C  10.74200 1.17700 32.69100
O  9.52300 0.94500 32.58500
O  11.46100 0.99200 33.83400
C  10.71400 0.38900 34.94700
H  7.22700 7.20200 30.45500
H  7.60800 5.91800 24.02400
H  11.47000 0.98400 25.23900
H  9.11100 3.74400 32.88800
H  9.39900 6.48300 32.10400
H  7.21100 5.01100 33.47000
H  6.51900 5.93700 32.06900
H  7.42100 6.67500 33.37100
H  10.82400 6.02700 33.34800
H  11.72300 4.52800 32.74800
H  11.36800 3.43100 34.66700
H  9.80500 4.12200 35.04500
H  6.02700 9.60600 28.04100
H  6.25700 8.74800 29.50400
H  4.77600 8.42600 28.42500
H  5.48200 9.82600 26.02000
H  4.24900 8.41300 26.25600
H  4.33300 9.28100 24.77200
H  9.31400 4.62000 22.65600
H  10.13000 1.86800 23.08800
H  7.40200 3.64700 21.92100
H  7.06800 2.99800 23.45500
H  8.05600 2.02100 22.33000
H  12.32400 2.99900 24.02600
H  11.71200 4.52300 23.63300
H  12.98000 2.56500 21.96900
H  12.46900 4.10000 21.42200
H  11.35000 2.71200 21.31100
H  12.48200 -1.42900 28.09400
H  13.52600 -0.30700 27.32200
H  12.09300 -0.78200 26.40300
H  12.32900 2.38200 31.87400
H  10.22100 -0.54100 34.66400
H  10.06800 1.14800 35.39000
H  11.38700 0.16400 35.77400
Mg 47.31500 44.69300 42.72900
C  43.85600 44.15500 42.69500
C  47.74600 41.20300 42.31600
C  50.62300 45.14100 42.88000
C  46.79900 48.02700 42.56500
N  45.97000 42.94000 42.30000
C  44.54700 42.93400 42.39000
C  43.98300 41.52200 42.34200
C  45.29400 40.63300 42.07200
C  46.43000 41.62400 42.28600
C  45.40200 39.31000 42.92200
C  42.92700 41.32300 41.17600
C  43.22800 42.03200 39.76500
H  43.21300 41.16600 38.50000
N  49.00800 43.38000 42.63500
C  48.92400 42.04500 42.38400
C  50.28200 41.47400 42.23800
C  51.18700 42.58100 42.36400
C  50.28900 43.77000 42.61900
C  50.55600 39.98300 42.03700
C  52.64600 42.52100 42.32200
O  53.24200 41.48800 42.04700
C  53.53300 43.66500 42.64400
N  48.58200 46.29100 42.33700
C  49.89100 46.22900 42.64700
C  50.53900 47.60100 42.75400
C  49.29100 48.57200 42.55600
C  48.12000 47.58400 42.46000
C  51.51000 47.98600 43.99900
C  49.43100 49.59400 41.31300
C  49.46500 51.04900 41.63500
N  45.65400 45.91600 42.72400
C  45.57000 47.27900 42.70500
C  44.23700 47.71200 42.78600
C  43.45000 46.51200 42.85800
C  44.42900 45.44300 42.82900
C  43.79900 49.13800 42.81300
C  42.15000 45.89400 42.99300
O  41.04700 46.29000 43.11000
C  42.44100 44.29600 42.87200
C  41.95300 43.58800 44.14700
O  42.47600 43.65800 45.21600
O  40.80200 42.81500 43.92400
C  40.43200 41.85200 45.01300
H  47.92400 40.16100 42.04600
H  51.70200 45.29900 42.92300
H  46.74400 49.11400 42.47600
H  43.65900 41.29300 43.35700
H  45.18100 40.19100 41.08200
H  44.60800 39.32200 43.66900
H  46.32500 39.17000 43.48400
H  45.36000 38.50800 42.18500
H  41.94500 41.69800 41.46200
H  42.94700 40.23300 41.17600
H  44.18200 42.52900 39.94400
H  42.50600 42.84300 39.67000
H  50.06800 39.50800 41.18500
H  50.34200 39.42800 42.95000
H  51.62700 39.79700 41.94900
H  53.36100 44.52300 41.99400
H  54.57500 43.38700 42.48200
H  53.48600 43.95900 43.69200
H  51.12000 47.68800 41.83600
H  49.14800 49.08300 43.50800
H  51.22100 47.43400 44.89300
H  51.27100 49.02800 44.21300
H  52.55100 47.86900 43.69900
H  48.61700 49.42100 40.60900
H  50.33300 49.41100 40.72900
H  49.47500 51.26300 42.70400
H  48.55700 51.56700 41.32700
H  50.30700 51.48400 41.09700
H  42.85400 49.17300 43.35500
H  43.57700 49.61500 41.85800
H  44.53300 49.79100 43.28600
H  41.93600 43.90400 41.99000
H  39.56800 41.32900 44.60300
H  40.09300 42.40000 45.89200
H  41.33500 41.30500 45.28400

