158

Mg 40.15000 9.41600 30.36100
C  42.11100 10.66300 33.03200
C  37.71200 8.42000 32.67800
C  38.64000 7.67500 27.95400
C  43.06700 9.76400 28.25900
N  40.00500 9.41000 32.68800
C  40.87600 10.11300 33.52500
C  40.25700 10.17500 34.87300
C  38.92200 9.31600 34.77800
C  38.80900 9.15800 33.25900
C  38.96000 7.93000 35.48600
C  40.04300 11.62400 35.38200
C  40.79700 11.94700 36.65900
H  39.96900 12.54000 37.79100
N  38.36200 8.24200 30.29400
C  37.51400 7.94200 31.39500
C  36.47100 7.05000 30.85000
C  36.74300 6.86900 29.46200
C  37.94600 7.63900 29.19100
C  35.30500 6.52100 31.67500
C  35.99700 5.89500 28.46600
O  36.46200 5.63500 27.35000
C  34.70200 5.31100 28.90200
N  40.84000 8.76800 28.41600
C  39.87700 8.24000 27.53500
C  40.33100 8.31100 26.09500
C  41.75200 8.87000 26.27700
C  41.89800 9.20400 27.76000
C  40.18800 7.04100 25.29700
C  42.14300 9.98300 25.27600
C  41.27200 11.26500 25.36600
N  42.14600 10.16600 30.54400
C  43.14100 10.28800 29.55600
C  44.19800 11.10800 30.13400
C  43.84800 11.26500 31.53300
C  42.58600 10.69300 31.67700
C  45.36800 11.75700 29.41500
C  44.27000 11.88800 32.79900
O  45.25900 12.52800 32.95300
C  43.16700 11.44200 33.85400
C  43.85900 10.75900 34.92800
O  44.61300 9.82100 34.88500
O  43.66900 11.50700 36.00600
C  44.29900 11.07000 37.24200
H  36.85000 8.18200 33.30500
H  38.09800 7.24300 27.11100
H  43.77900 10.08200 27.49400
H  40.90100 9.63800 35.56900
H  37.96300 9.76700 35.03300
H  38.17300 7.83300 36.23300
H  39.84600 7.77700 36.10200
H  38.77900 7.27600 34.63300
H  38.97700 11.81300 35.51400
H  40.39300 12.28500 34.59000
H  41.42200 12.82400 36.48800
H  41.37100 11.09700 37.02600
H  35.19600 6.89500 32.69300
H  35.42700 5.43800 31.64500
H  34.35900 6.63500 31.14500
H  33.96100 6.10500 28.99000
H  34.76000 4.78300 29.85400
H  34.43000 4.44800 28.29400
H  39.74900 9.06800 25.56900
H  42.48400 8.09700 26.04400
H  39.56700 6.22700 25.67000
H  41.09500 6.49000 25.04900
H  39.93100 7.37300 24.29100
H  41.91600 9.40500 24.38000
H  43.17100 10.32500 25.39100
H  40.39400 11.23600 26.01000
H  40.94200 11.41000 24.33700
H  41.82200 12.10100 25.79700
H  45.11600 12.66300 28.86200
H  45.85600 11.07100 28.72300
H  46.23500 12.04000 30.01200
H  42.77300 12.38300 34.23600
H  43.57800 11.36400 38.00500
H  45.21600 11.65600 37.31100
H  44.66600 10.05600 37.40000
Mg -9.73800 38.67900 41.56700
C  -8.09200 35.75800 40.57100
C  -7.64400 40.47200 39.76600
C  -12.05900 41.16700 41.52500
C  -12.25300 36.53100 42.80700
N  -8.09500 38.09300 40.21500
C  -7.46500 36.90500 40.02900
C  -6.29400 36.96300 39.06200
C  -6.04000 38.57500 39.08300
C  -7.31500 39.12200 39.77700
C  -4.77600 38.93000 39.96000
C  -6.65800 36.25500 37.70800
C  -5.76400 35.14100 37.20800
H  -5.01300 35.30900 35.92900
N  -9.71600 40.69500 40.99700
C  -8.71900 41.25200 40.27000
C  -8.90000 42.63700 40.19900
C  -10.24900 42.84800 40.58400
C  -10.76100 41.49900 41.04800
C  -7.85700 43.64800 39.78200
C  -10.91000 44.20900 40.73300
O  -10.33000 45.25100 40.35400
C  -12.29100 44.35300 41.33600
N  -11.91200 38.90700 42.22200
C  -12.59300 40.03700 42.13200
C  -14.01900 39.87100 42.59700
C  -14.02800 38.30100 43.10600
C  -12.62800 37.83800 42.64200
C  -14.46100 40.83500 43.71200
C  -15.31200 37.60200 42.62200
C  -15.88000 36.59400 43.60500
N  -10.12800 36.55400 41.76100
C  -11.13700 35.86200 42.35800
C  -10.91100 34.45200 42.34900
C  -9.71600 34.28200 41.56600
C  -9.26500 35.64800 41.31900
C  -11.72000 33.41000 43.08800
C  -8.70700 33.41300 41.00300
O  -8.65600 32.18800 41.06000
C  -7.70300 34.37800 40.22800
C  -6.30400 34.07400 40.61300
O  -5.64600 33.18100 39.99900
O  -5.99700 34.62600 41.82800
C  -4.77000 34.15200 42.40100
H  -6.98200 40.91800 39.02000
H  -12.86000 41.88600 41.34100
H  -13.04500 35.94300 43.27500
H  -5.45300 36.44200 39.52000
H  -5.96300 39.05700 38.10800
H  -4.86000 39.73900 40.68600
H  -3.86700 39.21000 39.42700
H  -4.55900 38.04900 40.56300
H  -6.71200 37.08000 36.99800
H  -7.65900 35.89200 37.94400
H  -6.34100 34.22800 37.06300
H  -5.03000 34.82700 37.95000
H  -6.98800 43.17300 39.32600
H  -7.61500 44.31300 40.61100
H  -8.21300 44.25900 38.95300
H  -12.49800 43.68900 42.17500
H  -13.02700 44.06600 40.58500
H  -12.44500 45.40600 41.57000
H  -14.67600 40.01700 41.74000
H  -13.89000 38.30400 44.18800
H  -15.05300 40.28100 44.44100
H  -15.08500 41.53800 43.16000
H  -13.61700 41.39800 44.11100
H  -14.92400 37.10500 41.73300
H  -16.07600 38.32500 42.33700
H  -15.83700 35.56200 43.25500
H  -16.89900 36.86900 43.87900
H  -15.29900 36.62700 44.52700
H  -11.77200 33.54700 44.16800
H  -11.15900 32.48700 42.94300
H  -12.73800 33.36400 42.70000
H  -7.74100 34.21900 39.15000
H  -3.84900 34.44200 41.89500
H  -4.72700 33.06600 42.49200
H  -4.73600 34.67600 43.35600

