158

Mg 2.77000 -3.49600 45.12900
C  6.07200 -2.53800 44.28800
C  1.47400 -1.22100 43.03000
C  -0.23900 -4.93800 45.73500
C  4.31900 -6.08000 47.29600
N  3.69000 -2.15600 43.73300
C  5.04100 -1.84800 43.55100
C  5.22400 -0.74600 42.56800
C  3.78600 -0.31700 42.14600
C  2.93000 -1.21200 43.10900
C  3.55100 1.23900 42.17200
C  6.17200 -1.12100 41.39500
C  7.34400 -0.10400 41.20300
H  7.74400 0.27600 39.75400
N  0.84800 -3.19000 44.41400
C  0.51300 -2.10400 43.56500
C  -0.96000 -2.12500 43.51800
C  -1.43000 -3.37400 44.10300
C  -0.23800 -3.94900 44.77400
C  -1.75100 -1.09300 42.85700
C  -2.84900 -3.94200 44.08700
O  -3.77500 -3.35200 43.47700
C  -3.13400 -5.31000 44.59300
N  2.15200 -5.29200 46.28200
C  0.84800 -5.56600 46.38500
C  0.65700 -6.77100 47.33600
C  2.09200 -7.31700 47.57200
C  2.90200 -6.16800 47.04600
C  -0.21100 -6.56600 48.61500
C  2.56400 -8.56200 46.71700
C  3.38500 -9.62600 47.56800
N  4.72300 -4.19900 45.71000
C  5.18200 -5.17300 46.57300
C  6.61300 -5.10600 46.66000
C  6.99700 -4.04900 45.84300
C  5.80700 -3.55800 45.21400
C  7.48300 -6.00600 47.50800
C  8.17500 -3.26900 45.36300
O  9.35000 -3.36000 45.63600
C  7.54800 -2.19700 44.39900
C  7.85500 -0.84000 45.03400
O  7.51000 -0.61900 46.13400
O  8.30300 0.05600 44.12000
C  8.34300 1.46900 44.63500
H  1.10400 -0.37300 42.45100
H  -1.26300 -5.18600 46.02300
H  4.72200 -6.90600 47.88500
H  5.73300 -0.01000 43.19000
H  3.52900 -0.67900 41.15100
H  4.40600 1.80700 42.53700
H  2.71400 1.43100 42.84400
H  3.18900 1.52300 41.18300
H  5.59100 -1.16400 40.47400
H  6.50800 -2.14800 41.53700
H  8.21500 -0.52800 41.70300
H  7.14500 0.80500 41.77100
H  -1.61400 -1.19900 41.78100
H  -1.27600 -0.17400 43.20300
H  -2.77500 -0.96500 43.20900
H  -3.41400 -5.45700 45.63600
H  -2.37200 -5.99800 44.22700
H  -4.01100 -5.59800 44.01300
H  0.15900 -7.47600 46.67000
H  2.27900 -7.55000 48.62000
H  -0.22500 -5.58100 49.08100
H  0.18200 -7.32100 49.29500
H  -1.22700 -6.87700 48.37100
H  3.30700 -8.25200 45.98200
H  1.69500 -9.01500 46.23900
H  2.85200 -9.74300 48.51200
H  4.35200 -9.15900 47.75700
H  3.46100 -10.56900 47.02700
H  7.87200 -6.91000 47.03900
H  6.99500 -6.27300 48.44500
H  8.26100 -5.32700 47.85900
H  8.07800 -2.17600 43.44700
H  9.20700 1.54800 45.29500
H  7.36100 1.67000 45.06400
H  8.47100 2.19500 43.83300
Mg 25.70900 1.63500 29.54800
C  27.76600 1.21700 32.35000
C  23.00700 1.82000 31.68300
C  23.72000 1.76800 26.88000
C  28.39700 0.57300 27.52700
N  25.49200 1.48000 31.76700
C  26.42900 1.36700 32.70600
C  25.77400 1.59200 34.12400
C  24.28000 1.69500 33.81200
C  24.24400 1.66700 32.30200
C  23.41100 0.62100 34.54700
C  26.32500 2.86200 34.85600
C  25.60500 3.10600 36.23400
H  26.48600 3.41800 37.44400
N  23.60400 1.70800 29.30900
C  22.70600 1.78100 30.32500
C  21.34600 1.93600 29.71400
C  21.60300 1.95800 28.29500
C  23.01700 1.86400 28.09200
C  20.12800 2.12000 30.59200
C  20.55300 2.01900 27.19400
O  20.76100 2.11700 25.96100
C  19.11700 2.13400 27.64000
N  26.05300 1.34200 27.45700
C  25.08800 1.55900 26.59400
C  25.72200 1.61100 25.16700
C  27.15800 1.18700 25.41500
C  27.23700 1.00000 26.91700
C  24.93100 0.83400 24.05200
C  28.21600 2.24900 24.85900
C  29.57700 1.53800 24.52100
N  27.71700 1.03300 29.80000
C  28.65000 0.63600 28.87100
C  29.87900 0.35500 29.54700
C  29.61100 0.56200 30.89600
C  28.30200 1.01300 31.01700
C  31.21400 0.03200 28.98900
C  30.17700 0.44100 32.22200
O  31.26300 0.11400 32.69700
C  28.96900 0.88500 33.17500
C  28.65500 -0.23200 34.04400
O  28.19600 -1.29000 33.66700
O  28.95300 0.08200 35.35000
C  28.72400 -0.93800 36.33700
H  22.21200 2.00000 32.41000
H  23.10400 1.99300 26.00700
H  29.24400 0.41500 26.85700
H  26.02100 0.66800 34.64600
H  23.96900 2.69800 34.10400
H  22.50400 1.16200 34.81600
H  23.87100 0.21700 35.44900
H  23.03500 -0.18600 33.91900
H  26.16700 3.67100 34.14300
H  27.40200 2.77100 34.99900
H  25.08800 2.18000 36.48500
H  24.95900 3.89400 35.84700
H  19.55300 1.21900 30.37500
H  19.66400 3.10000 30.48300
H  20.34900 2.01100 31.65300
H  19.01800 2.99100 28.30700
H  18.95300 1.21700 28.20500
H  18.47800 2.28500 26.77000
H  25.70900 2.64700 24.82900
H  27.34200 0.20200 24.98400
H  24.60900 1.51400 23.26300
H  24.11500 0.20000 24.39800
H  25.53900 0.12400 23.49200
H  28.24500 3.08000 25.56300
H  27.90300 2.62400 23.88400
H  29.70500 1.73100 23.45600
H  29.53300 0.45200 24.44300
H  30.47000 1.95400 24.98800
H  31.52200 0.69000 28.17600
H  31.16900 -0.97500 28.57600
H  31.95400 0.05200 29.78800
H  29.27900 1.79700 33.68400
H  29.59700 -1.01900 36.98400
H  28.51900 -1.98500 36.11500
H  27.92500 -0.53500 36.95900

