158

Mg 24.86300 1.20600 29.97700
C  26.99900 1.32400 32.65500
C  22.21200 1.49300 32.10600
C  23.12200 1.28900 27.30700
C  27.75400 0.47800 27.93000
N  24.62800 1.58300 32.11300
C  25.64800 1.63100 33.00400
C  25.11500 1.89600 34.44000
C  23.60400 1.84200 34.19600
C  23.41900 1.57600 32.76700
C  22.81000 0.97200 35.26600
C  25.67700 3.15500 35.17500
C  26.30500 2.87200 36.54100
H  26.00000 3.82700 37.71300
N  22.88900 1.04100 29.77700
C  21.91800 1.31500 30.71800
C  20.58400 1.38500 30.09500
C  20.88100 1.26900 28.65700
C  22.37000 1.22400 28.50600
C  19.33400 1.66800 30.84300
C  19.92200 1.21900 27.52100
O  20.22800 1.18600 26.33900
C  18.48600 1.44400 27.89100
N  25.39800 0.70400 27.83800
C  24.47800 1.05400 27.01600
C  25.01200 1.20500 25.56300
C  26.52800 0.70400 25.67300
C  26.59600 0.52400 27.22400
C  24.15100 0.36100 24.49000
C  27.68100 1.63700 25.09200
C  28.40100 1.02700 23.85200
N  26.92500 0.85300 30.21900
C  27.91600 0.54800 29.29100
C  29.19700 0.42000 29.98800
C  28.89000 0.68400 31.28100
C  27.49300 1.00900 31.39000
C  30.50800 -0.00100 29.51100
C  29.44300 0.83200 32.62600
O  30.58100 0.72800 33.01700
C  28.23000 1.21100 33.53500
C  27.98000 0.21600 34.60500
O  27.44100 -0.85300 34.38500
O  28.53500 0.65700 35.78900
C  28.45400 -0.33400 36.85900
H  21.34700 1.67100 32.74800
H  22.64800 1.62700 26.38300
H  28.69600 0.41500 27.38300
H  25.34900 0.97200 34.96900
H  23.24300 2.86200 34.33100
H  23.43500 0.85300 36.15100
H  22.75500 -0.01900 34.81400
H  21.78300 1.28100 35.45900
H  25.00900 4.01500 35.21700
H  26.45900 3.42700 34.46600
H  27.37900 2.78400 36.37600
H  25.92600 1.91200 36.89300
H  19.46300 1.96200 31.88500
H  18.68200 0.79400 30.86900
H  18.81400 2.52900 30.42300
H  18.11100 0.67400 28.56500
H  17.91000 1.58700 26.97600
H  18.54800 2.34300 28.50400
H  24.95500 2.26700 25.32400
H  26.56500 -0.34500 25.37800
H  23.46300 -0.31400 24.99900
H  24.86700 -0.18300 23.87400
H  23.60000 1.08600 23.89200
H  28.39500 1.92300 25.86400
H  27.12500 2.54000 24.83900
H  29.45800 0.86200 24.05900
H  28.33500 1.72600 23.01800
H  28.02000 0.05100 23.55100
H  31.25200 0.60400 30.03000
H  30.62000 0.12400 28.43400
H  30.70200 -1.05500 29.70800
H  28.33000 2.12900 34.11400
H  29.32000 -0.40500 37.51600
H  28.47200 -1.35700 36.48300
H  27.55100 -0.28800 37.46800
Mg 51.15000 47.15100 43.22400
C  47.88400 47.94900 42.49700
C  50.50800 44.15600 41.43000
C  54.29400 46.33200 43.68100
C  51.76400 50.43800 44.36700
N  49.46200 46.18600 42.02000
C  48.20300 46.70800 41.95400
C  47.36400 45.87400 40.94400
C  48.05900 44.47600 41.09900
C  49.44800 44.97100 41.46700
C  47.34300 43.51000 42.10900
C  47.41300 46.45400 39.50700
C  46.29300 46.17300 38.55100
H  46.30900 44.83600 37.67700
N  52.29200 45.50600 42.58700
C  51.83000 44.39600 41.93900
C  52.95600 43.47500 41.74800
C  54.09600 44.08200 42.28400
C  53.62200 45.32600 42.89500
C  52.90900 42.06900 41.17400
C  55.49200 43.51000 42.38100
O  55.82400 42.44700 41.83900
C  56.66100 44.36600 42.82100
N  52.87200 48.25200 43.93700
C  54.01200 47.61900 44.10000
C  55.03600 48.44800 44.84800
C  54.25100 49.85300 45.06600
C  52.85900 49.50800 44.47500
C  55.70200 47.86800 46.13800
C  54.91000 51.07100 44.45200
C  55.26200 52.33500 45.27900
N  50.09900 48.87600 43.45500
C  50.44400 50.10700 43.97100
C  49.20400 50.96400 43.95600
C  48.21300 50.16500 43.32600
C  48.80600 48.95400 43.03700
C  49.09900 52.42900 44.08900
C  46.75300 50.12600 43.03900
O  45.87700 51.00200 43.14300
C  46.59100 48.73000 42.24500
C  45.33800 47.99500 42.72200
O  45.27700 47.55600 43.84800
O  44.36700 47.86100 41.73100
C  43.29300 46.95100 42.15500
H  50.30400 43.23900 40.87300
H  55.35800 46.15800 43.85500
H  52.03800 51.45600 44.65000
H  46.33600 45.69700 41.26000
H  48.10200 43.96500 40.13700
H  46.49200 43.95500 42.62400
H  48.04700 43.33700 42.92300
H  46.92600 42.67100 41.55100
H  48.38300 46.31500 39.03000
H  47.40500 47.53200 39.67200
H  46.17700 46.97600 37.82300
H  45.32400 46.22100 39.04600
H  53.48100 41.99700 40.24900
H  51.88400 41.88600 40.85300
H  53.19400 41.34100 41.93400
H  57.57300 43.78800 42.66700
H  56.60900 44.64000 43.87500
H  56.78300 45.26500 42.21600
H  55.77900 48.60600 44.06600
H  54.14200 50.04700 46.13300
H  55.24600 46.88500 46.26000
H  55.48800 48.46400 47.02500
H  56.74400 47.56000 46.04400
H  54.18200 51.25500 43.66100
H  55.80800 50.84500 43.87700
H  56.34000 52.47900 45.20600
H  54.94400 52.15100 46.30500
H  54.72900 53.21900 44.92900
H  50.00800 52.72400 44.61300
H  48.25200 52.79500 44.66900
H  49.16400 52.80400 43.06700
H  46.46200 48.92900 41.18100
H  43.62700 46.15200 42.81600
H  43.03800 46.35900 41.27600
H  42.43800 47.51800 42.52200

