158

Mg 30.40500 58.08100 40.27900
C  28.11800 56.25400 38.35300
C  32.89100 56.03700 39.06900
C  32.66100 60.38600 41.27900
C  27.87600 60.55300 40.78000
N  30.49900 56.52600 38.75100
C  29.43000 55.79700 38.23600
C  29.87300 54.47900 37.35100
C  31.35700 54.37400 37.88100
C  31.62200 55.77300 38.56100
C  31.68700 53.06300 38.71000
C  29.79100 54.65500 35.79100
C  28.76800 53.72600 35.16900
H  27.70800 54.45600 34.36800
N  32.52600 58.09100 40.28500
C  33.36600 57.12400 39.78700
C  34.77100 57.50400 40.04500
C  34.70500 58.80500 40.70900
C  33.25000 59.15200 40.79200
C  35.96100 56.69400 39.53600
C  35.88600 59.56200 41.25000
O  37.01500 58.99300 41.19500
C  35.83100 60.93000 41.88800
N  30.26400 60.18600 40.96100
C  31.33300 60.86800 41.25700
C  31.02300 62.35100 41.59000
C  29.45200 62.31400 41.64300
C  29.17000 60.95700 41.10100
C  31.76400 62.93200 42.82800
C  28.67900 63.43500 40.82300
C  27.51400 64.10600 41.47100
N  28.34600 58.31500 39.89800
C  27.41500 59.33500 40.23200
C  26.13300 59.00900 39.63300
C  26.29300 57.75100 39.03400
C  27.68300 57.46500 39.09500
C  24.99300 59.85900 39.75400
C  25.62300 56.65200 38.27200
O  24.46500 56.59700 37.92300
C  26.77800 55.66000 37.88300
C  26.46800 54.38500 38.47800
O  26.65800 54.01900 39.61600
O  25.76000 53.62600 37.56500
C  25.09400 52.40900 38.01300
H  33.67500 55.29700 38.89400
H  33.30000 61.23100 41.54300
H  27.11600 61.31500 40.96600
H  29.25800 53.67100 37.74700
H  31.96800 54.25100 36.98700
H  32.30300 52.36600 38.14100
H  30.80800 52.51000 39.04200
H  32.16500 53.43200 39.61700
H  30.76100 54.40900 35.35900
H  29.66400 55.71400 35.56300
H  28.32400 53.04300 35.89300
H  29.30500 52.94500 34.63100
H  36.33000 56.16000 40.41200
H  36.61200 57.38300 38.99900
H  35.68200 55.93500 38.80600
H  35.76100 61.72800 41.14900
H  36.74500 60.99000 42.47900
H  35.03400 60.88300 42.63100
H  31.30900 62.88700 40.68600
H  29.07600 62.33100 42.66600
H  30.99700 62.99600 43.60000
H  32.02800 63.93900 42.50200
H  32.65400 62.43800 43.21700
H  28.46700 62.98400 39.85300
H  29.44300 64.20500 40.71800
H  27.33200 63.82200 42.50800
H  26.55100 63.82300 41.04600
H  27.61300 65.19100 41.50400
H  25.42000 60.83600 39.97900
H  24.34200 59.45900 40.53100
H  24.54200 60.04700 38.77900
H  26.92500 55.48400 36.81800
H  25.81900 51.84000 38.59500
H  24.76200 51.81800 37.15900
H  24.20000 52.61100 38.60300
Mg 10.12400 48.12100 26.07100
C  8.21600 48.16100 29.01900
C  12.57500 49.59400 27.63300
C  11.74900 48.32400 23.10100
C  7.27900 47.10300 24.30800
N  10.29000 48.84400 28.06600
C  9.53000 48.61900 29.15700
C  10.17200 49.08700 30.43100
C  11.32800 49.97500 29.82100
C  11.42600 49.46200 28.43500
C  11.06700 51.52200 29.82200
C  10.76000 47.92800 31.37900
C  10.85400 48.24300 32.90000
H  10.32200 47.25400 33.90500
N  11.97300 48.83900 25.44500
C  12.86500 49.42400 26.25300
C  14.14900 49.66800 25.59900
C  13.88900 49.20800 24.23000
C  12.48800 48.81200 24.17300
C  15.35800 50.10700 26.23500
C  14.90400 49.13400 23.08000
O  14.59600 48.58700 22.04000
C  16.29100 49.59800 23.24000
N  9.57700 47.86100 23.92800
C  10.46000 47.87700 22.91800
C  9.86400 47.28100 21.57700
C  8.43100 46.88400 22.07800
C  8.43700 47.26700 23.52100
C  9.96200 48.12000 20.27300
C  8.36900 45.34000 21.88300
C  9.18000 44.41600 22.80200
N  8.19300 47.73200 26.47300
C  7.13200 47.28000 25.69600
C  5.92600 47.10300 26.50200
C  6.34500 47.40300 27.80900
C  7.65900 47.73300 27.79700
C  4.56900 46.87300 26.07500
C  5.92700 47.37600 29.14000
O  4.83000 47.09400 29.68300
C  7.12800 47.73500 30.03600
C  7.39700 46.48900 30.88900
O  8.41900 45.79400 30.77800
O  6.45800 46.30200 31.82400
C  6.65900 45.12900 32.73800
H  13.32100 50.07600 28.26900
H  12.19200 48.44600 22.11100
H  6.39500 46.81900 23.73300
H  9.50100 49.59300 31.12500
H  12.21000 49.67700 30.38800
H  11.06900 51.85700 28.78500
H  11.86700 52.08300 30.30600
H  10.13500 51.91300 30.23200
H  11.81200 47.83800 31.10600
H  10.31700 46.96300 31.13200
H  10.38700 49.22500 32.96400
H  11.89000 48.38800 33.20800
H  15.18500 49.98300 27.30400
H  15.55000 51.16400 26.05400
H  16.19000 49.49100 25.89300
H  16.94800 49.61100 22.37100
H  16.68500 48.77800 23.84000
H  16.24100 50.61000 23.64200
H  10.44200 46.37700 21.38700
H  7.68000 47.42200 21.49900
H  8.97600 48.34700 19.86800
H  10.54300 47.51700 19.57500
H  10.43800 49.08600 20.44100
H  8.75800 45.18600 20.87600
H  7.33800 45.01800 22.03200
H  8.42600 43.76200 23.24000
H  9.83800 44.77300 23.59500
H  9.80700 43.76900 22.18800
H  4.03200 47.80900 25.91900
H  3.99800 46.19800 26.71200
H  4.65700 46.30600 25.14800
H  7.05900 48.61200 30.67900
H  5.92400 44.36900 32.47000
H  6.34400 45.49100 33.71600
H  7.68400 44.76000 32.72200

