158

Mg -2.18500 17.38000 26.84700
C  -2.93400 15.22700 29.46000
C  -2.80300 19.99900 29.03300
C  -1.99300 19.47000 24.16000
C  -1.87500 14.64800 24.75400
N  -2.73400 17.54500 29.04100
C  -2.97500 16.57900 29.96700
C  -3.07900 17.13000 31.45000
C  -2.97200 18.66400 31.15500
C  -2.86600 18.72800 29.64300
C  -3.99800 19.60300 31.81900
C  -2.10800 16.46500 32.39200
C  -1.33500 17.25700 33.40400
H  -1.01700 16.57900 34.82500
N  -2.25100 19.43700 26.61900
C  -2.50800 20.35500 27.66000
C  -2.39200 21.63600 27.16800
C  -2.09400 21.52400 25.76300
C  -2.13800 20.07000 25.40000
C  -2.71800 22.83500 28.05600
C  -1.79200 22.59100 24.66000
O  -1.40600 22.38100 23.51800
C  -1.65500 23.97400 25.09500
N  -2.20600 17.10600 24.76200
C  -2.11400 18.10700 23.82600
C  -1.89200 17.53600 22.39300
C  -1.53600 16.07900 22.70800
C  -1.94200 15.87700 24.20400
C  -3.17600 17.76500 21.55900
C  -0.03300 15.72300 22.57600
C  0.87500 16.48100 23.59600
N  -2.33200 15.34100 26.98200
C  -2.15000 14.31900 26.06600
C  -2.37900 13.04200 26.64000
C  -2.65700 13.30700 27.95600
C  -2.58600 14.75400 28.11400
C  -2.49100 11.67800 25.95100
C  -3.03400 12.73500 29.16700
O  -3.25800 11.52900 29.44600
C  -3.18500 13.91300 30.21800
C  -2.20700 13.56300 31.24700
O  -1.05500 13.74200 31.12300
O  -2.75700 12.90200 32.36300
C  -1.85800 12.55000 33.46900
H  -2.98400 20.81500 29.73500
H  -1.68100 20.01900 23.26900
H  -1.63500 13.85000 24.04800
H  -4.12800 16.89300 31.63300
H  -1.99200 19.07300 31.39800
H  -4.72700 19.99700 31.11100
H  -3.47500 20.36200 32.40000
H  -4.46700 18.94400 32.55000
H  -1.30500 16.05100 31.78300
H  -2.59300 15.66200 32.94800
H  -1.85700 18.14200 33.76700
H  -0.41600 17.68700 33.00600
H  -3.51700 23.42600 27.61000
H  -1.90800 23.56200 28.11800
H  -2.95500 22.67900 29.10900
H  -2.70000 24.23100 25.27400
H  -1.23400 24.55500 24.27400
H  -1.14300 23.98000 26.05700
H  -0.97700 18.05900 22.11400
H  -2.09000 15.34200 22.12600
H  -3.64600 18.71200 21.82500
H  -3.96200 17.02700 21.72000
H  -2.96200 17.81600 20.49200
H  0.34000 15.91200 21.56900
H  0.10200 14.66700 22.81300
H  0.39000 17.20000 24.25600
H  1.72800 16.92300 23.08200
H  1.27600 15.76200 24.31100
H  -3.57200 11.62300 26.07700
H  -1.88300 10.89900 26.41300
H  -2.33600 11.80100 24.87900
H  -4.16800 13.77200 30.66900
H  -1.96200 13.37300 34.17600
H  -0.82600 12.44900 33.13100
H  -2.14000 11.58700 33.89700
Mg 48.54400 35.20500 26.80000
C  46.44700 33.91100 29.27700
C  49.42800 37.90700 28.83600
C  50.12100 36.56600 24.10200
C  47.60400 32.56300 24.77300
N  48.01400 35.83200 28.74800
C  47.20200 35.07200 29.63400
C  47.46600 35.52300 31.06900
C  48.00600 37.03100 30.82700
C  48.55900 36.91400 29.38000
C  46.97000 38.11200 30.89200
C  48.65000 34.64800 31.80600
C  48.60600 34.44000 33.35200
H  47.73600 35.24500 34.34100
N  49.65700 36.99400 26.47900
C  49.98400 37.89200 27.46100
C  50.68400 38.97100 26.86900
C  50.80500 38.67800 25.51300
C  50.22300 37.29100 25.30400
C  51.16800 40.11600 27.76200
C  51.51900 39.54400 24.40900
O  51.56700 39.21200 23.21600
C  52.20800 40.84000 24.75600
N  48.70800 34.67500 24.69000
C  49.45700 35.32900 23.83000
C  49.55900 34.64900 22.41900
C  48.84500 33.25900 22.72000
C  48.37800 33.50500 24.14400
C  49.04500 35.45300 21.22800
C  49.71400 32.06500 22.46700
C  49.78300 31.56200 21.08500
N  47.38700 33.52400 26.95400
C  47.12300 32.51900 26.05400
C  46.20200 31.47500 26.63800
C  45.88600 32.05500 27.85100
C  46.62600 33.26100 28.01500
C  45.90600 30.09400 25.99700
C  45.10600 31.80200 29.02600
O  44.35800 30.89100 29.30100
C  45.40200 33.05600 29.96000
C  45.83800 32.58500 31.37200
O  46.72500 31.71700 31.56100
O  44.86100 33.04800 32.34300
C  44.96400 32.40300 33.67400
H  49.62700 38.70700 29.55200
H  50.71000 36.96300 23.27300
H  47.39400 31.70200 24.13500
H  46.59700 35.68300 31.70700
H  48.79000 37.40400 31.48500
H  45.98200 37.66900 30.77000
H  47.15200 38.77000 30.04100
H  46.92600 38.77500 31.75600
H  49.65400 34.98900 31.55700
H  48.63100 33.62900 31.42000
H  49.66600 34.57500 33.56700
H  48.60800 33.36800 33.55100
H  50.60300 41.00300 27.47500
H  52.22600 40.31800 27.59400
H  51.21500 39.97500 28.84200
H  52.67500 41.28700 23.87700
H  53.08500 40.48500 25.29800
H  51.63000 41.50900 25.39300
H  50.64500 34.65300 22.32900
H  47.91900 33.21100 22.14700
H  48.32900 36.17800 21.61500
H  48.43400 34.80300 20.60200
H  49.76900 36.05200 20.67400
H  49.36100 31.38900 23.24600
H  50.75700 32.27000 22.70700
H  50.76600 31.13900 20.87900
H  49.49700 32.32400 20.36000
H  49.10800 30.71000 21.00400
H  46.62400 29.88100 25.20600
H  44.91200 30.18600 25.55800
H  45.98000 29.27200 26.70900
H  44.59800 33.76500 30.16000
H  44.80300 31.32800 33.59100
H  44.25200 32.92100 34.31700
H  45.97300 32.53000 34.06400

