158

Mg 24.18200 -6.87400 46.62800
C  25.85800 -4.20100 45.33700
C  21.50000 -5.98800 44.32600
C  22.68100 -9.85000 47.14900
C  26.85800 -7.84800 48.34700
N  23.75300 -5.27500 44.98800
C  24.63800 -4.25400 44.70600
C  24.03700 -3.35600 43.62400
C  22.51700 -3.80600 43.52600
C  22.58100 -5.08900 44.31900
C  21.45000 -2.73600 43.91800
C  24.86800 -3.48800 42.31100
C  25.14300 -2.20500 41.47900
H  24.65100 -2.17600 40.02200
N  22.25100 -7.82100 45.99300
C  21.32200 -7.30400 45.00200
C  20.16800 -8.15600 45.05000
C  20.46300 -9.21300 45.96600
C  21.81100 -8.99800 46.42000
C  18.93500 -7.91900 44.18200
C  19.49100 -10.33200 46.37200
O  18.40400 -10.45200 45.77300
C  19.84000 -11.32800 47.49600
N  24.66600 -8.59800 47.62200
C  23.83900 -9.62000 47.77300
C  24.42500 -10.63900 48.79000
C  25.82700 -10.05000 49.12600
C  25.77300 -8.72600 48.36000
C  23.53900 -11.01800 49.96200
C  27.13700 -10.92800 48.85700
C  28.03000 -11.16700 50.14500
N  25.99100 -6.26200 46.76300
C  27.05900 -6.70400 47.55300
C  28.10700 -5.71100 47.56800
C  27.68000 -4.74600 46.68500
C  26.37200 -5.11800 46.24000
C  29.31400 -5.76700 48.49200
C  28.02100 -3.43600 46.18500
O  28.90100 -2.62700 46.41800
C  26.85300 -3.06100 45.23500
C  26.35600 -1.79300 45.68400
O  26.87400 -0.71900 45.26900
O  25.17100 -1.90900 46.37300
C  24.73400 -0.68500 47.11300
H  20.61900 -5.77800 43.71500
H  22.28300 -10.84000 47.38200
H  27.68500 -8.09600 49.01500
H  24.01900 -2.29200 43.85700
H  22.27800 -4.07300 42.49700
H  20.88500 -3.11200 44.77000
H  20.73100 -2.58600 43.11300
H  21.84500 -1.80300 44.32100
H  24.37600 -4.18500 41.63300
H  25.80100 -3.99800 42.55200
H  26.22400 -2.27500 41.36400
H  24.99100 -1.29500 42.06100
H  18.83700 -8.78700 43.52900
H  19.02400 -7.11600 43.45100
H  17.98800 -7.82100 44.71300
H  20.40600 -12.07000 46.93200
H  18.94200 -11.79100 47.90600
H  20.40900 -10.78700 48.25300
H  24.55000 -11.59100 48.27600
H  25.75500 -9.81700 50.18900
H  22.73900 -10.28000 50.03200
H  23.99200 -11.05200 50.95200
H  23.13100 -12.00600 49.74900
H  27.82300 -10.52400 48.11300
H  26.70300 -11.86400 48.50500
H  28.00400 -12.23700 50.35300
H  27.66300 -10.66200 51.03800
H  29.05500 -10.82500 50.00100
H  29.35200 -4.83400 49.05500
H  30.21000 -5.87400 47.88100
H  29.12200 -6.56000 49.21400
H  27.18100 -3.02500 44.19600
H  24.07500 -0.07600 46.49400
H  25.59700 -0.06600 47.36000
H  24.28800 -1.00400 48.05500
Mg 41.62600 41.20000 27.34800
C  41.06900 43.52700 29.80300
C  42.41100 38.82100 29.74900
C  42.40600 39.14300 24.88500
C  41.03300 43.69300 24.87700
N  41.85800 41.30500 29.47400
C  41.31100 42.24400 30.29000
C  41.06300 41.82900 31.77400
C  41.54600 40.30000 31.62900
C  41.98300 40.11200 30.18000
C  42.71200 39.90300 32.54400
C  39.62600 42.05400 32.37100
C  39.43400 42.88600 33.67600
H  38.76500 42.13700 34.77300
N  42.30900 39.22700 27.31900
C  42.57300 38.40700 28.40700
C  42.94100 37.09900 27.93000
C  42.94000 37.12100 26.54200
C  42.57400 38.53100 26.15400
C  43.06300 35.91400 28.92700
C  43.16000 35.98100 25.56400
O  43.29700 36.19800 24.34600
C  43.52200 34.65400 26.03400
N  41.83200 41.49700 25.17400
C  42.03800 40.39000 24.38200
C  41.78400 40.71400 22.84400
C  41.15300 42.09100 22.97200
C  41.28200 42.44100 24.45500
C  43.16800 40.68400 22.06000
C  39.68700 42.08000 22.48500
C  38.54800 41.56600 23.43100
N  41.24600 43.26400 27.29500
C  41.00800 44.16600 26.24300
C  40.51100 45.37600 26.82700
C  40.48500 45.16500 28.19800
C  41.00700 43.90900 28.45500
C  40.00200 46.67300 26.17400
C  40.07900 45.72300 29.49700
O  39.54600 46.80600 29.74800
C  40.60100 44.74500 30.54900
C  41.69100 45.41400 31.23000
O  42.81100 45.70900 30.77700
O  41.27200 45.53400 32.51700
C  42.19000 46.22900 33.42400
H  42.48300 38.06100 30.53000
H  42.61900 38.46500 24.05600
H  40.63800 44.24700 24.02300
H  41.83900 42.47900 32.17800
H  40.69100 39.63700 31.76100
H  43.68200 40.03700 32.06500
H  42.52300 38.90700 32.94200
H  42.75400 40.44800 33.48700
H  39.17700 41.06600 32.47400
H  39.05700 42.63200 31.64200
H  38.77600 43.71400 33.41200
H  40.35400 43.33800 34.04800
H  42.11900 35.38000 29.03100
H  43.42200 36.35600 29.85600
H  43.91900 35.30600 28.63200
H  44.43100 34.80900 26.61500
H  43.76400 33.91400 25.27100
H  42.83800 34.23800 26.77300
H  41.20700 39.87000 22.46600
H  41.79900 42.81600 22.47700
H  43.39400 41.57500 21.47400
H  43.13200 39.88700 21.31700
H  44.01300 40.49800 22.72300
H  39.63200 41.55000 21.53400
H  39.40100 43.07300 22.13800
H  38.94400 41.12200 24.34400
H  38.08900 40.74900 22.87500
H  37.76600 42.31100 23.57700
H  40.77300 47.43800 26.27000
H  39.09300 46.82900 26.75500
H  39.81700 46.49200 25.11500
H  39.78500 44.60800 31.26000
H  42.45500 47.20700 33.02200
H  43.11700 45.65800 33.46000
H  41.57300 46.17000 34.32100

