158

Mg 36.13400 49.92600 25.01700
C  36.39200 47.86700 28.04000
C  34.60800 52.28800 26.92900
C  35.27100 51.32700 22.23100
C  37.02000 46.97200 23.22400
N  35.70400 50.05200 27.24400
C  35.90100 49.12000 28.28500
C  35.61500 49.80200 29.68100
C  34.87900 51.15600 29.28100
C  35.13000 51.16700 27.71800
C  33.39300 51.10600 29.71800
C  36.92200 50.13300 30.41700
C  37.00000 49.80900 31.93300
H  35.70900 49.40900 32.70800
N  35.24800 51.72600 24.65500
C  34.64600 52.52300 25.57500
C  33.92200 53.60200 24.83200
C  34.11900 53.38700 23.43000
C  34.94100 52.11900 23.38200
C  33.05700 54.65300 25.47600
C  33.58700 54.10100 22.17400
O  33.63100 53.68900 21.00900
C  33.03100 55.50900 22.25600
N  36.23400 49.23800 22.96000
C  35.85300 50.06900 22.00400
C  36.07300 49.54800 20.58300
C  36.54000 48.05800 20.91300
C  36.56400 47.99100 22.45200
C  34.88500 49.62400 19.62700
C  37.99600 47.67100 20.43900
C  39.32800 48.28500 21.05700
N  36.77200 47.84700 25.45500
C  37.15000 46.76600 24.63600
C  37.49800 45.60300 25.37800
C  37.20500 45.93600 26.77500
C  36.74700 47.31500 26.71200
C  38.20900 44.38100 24.93700
C  37.17800 45.51100 28.10400
O  37.39500 44.40600 28.55000
C  36.71000 46.74100 29.04000
C  35.55700 46.23100 29.79800
O  34.35400 46.44600 29.51500
O  35.91600 45.41300 30.88800
C  34.77500 45.08700 31.74500
H  34.22200 53.14500 27.48400
H  34.97400 51.74500 21.26700
H  37.25100 46.12300 22.57900
H  34.95600 49.19600 30.30300
H  35.35600 51.97600 29.81900
H  33.13900 50.19200 30.25400
H  32.83300 51.17800 28.78600
H  33.09900 52.05100 30.17500
H  37.17200 51.18000 30.24900
H  37.69300 49.52100 29.94800
H  37.40600 50.69200 32.42600
H  37.74500 49.01900 32.02300
H  31.97200 54.55800 25.42700
H  33.28000 55.60500 24.99600
H  33.37000 54.82800 26.50500
H  33.82600 56.23800 22.41300
H  32.19000 55.55400 22.94900
H  32.67500 55.71200 21.24600
H  36.85900 50.13200 20.10200
H  35.80000 47.34800 20.54300
H  34.93500 48.83900 18.87200
H  34.71800 50.52700 19.04000
H  34.07400 49.33500 20.29500
H  38.08400 47.93400 19.38500
H  38.07100 46.58500 20.38500
H  39.76800 47.43000 21.57100
H  39.08900 49.11100 21.72700
H  40.01100 48.75300 20.34900
H  38.37300 44.42000 23.86000
H  37.64700 43.45100 25.02800
H  39.18100 44.50300 25.41400
H  37.42900 46.97800 29.82400
H  34.18300 44.35300 31.19900
H  34.14100 45.92500 32.03400
H  35.22400 44.72300 32.66900
Mg -12.30300 16.61600 41.93300
C  -9.76300 14.29700 41.53900
C  -10.24000 18.98600 40.78900
C  -15.07600 18.57900 41.48700
C  -14.52000 13.96700 42.53900
N  -10.34500 16.62400 41.10500
C  -9.45900 15.56100 41.09000
C  -8.08200 15.99400 40.64200
C  -8.15200 17.54200 40.89200
C  -9.67200 17.79300 40.95800
C  -7.48400 17.99000 42.21900
C  -7.85500 15.61000 39.17800
C  -6.37000 15.68800 38.80100
H  -6.02700 16.35200 37.47200
N  -12.59400 18.55900 41.18100
C  -11.59800 19.37700 40.75200
C  -12.16300 20.59600 40.38200
C  -13.57100 20.41100 40.42500
C  -13.83900 19.15200 41.11200
C  -11.39900 21.76700 39.79100
C  -14.61600 21.29700 39.68400
O  -14.24600 22.37100 39.12800
C  -16.10900 20.99200 39.60200
N  -14.57700 16.31600 41.95300
C  -15.50200 17.28600 41.90200
C  -16.96200 16.75900 41.98000
C  -16.66600 15.34300 42.61800
C  -15.14500 15.15200 42.22200
C  -17.99200 17.62100 42.70100
C  -17.54600 14.21400 42.05600
C  -18.74000 13.79400 42.87100
N  -12.16000 14.58300 42.24800
C  -13.17200 13.67700 42.55900
C  -12.51200 12.35900 42.61400
C  -11.21300 12.52600 42.29500
C  -11.01300 13.89400 42.08300
C  -13.22900 11.05200 42.89800
C  -9.89100 11.94500 42.06800
O  -9.49200 10.73900 42.05600
C  -8.95200 13.00400 41.62600
C  -7.74900 13.26900 42.39100
O  -7.68900 13.87600 43.47600
O  -6.62400 12.77300 41.66900
C  -5.32600 13.47200 42.06500
H  -9.57200 19.84800 40.72400
H  -15.90300 19.28800 41.40700
H  -15.22400 13.24200 42.95400
H  -7.32300 15.66800 41.35400
H  -7.62500 17.92600 40.01800
H  -7.06600 17.14300 42.76200
H  -8.27400 18.38900 42.85600
H  -6.74100 18.77700 42.08500
H  -8.41500 16.27100 38.51600
H  -8.10900 14.57800 38.93400
H  -5.98300 14.66900 38.80500
H  -5.83100 16.09100 39.65800
H  -11.85400 22.68000 40.17500
H  -11.41800 21.75200 38.70100
H  -10.35000 21.80100 40.08500
H  -16.74600 21.07200 40.48300
H  -16.12800 19.91100 39.46600
H  -16.48000 21.43300 38.67700
H  -17.43500 16.61300 41.00900
H  -16.90900 15.48400 43.67100
H  -18.56700 17.00900 43.39600
H  -18.73700 18.08900 42.05800
H  -17.54800 18.37000 43.35600
H  -17.11100 13.25100 41.78800
H  -17.97600 14.46100 41.08500
H  -18.77400 12.71100 42.98300
H  -19.67400 14.10900 42.40600
H  -18.65600 14.26700 43.85000
H  -12.57200 10.46300 43.53800
H  -13.66400 10.64300 41.98700
H  -14.09200 11.23200 43.53900
H  -8.68700 12.68400 40.61800
H  -5.63100 14.49900 42.26700
H  -4.73700 13.47300 41.14800
H  -4.76200 13.01500 42.87700

