158

Mg -1.48300 17.78400 27.24500
C  -1.86900 15.32100 29.72700
C  -2.06500 20.16800 29.48100
C  -1.36900 19.89400 24.67200
C  -1.58300 15.03400 24.73900
N  -1.91200 17.66400 29.41200
C  -1.96500 16.62800 30.26100
C  -2.31400 17.17900 31.65700
C  -2.60900 18.67600 31.40500
C  -2.18700 18.87400 29.96300
C  -4.02500 19.09500 31.74500
C  -1.16900 16.84800 32.69000
C  -1.59000 16.06300 33.94800
H  -0.44200 15.98700 34.99000
N  -1.61400 19.76500 27.04800
C  -1.70100 20.58400 28.16600
C  -1.57200 21.92900 27.73800
C  -1.38200 21.91000 26.38200
C  -1.37400 20.53100 25.97700
C  -1.82200 23.15300 28.62300
C  -1.13200 22.99800 25.38600
O  -1.03300 22.84200 24.18800
C  -1.02000 24.41200 25.85300
N  -1.45100 17.46600 25.05100
C  -1.46600 18.57400 24.25100
C  -1.83300 18.16600 22.78700
C  -1.67500 16.63600 22.80100
C  -1.54500 16.40600 24.28100
C  -3.22900 18.51300 22.31400
C  -0.47600 15.98900 22.03100
C  0.99400 16.28800 22.56100
N  -1.56800 15.64700 27.19000
C  -1.54800 14.72600 26.14100
C  -1.76900 13.38700 26.70400
C  -1.90400 13.58700 28.08900
C  -1.74300 14.98100 28.32100
C  -2.09100 12.20700 25.92200
C  -2.17900 12.90700 29.29400
O  -2.30100 11.68600 29.51100
C  -2.22200 13.98900 30.43200
C  -1.11500 13.58500 31.42000
O  0.04800 13.97100 31.34000
O  -1.55200 12.93000 32.52900
C  -0.62300 12.55000 33.64500
H  -2.15500 21.02000 30.15800
H  -1.52500 20.50300 23.77900
H  -1.66000 14.21000 24.02800
H  -3.20700 16.70700 32.06700
H  -1.99300 19.39900 31.94100
H  -4.55900 18.49000 32.47800
H  -4.52000 19.19900 30.78000
H  -3.96600 20.12100 32.11000
H  -0.79500 17.82900 32.98200
H  -0.37900 16.35400 32.12400
H  -1.82700 15.04400 33.63900
H  -2.40600 16.63500 34.39000
H  -2.67400 23.75700 28.31000
H  -0.89300 23.69800 28.78600
H  -2.18400 22.99600 29.63900
H  -1.93700 24.70100 26.36600
H  -0.86900 25.03000 24.96800
H  -0.29000 24.41000 26.66300
H  -1.12200 18.64900 22.11600
H  -2.56700 16.12700 22.43800
H  -3.59800 18.96200 23.23700
H  -3.85000 17.63400 22.14500
H  -3.22300 19.17100 21.44500
H  -0.57200 16.34100 21.00400
H  -0.53500 14.90100 21.99700
H  1.02500 16.75500 23.54500
H  1.49200 16.92000 21.82500
H  1.60700 15.39900 22.71000
H  -2.22800 11.46700 26.71000
H  -1.34300 11.84700 25.21600
H  -3.05400 12.41700 25.45700
H  -3.22400 13.93200 30.85600
H  -0.01100 11.68700 33.38400
H  -1.14400 12.35800 34.58400
H  0.06500 13.39000 33.73600
Mg 48.44600 34.67400 26.41600
C  46.22100 33.63300 29.03900
C  48.78900 37.74500 28.09100
C  50.12500 35.83600 23.82500
C  47.61800 31.73400 24.79800
N  47.68700 35.50100 28.34600
C  46.91600 34.85300 29.30100
C  46.95700 35.71200 30.59800
C  47.56400 37.10100 30.09300
C  48.15500 36.75000 28.79500
C  46.56100 38.28900 30.04000
C  47.86400 35.04600 31.67400
C  47.46200 35.15200 33.15400
H  46.36900 36.11000 33.47000
N  49.38600 36.52700 26.00300
C  49.44400 37.65100 26.84600
C  50.35400 38.65300 26.22700
C  50.93400 38.01500 25.06200
C  50.18200 36.77000 24.89100
C  50.68800 39.95100 26.84700
C  52.05300 38.46800 24.13000
O  52.49700 37.67300 23.29800
C  52.69400 39.73900 24.28800
N  48.85200 33.80200 24.56500
C  49.51000 34.57700 23.65400
C  49.59300 33.73200 22.36400
C  49.00500 32.36300 22.71700
C  48.49800 32.60400 24.08900
C  48.92700 34.37100 21.13100
C  49.94600 31.20200 22.66800
C  49.57000 30.16100 21.65000
N  47.15200 32.98800 26.73200
C  46.88300 31.92100 25.97600
C  45.87800 31.09100 26.52400
C  45.57300 31.77100 27.74700
C  46.32400 32.89000 27.80600
C  45.17800 29.80600 25.92900
C  44.70800 31.72900 28.96300
O  43.87400 30.86900 29.26600
C  45.09400 33.04600 29.82300
C  45.43500 32.39400 31.10200
O  46.54100 32.07900 31.42500
O  44.36800 32.36800 31.95500
C  44.53200 31.86800 33.30200
H  48.93900 38.67300 28.64700
H  50.76900 36.03800 22.96700
H  47.40200 30.81700 24.24600
H  45.98000 35.84000 31.06400
H  48.39100 37.53000 30.65900
H  45.51400 38.01700 30.17400
H  46.54200 38.65600 29.01400
H  46.78100 39.08800 30.74800
H  48.86700 35.47200 31.66400
H  47.94400 33.99900 31.38000
H  48.25700 35.53100 33.79600
H  47.12000 34.17500 33.49500
H  49.82300 40.31900 27.39900
H  50.96700 40.76100 26.17200
H  51.55000 39.85600 27.50700
H  52.92300 39.89000 25.34300
H  51.94000 40.41100 23.87600
H  53.68600 39.78400 23.83900
H  50.67000 33.59900 22.26700
H  48.07000 32.28400 22.16300
H  49.57000 35.17800 20.78000
H  48.05600 34.86700 21.55900
H  48.52800 33.68500 20.38300
H  49.77000 30.58300 23.54800
H  51.00700 31.42500 22.55700
H  50.38100 30.00100 20.94000
H  48.75500 30.45000 20.98600
H  49.33700 29.21800 22.14400
H  45.49000 29.71600 24.88900
H  44.09600 29.93300 25.97100
H  45.39600 28.96100 26.58200
H  44.23700 33.70600 29.95700
H  43.48200 31.70700 33.54600
H  45.06900 32.70400 33.75100
H  45.03300 30.90000 33.32000

