158

Mg 36.13200 49.89200 24.89800
C  36.56600 48.09800 27.83800
C  34.51300 52.28500 26.79400
C  35.37100 51.51600 22.03400
C  37.30100 47.13700 23.13900
N  35.64900 50.10500 27.08300
C  36.09400 49.36000 28.09000
C  35.71900 49.91900 29.50800
C  34.98100 51.27300 29.10500
C  35.04200 51.27700 27.53200
C  33.61600 51.48400 29.74100
C  36.98100 50.22200 30.46500
C  36.88300 49.77300 31.93600
H  35.62000 50.11700 32.75200
N  35.31200 51.72500 24.48200
C  34.61900 52.54100 25.40600
C  34.18700 53.77100 24.76000
C  34.42000 53.61000 23.35700
C  35.06100 52.18800 23.23700
C  33.72900 54.91500 25.52300
C  34.26600 54.53100 22.14400
O  34.62700 54.23500 21.02700
C  33.54800 55.84400 22.43400
N  36.27100 49.35900 22.88500
C  35.93400 50.23200 21.84600
C  36.07100 49.55500 20.47300
C  36.97900 48.23700 20.81700
C  36.82200 48.20500 22.33600
C  34.76400 49.40400 19.72700
C  38.50700 48.28200 20.48200
C  39.31300 49.49000 20.99800
N  36.80200 47.94400 25.33600
C  37.22500 46.95400 24.51100
C  37.64000 45.80200 25.31800
C  37.37400 46.21100 26.65300
C  36.86900 47.55100 26.60800
C  37.95800 44.39000 24.74300
C  37.37000 45.79600 28.02000
O  37.72000 44.74700 28.54600
C  36.92300 46.96400 28.84000
C  35.78400 46.58600 29.64900
O  34.66000 46.31500 29.28900
O  36.27600 46.56000 30.97200
C  35.18000 46.25900 31.92500
H  33.95600 53.04500 27.34600
H  35.01500 51.89900 21.07600
H  37.86000 46.39400 22.56500
H  34.97000 49.28300 29.98100
H  35.56000 52.14700 29.40400
H  32.85600 51.82200 29.03700
H  33.82900 52.29900 30.43200
H  33.24900 50.59000 30.24600
H  37.23000 51.27700 30.34700
H  37.79100 49.68500 29.97200
H  37.68000 50.25200 32.50600
H  37.03600 48.69500 31.89600
H  33.46600 54.73300 26.56500
H  32.82100 55.34700 25.10100
H  34.56600 55.61200 25.54000
H  33.66400 56.45800 21.54100
H  33.91700 56.51800 23.20700
H  32.49900 55.54800 22.45400
H  36.67700 50.17500 19.81100
H  36.57700 47.29900 20.43300
H  33.98800 49.68900 20.43800
H  34.62700 48.36000 19.44500
H  34.64700 50.03900 18.84900
H  38.57000 48.36600 19.39700
H  39.12200 47.44800 20.82000
H  38.72600 50.08300 21.70000
H  39.42000 50.18700 20.16700
H  40.24800 49.22900 21.49400
H  38.97000 44.04500 24.95400
H  37.83900 44.40300 23.66000
H  37.22600 43.67600 25.11800
H  37.81200 47.32500 29.35800
H  34.91500 45.20400 31.85200
H  34.29100 46.83200 31.66200
H  35.46900 46.50900 32.94500
Mg 7.45800 52.92200 41.84400
C  7.43900 49.43600 41.79100
C  10.70000 52.77200 40.48400
C  7.10500 56.14000 41.04400
C  3.98700 52.67700 42.64100
N  8.84000 51.34500 41.20500
C  8.64500 49.96200 41.31500
C  9.94900 49.20000 40.90600
C  10.96500 50.26700 41.08600
C  10.14300 51.55700 40.88800
C  11.74500 50.29400 42.41000
C  9.95800 48.50700 39.49700
C  9.59900 49.26800 38.17500
H  8.25300 48.98000 37.47400
N  8.80100 54.29200 40.94400
C  10.05200 54.04600 40.49200
C  10.56200 55.26900 39.96600
C  9.59800 56.36800 40.23900
C  8.43400 55.66400 40.78200
C  11.99400 55.37700 39.44300
C  9.95800 57.83700 40.10900
O  10.98900 58.15600 39.56800
C  8.95800 58.88300 40.54900
N  5.84100 54.14600 41.80100
C  5.92300 55.45100 41.41300
C  4.42200 56.06600 41.44800
C  3.56700 55.00700 42.10500
C  4.53500 53.88700 42.26000
C  4.41700 57.53200 42.00300
C  2.25500 54.69700 41.37400
C  1.02900 54.55100 42.33400
N  6.11200 51.37100 42.34100
C  4.78700 51.47800 42.75000
C  4.31600 50.15400 43.09700
C  5.31900 49.31500 42.81400
C  6.35900 50.10100 42.27500
C  2.96400 49.86600 43.71500
C  5.68400 47.90100 42.82900
O  5.08700 46.89800 43.24100
C  7.08900 47.91700 42.12900
C  7.00200 46.88700 41.01800
O  6.30200 46.94500 39.97700
O  7.71400 45.71000 41.44900
C  7.59500 44.55300 40.58700
H  11.76700 52.67600 40.27200
H  7.05500 57.17900 40.71200
H  2.92200 52.59500 42.87000
H  10.06900 48.40600 41.64200
H  11.62900 50.28800 40.22200
H  11.37200 49.55000 43.11400
H  11.54000 51.24500 42.90100
H  12.82300 50.20500 42.27100
H  9.41300 47.56500 39.55100
H  10.99100 48.16400 39.43900
H  10.40000 49.07900 37.46000
H  9.45900 50.32900 38.37800
H  11.88200 55.62200 38.38700
H  12.67000 54.53600 39.60300
H  12.48000 56.27100 39.83500
H  8.24400 58.92800 39.72600
H  9.43300 59.86300 40.60500
H  8.47900 58.76200 41.52100
H  4.29400 56.16600 40.37000
H  3.50300 55.47600 43.08700
H  4.45500 58.24200 41.17700
H  5.24800 57.71200 42.68500
H  3.41900 57.73500 42.39000
H  2.28300 53.79200 40.76700
H  2.06200 55.60100 40.79700
H  0.39500 55.42900 42.20600
H  1.46600 54.51900 43.33200
H  0.37600 53.69300 42.17200
H  2.70900 48.81000 43.80500
H  2.21500 50.24900 43.02100
H  2.78500 50.46900 44.60500
H  7.90800 47.53300 42.73700
H  7.72300 44.73900 39.52000
H  6.58600 44.16600 40.73100
H  8.27700 43.76600 40.90900

