158

Mg 36.51700 0.67800 29.58700
C  34.19700 1.83700 32.04400
C  39.00800 0.79600 31.90600
C  38.73000 -0.35800 27.21800
C  33.96300 0.76500 27.32300
N  36.59700 1.26800 31.69200
C  35.55400 1.75200 32.51800
C  36.06100 1.78300 33.99000
C  37.63800 1.67300 33.78300
C  37.75800 1.24000 32.31900
C  38.35900 2.99200 33.94400
C  35.47300 0.60800 34.85900
C  34.96800 0.95200 36.32900
H  35.54200 2.17000 37.05300
N  38.58900 0.22300 29.56500
C  39.41000 0.28700 30.62500
C  40.77300 -0.06200 30.22300
C  40.80100 -0.37100 28.86000
C  39.34900 -0.17700 28.50800
C  41.92100 -0.01500 31.20600
C  41.90200 -0.71000 27.86200
O  41.59300 -0.88300 26.66900
C  43.36200 -0.99800 28.25900
N  36.39300 0.49600 27.45300
C  37.40500 -0.15400 26.78000
C  36.89900 -0.44600 25.36800
C  35.31400 -0.35700 25.44900
C  35.23500 0.43300 26.83100
C  37.56400 0.50400 24.29200
C  34.50100 -1.71000 25.26900
C  33.67800 -1.84500 23.96400
N  34.47900 1.20500 29.58400
C  33.58900 1.15800 28.57600
C  32.33600 1.58800 29.07000
C  32.49200 1.89300 30.38200
C  33.86800 1.62200 30.68500
C  31.07300 1.55600 28.23200
C  31.87200 2.29100 31.57300
O  30.70300 2.68200 31.84100
C  32.91800 2.31400 32.73100
C  32.96800 3.64000 33.35400
O  33.40100 4.64100 32.88700
O  32.34100 3.49900 34.59800
C  32.47000 4.74700 35.40300
H  39.77300 0.64100 32.67000
H  39.30500 -0.86300 26.43900
H  33.22100 0.72800 26.52300
H  35.73300 2.70400 34.47100
H  38.24200 0.99900 34.39100
H  38.91600 2.86400 34.87300
H  37.64000 3.78900 34.13400
H  39.08000 3.30200 33.18800
H  36.13800 -0.24700 34.98100
H  34.56500 0.30800 34.33500
H  35.05400 0.05600 36.94400
H  33.90800 1.20000 36.39100
H  42.52900 -0.91900 31.21900
H  41.57900 0.06600 32.23800
H  42.59100 0.80600 30.94900
H  43.58800 -0.54000 29.22200
H  44.15300 -0.61600 27.61300
H  43.46400 -2.06000 28.48100
H  37.22100 -1.44200 25.06200
H  34.99100 0.31500 24.65400
H  36.75600 1.15600 23.95900
H  38.04700 -0.05200 23.48800
H  38.30300 1.12400 24.79900
H  33.76900 -1.72100 26.07600
H  35.17300 -2.55100 25.43700
H  34.04500 -1.00300 23.37700
H  32.60800 -1.74900 24.15200
H  33.91800 -2.71100 23.34600
H  30.27100 1.00300 28.72300
H  31.31100 1.10300 27.27000
H  30.73900 2.57200 28.02300
H  32.65400 1.62500 33.53300
H  31.85700 5.50800 34.92000
H  33.48600 5.05400 35.64900
H  31.85100 4.52100 36.27100
Mg 7.07400 54.22500 40.81200
C  6.66300 50.63600 40.62400
C  10.26100 53.76300 39.79800
C  7.19800 57.43000 40.18500
C  3.63900 54.31400 41.59600
N  8.21500 52.46500 40.31700
C  7.86600 51.12700 40.21300
C  9.08000 50.30000 39.84700
C  10.31000 51.26600 40.05200
C  9.55700 52.58700 40.14400
C  11.11500 50.96300 41.35300
C  8.89200 49.74500 38.41000
C  8.45800 50.84200 37.29300
H  7.18200 50.55000 36.54700
N  8.57200 55.49400 40.02100
C  9.83100 55.09600 39.65700
C  10.52500 56.33200 39.28700
C  9.66700 57.41300 39.33300
C  8.42300 56.82000 39.86400
C  11.95100 56.32300 38.76000
C  9.88600 58.85900 38.90200
O  11.03300 59.21700 38.65000
C  8.85700 59.94600 38.93400
N  5.55800 55.58600 40.60600
C  5.93600 56.91600 40.49000
C  4.65800 57.74100 40.53200
C  3.60300 56.81700 41.03500
C  4.28900 55.46000 41.11200
C  4.73700 59.09200 41.41600
C  2.37700 56.82600 40.13000
C  1.07900 57.31700 40.86800
N  5.51700 52.81000 41.35200
C  4.21600 53.04100 41.75000
C  3.67500 51.77000 42.17100
C  4.57400 50.80200 41.72100
C  5.64700 51.47100 41.18800
C  2.28900 51.38600 42.68100
C  4.76700 49.37200 41.61600
O  4.15000 48.38500 41.89400
C  6.18300 49.26000 40.76300
C  5.87600 48.48300 39.50000
O  5.21000 48.86600 38.53200
O  6.52700 47.25200 39.56900
C  6.36500 46.47400 38.30400
H  11.33000 53.59500 39.65200
H  7.22000 58.51000 40.03000
H  2.59700 54.48400 41.87400
H  9.18100 49.42200 40.48400
H  10.97600 51.18500 39.19200
H  10.49700 50.46900 42.10200
H  11.50700 51.87800 41.79800
H  11.91800 50.24200 41.19900
H  8.34800 48.80400 38.33000
H  9.94200 49.45600 38.35800
H  9.27900 50.72900 36.58500
H  8.47200 51.87100 37.65400
H  12.47100 57.03200 39.40400
H  11.93800 56.65500 37.72200
H  12.44500 55.35800 38.87800
H  7.97300 59.76500 38.32300
H  9.29300 60.77300 38.37300
H  8.70500 60.36300 39.93000
H  4.34300 57.99400 39.51900
H  3.35400 56.87000 42.09500
H  5.51600 59.01800 42.17400
H  3.79500 59.20400 41.95400
H  4.94900 59.95600 40.78600
H  2.11300 55.86300 39.69300
H  2.52200 57.48600 39.27400
H  0.67000 58.21400 40.40400
H  1.14400 57.54600 41.93200
H  0.29700 56.58000 40.68600
H  1.66500 52.19500 43.06100
H  2.52900 50.74700 43.53100
H  1.86000 50.70400 41.94800
H  6.87000 48.63500 41.33400
H  7.01700 45.60200 38.35600
H  6.64900 46.97500 37.37800
H  5.31100 46.20800 38.22800

