158

Mg 1.06800 -1.70700 45.05000
C  4.51900 -0.91300 44.17400
C  0.18400 1.15400 43.35500
C  -2.09200 -2.63000 45.21200
C  2.22500 -4.83200 46.12000
N  2.25100 -0.08100 44.04100
C  3.62700 0.05400 43.85500
C  3.92600 1.29700 43.06200
C  2.48800 2.09600 43.02300
C  1.55400 0.98700 43.57300
C  2.33900 3.41700 43.83100
C  4.51800 1.02300 41.63300
C  5.92700 1.66300 41.35500
H  6.81000 0.92100 40.31000
N  -0.74000 -0.82100 44.49900
C  -0.88600 0.36600 43.79500
C  -2.28800 0.64400 43.56800
C  -2.98900 -0.35500 44.30700
C  -1.94400 -1.35900 44.71300
C  -2.88800 1.81200 42.80200
C  -4.46600 -0.37400 44.75800
O  -5.26200 0.48000 44.29600
C  -5.00200 -1.40200 45.78700
N  0.14100 -3.47000 45.79800
C  -1.17900 -3.62800 45.67700
C  -1.62900 -5.03900 46.01200
C  -0.25100 -5.72100 46.45400
C  0.81100 -4.64400 46.05700
C  -2.86500 -5.06400 47.07800
C  -0.17800 -7.16000 45.73900
C  -0.48200 -8.40000 46.58500
N  2.99500 -2.69000 45.28900
C  3.18700 -3.92200 45.71000
C  4.70600 -4.07300 45.82100
C  5.21300 -2.88100 45.20100
C  4.13300 -2.14200 44.80800
C  5.38400 -5.28700 46.31600
C  6.39400 -2.24300 44.84400
O  7.55300 -2.61700 45.03700
C  6.04300 -1.00800 43.98000
C  6.71100 0.17100 44.69700
O  6.40000 0.52400 45.80700
O  7.80500 0.63200 43.92600
C  8.36100 1.72100 44.70700
H  0.03200 2.10400 42.83800
H  -3.11000 -3.02600 45.19300
H  2.60600 -5.78000 46.50600
H  4.55600 1.96700 43.64700
H  2.28800 2.37200 41.98700
H  1.91900 4.16600 43.16000
H  3.35300 3.65800 44.15000
H  1.72400 3.35200 44.72900
H  3.80700 1.17900 40.82200
H  4.66200 -0.05700 41.60100
H  6.43400 1.84100 42.30400
H  5.59600 2.61500 40.93900
H  -3.93600 1.53500 42.68300
H  -2.22100 2.02500 41.96600
H  -2.71500 2.59400 43.54100
H  -4.19000 -1.73000 46.43600
H  -5.47300 -2.20900 45.22500
H  -5.77500 -0.97900 46.42900
H  -2.09800 -5.46300 45.12400
H  -0.35100 -5.72200 47.53900
H  -2.52400 -5.51100 48.01300
H  -3.63700 -5.73900 46.70900
H  -3.29200 -4.11600 47.40400
H  0.87700 -7.22100 45.47300
H  -0.78000 -7.13900 44.83100
H  0.40500 -8.69800 47.14400
H  -0.88900 -9.22100 45.99500
H  -1.29000 -8.23700 47.29800
H  5.50200 -5.99300 45.49400
H  4.90400 -5.57400 47.25200
H  6.37600 -4.91300 46.56800
H  6.41700 -1.15700 42.96700
H  9.21600 2.11600 44.15800
H  8.87600 1.33300 45.58600
H  7.72800 2.56900 44.96800
Mg 48.21400 46.24700 42.69900
C  44.98300 46.86000 41.51400
C  48.08800 43.13900 41.17100
C  51.53800 46.06100 42.96400
C  48.31000 49.83600 43.31800
N  46.77000 45.16800 41.31500
C  45.47400 45.61300 41.16900
C  44.63000 44.54100 40.49900
C  45.49500 43.29000 40.68500
C  46.87600 43.94200 41.02700
C  44.95700 42.21800 41.65100
C  44.32900 45.00200 39.00200
C  43.01100 44.40700 38.56200
H  43.11600 43.49700 37.21400
N  49.62100 44.81600 42.15700
C  49.35100 43.56400 41.60400
C  50.56700 42.75700 41.67800
C  51.55800 43.56100 42.10800
C  50.95100 44.92500 42.42800
C  50.56800 41.32300 41.23000
C  53.04300 43.06700 42.24300
O  53.48300 42.00600 41.82700
C  53.97500 43.91100 42.99700
N  49.70600 47.75000 42.92600
C  51.00900 47.36600 43.16700
C  51.89400 48.62100 43.51700
C  50.87400 49.78100 43.50200
C  49.56900 49.11900 43.22100
C  52.72200 48.52600 44.83800
C  51.30900 51.00500 42.56700
C  51.63000 52.31000 43.21500
N  46.89500 47.90900 42.77200
C  47.03900 49.25300 43.10900
C  45.83300 49.91700 43.09000
C  44.95000 48.98100 42.55400
C  45.63700 47.79400 42.25100
C  45.59500 51.35600 43.69800
C  43.62400 48.79400 42.08800
O  42.60600 49.46100 42.12600
C  43.54100 47.38900 41.40600
C  42.54800 46.61500 42.14500
O  42.71700 45.91900 43.15300
O  41.43700 46.71400 41.41200
C  40.35600 45.78700 41.85500
H  47.94800 42.06400 41.04200
H  52.57700 46.02200 43.29600
H  48.31000 50.90600 43.53300
H  43.70700 44.43500 41.06700
H  45.57200 42.80100 39.71400
H  44.76000 41.37500 40.98800
H  44.05800 42.61200 42.12400
H  45.75600 41.96800 42.34800
H  45.14800 44.70800 38.34500
H  44.25000 46.08600 39.09300
H  42.31100 45.23800 38.48100
H  42.62400 43.70600 39.30200
H  50.73100 41.31900 40.15200
H  49.68500 40.76800 41.54700
H  51.39000 40.74800 41.65700
H  54.22100 44.81900 42.44800
H  54.93000 43.39400 43.09500
H  53.53300 43.99300 43.99000
H  52.65800 48.74200 42.74900
H  50.75600 50.16600 44.51400
H  52.55500 47.47700 45.08100
H  52.29400 49.04900 45.69400
H  53.76900 48.78700 44.68400
H  50.54300 51.28300 41.84300
H  52.25200 50.77700 42.07100
H  51.46600 52.28400 44.29200
H  50.98800 53.08200 42.79000
H  52.66600 52.52900 42.95800
H  44.89900 51.74400 42.95500
H  46.46800 52.00600 43.76100
H  45.02500 51.23800 44.61900
H  43.15500 47.53300 40.39700
H  39.53700 45.72200 41.13800
H  39.92400 46.05500 42.81900
H  40.80300 44.79300 41.85200

