158

Mg 24.41300 -5.14200 46.05600
C  26.43500 -2.74700 44.36900
C  21.87500 -4.46000 43.85400
C  22.96700 -8.21600 46.70500
C  27.48000 -6.38800 47.45600
N  24.17500 -3.72900 44.38000
C  25.12000 -2.78000 43.93900
C  24.63200 -2.02000 42.67300
C  23.11200 -2.43600 42.76500
C  23.01100 -3.66500 43.70700
C  22.07100 -1.34000 43.10000
C  25.25200 -2.36900 41.32300
C  26.00800 -1.22800 40.54300
H  25.56400 -1.14100 39.03800
N  22.57200 -6.10900 45.49400
C  21.66100 -5.61000 44.63200
C  20.52900 -6.46300 44.69600
C  20.81600 -7.49900 45.63600
C  22.19700 -7.29700 46.00200
C  19.35900 -6.22000 43.78400
C  19.78400 -8.62700 46.11000
O  18.62300 -8.62300 45.66500
C  20.09900 -9.63300 47.19900
N  25.01500 -6.91600 47.00100
C  24.25900 -8.05700 47.16600
C  24.95400 -9.12600 47.99200
C  26.35800 -8.53000 48.25200
C  26.28800 -7.16700 47.54700
C  24.13200 -9.29500 49.28500
C  27.53200 -9.48700 47.71500
C  28.83300 -9.73500 48.43800
N  26.45200 -4.48100 46.23400
C  27.53500 -5.12400 46.78900
C  28.76900 -4.35200 46.54500
C  28.39900 -3.36500 45.51100
C  27.01400 -3.54500 45.37700
C  30.02300 -4.66200 47.19000
C  28.81700 -2.39100 44.67300
O  29.95700 -1.94600 44.46200
C  27.56400 -1.89300 43.78600
C  27.38400 -0.49100 44.19000
O  26.92400 -0.08400 45.25500
O  27.92100 0.31100 43.16800
C  27.72000 1.81900 43.21500
H  21.02000 -3.99200 43.36100
H  22.53300 -9.19500 46.92100
H  28.40400 -6.72700 47.92800
H  24.82400 -0.95700 42.82100
H  22.76500 -2.85400 41.82000
H  21.62200 -0.77900 42.28100
H  22.61500 -0.61800 43.70800
H  21.15700 -1.69800 43.57400
H  24.43600 -2.84300 40.77800
H  25.90400 -3.21800 41.52700
H  27.08200 -1.38500 40.63600
H  25.87200 -0.24700 40.99900
H  19.68100 -6.36400 42.75200
H  18.98700 -5.21400 43.97900
H  18.54400 -6.90100 44.02600
H  20.67300 -9.17200 48.00300
H  20.65600 -10.42800 46.70300
H  19.20800 -10.05200 47.66600
H  24.98800 -9.99600 47.33700
H  26.68400 -8.36300 49.27800
H  24.72400 -9.16100 50.19000
H  23.68400 -10.28900 49.29300
H  23.28200 -8.61300 49.30000
H  27.77400 -9.11200 46.72100
H  27.22400 -10.53300 47.68700
H  28.67900 -9.44700 49.47800
H  29.51900 -9.01200 47.99600
H  29.29500 -10.71700 48.33700
H  30.78300 -3.98600 46.80000
H  30.18100 -5.69500 46.87700
H  30.00500 -4.57500 48.27700
H  27.61700 -2.01700 42.70500
H  28.66800 2.23900 43.55200
H  26.98000 2.19300 43.92300
H  27.37200 2.06300 42.21100
Mg 40.62200 10.15000 29.30000
C  42.73200 11.72700 31.62400
C  38.54400 9.17000 31.78500
C  38.81400 8.67700 26.94100
C  43.20500 10.84600 26.87300
N  40.70600 10.20800 31.51500
C  41.61100 11.08500 32.23800
C  41.18900 11.06500 33.71800
C  39.98600 10.10600 33.74900
C  39.69800 9.86500 32.22500
C  40.13100 8.84700 34.64200
C  40.82700 12.46000 34.31400
C  41.35200 12.84800 35.72500
H  41.35200 11.73700 36.79800
N  38.90400 9.13100 29.33600
C  38.08100 8.92300 30.45700
C  36.92000 8.18000 30.08500
C  37.03100 7.98700 28.63900
C  38.32200 8.62100 28.24000
C  35.85700 7.69400 30.99300
C  36.15100 7.22000 27.74000
O  36.47900 6.92800 26.60600
C  34.77500 6.74000 28.15700
N  41.06300 9.82700 27.27100
C  40.07100 9.25700 26.50800
C  40.47700 9.19400 25.04800
C  41.72800 10.13700 24.96800
C  42.04700 10.30200 26.42100
C  40.44100 7.78800 24.37900
C  41.61200 11.46700 24.25500
C  40.69600 12.38800 24.98900
N  42.55700 11.16600 29.20600
C  43.47200 11.29200 28.19400
C  44.71000 11.97100 28.64300
C  44.39400 12.24100 30.01600
C  43.14000 11.66700 30.30600
C  45.97700 12.26100 27.86800
C  44.93800 12.77600 31.20800
O  45.98200 13.38100 31.40700
C  43.84600 12.44900 32.38800
C  44.50700 11.70500 33.48700
O  44.53100 10.48000 33.60000
O  45.05500 12.59200 34.34700
C  45.35600 11.86500 35.57700
H  37.91200 8.91400 32.63800
H  38.34300 8.08200 26.15600
H  43.81700 11.32400 26.10600
H  42.05800 10.61200 34.19500
H  39.15900 10.72200 34.10300
H  41.14500 8.47300 34.50200
H  39.41200 8.14400 34.22100
H  39.98600 9.07900 35.69700
H  39.78200 12.76800 34.28300
H  41.30700 13.20700 33.68200
H  40.68100 13.60800 36.12700
H  42.37300 13.21200 35.61700
H  36.16900 7.84700 32.02600
H  35.66100 6.62200 30.98000
H  35.01500 8.38100 30.91400
H  35.08700 5.86300 28.72300
H  34.32600 6.39000 27.22700
H  34.29000 7.56900 28.67100
H  39.68000 9.70000 24.50200
H  42.65300 9.67300 24.62400
H  40.33700 7.07800 25.19900
H  41.36600 7.53800 23.85800
H  39.58000 7.67400 23.72100
H  41.29500 11.23500 23.23900
H  42.62800 11.86400 24.25300
H  40.55600 12.10400 26.03300
H  39.74600 12.42600 24.45500
H  41.14300 13.37900 25.06300
H  46.20200 11.44000 27.18700
H  46.80700 12.28200 28.57500
H  45.95000 13.22200 27.35500
H  43.55700 13.45700 32.68500
H  45.83600 10.88600 35.59500
H  44.40800 11.69400 36.08700
H  46.08300 12.42000 36.16900

