158

Mg 43.91700 3.37500 46.72900
C  41.84200 6.40300 46.32500
C  41.05300 1.63000 46.33500
C  45.90200 0.70800 46.38300
C  46.69000 5.48200 46.62400
N  41.76400 4.00500 46.29100
C  41.11400 5.22700 46.20700
C  39.62700 5.08100 46.33500
C  39.43200 3.55800 46.58200
C  40.84700 3.01900 46.51600
C  38.74200 3.32500 47.94400
C  38.98400 5.64300 45.01400
C  39.28500 4.89200 43.71500
H  39.62200 5.63000 42.40600
N  43.45400 1.44000 46.37400
C  42.26600 0.83600 46.20500
C  42.40700 -0.53200 46.00600
C  43.80900 -0.77000 45.94500
C  44.49800 0.44300 46.25200
C  41.33900 -1.47500 45.97100
C  44.38400 -2.21200 45.68000
O  43.62600 -3.17300 45.56000
C  45.80100 -2.55800 45.69300
N  46.05000 3.11000 46.41900
C  46.51800 1.91900 46.64400
C  47.98900 1.92900 46.89100
C  48.26400 3.50700 46.92000
C  46.93900 4.07600 46.66600
C  48.56100 1.08900 48.09800
C  49.45600 4.05900 45.97500
C  50.87600 3.47800 46.25600
N  44.31500 5.52700 46.54300
C  45.48200 6.19100 46.59000
C  45.25500 7.62800 46.61700
C  43.83100 7.70500 46.58700
C  43.28000 6.43600 46.48900
C  46.24300 8.67500 46.48700
C  42.70100 8.69600 46.59800
O  42.60800 9.91000 46.72800
C  41.40600 7.80500 46.50300
C  40.60400 8.00800 47.74300
O  40.75700 7.55700 48.84000
O  39.41800 8.60400 47.41400
C  38.42800 8.68500 48.50500
H  40.25400 0.92400 46.09900
H  46.54000 -0.17500 46.44900
H  47.54300 6.13900 46.80800
H  39.23700 5.65800 47.17400
H  38.74400 3.20100 45.81600
H  38.36100 4.27700 48.31400
H  39.46300 2.98500 48.68700
H  37.96600 2.59000 47.72700
H  39.37300 6.62000 44.73000
H  37.94400 5.86000 45.25700
H  38.48000 4.24500 43.36600
H  40.11500 4.22300 43.94000
H  41.18800 -2.00800 45.03200
H  40.33700 -1.08200 46.14400
H  41.49600 -2.31100 46.65200
H  46.13300 -1.99400 44.82200
H  46.06000 -3.60100 45.51200
H  46.34200 -2.45600 46.63400
H  48.50700 1.52900 46.01900
H  48.38300 3.74900 47.97600
H  49.31600 0.41300 47.69600
H  47.76500 0.51100 48.56800
H  48.98900 1.80700 48.79800
H  49.58200 5.12900 46.14400
H  49.22900 3.88500 44.92300
H  50.84900 2.60100 46.90200
H  51.40600 4.32800 46.68600
H  51.27400 3.08300 45.32100
H  45.87500 9.59000 46.02300
H  47.00400 8.35700 45.77400
H  46.70000 8.73800 47.47400
H  40.83400 8.04700 45.60700
H  37.91100 7.75800 48.75300
H  37.69400 9.37700 48.09400
H  38.66700 9.20000 49.43500
Mg 47.30300 45.41400 42.45500
C  43.94600 44.68000 42.27400
C  47.93000 42.05600 42.12500
C  50.45000 46.24000 41.63600
C  46.50900 48.92000 42.51400
N  46.05600 43.56300 42.11500
C  44.71500 43.45600 42.22300
C  44.19200 42.05200 42.33800
C  45.54000 41.31200 42.71900
C  46.59000 42.37500 42.37800
C  45.58200 40.77400 44.20500
C  43.50600 41.49500 41.08200
C  43.75000 42.18500 39.73600
H  43.28000 41.40600 38.51600
N  48.97200 44.33700 41.88200
C  49.01000 42.95500 41.79600
C  50.31300 42.54300 41.28200
C  51.15300 43.69800 41.21200
C  50.20700 44.82400 41.59900
C  50.77500 41.11300 41.16300
C  52.60400 43.71900 40.76300
O  53.22400 42.68900 40.51100
C  53.39500 44.98700 40.85000
N  48.31900 47.27400 42.12800
C  49.61900 47.35700 41.88200
C  50.13000 48.84000 41.95200
C  48.88800 49.55500 42.52200
C  47.83100 48.52800 42.30400
C  51.47100 49.13000 42.66500
C  48.56900 50.97400 41.84300
C  48.38700 52.19700 42.83700
N  45.64600 46.55000 42.31400
C  45.51600 47.94600 42.33800
C  44.00700 48.21000 42.41800
C  43.46000 46.96700 42.38500
C  44.43300 46.03300 42.28000
C  43.26100 49.54400 42.39500
C  42.13000 46.28400 42.45100
O  41.06000 46.80400 42.55000
C  42.45700 44.80300 42.40900
C  41.85900 44.03700 43.61500
O  41.09900 43.04500 43.60300
O  42.28200 44.70000 44.72200
C  41.87700 44.04900 45.96700
H  48.32400 41.03900 42.17000
H  51.39400 46.56900 41.19700
H  46.14900 49.94300 42.64200
H  43.50200 41.97200 43.17800
H  45.71900 40.56500 41.94600
H  46.42300 41.25500 44.70500
H  45.67200 39.68900 44.25800
H  44.61200 41.00700 44.64300
H  42.42400 41.45800 41.21000
H  43.72000 40.44000 40.91100
H  44.82200 42.24400 39.54900
H  43.34300 43.19600 39.75300
H  49.98000 40.49500 40.74500
H  51.25900 40.65500 42.02600
H  51.57800 41.16200 40.42700
H  53.06700 45.63600 40.03800
H  54.44300 44.80100 40.61300
H  53.31400 45.43300 41.84100
H  50.15700 49.16000 40.91000
H  49.02100 49.83200 43.56800
H  51.35000 49.82400 43.49800
H  52.20600 49.64500 42.04700
H  51.90000 48.18800 43.00500
H  47.67800 50.88900 41.22100
H  49.26300 51.22400 41.04100
H  49.08800 53.02000 42.69400
H  48.38100 51.88300 43.88100
H  47.40100 52.60400 42.61200
H  43.51200 50.09100 43.30500
H  42.20000 49.38300 42.58900
H  43.46900 50.07500 41.46600
H  41.86600 44.47500 41.55400
H  42.23800 43.02400 46.05000
H  40.79100 44.10900 46.03500
H  42.39000 44.51100 46.81100

