158

Mg 44.85800 3.97400 48.58300
C  42.92600 6.87900 47.71200
C  42.22200 2.03700 47.90300
C  46.97200 1.53200 48.37600
C  47.71300 6.25500 48.52000
N  42.86900 4.39800 47.69800
C  42.27800 5.65700 47.62800
C  40.80600 5.50700 47.15600
C  40.50000 3.97700 47.39200
C  41.93300 3.42700 47.71600
C  39.47100 3.72100 48.57100
C  40.65700 6.03100 45.72900
C  39.68000 7.18400 45.58200
H  38.62900 6.72500 44.45000
N  44.59100 2.02000 48.27700
C  43.46600 1.34900 48.04900
C  43.71000 -0.05800 47.96100
C  45.11800 -0.21800 48.14800
C  45.65400 1.13400 48.24600
C  42.70500 -1.01000 47.66600
C  45.82700 -1.52700 48.22400
O  45.30400 -2.61100 47.93900
C  47.40700 -1.65200 48.60900
N  47.03600 3.95500 48.76400
C  47.59600 2.70600 48.61500
C  49.10700 2.79000 48.53500
C  49.36500 4.33000 48.63200
C  47.96600 4.88400 48.66500
C  49.78500 1.89200 49.55000
C  50.30400 4.97600 47.58100
C  51.70400 5.39600 48.02900
N  45.28500 6.12300 48.26600
C  46.44400 6.90100 48.28400
C  46.11900 8.31700 48.12800
C  44.71400 8.33400 47.88500
C  44.28500 7.02500 48.03100
C  47.14100 9.53200 47.99100
C  43.63800 9.22400 47.68300
O  43.59500 10.43300 47.49700
C  42.38900 8.30600 47.56900
C  41.36700 8.67500 48.68300
O  41.53000 8.28500 49.83200
O  40.25800 9.32400 48.23900
C  39.20900 9.75500 49.17100
H  41.34300 1.38900 47.88700
H  47.74200 0.76600 48.26000
H  48.50600 7.00400 48.47200
H  40.14100 6.05600 47.82200
H  40.15500 3.43800 46.50900
H  39.09500 4.60400 49.08700
H  39.97900 3.09600 49.30600
H  38.57500 3.14600 48.33900
H  40.29800 5.18900 45.13700
H  41.59500 6.39000 45.30400
H  40.04900 8.10400 45.13000
H  39.20100 7.45100 46.52400
H  43.06900 -1.81800 47.03100
H  41.77200 -0.65100 47.23000
H  42.47400 -1.53700 48.59100
H  47.60400 -0.96600 49.43300
H  47.97500 -1.42600 47.70600
H  47.80700 -2.62100 48.90800
H  49.41100 2.45300 47.54400
H  49.79400 4.40800 49.63100
H  50.42000 2.39000 50.28300
H  50.47900 1.17400 49.11200
H  49.10600 1.41400 50.25600
H  49.89100 5.77900 46.96900
H  50.54800 4.13000 46.93900
H  51.71800 6.46100 47.79700
H  52.37200 4.83700 47.37300
H  51.90300 5.24700 49.09000
H  48.09700 9.22800 48.41700
H  46.74100 10.42300 48.47500
H  47.22700 9.69400 46.91700
H  41.95400 8.62500 46.62200
H  38.34000 9.10500 49.06600
H  38.92000 10.78700 48.97100
H  39.52500 9.69000 50.21200
Mg 0.08100 43.85400 26.73400
C  2.34200 44.06200 29.31000
C  -2.50500 43.27600 29.04700
C  -1.85700 42.73500 24.26600
C  2.71000 44.31900 24.44700
N  -0.01700 43.75400 28.91800
C  1.00700 43.93300 29.81400
C  0.56500 43.91300 31.27200
C  -0.90400 43.36300 31.11500
C  -1.22900 43.54100 29.62400
C  -1.10400 41.99800 31.85600
C  0.71300 45.31400 32.00300
C  1.22600 45.35200 33.45500
H  0.91500 44.14600 34.20700
N  -2.00100 43.38200 26.64300
C  -2.86200 43.21600 27.69500
C  -4.17100 42.90100 27.18100
C  -4.09600 42.75500 25.79200
C  -2.60300 42.95500 25.48500
C  -5.43300 42.89800 28.11300
C  -5.08500 42.53800 24.75500
O  -4.81500 42.55900 23.55200
C  -6.50800 42.30500 25.19900
N  0.33300 43.48300 24.68000
C  -0.56000 42.89400 23.89200
C  -0.07500 42.62200 22.52400
C  1.23900 43.53900 22.49000
C  1.45900 43.82900 23.95700
C  0.23100 41.07400 22.18900
C  1.24200 44.75700 21.45300
C  1.78500 44.30900 20.04500
N  2.04200 44.11900 26.77700
C  3.04200 44.27900 25.79900
C  4.29400 44.44000 26.35100
C  4.10500 44.35700 27.73800
C  2.74700 44.11400 27.95300
C  5.54600 44.60300 25.68700
C  4.79600 44.41500 29.00100
O  5.97000 44.57700 29.29000
C  3.64800 44.21600 30.12400
C  4.03400 43.13900 31.09800
O  3.97300 41.92500 30.90500
O  4.58300 43.66500 32.16500
C  4.71000 42.65700 33.25900
H  -3.22100 43.00600 29.82600
H  -2.51800 42.11100 23.66000
H  3.46700 44.70400 23.76100
H  1.16300 43.18800 31.82400
H  -1.61400 43.96700 31.68000
H  -1.96800 42.07000 32.51600
H  -0.28000 41.65000 32.47800
H  -1.39100 41.23000 31.13800
H  -0.26900 45.78700 32.02400
H  1.40700 45.92900 31.43000
H  0.88200 46.24500 33.97700
H  2.31300 45.39900 33.38700
H  -5.27900 43.22600 29.14100
H  -5.70500 41.84300 28.13000
H  -6.25900 43.50800 27.74600
H  -7.06500 43.19900 25.47800
H  -6.47000 41.55800 25.99200
H  -7.08200 41.87600 24.37800
H  -0.83100 42.92100 21.79800
H  2.12800 42.94900 22.26900
H  1.15300 40.89300 21.63700
H  -0.65100 40.73900 21.64300
H  0.23400 40.64000 23.18900
H  1.86800 45.58500 21.78400
H  0.25200 45.21200 21.40300
H  1.27200 44.86500 19.26000
H  1.81500 43.22500 19.93600
H  2.82800 44.59300 19.90300
H  5.77400 45.65400 25.50500
H  5.46800 44.16800 24.69100
H  6.33100 44.08100 26.23500
H  3.56900 45.16900 30.64700
H  5.49900 41.92500 33.08700
H  3.80100 42.07300 33.40700
H  4.90400 43.20800 34.17900

