158

Mg 1.24400 8.82000 25.71700
C  1.70900 10.65400 28.64600
C  1.13200 5.86600 27.49700
C  0.97800 7.09400 22.84600
C  1.52200 11.78100 23.90300
N  1.71900 8.29900 27.89400
C  1.56700 9.20000 28.91800
C  1.36100 8.51300 30.23700
C  1.29500 6.98200 29.83000
C  1.38600 7.00200 28.27900
C  2.30500 6.02100 30.53900
C  0.23800 9.08300 31.14100
C  0.52200 9.10800 32.63700
H  1.65000 8.27700 33.24000
N  1.19200 6.66600 25.22800
C  1.22100 5.63300 26.13500
C  1.06300 4.46000 25.33200
C  1.07100 4.72800 23.94600
C  1.05800 6.15700 23.93000
C  0.78600 3.08600 25.97200
C  1.02400 3.85500 22.72000
O  1.10100 4.28200 21.54000
C  0.75300 2.36300 22.86500
N  1.43300 9.24000 23.70100
C  1.13400 8.40900 22.66000
C  1.06900 9.07100 21.28700
C  1.30300 10.58700 21.64300
C  1.35300 10.56200 23.20000
C  1.97900 8.46200 20.20000
C  0.14600 11.48200 21.12300
C  -1.24300 11.50500 21.84700
N  1.53500 10.81000 26.13400
C  1.57100 11.92800 25.31500
C  1.87200 13.10000 26.11100
C  1.94200 12.63000 27.44600
C  1.73400 11.24700 27.36400
C  2.16300 14.44800 25.57100
C  2.15700 13.03100 28.80800
O  2.35000 14.12600 29.30400
C  1.81400 11.75000 29.61700
C  2.73200 11.60600 30.78200
O  3.82000 11.06400 30.70000
O  2.16000 12.08800 31.94300
C  2.92900 12.01100 33.15200
H  1.00000 4.92900 28.04200
H  0.57000 6.58600 21.97000
H  1.45900 12.69900 23.31500
H  2.28400 8.59100 30.81000
H  0.29100 6.61300 30.04200
H  1.85200 5.31200 31.23200
H  2.96100 6.66100 31.12800
H  2.93300 5.46800 29.84000
H  -0.66000 8.47200 31.05700
H  0.03900 10.07800 30.74200
H  -0.43200 8.86400 33.10400
H  0.64800 10.08400 33.10500
H  0.54000 3.16200 27.03100
H  1.61200 2.37700 25.90500
H  -0.00200 2.49800 25.50100
H  1.37500 1.84900 23.59800
H  0.87900 1.86300 21.90500
H  -0.29100 2.28400 23.17000
H  0.05100 8.90800 20.93100
H  2.35800 10.81400 21.48800
H  2.77100 9.17400 19.96800
H  1.43200 8.30400 19.27100
H  2.39500 7.50100 20.50200
H  0.10900 11.45000 20.03500
H  0.55800 12.48500 21.23800
H  -1.92900 12.01800 21.17300
H  -1.08300 12.20500 22.66700
H  -1.63300 10.57600 22.26300
H  1.25200 14.65000 25.00700
H  3.07600 14.59100 24.99300
H  2.17000 15.19400 26.36700
H  0.88900 12.02600 30.12300
H  2.27300 11.64600 33.94300
H  3.29100 13.02900 33.29300
H  3.73400 11.27800 33.10200
Mg 35.41500 1.35200 29.37100
C  33.51400 2.53000 32.16000
C  38.19400 1.43100 31.56300
C  37.42800 0.94600 26.86400
C  32.76200 2.01500 27.33600
N  35.76300 1.94400 31.57800
C  34.81400 2.38200 32.48000
C  35.36600 2.36700 33.90600
C  36.91600 2.21600 33.69900
C  37.00800 1.86600 32.15700
C  37.77900 3.46300 34.06400
C  34.75000 1.10400 34.67300
C  34.28600 1.29700 36.10000
H  34.63500 2.61600 36.77200
N  37.58300 1.11400 29.23600
C  38.48100 1.07000 30.24200
C  39.75500 0.66400 29.68900
C  39.59900 0.67200 28.24900
C  38.14200 0.90500 28.08400
C  40.99000 0.46800 30.53400
C  40.64600 0.43600 27.20900
O  40.42500 0.28900 25.99100
C  42.05800 0.27600 27.61200
N  35.07200 1.28300 27.43600
C  36.07800 1.16100 26.55400
C  35.57000 1.08500 25.09400
C  34.00800 1.21100 25.22600
C  33.95600 1.47400 26.76900
C  36.21600 2.16400 24.13900
C  33.13200 0.03900 24.75000
C  31.90100 0.45200 23.97200
N  33.47300 2.02200 29.62700
C  32.53100 2.25800 28.69300
C  31.30900 2.81600 29.35000
C  31.68000 2.91100 30.68900
C  33.01400 2.44500 30.84900
C  30.05900 3.30200 28.73500
C  31.15000 3.27300 31.99300
O  30.00600 3.57400 32.23600
C  32.30200 3.06200 33.02500
C  32.45800 4.40600 33.68500
O  33.23300 5.23300 33.20900
O  31.83100 4.48600 34.86400
C  31.78000 5.86000 35.31800
H  39.07100 1.33000 32.20500
H  38.08700 0.86000 25.99800
H  31.98200 2.26200 26.61300
H  35.05300 3.24100 34.47700
H  37.41200 1.40900 34.23900
H  38.47400 3.19900 34.86000
H  37.18100 4.21000 34.58500
H  38.43700 3.80100 33.26300
H  35.40000 0.22900 34.69300
H  33.91300 0.84800 34.02300
H  34.57000 0.43300 36.70100
H  33.19800 1.24600 36.15200
H  41.25200 -0.59000 30.53300
H  40.77300 0.60100 31.59400
H  41.81800 1.10000 30.21100
H  42.08300 -0.69100 28.11300
H  42.30900 1.15100 28.21200
H  42.61100 0.25000 26.67300
H  35.95200 0.14100 24.70500
H  33.56100 2.05000 24.69400
H  37.14100 1.83600 23.66400
H  36.46900 3.04900 24.72400
H  35.41800 2.44800 23.45400
H  32.96800 -0.48700 25.69000
H  33.77800 -0.66500 24.22500
H  31.72500 1.47200 24.31400
H  31.10500 -0.20200 24.32900
H  32.03900 0.42400 22.89100
H  29.25500 2.56700 28.70300
H  30.35600 3.52600 27.71100
H  29.83400 4.23700 29.24800
H  31.99500 2.33400 33.77600
H  30.96400 5.84600 36.04000
H  31.64500 6.55100 34.48500
H  32.67200 6.22800 35.82500

