158

Mg 45.61900 24.62700 29.54300
C  46.37600 27.13700 31.89000
C  44.98500 22.50000 31.91600
C  45.76200 22.20700 27.11700
C  46.88000 26.93700 26.99900
N  45.53300 24.82700 31.62900
C  45.85300 25.94200 32.43800
C  45.54000 25.64200 33.89400
C  45.30500 24.14800 33.91900
C  45.24800 23.79400 32.36800
C  46.38600 23.30800 34.60200
C  44.35900 26.51900 34.41500
C  44.68800 27.14600 35.79400
H  43.54000 27.09100 36.91100
N  45.20800 22.74200 29.48400
C  44.89700 22.01700 30.61200
C  44.44600 20.66400 30.20700
C  44.74700 20.59600 28.79000
C  45.27300 21.91200 28.40500
C  43.90100 19.53200 31.18300
C  44.64400 19.37600 27.88700
O  44.78200 19.49000 26.65400
C  44.35600 17.99200 28.45900
N  46.31400 24.56500 27.44100
C  46.23500 23.45100 26.67100
C  46.43800 23.68700 25.18000
C  46.70400 25.25400 25.12300
C  46.57900 25.57900 26.63400
C  47.74800 23.03600 24.64200
C  45.79500 26.12800 24.22500
C  44.24600 26.06400 24.45500
N  46.35600 26.67700 29.37400
C  46.83200 27.40100 28.28400
C  47.22800 28.74200 28.79100
C  47.05300 28.73300 30.19600
C  46.58500 27.43000 30.51900
C  47.90600 29.86900 28.02800
C  47.34900 29.43600 31.53300
O  47.80800 30.52900 31.78400
C  46.91800 28.35500 32.63700
C  48.08500 28.16800 33.56900
O  49.23900 27.87200 33.20800
O  47.64100 28.36900 34.85300
C  48.64900 27.96700 35.92500
H  44.51700 21.86700 32.67200
H  45.83300 21.43400 26.35000
H  47.25100 27.73500 26.35200
H  46.52200 25.84200 34.32300
H  44.30600 24.04100 34.34300
H  47.39600 23.66100 34.39500
H  46.30900 22.25600 34.33000
H  46.24500 23.47200 35.67100
H  43.44200 25.94000 34.51600
H  44.24800 27.31300 33.67600
H  45.09600 28.15500 35.73700
H  45.49200 26.53200 36.20100
H  43.01300 19.02000 30.81200
H  43.68400 19.96800 32.15700
H  44.64600 18.73800 31.24500
H  43.32100 18.05800 28.79500
H  45.07500 17.73900 29.23700
H  44.34100 17.32700 27.59500
H  45.48900 23.40500 24.72400
H  47.73900 25.54300 24.93900
H  47.41800 22.54200 23.72900
H  48.07800 22.27100 25.34500
H  48.52100 23.78100 24.45100
H  45.92200 26.00000 23.15000
H  45.96200 27.20300 24.29400
H  44.04800 26.89200 25.13600
H  44.09600 25.11800 24.97700
H  43.75900 26.15300 23.48400
H  48.60200 29.48300 27.28300
H  48.40000 30.58100 28.69000
H  47.26300 30.41800 27.34000
H  46.10600 28.83200 33.18600
H  49.34100 27.19400 35.59100
H  48.11000 27.77700 36.85300
H  49.18900 28.83700 36.29900
Mg -9.89700 39.60500 42.50900
C  -8.68700 36.52000 41.61400
C  -7.23200 41.11800 41.02300
C  -11.61100 42.60200 42.85000
C  -13.03800 37.91600 43.14700
N  -8.25100 38.86700 41.19600
C  -7.88100 37.56800 41.12300
C  -6.60200 37.39400 40.34000
C  -6.07900 38.87400 40.46300
C  -7.23800 39.71100 40.93900
C  -4.85000 38.99100 41.41800
C  -6.87400 36.85800 38.91400
C  -6.10500 35.50700 38.55500
H  -5.06400 35.59300 37.36800
N  -9.42000 41.63100 42.17400
C  -8.23100 42.01800 41.61000
C  -8.19700 43.43700 41.65400
C  -9.38700 43.91400 42.25100
C  -10.17200 42.68900 42.47800
C  -6.99900 44.24900 41.09700
C  -9.74700 45.42100 42.49500
O  -9.05800 46.37200 42.13900
C  -10.98300 45.76700 43.35100
N  -12.00200 40.18600 42.85900
C  -12.44000 41.48200 42.93900
C  -13.91500 41.56800 43.04700
C  -14.40400 40.07500 43.20300
C  -13.05800 39.35300 43.04100
C  -14.29100 42.44100 44.30300
C  -15.52100 39.51300 42.31400
C  -16.68900 38.94100 43.14100
N  -10.71800 37.65000 42.48300
C  -11.94600 37.11400 42.83800
C  -11.90700 35.70600 42.84100
C  -10.58300 35.38500 42.39000
C  -9.94900 36.59000 42.19000
C  -13.10300 34.77600 43.21000
C  -9.60000 34.33700 42.15700
O  -9.75500 33.09800 42.22300
C  -8.30400 34.98400 41.66600
C  -7.18600 34.69300 42.63000
O  -7.05000 35.23100 43.72100
O  -6.21900 33.82200 42.03600
C  -5.10000 33.63100 42.92800
H  -6.35500 41.66400 40.66900
H  -12.02800 43.60900 42.91300
H  -14.00500 37.42300 43.25900
H  -6.00200 36.68600 40.91300
H  -5.85900 39.22900 39.45700
H  -4.49000 37.96300 41.44000
H  -5.02900 39.44600 42.39300
H  -4.14200 39.57200 40.82700
H  -6.76300 37.54700 38.07700
H  -7.94000 36.65000 38.81400
H  -6.84100 34.74000 38.31500
H  -5.65000 34.96500 39.38400
H  -7.25800 45.27200 40.82200
H  -6.66500 43.82600 40.15000
H  -6.15300 44.37100 41.77400
H  -10.86200 46.76700 43.76700
H  -11.12700 45.01100 44.12300
H  -11.77500 45.68200 42.60700
H  -14.32400 41.98200 42.12600
H  -14.71500 39.91400 44.23500
H  -15.16000 42.03200 44.81900
H  -14.59400 43.45100 44.03000
H  -13.45500 42.40000 45.00200
H  -15.09800 38.63000 41.83600
H  -15.73900 40.31400 41.60700
H  -17.56200 39.11000 42.51100
H  -16.76200 39.40300 44.12600
H  -16.66800 37.85500 43.05300
H  -12.93600 34.31200 44.18200
H  -13.28100 33.93600 42.53900
H  -14.00000 35.39600 43.22500
H  -8.03200 34.65500 40.66400
H  -5.33800 33.02100 43.79900
H  -4.70100 34.58700 43.26900
H  -4.27000 33.17900 42.38400

