158

Mg 0.74000 8.04300 26.06900
C  1.39800 10.26400 28.53500
C  1.21900 5.49100 28.07400
C  0.24900 6.03600 23.28700
C  0.52700 10.76600 23.77900
N  1.17700 7.99200 28.11800
C  1.34000 8.94000 29.02200
C  1.53400 8.34200 30.51100
C  1.55800 6.84500 30.25600
C  1.28400 6.75000 28.67200
C  2.91500 6.09600 30.70400
C  0.42000 8.91900 31.33600
C  0.19700 8.45000 32.80800
H  1.43200 8.12500 33.58400
N  0.65200 6.04100 25.71900
C  0.89700 5.12300 26.73000
C  0.78200 3.81700 26.26300
C  0.51300 3.93700 24.81000
C  0.45800 5.40800 24.52300
C  0.99200 2.59200 27.18400
C  0.46900 2.86900 23.79100
O  0.10700 2.95100 22.63400
C  0.67600 1.54100 24.25400
N  0.48300 8.40700 23.85100
C  0.32800 7.40100 22.99200
C  -0.13700 7.82900 21.57700
C  -0.39000 9.37700 21.78800
C  0.19700 9.57000 23.23400
C  0.90500 7.52100 20.50900
C  -1.85300 9.93100 21.68300
C  -2.24100 11.01200 20.69400
N  1.08700 10.06500 26.09600
C  0.97400 11.09500 25.11100
C  1.35300 12.32100 25.66100
C  1.50900 12.12400 27.04600
C  1.35900 10.70400 27.24000
C  1.43100 13.58900 24.98100
C  1.84600 12.72400 28.34700
O  2.28100 13.84000 28.59100
C  1.58800 11.58300 29.34600
C  2.81900 11.60500 30.19700
O  4.01500 11.39700 29.92700
O  2.47600 11.85500 31.50600
C  3.65400 11.97100 32.37600
H  1.41700 4.63700 28.72600
H  -0.04400 5.29500 22.54100
H  0.25500 11.58700 23.11300
H  2.48100 8.72200 30.89400
H  0.76600 6.35900 30.82500
H  2.66000 5.25300 31.34700
H  3.59200 6.76700 31.23300
H  3.41400 5.59900 29.87200
H  -0.52900 8.76800 30.82200
H  0.56400 9.99900 31.36700
H  -0.55300 7.66300 32.88900
H  -0.21300 9.35200 33.26200
H  1.04900 2.79700 28.25300
H  1.90200 2.08700 26.85900
H  0.19400 1.88100 26.97300
H  1.63900 1.46300 24.76000
H  0.68800 0.82200 23.43400
H  -0.09400 1.21500 24.95300
H  -1.08300 7.34000 21.34600
H  0.27100 10.01600 21.20200
H  0.89800 6.49900 20.12900
H  1.93700 7.69900 20.81100
H  0.79500 8.20100 19.66400
H  -2.13800 10.25200 22.68400
H  -2.47300 9.03700 21.60100
H  -3.15900 10.79600 20.14700
H  -1.52100 11.15600 19.88900
H  -2.20200 11.96100 21.22900
H  0.49000 14.11300 24.81600
H  1.84200 13.38200 23.99300
H  2.11800 14.19500 25.57200
H  0.66000 11.80800 29.87100
H  4.28100 11.08800 32.24900
H  3.41800 12.00000 33.44000
H  4.23100 12.89000 32.27700
Mg -1.79900 34.16300 27.14000
C  -3.71600 32.38500 29.51000
C  -0.94300 36.32100 29.56600
C  -0.64300 36.02000 24.77200
C  -3.60200 32.17900 24.60800
N  -2.44100 34.38700 29.23000
C  -2.94300 33.42700 30.05600
C  -2.76300 33.70800 31.58000
C  -2.26400 35.18200 31.46500
C  -1.82000 35.31800 30.02500
C  -3.28700 36.25600 31.84300
C  -1.86900 32.65300 32.23400
C  -2.50100 31.96100 33.45800
H  -1.70300 32.13600 34.80000
N  -0.81300 35.82800 27.24600
C  -0.46000 36.55900 28.31900
C  0.45800 37.59500 27.87700
C  0.52500 37.57900 26.46400
C  -0.37300 36.45200 26.09100
C  1.27100 38.44800 28.86400
C  1.35600 38.40100 25.48500
O  1.20800 38.33200 24.31200
C  2.46000 39.30300 26.03000
N  -2.24500 34.10600 25.01600
C  -1.44000 34.93600 24.33200
C  -1.50700 34.66100 22.76600
C  -2.15800 33.24300 22.76800
C  -2.68800 33.13300 24.17200
C  -2.37300 35.77400 22.17200
C  -1.15700 32.14300 22.35800
C  0.08300 31.82600 23.14100
N  -3.30800 32.64700 27.02000
C  -4.01000 31.96000 25.98200
C  -4.93000 31.04700 26.49700
C  -4.81000 31.21400 27.87200
C  -3.85700 32.11800 28.11600
C  -5.80400 30.14400 25.80100
C  -5.36900 30.71600 29.09900
O  -6.23100 29.87200 29.22000
C  -4.68900 31.44700 30.23400
C  -5.78600 32.08600 31.01400
O  -6.31700 33.18400 30.73800
O  -5.90600 31.46900 32.18700
C  -6.83400 32.11100 33.17600
H  -0.65900 36.91700 30.43600
H  -0.28700 36.65600 23.95800
H  -3.93700 31.43900 23.87900
H  -3.73300 33.74700 32.07500
H  -1.43400 35.37800 32.14400
H  -4.08300 35.81500 32.44300
H  -3.62900 36.79500 30.96000
H  -2.82700 37.01200 32.47800
H  -0.95200 33.14400 32.55800
H  -1.55600 31.85400 31.56100
H  -2.59400 30.90000 33.22700
H  -3.50200 32.29600 33.73100
H  0.99700 39.49800 28.76000
H  2.34800 38.39800 28.70500
H  1.12300 38.03500 29.86200
H  2.90800 39.90400 25.23800
H  3.20800 38.64500 26.47100
H  1.96100 39.99100 26.71200
H  -0.51300 34.68800 22.31800
H  -3.01400 33.14900 22.10100
H  -2.88500 36.36100 22.93400
H  -3.16200 35.27500 21.60900
H  -1.71600 36.39900 21.56600
H  -1.07600 32.52800 21.34200
H  -1.74500 31.24200 22.18200
H  0.08700 30.80800 23.53100
H  0.11500 32.54400 23.96000
H  0.95500 32.04800 22.52500
H  -5.57200 30.00300 24.74500
H  -6.76700 30.63000 25.95700
H  -5.75000 29.21500 26.36900
H  -4.21700 30.64700 30.80500
H  -7.71300 32.60600 32.76300
H  -6.37300 32.83400 33.84900
H  -7.04700 31.30900 33.88300

