158

Mg 25.26500 -0.76700 28.99700
C  27.20400 -0.46800 31.89800
C  22.31200 -0.28600 30.97400
C  23.29100 -1.01800 26.38500
C  28.09000 -1.64200 27.35600
N  24.87900 -0.50100 31.22300
C  25.86400 -0.29500 32.19600
C  25.11000 -0.03300 33.56500
C  23.58800 -0.22500 33.21500
C  23.53400 -0.42400 31.71100
C  22.84300 -1.39200 34.03800
C  25.49600 1.47200 34.15700
C  26.40200 1.39400 35.48500
H  26.18300 2.35800 36.57200
N  23.07100 -0.68300 28.67600
C  22.08000 -0.37200 29.62000
C  20.81700 -0.24100 28.94200
C  21.09700 -0.51000 27.59200
C  22.52600 -0.77400 27.43100
C  19.55500 0.05700 29.68900
C  20.07100 -0.59200 26.42500
O  20.40500 -0.89300 25.32400
C  18.67200 -0.32400 26.64900
N  25.56100 -1.62900 27.23600
C  24.64200 -1.34500 26.24900
C  25.20900 -1.41200 24.80500
C  26.75300 -1.57800 25.14600
C  26.81600 -1.67000 26.71100
C  24.55900 -2.52400 23.88600
C  27.58300 -0.44000 24.51400
C  27.51900 0.99200 25.08600
N  27.22500 -0.97200 29.47400
C  28.29800 -1.40200 28.69800
C  29.56600 -1.33200 29.40400
C  29.20500 -0.97300 30.72300
C  27.77100 -0.78600 30.64300
C  30.88000 -1.60400 28.79700
C  29.69300 -0.63000 32.06400
O  30.79000 -0.54200 32.52100
C  28.38700 -0.35900 32.89700
C  28.46100 -1.28700 34.07000
O  28.24200 -2.49200 34.04200
O  28.80100 -0.46000 35.15000
C  28.74600 -1.16700 36.43500
H  21.48100 0.01400 31.61600
H  22.86300 -0.86200 25.39200
H  28.93100 -1.76500 26.67000
H  25.54200 -0.78800 34.22100
H  22.90700 0.55800 33.54700
H  23.43700 -1.85000 34.82900
H  22.45000 -2.15800 33.36900
H  22.10700 -0.91000 34.68100
H  24.60700 1.98900 34.51700
H  25.93200 2.05900 33.35000
H  27.42500 1.43000 35.11300
H  26.20000 0.41900 35.92800
H  19.58100 -0.25600 30.73300
H  18.62100 -0.41300 29.38100
H  19.45200 1.13800 29.78500
H  18.26200 -1.04000 27.36100
H  18.09300 -0.25900 25.72800
H  18.72500 0.71700 26.96800
H  25.00800 -0.44300 24.34700
H  27.04500 -2.54300 24.73300
H  25.34800 -3.02400 23.32300
H  23.79700 -2.02400 23.28900
H  23.96000 -3.20100 24.49300
H  27.14300 -0.29200 23.52800
H  28.61200 -0.76900 24.37300
H  26.87800 1.05700 25.96600
H  26.99600 1.64300 24.38600
H  28.47800 1.47300 25.27800
H  31.28400 -0.76100 28.23600
H  30.86300 -2.41100 28.06500
H  31.50500 -1.91600 29.63500
H  28.47000 0.67900 33.21700
H  27.81300 -0.79900 36.86100
H  29.64500 -0.93600 37.00600
H  28.67500 -2.24900 36.32300
Mg 16.17500 52.27200 26.16100
C  18.47100 51.71300 28.66800
C  13.74100 52.06900 28.58200
C  13.84800 52.73300 23.74800
C  18.66700 51.69500 23.74400
N  16.16100 52.11700 28.42800
C  17.24500 52.00500 29.20600
C  16.87900 52.22300 30.64800
C  15.32400 52.02600 30.66600
C  14.99300 52.05600 29.15800
C  14.81400 50.81700 31.52400
C  17.54500 53.55600 31.18100
C  17.96300 53.54700 32.63300
H  17.21400 52.67900 33.69600
N  14.02800 52.29500 26.13100
C  13.22400 52.17700 27.22300
C  11.84800 52.14200 26.75500
C  11.88800 52.36800 25.33000
C  13.32200 52.47600 25.02800
C  10.69100 51.83000 27.67000
C  10.75900 52.43000 24.28000
O  11.01600 52.79300 23.18500
C  9.35700 52.11800 24.68000
N  16.18000 52.24300 24.06300
C  15.16500 52.65600 23.33300
C  15.63600 52.95300 21.86500
C  17.16700 52.61700 21.83200
C  17.33700 52.12000 23.26500
C  14.76000 52.33500 20.74000
C  18.02300 53.83300 21.44100
C  18.97100 53.57200 20.25300
N  18.13800 51.80400 26.12200
C  19.00600 51.55900 25.11700
C  20.30800 51.14400 25.63500
C  20.15100 51.23600 27.02200
C  18.78700 51.60200 27.25200
C  21.54000 50.80200 24.90100
C  20.78700 51.14000 28.29100
O  21.92600 50.79800 28.56700
C  19.72300 51.45700 29.39600
C  19.60600 50.27500 30.19400
O  19.25100 49.13700 29.85400
O  20.08200 50.56800 31.42100
C  20.23900 49.55600 32.42500
H  12.99500 52.10300 29.37900
H  13.20500 53.05300 22.92600
H  19.54300 51.52700 23.11400
H  17.29000 51.41100 31.24700
H  14.90500 52.95400 31.05400
H  14.05600 51.00300 32.28500
H  15.66900 50.29900 31.95800
H  14.35600 50.09000 30.85300
H  16.77100 54.28300 30.93400
H  18.47600 53.81200 30.67500
H  17.82200 54.58200 32.94400
H  18.95800 53.10200 32.66400
H  10.04900 52.71100 27.66700
H  11.01300 51.47500 28.64900
H  10.07500 51.04200 27.23600
H  9.04200 52.61100 25.60000
H  9.30900 51.03900 24.82600
H  8.64100 52.43700 23.92300
H  15.40800 54.01800 21.90100
H  17.32100 51.64900 21.35600
H  15.43600 51.74800 20.11800
H  14.47200 53.17600 20.10800
H  13.95500 51.63400 20.95900
H  18.61300 53.93300 22.35200
H  17.45600 54.72200 21.16400
H  19.09200 54.46400 19.63800
H  18.49300 52.80900 19.63900
H  19.95500 53.38700 20.68100
H  22.33200 50.55600 25.60800
H  21.79300 51.61800 24.22400
H  21.33300 49.97800 24.21800
H  20.17200 52.23200 30.01600
H  20.87500 48.75900 32.03900
H  19.21200 49.21900 32.56300
H  20.70300 50.08400 33.25800

