158

Mg 1.36300 -0.81800 43.01700
C  4.89600 -0.41100 42.72000
C  0.93400 1.86900 40.93800
C  -1.96500 -1.58200 42.91900
C  2.03400 -3.99500 44.25300
N  2.79800 0.43100 41.76800
C  4.15100 0.48000 41.94000
C  4.73500 1.56700 40.99700
C  3.56500 2.44300 40.52900
C  2.33700 1.54900 41.06600
C  3.41300 3.87900 41.08400
C  5.44700 0.88900 39.76600
C  6.88900 1.28300 39.49500
H  7.12300 2.12400 38.27200
N  -0.33500 0.15000 42.18100
C  -0.28100 1.21700 41.41800
C  -1.64700 1.67500 41.13800
C  -2.56100 0.80500 41.75400
C  -1.64300 -0.29100 42.36600
C  -1.92400 2.96300 40.32300
C  -4.02500 0.82700 41.77800
O  -4.70100 1.63600 41.20300
C  -4.72700 -0.19500 42.52500
N  0.25600 -2.57900 43.33300
C  -1.13200 -2.60800 43.38900
C  -1.67100 -3.98100 43.63100
C  -0.36900 -4.77100 44.00300
C  0.73200 -3.65600 43.94000
C  -2.88400 -4.12000 44.63300
C  -0.12900 -6.06900 43.15500
C  -0.13300 -7.49100 43.86800
N  3.02700 -2.00900 43.50700
C  3.12400 -3.24900 43.95800
C  4.57700 -3.57400 44.24200
C  5.30000 -2.55000 43.70100
C  4.32500 -1.57300 43.32900
C  5.16100 -4.81500 44.96300
C  6.59100 -2.03800 43.41900
O  7.69600 -2.55500 43.55500
C  6.37500 -0.56900 42.92000
C  7.03700 0.22100 43.98100
O  6.54500 0.44600 45.05500
O  8.21600 0.79500 43.59600
C  9.16500 1.44600 44.50000
H  0.80600 2.80900 40.39700
H  -2.99900 -1.91000 42.79100
H  2.19100 -4.96200 44.73500
H  5.38700 2.15400 41.64400
H  3.51100 2.54100 39.44500
H  4.33000 4.34400 41.44600
H  2.66500 3.82400 41.87500
H  3.22300 4.65000 40.33700
H  4.84600 1.04000 38.86900
H  5.57700 -0.18100 39.92800
H  7.66400 0.53500 39.66000
H  7.10000 2.07800 40.21000
H  -1.56400 2.93100 39.29400
H  -1.45800 3.81400 40.81800
H  -2.96400 3.27400 40.42200
H  -5.81000 -0.17900 42.39800
H  -4.31000 -0.26200 43.53000
H  -4.56100 -1.09000 41.92500
H  -2.14200 -4.22400 42.67900
H  -0.50000 -5.11200 45.03000
H  -3.33400 -3.13200 44.72500
H  -2.54300 -4.37800 45.63600
H  -3.58500 -4.86900 44.26300
H  0.83300 -6.04600 42.64300
H  -0.95300 -6.15500 42.44700
H  -0.58800 -7.41000 44.85500
H  0.86800 -7.92000 43.85800
H  -0.68500 -8.27100 43.34300
H  6.24100 -4.84400 45.10300
H  4.73800 -5.67500 44.44300
H  4.64800 -4.80200 45.92500
H  6.96200 -0.58400 42.00200
H  9.35700 0.81600 45.36800
H  8.75000 2.41100 44.79400
H  10.11900 1.56300 43.98600
Mg 35.92100 48.53600 25.00100
C  36.08100 46.78600 28.00500
C  34.76900 51.27900 26.72300
C  35.37300 50.00900 22.02500
C  37.09600 45.75900 23.34400
N  35.50600 48.97300 27.05300
C  35.57400 48.08100 28.12800
C  35.29000 48.71900 29.47400
C  34.68300 50.08200 28.96900
C  35.12700 50.17600 27.49700
C  33.17000 50.26100 29.23200
C  36.60800 48.94100 30.32700
C  36.42500 49.02100 31.88500
H  35.09300 49.27300 32.50900
N  35.21500 50.37500 24.47900
C  34.76100 51.37900 25.32600
C  34.30600 52.48900 24.55200
C  34.45200 52.09400 23.21400
C  35.07600 50.76500 23.20000
C  33.77000 53.78700 25.21700
C  34.12000 52.89100 22.00000
O  34.33100 52.60600 20.84300
C  33.45700 54.22500 22.19300
N  36.20000 48.01500 22.99800
C  35.95700 48.82100 21.93400
C  36.09200 48.04200 20.63000
C  36.88900 46.85900 21.11800
C  36.75400 46.93000 22.64400
C  34.74100 47.85800 19.70000
C  38.40700 46.88300 20.77800
C  39.13400 45.64100 20.41000
N  36.51000 46.58200 25.44400
C  36.98800 45.59300 24.74500
C  37.22100 44.42900 25.58800
C  36.85400 44.85300 26.83900
C  36.46100 46.13600 26.75600
C  37.49500 43.01900 25.13500
C  36.81600 44.46900 28.27000
O  37.09900 43.41000 28.79900
C  36.35700 45.73100 29.13900
C  35.10900 45.42600 29.84300
O  34.07900 44.99600 29.33300
O  35.15800 45.61300 31.21000
C  33.87100 45.25000 31.91700
H  34.10700 51.99100 27.22100
H  35.08700 50.38700 21.04100
H  37.36100 44.82700 22.83900
H  34.53500 48.17200 30.03900
H  35.20900 50.76900 29.63200
H  32.63600 49.38300 29.59500
H  32.71900 50.45900 28.26000
H  32.92800 51.12600 29.85000
H  37.14100 49.82300 29.97200
H  37.23700 48.08000 30.10400
H  37.22400 49.59700 32.35200
H  36.78300 48.04600 32.21400
H  32.70800 53.85200 24.97800
H  34.24900 54.66900 24.79100
H  33.79000 53.76300 26.30700
H  34.18600 54.96100 22.53200
H  32.54600 54.11700 22.78100
H  33.12500 54.56800 21.21300
H  36.78000 48.61900 20.01200
H  36.49400 45.98200 20.60500
H  33.99300 48.06500 20.46500
H  34.48400 46.87200 19.31200
H  34.65700 48.64600 18.95200
H  38.87900 47.32800 21.65300
H  38.50400 47.51700 19.89700
H  38.46900 44.82000 20.68000
H  40.04000 45.35900 20.94700
H  39.34000 45.53300 19.34500
H  37.23200 42.98800 24.07800
H  36.80600 42.27800 25.54300
H  38.55100 42.78700 25.27300
H  37.08600 45.99300 29.90600
H  33.49700 44.23200 31.80700
H  33.13600 46.02100 31.68300
H  34.07200 45.34000 32.98400

