158

Mg 49.83200 44.66200 40.37900
C  46.47400 44.91100 39.22700
C  49.86400 41.44600 39.26200
C  53.15500 44.71900 40.58700
C  49.72800 48.24400 40.69100
N  48.31500 43.39000 39.33000
C  47.05000 43.69000 38.92900
C  46.45900 42.67000 38.06800
C  47.35600 41.37400 38.42700
C  48.60100 42.07400 39.11200
C  46.73100 40.23500 39.37200
C  46.32500 43.02300 36.63800
C  44.99600 42.84400 35.99500
H  44.72400 43.52000 34.57900
N  51.29000 43.22100 40.13200
C  51.09100 41.89100 39.72300
C  52.37300 41.17300 39.75100
C  53.35600 42.10500 40.27300
C  52.64700 43.45400 40.35200
C  52.53300 39.75800 39.39400
C  54.78900 41.84200 40.65900
O  55.20900 40.74300 40.50700
C  55.67700 42.93000 41.24700
N  51.28100 46.26200 40.48800
C  52.57300 45.98800 40.72900
C  53.41500 47.24500 41.03000
C  52.28100 48.35500 41.07800
C  50.99900 47.57800 40.73000
C  54.52700 47.26300 42.13600
C  52.49300 49.68100 40.17800
C  52.09200 51.06100 40.86500
N  48.37800 46.28300 40.23800
C  48.50400 47.65500 40.38700
C  47.20500 48.29300 40.20100
C  46.36800 47.24900 39.82100
C  47.09000 46.05400 39.83100
C  46.75700 49.76300 40.27900
C  45.01400 46.96900 39.32900
O  44.05800 47.64500 39.12700
C  45.10200 45.45200 38.85100
C  43.95900 44.71600 39.48100
O  43.10600 44.16500 38.82000
O  43.85000 45.08300 40.86500
C  42.48000 44.88400 41.51400
H  50.03300 40.38100 39.09000
H  54.24600 44.75000 40.55200
H  49.84100 49.32700 40.76900
H  45.47800 42.40700 38.46300
H  47.70900 40.81800 37.55800
H  46.53800 39.31000 38.83000
H  45.72100 40.51500 39.67400
H  47.29100 40.01600 40.28100
H  47.01800 42.37300 36.10400
H  46.68000 44.01000 36.34300
H  44.18800 43.19100 36.63800
H  45.05300 41.75900 35.90600
H  53.24100 39.52400 38.59800
H  51.62800 39.20600 39.14100
H  52.98600 39.35800 40.30100
H  55.23400 43.35100 42.15000
H  55.96500 43.65000 40.48200
H  56.65900 42.59800 41.58400
H  53.98400 47.37300 40.10900
H  52.07600 48.57700 42.12500
H  54.29400 47.99600 42.90800
H  55.56500 47.36500 41.82100
H  54.46200 46.26600 42.57200
H  51.85900 49.50500 39.30900
H  53.51400 49.89900 39.86400
H  51.49700 50.96400 41.77400
H  51.41200 51.56900 40.18100
H  52.96200 51.68700 41.06500
H  45.93600 49.77100 40.99600
H  46.51800 50.12700 39.28000
H  47.55400 50.40500 40.65400
H  44.91300 45.39500 37.78000
H  42.60600 43.90600 41.97800
H  41.65000 45.05200 40.82800
H  42.48200 45.62100 42.31600
Mg 42.05700 40.91400 26.51400
C  41.25200 43.08100 28.99300
C  42.74400 38.36900 28.85900
C  42.86600 38.78700 24.02300
C  41.56500 43.51500 24.12000
N  42.18200 40.82000 28.66300
C  41.75800 41.83700 29.50100
C  41.73300 41.35700 30.97100
C  42.50400 39.92000 30.87400
C  42.50400 39.67800 29.34600
C  43.93500 39.96000 31.42100
C  40.44300 41.35700 31.66600
C  40.36400 42.07400 33.09600
H  39.89300 41.13800 34.24700
N  42.67900 38.90500 26.47600
C  42.88400 37.99500 27.53800
C  43.32000 36.72900 27.09000
C  43.30500 36.83200 25.63900
C  42.93400 38.22300 25.30900
C  43.59700 35.51300 27.89900
C  43.38800 35.79100 24.60600
O  43.29000 36.03800 23.40300
C  43.67100 34.38100 24.92400
N  42.30800 41.21600 24.36500
C  42.57400 40.03600 23.56400
C  42.55000 40.51400 22.07700
C  41.84000 41.94400 22.12700
C  41.95600 42.27000 23.61200
C  43.94500 40.58400 21.48400
C  40.29900 41.86400 21.59100
C  39.30600 40.77600 22.10100
N  41.60400 42.92600 26.50500
C  41.40100 43.91700 25.48800
C  41.02200 45.16600 26.04500
C  40.85800 44.82100 27.38400
C  41.22800 43.48200 27.65800
C  40.78900 46.42200 25.41000
C  40.51500 45.39300 28.65800
O  39.91900 46.45200 28.94500
C  40.72300 44.33900 29.76800
C  41.51500 44.95800 30.86300
O  42.66500 45.29700 30.79100
O  40.68500 45.24400 31.89300
C  41.37600 45.91000 32.95000
H  42.88100 37.65600 29.67500
H  43.06400 38.20200 23.12200
H  41.39100 44.26400 23.34400
H  42.45200 41.97900 31.50400
H  41.96200 39.07400 31.29600
H  44.55800 40.70100 30.92000
H  44.23900 38.91300 31.41100
H  43.95400 40.18500 32.48700
H  40.21000 40.30100 31.80500
H  39.73000 41.82000 30.98400
H  39.57000 42.80100 32.92800
H  41.27900 42.58500 33.39900
H  42.88800 34.77000 27.53400
H  43.46600 35.61400 28.97600
H  44.60100 35.17900 27.63600
H  42.85200 33.83600 25.39400
H  44.57200 34.22700 25.51800
H  43.79100 33.71500 24.06900
H  41.90600 39.90100 21.44600
H  42.50100 42.67200 21.65500
H  43.78900 40.24500 20.46000
H  44.62900 39.86600 21.93800
H  44.45600 41.54700 21.49600
H  40.39100 41.70200 20.51700
H  39.87900 42.86200 21.71700
H  38.98700 40.17500 21.25000
H  38.41600 41.15500 22.60400
H  39.78100 40.18400 22.88300
H  41.28700 46.43000 24.44100
H  41.34700 47.14500 26.00400
H  39.75700 46.74600 25.27600
H  39.76900 44.06500 30.21700
H  42.19000 45.31600 33.36600
H  40.69500 46.04900 33.78900
H  41.72500 46.87100 32.57200

