158

Mg 35.63700 1.38900 30.64400
C  33.49700 2.79500 32.94800
C  37.96600 0.89200 33.07100
C  37.84300 0.38200 28.27500
C  33.29400 1.82800 28.16700
N  35.73600 1.96700 32.74600
C  34.75100 2.50700 33.52300
C  35.18200 2.34200 34.97900
C  36.70300 2.00800 34.93700
C  36.80900 1.57600 33.50200
C  37.73200 3.12800 35.32600
C  34.28900 1.39300 35.81800
C  34.16100 1.59900 37.40500
H  34.78700 2.79900 38.17900
N  37.65400 0.78500 30.70000
C  38.39000 0.58600 31.79300
C  39.76500 0.22100 31.38200
C  39.71500 0.16400 29.99100
C  38.36000 0.51900 29.60200
C  40.89700 -0.06100 32.31700
C  40.81000 -0.24600 29.05200
O  40.77000 -0.09600 27.80400
C  42.10400 -0.87600 29.49600
N  35.57600 1.11400 28.51300
C  36.60400 0.66900 27.72900
C  36.23200 0.35500 26.25200
C  34.76500 0.90400 26.31400
C  34.54200 1.29500 27.72600
C  36.99900 1.06400 25.10100
C  33.74100 -0.18200 25.82600
C  33.61800 -0.20800 24.24400
N  33.78800 2.26400 30.52000
C  32.96300 2.38100 29.40200
C  31.74200 3.05600 29.76200
C  31.92100 3.27900 31.16800
C  33.13500 2.71800 31.55200
C  30.56600 3.44300 28.89900
C  31.33500 3.81500 32.38100
O  30.34200 4.49800 32.50100
C  32.27200 3.27900 33.62700
C  32.49200 4.37500 34.48600
O  33.29200 5.33900 34.25700
O  31.65700 4.34100 35.55800
C  31.65500 5.52700 36.34800
H  38.66500 0.67200 33.88000
H  38.49000 -0.03400 27.49900
H  32.49400 1.81600 27.42400
H  35.18700 3.37700 35.32100
H  36.95300 1.13000 35.53300
H  38.27500 2.51000 36.04200
H  37.34800 4.01100 35.83600
H  38.49100 3.21600 34.54900
H  34.82100 0.45200 35.67900
H  33.26500 1.27400 35.46100
H  34.33600 0.65700 37.92300
H  33.11200 1.89400 37.43800
H  41.26600 -1.08600 32.35900
H  40.65800 0.25600 33.33300
H  41.74000 0.51000 31.93100
H  42.67900 -1.23400 28.64200
H  42.10800 -1.63800 30.27600
H  42.72300 -0.06700 29.88400
H  36.30800 -0.71900 26.07700
H  34.74100 1.81700 25.72000
H  38.04500 1.15700 25.39300
H  36.73700 2.09400 24.86000
H  36.80500 0.47600 24.20400
H  32.76800 -0.09100 26.30900
H  34.15800 -1.13500 26.15000
H  33.93300 0.74300 23.81500
H  32.55500 -0.38900 24.08300
H  33.99500 -1.11900 23.77900
H  29.94300 2.56500 28.72600
H  31.04400 3.65000 27.94200
H  30.04900 4.32000 29.28900
H  31.82300 2.43500 34.15000
H  30.63600 5.67900 36.70500
H  31.89800 6.41000 35.75800
H  32.25400 5.42800 37.25400
Mg -1.56600 34.03500 27.41800
C  -3.25600 32.25600 29.95700
C  -0.44000 36.19700 29.78900
C  -0.42900 36.11500 24.99000
C  -3.55300 32.35000 25.03000
N  -2.03400 34.25800 29.55500
C  -2.58000 33.36200 30.47200
C  -2.36300 33.84800 31.90500
C  -1.74100 35.26300 31.79700
C  -1.33700 35.28700 30.23300
C  -2.64900 36.46400 32.16700
C  -1.57700 32.76400 32.73900
C  -2.09800 32.37200 34.16800
H  -1.23200 32.06800 35.37200
N  -0.41200 35.72800 27.42100
C  0.07700 36.41600 28.53000
C  0.92800 37.47700 28.09100
C  0.99300 37.38500 26.61300
C  -0.01200 36.41000 26.26400
C  1.76200 38.34500 29.08500
C  1.77200 38.26700 25.66100
O  1.67800 38.16500 24.41900
C  2.69300 39.41500 26.10900
N  -2.15600 34.32400 25.33000
C  -1.38400 35.22400 24.57400
C  -1.75900 34.97700 23.08600
C  -2.47700 33.59400 23.07000
C  -2.75400 33.41200 24.52200
C  -2.53200 36.22000 22.47100
C  -1.77700 32.33300 22.47700
C  -0.54900 31.83100 23.35100
N  -3.17500 32.62300 27.43700
C  -3.74600 31.94200 26.44000
C  -4.57000 30.86100 26.94400
C  -4.39700 30.94200 28.29700
C  -3.50200 32.04600 28.58500
C  -5.37800 29.98600 26.01900
C  -4.82400 30.42100 29.56700
O  -5.55400 29.44800 29.70300
C  -3.93900 31.16000 30.74500
C  -4.94800 31.72600 31.73900
O  -5.55100 32.80400 31.59900
O  -4.99700 30.96100 32.87700
C  -5.77100 31.63000 33.98000
H  -0.24400 36.95100 30.55400
H  -0.01100 36.65500 24.13800
H  -4.08900 31.82300 24.23800
H  -3.35600 33.97200 32.33800
H  -0.83700 35.21400 32.40400
H  -2.54800 37.23600 31.40400
H  -2.27700 36.77200 33.14400
H  -3.66000 36.06700 32.25700
H  -0.57300 33.16400 32.88300
H  -1.55000 31.83000 32.17700
H  -2.66400 31.46700 33.95100
H  -2.75000 33.19600 34.45800
H  1.43800 39.38400 29.01800
H  2.83000 38.35800 28.86500
H  1.56600 38.10900 30.13100
H  3.60500 38.92800 26.45400
H  2.14800 39.85000 26.94700
H  2.82100 40.12400 25.29100
H  -0.82200 34.87000 22.54000
H  -3.45200 33.58000 22.58300
H  -2.94500 36.80000 23.29700
H  -3.31500 35.85100 21.80900
H  -1.85000 36.72800 21.78900
H  -1.32500 32.59400 21.52000
H  -2.49500 31.53800 22.27600
H  -0.57400 32.12400 24.40000
H  0.37800 32.29500 23.01300
H  -0.49700 30.74300 23.37800
H  -5.76900 29.09700 26.51200
H  -4.71500 29.77200 25.18100
H  -6.15400 30.67900 25.69600
H  -3.30400 30.45300 31.27900
H  -6.65500 32.18500 33.66600
H  -5.15600 32.34400 34.52800
H  -5.99500 30.83300 34.68900

