158

Mg 1.77800 -2.20400 43.12600
C  5.15100 -1.50000 42.35000
C  0.98000 0.69200 41.45000
C  -1.40100 -3.11600 43.23200
C  2.77500 -5.48900 43.90700
N  3.00700 -0.66800 41.95100
C  4.31300 -0.53700 41.88800
C  4.71900 0.84000 41.20500
C  3.35200 1.57100 41.11300
C  2.38000 0.46400 41.50800
C  3.19100 2.88900 42.00500
C  5.48700 0.68500 39.86300
C  6.49100 1.76400 39.59900
H  6.62300 2.41900 38.18400
N  -0.00200 -1.23900 42.53300
C  -0.11500 -0.01700 41.93800
C  -1.51100 0.33800 41.86700
C  -2.21400 -0.81800 42.31900
C  -1.23100 -1.79700 42.77200
C  -1.92100 1.63800 41.20800
C  -3.75800 -0.96000 42.36200
O  -4.55500 -0.08300 42.00800
C  -4.42800 -2.12200 43.08000
N  0.81000 -4.06200 43.45300
C  -0.49800 -4.15400 43.53100
C  -0.94600 -5.49700 44.17600
C  0.41100 -6.32300 44.18600
C  1.37100 -5.28200 43.69600
C  -1.73400 -5.48300 45.44400
C  0.33200 -7.63300 43.35900
C  1.28700 -8.78200 43.73200
N  3.56300 -3.29400 43.24600
C  3.84100 -4.57100 43.63700
C  5.28400 -4.75600 43.81200
C  5.79900 -3.62800 43.27700
C  4.72200 -2.76100 42.87800
C  5.90200 -6.04200 44.40700
C  7.04400 -2.89200 42.97800
O  8.21900 -3.11900 43.13000
C  6.59500 -1.49300 42.39600
C  7.02400 -0.39200 43.30500
O  6.67800 -0.16800 44.43800
O  7.97600 0.35000 42.71800
C  8.60100 1.40500 43.56700
H  0.73800 1.65700 40.99900
H  -2.41600 -3.50300 43.34600
H  3.11700 -6.46200 44.26600
H  5.39600 1.38900 41.86000
H  3.00700 1.87500 40.12500
H  3.86800 2.85000 42.85800
H  2.19900 2.99600 42.44300
H  3.44800 3.75300 41.39200
H  4.80300 0.74900 39.01600
H  5.99100 -0.28000 39.82100
H  7.44900 1.28400 39.79800
H  6.34100 2.67500 40.18000
H  -1.77100 1.53700 40.13300
H  -1.24900 2.44500 41.49900
H  -2.94600 1.95600 41.39900
H  -5.47900 -1.86900 43.21400
H  -3.91200 -2.24800 44.03200
H  -4.35400 -3.04900 42.51100
H  -1.55000 -6.00800 43.42600
H  0.60400 -6.49100 45.24500
H  -1.60800 -4.52600 45.95100
H  -1.47800 -6.26400 46.15900
H  -2.80000 -5.59200 45.24200
H  0.57700 -7.51400 42.30400
H  -0.67400 -8.05200 43.33600
H  1.83600 -8.65500 44.66500
H  1.96400 -9.05400 42.92200
H  0.59300 -9.62100 43.78800
H  6.95300 -5.96600 44.68600
H  5.78900 -6.93900 43.79800
H  5.36600 -6.18100 45.34600
H  7.05500 -1.41400 41.41100
H  9.59100 1.49100 43.12100
H  8.55000 1.43700 44.65500
H  8.06800 2.32300 43.31800
Mg 17.78700 -1.88800 27.91000
C  16.65900 0.11400 30.59100
C  19.90400 -3.51600 29.88800
C  19.19800 -3.17000 25.07100
C  16.18500 0.60500 25.72600
N  18.20200 -1.67200 29.94000
C  17.65600 -0.87800 30.92300
C  18.20400 -1.23600 32.31800
C  19.39900 -2.15800 31.98600
C  19.12400 -2.53800 30.49900
C  20.85700 -1.62200 32.31400
C  17.11800 -2.03000 33.20100
C  17.24200 -1.71700 34.73300
H  18.46200 -0.94800 35.37800
N  19.18500 -3.32600 27.61600
C  19.93900 -3.94300 28.54200
C  20.74700 -4.99600 27.97700
C  20.45200 -4.95800 26.59600
C  19.57900 -3.80000 26.35600
C  21.49800 -5.98100 28.77800
C  21.01500 -5.91300 25.55300
O  20.64000 -5.95800 24.35900
C  22.07100 -6.93300 25.82700
N  17.75600 -1.34100 25.76900
C  18.42000 -2.03600 24.81600
C  18.25300 -1.42400 23.44000
C  17.17700 -0.40500 23.67100
C  16.97500 -0.35500 25.12900
C  19.57600 -0.95000 22.75100
C  15.80200 -0.59600 23.03300
C  15.82300 -0.38000 21.52500
N  16.53300 -0.09900 28.05900
C  15.93700 0.70600 27.11300
C  15.11000 1.73000 27.78700
C  15.35900 1.55400 29.12500
C  16.25300 0.43500 29.27800
C  14.18600 2.79100 27.09900
C  15.14900 2.06100 30.43500
O  14.48500 3.00700 30.79000
C  15.88600 1.11900 31.43100
C  16.84900 1.95100 32.23300
O  17.98700 2.34200 31.96700
O  16.13400 2.28100 33.38700
C  16.83800 3.15300 34.34600
H  20.70600 -3.95100 30.48800
H  19.68200 -3.62000 24.20100
H  15.63600 1.38800 25.19900
H  18.63000 -0.33500 32.75900
H  19.30100 -3.03900 32.62100
H  20.97400 -0.62900 32.74800
H  21.50400 -1.67400 31.43800
H  21.31700 -2.22700 33.09500
H  17.30500 -3.08300 32.99200
H  16.16000 -1.78900 32.74000
H  17.02000 -2.62100 35.30100
H  16.34200 -1.12900 34.91500
H  21.41700 -7.02800 28.48500
H  21.21800 -6.12300 29.82100
H  22.52900 -5.62800 28.79800
H  22.58000 -7.25600 24.91900
H  21.62400 -7.88600 26.11100
H  22.67300 -6.52000 26.63600
H  17.92800 -2.29600 22.87200
H  17.53000 0.55100 23.28500
H  19.63400 0.13700 22.81800
H  19.64500 -1.20500 21.69400
H  20.46700 -1.27700 23.28700
H  15.05700 0.13000 23.35800
H  15.42600 -1.58100 23.30700
H  16.81000 -0.01500 21.24100
H  15.06200 0.34200 21.23000
H  15.69800 -1.32700 20.99900
H  14.26500 2.88100 26.01500
H  14.56000 3.71900 27.52900
H  13.12900 2.78100 27.36700
H  15.16200 0.59900 32.05800
H  16.62000 3.02800 35.40700
H  16.55100 4.19100 34.18100
H  17.91200 3.17800 34.16300

