158

Mg 41.20900 9.03800 30.87800
C  43.17100 10.16700 33.62600
C  38.92000 7.83700 32.96300
C  39.42400 8.22000 28.21600
C  43.98100 9.67000 28.78300
N  41.19700 8.82500 33.00400
C  41.98500 9.50700 33.89500
C  41.41500 9.41900 35.32800
C  40.16100 8.50500 35.13500
C  40.12800 8.27500 33.61600
C  40.26400 7.18500 35.95300
C  41.00000 10.71100 36.00400
C  41.14300 10.72800 37.50700
H  41.85200 11.93500 38.08500
N  39.40900 8.14100 30.61000
C  38.59600 7.75900 31.63200
C  37.32300 7.28600 31.04500
C  37.37000 7.62100 29.64200
C  38.77500 8.08100 29.44300
C  36.27200 6.56200 31.82800
C  36.40000 7.42600 28.52600
O  36.49900 7.83000 27.36900
C  35.02000 6.92600 28.95700
N  41.77600 8.64900 28.87100
C  40.80700 8.44600 27.94500
C  41.38300 8.37500 26.52500
C  42.87100 8.79400 26.66400
C  42.89500 9.11500 28.19400
C  41.15000 6.95500 25.82900
C  43.46800 9.82700 25.71700
C  42.87400 11.25300 25.86100
N  43.16200 9.88700 31.11000
C  44.15400 10.08500 30.17300
C  45.22800 10.75500 30.76900
C  44.86700 10.87700 32.13000
C  43.67400 10.20500 32.27800
C  46.54700 11.23200 30.08400
C  45.26100 11.40700 33.38300
O  46.16200 12.14900 33.71300
C  44.19000 10.94700 34.43700
C  44.86000 10.09500 35.46600
O  45.75300 9.25200 35.28700
O  44.39400 10.49700 36.69200
C  44.82100 9.66400 37.82500
H  38.08100 7.59500 33.61900
H  38.87700 8.04200 27.28700
H  44.88600 9.78400 28.18300
H  42.17500 8.91400 35.92500
H  39.28900 8.99000 35.57300
H  40.44600 6.28800 35.36100
H  39.39100 7.01000 36.58200
H  41.03200 7.38400 36.70100
H  40.01500 11.01000 35.64600
H  41.66100 11.48600 35.61600
H  41.77200 9.90900 37.85700
H  40.13000 10.71200 37.91100
H  36.54300 6.38400 32.86800
H  36.10500 5.58500 31.37400
H  35.29000 7.03400 31.87200
H  34.58000 7.59900 29.69300
H  34.98200 5.86300 29.19500
H  34.28300 6.92400 28.15400
H  40.90300 9.06900 25.83500
H  43.52800 7.92400 26.65100
H  40.23900 6.79100 25.25500
H  41.15800 6.16300 26.57800
H  41.97400 6.64500 25.18600
H  43.42100 9.48600 24.68200
H  44.50700 9.90300 26.03700
H  42.38100 11.70000 24.99800
H  43.63500 11.95800 26.19400
H  42.09400 11.11500 26.61000
H  46.52100 11.28900 28.99600
H  47.27200 10.47900 30.39100
H  46.84400 12.20200 30.48300
H  43.78700 11.85200 34.89100
H  45.89800 9.73500 37.97900
H  44.55000 8.62400 37.64300
H  44.22800 9.96900 38.68700
Mg -2.88200 34.75800 26.99600
C  -4.79400 33.12400 29.43700
C  -1.77600 36.80500 29.47100
C  -1.12600 36.33800 24.58800
C  -4.32200 32.63500 24.58200
N  -3.41100 35.04200 29.26600
C  -4.11500 34.15300 30.01400
C  -3.82400 34.41700 31.56900
C  -2.86200 35.67400 31.56600
C  -2.60100 35.85600 30.01900
C  -3.36500 36.98000 32.27900
C  -3.19800 33.13000 32.35800
C  -3.97200 32.77700 33.61700
H  -3.10500 32.53500 34.90600
N  -1.59200 36.35300 27.00500
C  -1.30400 37.05900 28.12000
C  -0.41000 38.11600 27.70200
C  -0.16300 37.97300 26.28900
C  -0.94700 36.89400 25.88600
C  0.21100 39.14300 28.65500
C  0.64300 38.80600 25.35700
O  0.68700 38.59900 24.14200
C  1.35100 40.01000 25.78800
N  -2.89800 34.67000 24.78700
C  -1.95100 35.34000 24.01800
C  -1.81400 34.72500 22.60400
C  -2.89500 33.55400 22.65100
C  -3.34200 33.61400 24.10200
C  -2.16200 35.85500 21.51300
C  -2.23200 32.17200 22.22700
C  -3.17600 31.25300 21.34100
N  -4.41900 33.30200 26.91200
C  -4.87200 32.52800 25.85100
C  -5.74600 31.51900 26.44300
C  -5.76100 31.73800 27.81600
C  -4.90000 32.81900 28.05200
C  -6.56800 30.43000 25.71300
C  -6.31600 31.19600 28.94500
O  -7.03400 30.20800 29.12200
C  -5.75900 32.13600 30.13800
C  -6.97200 32.81100 30.75000
O  -7.55300 33.69900 30.22100
O  -7.29300 32.17300 31.97300
C  -8.38000 32.94100 32.64400
H  -1.31400 37.48300 30.19100
H  -0.68100 36.84000 23.72700
H  -4.73600 31.85500 23.93800
H  -4.79100 34.69900 31.98500
H  -1.93000 35.30400 31.99400
H  -2.47400 37.49200 32.64300
H  -4.00000 36.73800 33.13100
H  -3.88500 37.63300 31.57800
H  -2.16000 33.37200 32.58300
H  -3.14300 32.29800 31.65600
H  -4.51900 31.87700 33.33400
H  -4.68800 33.59200 33.72300
H  1.28500 38.96000 28.65100
H  -0.05800 38.97400 29.69800
H  0.02400 40.19000 28.41500
H  0.71200 40.79500 26.19100
H  1.88000 40.45300 24.94400
H  2.08500 39.57900 26.46900
H  -0.79700 34.38800 22.40100
H  -3.82100 33.65300 22.08400
H  -2.18700 36.83400 21.99200
H  -3.19900 35.66200 21.23800
H  -1.46300 35.63900 20.70500
H  -1.95100 31.50400 23.04100
H  -1.34000 32.32800 21.62100
H  -4.04900 31.75600 20.92700
H  -3.45300 30.44400 22.01800
H  -2.57400 30.76900 20.57200
H  -7.52000 30.26200 26.21500
H  -6.02700 29.48400 25.73500
H  -6.73800 30.65800 24.66100
H  -5.38700 31.38700 30.83700
H  -7.81600 33.69900 33.18800
H  -8.93700 32.31500 33.34100
H  -9.11300 33.51000 32.07400

