158

Mg 48.10500 15.66200 27.87900
C  46.21100 15.55400 30.86800
C  50.47400 17.55000 29.31100
C  49.65700 16.05600 24.69700
C  45.34800 14.52200 26.18900
N  48.32300 16.51900 29.84900
C  47.48700 16.26400 30.95200
C  48.15500 16.75700 32.25900
C  49.32600 17.61900 31.65300
C  49.42500 17.19400 30.18300
C  49.19200 19.16800 31.80300
C  48.56500 15.56800 33.27500
C  48.47700 15.94400 34.76100
H  48.44100 17.44100 35.20800
N  49.90200 16.51300 27.16600
C  50.80000 17.12800 27.98300
C  52.05900 17.25800 27.25800
C  51.81100 16.93000 25.86400
C  50.37400 16.50800 25.84400
C  53.18500 17.89300 27.99200
C  52.76600 16.99900 24.73700
O  52.47600 16.71700 23.60500
C  54.24000 17.40400 24.95400
N  47.66300 15.25600 25.73600
C  48.41200 15.55300 24.63900
C  47.63600 15.37100 23.29600
C  46.28500 14.73600 23.85000
C  46.44400 14.79500 25.35100
C  47.44300 16.74700 22.56100
C  45.98400 13.34800 23.31200
C  44.71600 13.26600 22.42300
N  46.22500 14.98200 28.42000
C  45.23300 14.54600 27.63500
C  44.05300 14.16000 28.40400
C  44.39600 14.56500 29.75400
C  45.69200 15.07900 29.62300
C  42.84500 13.54900 27.85500
C  43.98800 14.66400 31.12800
O  42.90400 14.37100 31.56600
C  45.24200 15.22400 31.91000
C  44.86000 16.45300 32.59700
O  44.75100 17.57200 32.06800
O  44.84600 16.26300 33.94900
C  44.40600 17.50700 34.61200
H  51.20200 18.16000 29.84900
H  50.03900 16.21100 23.68600
H  44.47400 14.09100 25.69700
H  47.37500 17.40100 32.66600
H  50.23300 17.22700 32.11300
H  49.08300 19.56600 30.79400
H  50.06200 19.60100 32.29600
H  48.29800 19.41700 32.37400
H  49.55500 15.20800 32.99400
H  47.93200 14.69100 33.13700
H  49.29000 15.49900 35.33600
H  47.61800 15.40300 35.15900
H  53.49500 18.88000 27.64700
H  54.05100 17.24300 27.86700
H  53.03500 17.96700 29.06900
H  54.79200 16.78100 25.65800
H  54.33300 18.44400 25.26800
H  54.72300 17.36500 23.97800
H  48.13300 14.68200 22.61300
H  45.42600 15.35900 23.60000
H  47.85800 17.49600 23.23600
H  46.36600 16.87600 22.45100
H  48.00100 16.74700 21.62500
H  45.80100 12.60400 24.08700
H  46.83100 13.06600 22.68700
H  43.83600 13.06400 23.03400
H  44.88200 12.43700 21.73500
H  44.50900 14.21100 21.92100
H  42.12100 13.48600 28.66700
H  43.03500 12.49100 27.67800
H  42.43700 14.07400 26.99100
H  45.55500 14.55500 32.71100
H  44.21700 17.21800 35.64500
H  43.51000 17.88700 34.12000
H  45.15100 18.29900 34.68900
Mg 16.93700 52.34300 26.90200
C  18.95700 50.64700 29.12500
C  14.65000 52.97000 29.28600
C  14.91500 54.03000 24.53000
C  18.90500 51.28100 24.22600
N  16.88300 51.82500 28.88400
C  17.75100 51.17600 29.63800
C  17.41800 51.42800 31.14100
C  15.92200 51.78700 31.13000
C  15.81300 52.22500 29.68300
C  15.04000 50.74600 31.68700
C  18.38200 52.52400 31.79000
C  18.81300 52.10500 33.19800
H  17.83400 51.46100 34.18700
N  15.03100 53.33000 27.00300
C  14.29600 53.44100 28.10200
C  13.18200 54.24300 27.78700
C  13.24900 54.65400 26.42500
C  14.47900 53.99700 25.93000
C  12.04700 54.52600 28.80700
C  12.39100 55.60500 25.64400
O  12.60500 55.88100 24.45800
C  11.07000 56.06800 26.31800
N  16.91200 52.55800 24.64700
C  15.98200 53.28500 23.98300
C  16.10000 53.13900 22.44100
C  17.58700 52.47400 22.34000
C  17.82500 52.07000 23.81700
C  15.08400 52.14000 21.78000
C  18.68600 53.41900 21.88200
C  19.62800 52.87900 20.81900
N  18.61100 51.15800 26.59600
C  19.28300 50.71500 25.48900
C  20.37500 49.81400 25.92700
C  20.29600 49.82700 27.31300
C  19.22300 50.67200 27.67600
C  21.36100 49.14500 24.92800
C  20.94600 49.22400 28.52800
O  21.88400 48.48800 28.80800
C  20.14000 49.91100 29.75100
C  19.68800 48.96600 30.80300
O  18.75400 48.13600 30.71100
O  20.36200 49.18600 31.97000
C  19.93500 48.39600 33.17300
H  14.08100 53.11900 30.20600
H  14.27900 54.55800 23.81600
H  19.43900 50.92500 23.34200
H  17.50500 50.49000 31.68900
H  15.66200 52.72800 31.61500
H  14.65800 51.01600 32.67200
H  15.51500 49.78400 31.87900
H  14.16800 50.65500 31.04000
H  17.95500 53.52000 31.67900
H  19.22100 52.55000 31.09600
H  19.17900 52.98700 33.72400
H  19.68800 51.46100 33.11100
H  11.08100 54.29000 28.36200
H  12.12500 55.55400 29.16200
H  12.24500 53.90300 29.67900
H  10.64900 56.60200 25.46600
H  11.35500 56.80000 27.07300
H  10.47300 55.18600 26.54900
H  15.94300 54.16400 22.10400
H  17.50900 51.58600 21.71200
H  15.58300 51.58100 20.98800
H  14.23600 52.58500 21.25800
H  14.75100 51.42800 22.53500
H  19.23800 53.71100 22.77500
H  18.19500 54.22000 21.33100
H  20.61600 52.65900 21.22400
H  19.82500 53.58100 20.00900
H  19.25800 51.97800 20.33100
H  21.01100 48.87200 23.93300
H  21.47300 48.19700 25.45400
H  22.37200 49.54500 24.99500
H  20.83600 50.61100 30.21300
H  20.14000 49.04400 34.02500
H  20.48700 47.49300 33.43300
H  18.86000 48.21700 33.14900

