158

Mg 47.76600 25.04300 28.44100
C  49.01300 27.21300 30.99200
C  46.96500 22.83500 30.81600
C  47.65400 22.86000 26.09500
C  49.04700 27.51900 26.12800
N  47.88200 25.16200 30.63100
C  48.21400 26.19000 31.47300
C  47.90000 25.88700 32.89800
C  47.44500 24.37700 32.79000
C  47.39400 24.06500 31.33300
C  48.21400 23.45300 33.73800
C  46.99800 27.02400 33.55000
C  46.09500 26.72100 34.74700
H  46.04500 27.74800 35.90900
N  47.32100 23.07800 28.44000
C  46.95900 22.31300 29.53600
C  46.54800 20.97600 29.19900
C  46.86200 20.93400 27.80000
C  47.28600 22.28600 27.37300
C  45.98000 19.87800 30.12200
C  46.77100 19.73000 26.81900
O  47.17100 19.87100 25.65300
C  46.20200 18.33300 27.35100
N  48.24700 25.13200 26.38900
C  48.08700 24.09300 25.62000
C  48.31900 24.47200 24.13500
C  48.49800 25.98500 24.15300
C  48.55500 26.26900 25.63000
C  49.66500 23.78400 23.57500
C  47.33900 26.76600 23.30700
C  47.74200 27.35100 22.00200
N  48.81500 26.98300 28.49000
C  49.19700 27.85800 27.50600
C  49.96300 28.96700 28.05200
C  49.86600 28.85900 29.41700
C  49.23600 27.54300 29.61700
C  50.43400 30.12100 27.22600
C  50.07100 29.47700 30.77400
O  50.68500 30.47800 31.14300
C  49.47400 28.42700 31.78900
C  50.54400 28.17100 32.75100
O  51.42600 27.38500 32.48000
O  50.30600 28.72700 34.00400
C  51.27700 28.33000 35.05400
H  46.63800 22.12500 31.57900
H  47.56500 22.17500 25.24900
H  49.33800 28.30200 25.42600
H  48.86100 26.05700 33.38300
H  46.39300 24.42500 33.07000
H  48.93500 23.98700 34.35600
H  48.76700 22.69200 33.18700
H  47.47600 22.94100 34.35600
H  46.27200 27.16200 32.74800
H  47.66500 27.84900 33.80100
H  46.43500 25.73600 35.06900
H  45.08100 26.50200 34.41000
H  44.98400 19.67800 29.72700
H  45.83200 20.34200 31.09700
H  46.58600 18.97500 30.19300
H  45.26500 18.42700 27.89900
H  46.97600 18.03700 28.05900
H  46.13300 17.62100 26.52900
H  47.52100 24.04700 23.52600
H  49.48100 26.25400 23.76500
H  50.53200 24.44200 23.63200
H  49.64400 23.46500 22.53300
H  49.85900 22.91800 24.20700
H  47.11900 27.62600 23.93900
H  46.44800 26.13900 23.31900
H  47.13100 26.95600 21.19100
H  48.75200 27.05700 21.71600
H  47.69400 28.43900 21.97100
H  50.83600 29.77000 26.27500
H  51.09500 30.77400 27.79500
H  49.62900 30.83300 27.04600
H  48.65000 28.95300 32.27100
H  52.26100 28.79800 35.07100
H  51.37400 27.24900 34.95800
H  50.88700 28.73400 35.98900
Mg -12.95200 16.97200 41.42900
C  -10.02300 15.30200 40.40600
C  -11.34800 19.95200 40.76200
C  -15.90000 18.27400 41.57500
C  -14.30300 13.58800 41.84800
N  -10.82700 17.56500 40.52100
C  -9.83500 16.67700 40.24500
C  -8.57500 17.52500 39.84800
C  -8.93600 18.97000 40.25800
C  -10.45200 18.84900 40.60400
C  -8.03600 19.59500 41.36800
C  -8.23600 17.33100 38.31800
C  -7.15900 16.34800 37.83400
H  -6.16800 16.76900 36.69300
N  -13.56100 18.97000 41.20900
C  -12.81200 20.04400 40.95400
C  -13.65300 21.25700 40.98600
C  -14.98800 20.78800 41.19400
C  -14.93700 19.26800 41.38800
C  -13.08600 22.62600 40.76600
C  -16.23300 21.71100 41.18100
O  -16.10200 22.89800 40.88300
C  -17.59800 21.23800 41.61600
N  -14.76300 16.08300 41.72500
C  -15.89400 16.88200 41.72500
C  -17.20800 16.05200 41.88500
C  -16.65300 14.54200 42.15100
C  -15.12800 14.73200 41.83500
C  -18.03800 16.54000 43.10400
C  -17.37800 13.48700 41.35200
C  -17.37400 12.01600 41.94000
N  -12.34800 14.86300 41.28600
C  -12.99800 13.66200 41.53600
C  -12.08500 12.58000 41.51900
C  -10.91600 13.13900 40.92700
C  -11.10800 14.51400 40.90300
C  -12.32900 11.10900 41.87500
C  -9.54000 12.88700 40.53600
O  -8.93600 11.85800 40.44700
C  -8.86200 14.32700 40.15900
C  -7.63900 14.53800 41.13400
O  -7.73300 14.79700 42.30600
O  -6.39900 14.34700 40.44500
C  -5.14100 14.56000 41.15900
H  -10.79500 20.88000 40.60200
H  -16.84200 18.82400 41.54500
H  -14.83000 12.63700 41.95200
H  -7.71400 17.26300 40.46400
H  -8.78300 19.60800 39.38800
H  -7.06200 19.86900 40.96100
H  -7.92900 18.93600 42.23000
H  -8.58000 20.45600 41.75600
H  -7.81600 18.29900 38.04400
H  -9.09500 17.13700 37.67600
H  -7.68100 15.51600 37.36200
H  -6.59500 16.10100 38.73300
H  -12.95700 22.86600 39.71100
H  -12.25500 22.95900 41.38800
H  -13.85000 23.26600 41.20700
H  -17.98200 20.55900 40.85400
H  -18.23000 22.12600 41.61500
H  -17.48300 20.69800 42.55600
H  -17.78300 16.18700 40.96900
H  -16.65400 14.19800 43.18500
H  -18.91400 17.08000 42.74400
H  -17.55400 17.25900 43.76500
H  -18.33100 15.73300 43.77500
H  -16.91000 13.44800 40.36800
H  -18.36500 13.94000 41.25000
H  -18.41500 11.69400 41.90800
H  -17.00500 11.90800 42.96000
H  -16.88100 11.41800 41.17300
H  -11.37400 10.59100 41.78900
H  -13.02300 10.47900 41.31800
H  -12.64500 10.97600 42.91000
H  -8.62700 14.43400 39.10000
H  -5.11800 15.59700 41.49400
H  -4.28100 14.43900 40.50100
H  -5.07800 13.80200 41.94000

