158

Mg 2.34900 -2.79900 44.46700
C  5.52000 -1.39200 44.13100
C  1.22800 0.02100 42.53200
C  -0.73500 -4.13200 44.33600
C  3.69200 -5.72500 45.43900
N  3.31200 -0.95100 43.48700
C  4.62500 -0.61900 43.48800
C  4.94300 0.67700 42.71300
C  3.48100 1.24400 42.45600
C  2.65400 0.01400 42.84800
C  3.05600 2.54300 43.17000
C  5.84500 0.41200 41.46000
C  6.78700 1.56800 41.00000
H  7.67900 1.30000 39.79600
N  0.44200 -2.09400 43.66900
C  0.25600 -0.99500 42.91800
C  -1.12200 -0.93700 42.49300
C  -1.74700 -2.07900 42.99700
C  -0.68800 -2.82900 43.69700
C  -1.82000 0.22800 41.76800
C  -3.24200 -2.45100 42.88200
O  -3.97400 -1.79100 42.16100
C  -3.85800 -3.75900 43.51100
N  1.58400 -4.67300 44.71000
C  0.30000 -4.91400 44.78100
C  0.08700 -6.46200 45.01400
C  1.48300 -6.88000 45.64300
C  2.34700 -5.72400 45.18700
C  -1.22200 -6.87500 45.81700
C  2.00300 -8.31000 45.43600
C  3.02700 -8.87400 46.55600
N  4.22000 -3.50200 44.76600
C  4.61700 -4.69500 45.21700
C  6.03800 -4.61200 45.42600
C  6.44700 -3.30400 45.15000
C  5.30400 -2.67800 44.61600
C  6.84900 -5.74100 45.99000
C  7.52700 -2.32800 45.14200
O  8.71400 -2.46800 45.41700
C  6.95800 -1.03000 44.48400
C  7.12400 0.15000 45.42500
O  6.61000 0.29300 46.50800
O  8.02900 1.08500 44.83500
C  8.35200 2.25000 45.64900
H  0.93900 0.92500 41.99200
H  -1.67300 -4.68600 44.26500
H  4.11500 -6.65100 45.83500
H  5.49400 1.40700 43.30600
H  3.33200 1.47400 41.40100
H  2.01400 2.57700 43.48700
H  3.27700 3.42000 42.56000
H  3.62400 2.76200 44.07400
H  5.12300 0.31700 40.65000
H  6.31900 -0.54200 41.69300
H  7.48000 1.69800 41.83100
H  6.25500 2.50700 40.84600
H  -1.21800 1.12700 41.63600
H  -2.60100 0.60600 42.42800
H  -2.17000 -0.05200 40.77500
H  -3.65300 -4.59000 42.83700
H  -4.91800 -3.51400 43.43700
H  -3.56900 -3.91400 44.55100
H  -0.06200 -6.99100 44.07200
H  1.40100 -6.76100 46.72300
H  -1.93800 -7.47600 45.25700
H  -1.68900 -5.91000 46.01200
H  -0.93000 -7.21700 46.81000
H  2.60500 -8.29400 44.52800
H  1.17400 -9.01000 45.33800
H  2.72000 -9.82700 46.98600
H  3.27100 -8.12100 47.30600
H  3.90300 -9.06600 45.93700
H  7.02900 -6.55000 45.28300
H  6.33400 -6.07600 46.89000
H  7.74200 -5.29300 46.42600
H  7.51600 -1.01500 43.54800
H  7.43500 2.82900 45.76300
H  9.22500 2.73500 45.21100
H  8.62400 1.80700 46.60600
Mg 34.85600 2.54700 29.47600
C  32.78600 3.58100 32.01000
C  37.44800 2.22000 31.66600
C  37.03200 2.12900 26.79200
C  32.15500 2.91300 27.13300
N  35.11900 3.08100 31.59400
C  34.04400 3.27700 32.51100
C  34.61100 3.27700 33.88200
C  36.10700 2.87600 33.71900
C  36.21400 2.65700 32.21500
C  37.15700 3.87600 34.32500
C  33.86700 2.15500 34.75500
C  33.82100 2.50600 36.26800
H  34.76100 3.52700 36.86300
N  36.88400 2.08100 29.25300
C  37.74400 1.99900 30.31600
C  39.01500 1.54900 29.78300
C  38.98900 1.59100 28.40200
C  37.60200 1.85400 28.07500
C  40.16500 0.99400 30.66100
C  40.02300 1.35400 27.31100
O  39.81600 1.41300 26.09100
C  41.50300 1.28100 27.55400
N  34.64900 2.61600 27.34000
C  35.69300 2.46700 26.43500
C  35.18600 2.69300 24.96000
C  33.66600 2.50900 25.12100
C  33.42000 2.67300 26.62900
C  35.65500 4.13700 24.50000
C  33.11200 1.24100 24.66100
C  32.86600 0.06200 25.53500
N  32.87700 3.17700 29.47200
C  31.89300 3.22400 28.46500
C  30.64200 3.68700 29.09700
C  30.98100 3.90600 30.45900
C  32.37500 3.56800 30.64800
C  29.41000 3.89800 28.46700
C  30.43300 4.26600 31.75800
O  29.31700 4.53000 32.19900
C  31.56900 3.99900 32.82100
C  31.82100 5.25100 33.65200
O  32.09900 6.35700 33.22500
O  31.32100 5.03600 34.93500
C  31.42200 6.07500 35.86000
H  38.24900 1.96500 32.36300
H  37.67200 2.14400 25.90800
H  31.28800 3.03300 26.48000
H  34.53100 4.32000 34.18800
H  36.29000 1.90800 34.18700
H  37.71600 3.35100 35.09900
H  36.68200 4.73400 34.80000
H  37.89700 4.18500 33.58700
H  34.35100 1.19500 34.57600
H  32.82900 2.03100 34.44500
H  33.80000 1.56600 36.81900
H  32.83400 2.95700 36.36800
H  40.23500 -0.04000 30.32200
H  39.82400 0.97900 31.69600
H  41.05400 1.60600 30.51100
H  41.76900 0.38200 28.11100
H  41.72900 2.18200 28.12400
H  42.07600 1.18300 26.63200
H  35.73500 1.99700 24.32500
H  33.16100 3.28500 24.54600
H  36.26600 3.93200 23.62100
H  36.37900 4.58000 25.18300
H  34.92700 4.90000 24.22700
H  33.80200 0.91300 23.88300
H  32.24400 1.62800 24.12700
H  32.87200 0.43200 26.56000
H  33.53600 -0.78600 25.39300
H  31.87200 -0.27200 25.23800
H  29.26800 3.71500 27.40200
H  29.08500 4.89900 28.74700
H  28.68600 3.33200 29.05300
H  31.30100 3.09500 33.36800
H  30.53100 6.69900 35.80600
H  32.26400 6.70400 35.57000
H  31.46400 5.64900 36.86300

