158

Mg 41.35200 40.99400 26.89000
C  40.71300 43.28700 29.57100
C  42.30500 38.79700 29.39200
C  42.08100 38.92700 24.56000
C  40.85900 43.67300 24.60000
N  41.45100 41.02800 29.20800
C  41.11400 42.01500 30.05700
C  41.04200 41.55000 31.51100
C  41.91900 40.29400 31.43400
C  41.93800 40.00400 29.89500
C  43.44000 40.56600 32.00400
C  39.63300 41.38400 32.13700
C  39.25600 42.36500 33.30700
H  38.48800 41.77900 34.51200
N  41.95700 39.09000 27.00600
C  42.26700 38.40200 28.14000
C  42.67800 37.03200 27.76300
C  42.68900 37.03800 26.31300
C  42.15100 38.36900 25.87300
C  42.97200 35.89200 28.70300
C  43.07500 35.92900 25.36700
O  42.91300 35.96800 24.17000
C  43.60300 34.64600 25.89600
N  41.64700 41.31500 24.84200
C  41.77400 40.17700 24.10700
C  41.73500 40.52500 22.60700
C  41.22700 41.96600 22.67600
C  41.26600 42.34700 24.10800
C  43.07300 40.30800 21.96500
C  39.90200 42.31400 21.98700
C  38.63400 41.74200 22.63100
N  40.75900 42.99700 26.96900
C  40.70600 43.99300 26.01200
C  40.33300 45.26300 26.58700
C  40.31500 44.98000 27.99500
C  40.61600 43.59600 28.14500
C  40.02400 46.56800 25.85200
C  40.07400 45.69700 29.25600
O  39.92000 46.92000 29.41500
C  40.30400 44.57400 30.34400
C  41.36600 45.09900 31.31600
O  42.56100 44.93700 31.19000
O  40.82000 45.75500 32.38800
C  41.69600 46.41300 33.43400
H  42.66800 38.09300 30.14400
H  42.29800 38.18800 23.78600
H  40.65700 44.43500 23.84500
H  41.63000 42.30100 32.04000
H  41.42400 39.42800 31.87300
H  44.14300 40.62200 31.17300
H  43.64500 39.89400 32.83700
H  43.52600 41.54400 32.47700
H  39.50500 40.37500 32.53000
H  38.88600 41.62500 31.38100
H  38.69000 43.19300 32.87800
H  40.15600 42.80300 33.73700
H  42.28400 35.05500 28.58200
H  42.91100 36.24300 29.73300
H  43.95900 35.50300 28.45300
H  42.79300 34.23000 26.49500
H  44.51500 34.76100 26.48200
H  43.66700 34.02400 25.00300
H  41.05000 39.83100 22.12000
H  41.92600 42.63800 22.17700
H  43.13600 39.36200 21.42600
H  43.83000 40.26700 22.74800
H  43.31500 41.05400 21.20800
H  39.92900 41.80700 21.02200
H  39.80200 43.39500 21.88300
H  38.87500 41.10000 23.47900
H  37.97600 41.24300 21.91900
H  38.13500 42.62200 23.03700
H  39.62400 47.29700 26.55700
H  39.23700 46.40600 25.11600
H  40.88900 47.02800 25.37300
H  39.36400 44.47500 30.88600
H  42.76300 46.30800 33.23300
H  41.55500 45.86200 34.36400
H  41.42100 47.44500 33.65100
Mg 30.48100 58.37800 40.28800
C  27.49200 56.71300 39.13300
C  32.38300 55.83100 39.09100
C  33.06800 60.32700 41.05100
C  28.42300 61.27500 40.41200
N  30.00300 56.52900 39.29600
C  28.72300 55.97400 39.05500
C  28.82000 54.57700 38.47500
C  30.40500 54.25100 38.55700
C  31.02000 55.65300 38.96100
C  30.80900 53.10800 39.59800
C  28.33100 54.52000 36.93600
C  28.84600 55.73600 35.99200
H  27.87100 56.02400 34.86500
N  32.44000 58.03900 40.17600
C  33.12600 56.92800 39.64100
C  34.51800 57.08200 39.71800
C  34.73700 58.39500 40.31400
C  33.41400 59.01400 40.56500
C  35.50100 56.06400 39.06900
C  36.09400 58.88500 40.59500
O  37.07200 58.24300 40.21900
C  36.22800 60.15000 41.44300
N  30.73800 60.57500 40.67500
C  31.90800 61.08300 41.09000
C  31.79500 62.60600 41.23500
C  30.27300 62.91700 41.02800
C  29.72100 61.47800 40.79600
C  32.47500 63.27900 42.49000
C  29.90400 63.93800 39.92000
C  29.18400 65.18500 40.28100
N  28.34600 58.92100 40.06700
C  27.69300 60.12800 40.09100
C  26.31500 60.02500 39.70600
C  26.18700 58.68600 39.39800
C  27.44400 58.07400 39.54000
C  25.32500 61.18300 39.65400
C  25.25400 57.72500 39.02000
O  24.05200 57.75200 38.84100
C  26.08300 56.41200 38.85800
C  25.46300 55.35200 39.65900
O  25.47400 55.25500 40.87100
O  25.03100 54.34100 38.85900
C  24.10000 53.31100 39.54600
H  32.90200 54.90900 38.82200
H  33.89800 61.00200 41.26700
H  27.74900 62.13300 40.45600
H  28.18300 54.00300 39.14900
H  30.79000 53.98300 37.57200
H  31.22000 52.25000 39.06600
H  29.90400 52.86300 40.15500
H  31.58000 53.38800 40.31500
H  27.26000 54.31800 36.90800
H  28.79400 53.61200 36.54800
H  29.77700 55.39700 35.53800
H  29.08700 56.61200 36.59300
H  36.24300 55.79600 39.82200
H  35.94100 56.44800 38.14900
H  34.98100 55.11900 38.91000
H  35.61500 60.01600 42.33500
H  35.86000 61.05600 40.96100
H  37.21900 60.56600 41.62600
H  32.31800 63.00300 40.36500
H  29.89000 63.23700 41.99700
H  32.90700 62.58000 43.20600
H  31.74400 63.87600 43.03600
H  33.22500 64.02600 42.22800
H  29.40400 63.41300 39.10600
H  30.82200 64.30800 39.46400
H  28.72000 65.48200 39.34100
H  29.92500 65.90200 40.63700
H  28.47800 64.98200 41.08600
H  24.41700 60.85400 39.14800
H  25.80600 61.96700 39.06800
H  25.15300 61.47300 40.69100
H  25.97800 56.08800 37.82300
H  23.64400 52.85200 38.66900
H  23.35900 53.78800 40.18600
H  24.58700 52.53200 40.13300

