158

Mg 25.98000 0.29900 28.98300
C  27.77400 -0.01500 31.91900
C  23.16000 0.75900 31.02600
C  24.04300 0.31600 26.20600
C  28.64500 -0.83200 27.11200
N  25.53500 0.30900 31.31500
C  26.50000 0.37100 32.18600
C  25.92600 0.63700 33.53700
C  24.37000 0.71100 33.36500
C  24.33200 0.54900 31.84800
C  23.49500 -0.30900 34.21500
C  26.62400 1.84200 34.27700
C  25.82800 2.71600 35.17900
H  26.40000 2.93100 36.58500
N  23.98200 0.65100 28.68200
C  22.97400 0.81800 29.60900
C  21.67300 1.20000 28.97700
C  21.97000 1.11700 27.61300
C  23.37900 0.65600 27.45800
C  20.32200 1.45400 29.77100
C  20.96000 1.34300 26.48000
O  21.25300 1.14500 25.33500
C  19.60700 1.85500 26.68400
N  26.33600 -0.08800 26.95500
C  25.37000 -0.06500 26.00400
C  25.93400 -0.28500 24.60700
C  27.40000 -0.66100 24.87500
C  27.53300 -0.44200 26.38500
C  25.30100 -1.39600 23.71300
C  28.55900 0.05700 24.04700
C  28.93100 1.49500 24.43100
N  27.85100 -0.29300 29.35900
C  28.84800 -0.70400 28.52200
C  30.00300 -0.98000 29.30100
C  29.65300 -0.71300 30.64800
C  28.29700 -0.34200 30.66200
C  31.25300 -1.40200 28.60600
C  30.12900 -0.61400 31.96700
O  31.20200 -0.84900 32.42400
C  28.90200 -0.13400 32.88600
C  28.58900 -1.25200 33.81900
O  28.22500 -2.37600 33.54700
O  28.68100 -0.70200 35.14300
C  28.47500 -1.56800 36.32700
H  22.30000 1.08600 31.61500
H  23.37500 0.37800 25.34400
H  29.47000 -1.11200 26.45400
H  26.14700 -0.27300 34.09400
H  24.03600 1.74400 33.46100
H  22.69900 0.23000 34.73000
H  24.09400 -0.81400 34.97200
H  23.04100 -1.02900 33.53400
H  27.03700 2.48700 33.50200
H  27.48800 1.62200 34.90400
H  24.88300 2.24300 35.44800
H  25.55300 3.66600 34.72100
H  19.79300 2.32300 29.38000
H  20.34200 1.55200 30.85600
H  19.79000 0.51500 29.62100
H  19.02700 1.16700 27.29900
H  19.07700 1.91500 25.73300
H  19.72200 2.84900 27.11600
H  25.99500 0.61700 23.99900
H  27.67600 -1.71000 24.77000
H  25.98100 -2.21800 23.48600
H  24.84200 -1.01000 22.80300
H  24.48000 -1.86000 24.25900
H  28.11700 -0.03800 23.05500
H  29.47700 -0.53100 24.03800
H  30.01100 1.57600 24.55200
H  28.44000 1.98600 25.27100
H  28.69700 2.21600 23.64900
H  31.96500 -0.81600 29.18600
H  31.45400 -1.05800 27.59100
H  31.43200 -2.46500 28.44500
H  29.13200 0.78500 33.42400
H  27.70900 -1.18100 37.00000
H  29.41400 -1.58700 36.88000
H  28.28300 -2.60700 36.05700
Mg 45.34800 4.62500 47.57000
C  43.70100 7.69600 47.00100
C  42.54600 2.90600 46.65600
C  47.37400 1.93300 46.93600
C  48.29300 6.59500 48.03600
N  43.46700 5.19100 46.80800
C  43.00400 6.54800 46.72600
C  41.47600 6.46600 46.29000
C  41.10700 5.00900 46.62400
C  42.46400 4.33900 46.67000
C  40.28000 4.61200 47.84300
C  41.48100 6.84200 44.83500
C  40.63200 8.03600 44.41100
H  39.76800 7.89300 43.12600
N  44.98400 2.72900 47.07200
C  43.76400 2.18300 46.83500
C  43.91100 0.75500 46.60500
C  45.31100 0.54000 46.57300
C  45.98100 1.73600 46.97700
C  42.77100 -0.14500 46.21700
C  45.93100 -0.81600 46.25500
O  45.20000 -1.77500 46.14400
C  47.44700 -1.17000 46.17200
N  47.52000 4.24000 47.34900
C  48.11000 3.01800 47.19300
C  49.62100 3.06300 47.66900
C  49.86400 4.60000 47.76800
C  48.44700 5.21000 47.71800
C  50.03100 2.28300 48.93000
C  50.87900 5.18300 46.75600
C  52.34900 4.82800 47.18600
N  45.96400 6.70500 47.51100
C  47.13400 7.32900 47.85900
C  46.97100 8.80500 47.91600
C  45.56700 8.95800 47.68100
C  45.04600 7.72500 47.41200
C  48.16200 9.70200 48.26500
C  44.50000 9.94600 47.60300
O  44.56500 11.17000 47.77100
C  43.21300 9.18400 47.15600
C  42.22200 9.48800 48.28900
O  42.04300 8.81100 49.25800
O  41.38700 10.59300 47.93700
C  40.41400 10.92000 48.88500
H  41.63900 2.34600 46.41900
H  48.11200 1.13800 47.06400
H  49.24200 7.05900 48.31200
H  40.92500 7.17600 46.90700
H  40.53500 4.53900 45.82400
H  39.67800 5.45100 48.19200
H  40.94700 4.40700 48.68000
H  39.58200 3.83900 47.51800
H  41.09600 5.90000 44.44500
H  42.49100 6.95100 44.44200
H  41.28000 8.91200 44.43800
H  39.87600 8.07900 45.19500
H  41.80600 0.36200 46.19000
H  42.67900 -1.00900 46.87400
H  43.12600 -0.42000 45.22300
H  47.93900 -1.10900 47.14300
H  47.94500 -0.52700 45.44700
H  47.60000 -2.19600 45.83700
H  50.18100 2.63100 46.84000
H  50.16100 4.80400 48.79700
H  50.55500 1.40400 48.55500
H  49.18900 1.77800 49.40400
H  50.77200 2.73900 49.58600
H  50.75300 6.26400 46.82400
H  50.70300 4.78600 45.75600
H  52.45800 3.95200 47.82500
H  52.77800 5.62500 47.79300
H  52.92300 4.86300 46.26000
H  48.51100 9.59300 49.29200
H  47.75900 10.70800 48.38200
H  48.86600 9.61700 47.43700
H  42.93300 9.63000 46.20200
H  39.71200 11.64900 48.48100
H  41.02000 11.46200 49.61200
H  39.86800 10.09100 49.33500

