158

Mg 35.47400 2.94100 30.49000
C  33.00400 3.92100 32.86600
C  37.85800 2.92600 32.82000
C  37.49500 2.43200 27.99300
C  32.80300 3.46000 27.99400
N  35.42400 3.42800 32.62900
C  34.29400 3.68800 33.39000
C  34.70600 3.64400 34.89200
C  36.28600 3.46500 34.85400
C  36.58200 3.30000 33.31600
C  37.04600 4.48200 35.61700
C  34.09200 2.33700 35.51600
C  33.37300 2.59100 36.85600
H  34.18400 3.45700 37.83700
N  37.47100 2.62300 30.40400
C  38.34800 2.53600 31.47300
C  39.59500 2.10000 31.02500
C  39.55400 2.06200 29.63200
C  38.14300 2.35000 29.26000
C  40.76700 1.99400 32.05600
C  40.57200 1.76000 28.57300
O  40.43200 1.82100 27.34500
C  41.90100 1.34100 29.06100
N  35.23000 3.02900 28.31500
C  36.20600 2.64100 27.56400
C  35.90300 2.74600 26.04600
C  34.30000 2.91500 26.04300
C  34.06700 3.12900 27.56500
C  36.60900 3.99100 25.40400
C  33.61700 1.61900 25.51000
C  32.27500 1.79800 24.81200
N  33.37100 3.51800 30.43700
C  32.43300 3.74300 29.37400
C  31.10200 4.20500 29.76700
C  31.29600 4.24000 31.19700
C  32.66800 3.86900 31.50400
C  29.90700 4.57600 28.96900
C  30.62000 4.44200 32.43300
O  29.41100 4.70200 32.60000
C  31.68900 4.17300 33.58600
C  31.75500 5.28100 34.56400
O  32.38100 6.35700 34.44100
O  30.94900 4.93000 35.62300
C  30.84600 5.91900 36.76200
H  38.58100 2.88700 33.63700
H  38.26200 2.17700 27.25800
H  32.04000 3.73800 27.26500
H  34.32800 4.50700 35.44100
H  36.57200 2.55700 35.38500
H  36.40600 5.12100 36.22600
H  37.64200 5.06100 34.91200
H  37.65500 3.91200 36.31800
H  34.83200 1.57400 35.75600
H  33.42200 1.88100 34.78700
H  33.01900 1.70100 37.37700
H  32.49900 3.19600 36.61200
H  40.47800 2.52600 32.96300
H  41.71600 2.43200 31.74700
H  40.88600 0.91300 32.13700
H  42.29600 2.22100 29.56800
H  42.54700 0.87200 28.32000
H  41.75500 0.60600 29.85300
H  36.19900 1.79600 25.60100
H  34.00300 3.76400 25.42500
H  36.46800 4.93800 25.92700
H  36.35400 4.11900 24.35200
H  37.67400 3.80000 25.53400
H  33.33700 0.97800 26.34700
H  34.17900 1.05600 24.76500
H  32.28100 2.71800 24.22800
H  31.39800 1.73900 25.45600
H  32.27600 1.10700 23.96900
H  29.35100 3.67000 28.72900
H  30.32200 5.08900 28.10100
H  29.33900 5.28800 29.56900
H  31.46700 3.28000 34.17000
H  30.37000 5.28400 37.51000
H  30.32200 6.86400 36.61700
H  31.89400 6.01700 37.04400
Mg 30.15100 58.60100 41.67600
C  27.39200 56.68600 40.69600
C  32.20300 56.30800 40.11100
C  32.82900 60.65400 42.08100
C  28.00500 61.10800 42.66600
N  29.85700 56.71800 40.59000
C  28.62500 56.16200 40.24700
C  28.80300 54.96700 39.33800
C  30.34700 54.79700 39.38100
C  30.83600 55.95900 40.12100
C  30.94400 53.39200 39.80900
C  28.16100 55.17900 37.94600
C  27.26700 54.04500 37.41600
H  27.41900 53.68700 35.94200
N  32.21800 58.49400 41.23400
C  32.84600 57.39800 40.71200
C  34.20900 57.63100 40.58600
C  34.50600 58.84100 41.26600
C  33.18600 59.37800 41.54600
C  35.21400 56.57100 40.07300
C  35.82900 59.36200 41.71100
O  36.88300 58.81700 41.41900
C  35.90000 60.49600 42.59200
N  30.45400 60.63200 42.30400
C  31.60200 61.29100 42.34500
C  31.39900 62.65400 42.78700
C  29.95200 62.85600 43.11800
C  29.36800 61.44300 42.63100
C  32.37400 63.21600 43.86900
C  29.28100 64.12300 42.42900
C  28.91000 64.01700 40.99100
N  28.07300 58.88300 41.67000
C  27.36900 59.99300 42.15100
C  25.96300 59.66700 41.90800
C  25.91900 58.39000 41.37600
C  27.22600 57.93200 41.29600
C  24.78300 60.68900 42.09100
C  25.04600 57.39000 40.82900
O  23.81300 57.43300 40.68500
C  25.97700 56.23900 40.32100
C  25.55800 55.06800 40.99800
O  25.66700 54.88800 42.19800
O  24.97800 54.22500 40.12800
C  24.21100 53.20500 40.77600
H  32.88500 55.55600 39.71000
H  33.68700 61.31900 42.20700
H  27.32600 61.90600 42.97300
H  28.27600 54.17100 39.86300
H  30.82100 54.86400 38.40100
H  30.17100 52.64000 39.64700
H  31.25700 53.44400 40.85200
H  31.78800 53.15100 39.16300
H  28.92000 55.47200 37.22000
H  27.62700 56.13000 37.95800
H  26.31900 54.58300 37.46000
H  27.24600 53.13000 38.00700
H  36.09400 57.11300 39.72600
H  34.81400 55.90200 39.31200
H  35.41300 55.86000 40.87500
H  35.93400 61.47300 42.11000
H  36.86200 60.43300 43.10000
H  35.13100 60.33500 43.34700
H  31.65900 63.27000 41.92600
H  29.78900 62.92900 44.19400
H  32.76000 62.34600 44.40000
H  31.73700 63.84200 44.49600
H  33.15700 63.86200 43.47200
H  30.00500 64.93600 42.45700
H  28.43400 64.37400 43.06700
H  27.87300 64.33100 40.86600
H  29.11800 63.04100 40.55200
H  29.49400 64.75000 40.43600
H  24.92800 61.55000 41.43900
H  24.89400 61.24400 43.02300
H  23.82900 60.18100 41.94900
H  25.81900 56.16600 39.24500
H  23.67700 53.72500 41.57200
H  24.90300 52.46300 41.17300
H  23.51500 52.79500 40.04500

