158

Mg 1.39400 -0.30500 44.31100
C  4.78000 0.15700 43.65600
C  0.80100 2.52800 42.55800
C  -1.80100 -1.20900 44.31800
C  2.17900 -3.45000 45.69300
N  2.71300 1.13400 43.18100
C  4.02200 1.17500 43.11300
C  4.49600 2.52200 42.41700
C  3.17300 3.38500 42.41400
C  2.16600 2.28600 42.71400
C  3.16800 4.54800 43.40400
C  4.98400 2.19000 40.90900
C  6.44100 2.62400 40.57000
H  6.47600 3.53200 39.30200
N  -0.28800 0.49800 43.44000
C  -0.37300 1.73500 42.82300
C  -1.77700 2.00500 42.57200
C  -2.47400 0.79800 42.87700
C  -1.48900 -0.10700 43.56100
C  -2.30900 3.29800 42.05000
C  -3.89000 0.48500 42.48800
O  -4.65500 1.34100 42.04500
C  -4.33000 -0.92200 42.42700
N  0.29600 -1.99800 45.21200
C  -1.04200 -2.13600 45.04100
C  -1.59600 -3.53000 45.53000
C  -0.22400 -4.22200 45.92000
C  0.82800 -3.14600 45.67500
C  -2.66600 -3.35600 46.64900
C  0.13100 -5.60400 45.15100
C  0.34600 -6.75200 46.16600
N  3.11600 -1.37400 44.76800
C  3.30600 -2.66900 45.22700
C  4.72400 -2.99200 45.26400
C  5.34200 -1.87300 44.71600
C  4.32500 -0.97500 44.33800
C  5.22900 -4.28500 45.84500
C  6.65000 -1.38500 44.38200
O  7.80500 -1.85400 44.49200
C  6.32000 0.05600 43.79900
C  6.93800 1.12100 44.63600
O  6.32100 1.83100 45.41500
O  8.32200 1.14600 44.43000
C  8.98300 2.24900 45.16600
H  0.69900 3.54100 42.16400
H  -2.83600 -1.52400 44.47000
H  2.39100 -4.47500 46.00400
H  5.35200 2.94800 42.94000
H  2.94700 3.81800 41.44000
H  2.93400 5.45600 42.84900
H  4.13100 4.70600 43.89000
H  2.54500 4.53200 44.29800
H  4.33800 2.68900 40.18700
H  4.98200 1.13300 40.64500
H  7.03300 1.71800 40.43700
H  7.01300 3.15200 41.33400
H  -1.56100 4.05800 42.27500
H  -3.20100 3.50200 42.64300
H  -2.48400 3.23500 40.97600
H  -5.25400 -0.93300 41.84900
H  -4.50400 -1.17300 43.47400
H  -3.52200 -1.51400 41.99800
H  -2.17900 -4.03700 44.76100
H  -0.11500 -4.37800 46.99300
H  -2.34800 -3.91800 47.52700
H  -3.67400 -3.72200 46.45200
H  -2.78300 -2.36400 47.08500
H  1.04200 -5.64000 44.55400
H  -0.64400 -5.85200 44.42600
H  -0.34500 -6.60600 46.99600
H  1.39100 -6.84400 46.46200
H  -0.09200 -7.67700 45.79100
H  6.31400 -4.29700 45.94100
H  4.78400 -5.06600 45.22800
H  4.85800 -4.26400 46.87000
H  6.80700 0.12800 42.82600
H  8.85200 2.13100 46.24100
H  8.67100 3.23400 44.81700
H  10.04600 2.05900 45.01600
Mg 35.20300 48.87500 24.93200
C  35.29100 47.35300 28.06500
C  33.84000 51.64100 26.45300
C  35.09600 50.32100 21.84100
C  36.21300 45.92300 23.48400
N  34.70900 49.43600 27.06500
C  34.81300 48.67600 28.13600
C  34.38000 49.37600 29.38600
C  34.01100 50.80600 28.87000
C  34.19600 50.61900 27.36200
C  32.65500 51.28600 29.28600
C  35.48700 49.47300 30.50500
C  34.97900 48.86900 31.90800
H  34.71200 49.90200 33.01600
N  34.52100 50.77100 24.25300
C  33.96900 51.72800 25.06700
C  33.75700 52.84500 24.18600
C  34.11900 52.56100 22.83400
C  34.57800 51.18600 22.92600
C  33.08300 54.12000 24.70700
C  33.87600 53.33200 21.53400
O  34.14900 52.90600 20.41400
C  33.22800 54.67800 21.59700
N  35.60000 48.15500 22.92700
C  35.53400 48.98800 21.82800
C  36.00900 48.22600 20.50300
C  36.57600 46.95500 21.12000
C  36.05600 46.96500 22.61600
C  35.05200 47.93600 19.47600
C  38.13600 46.78000 21.05300
C  38.61700 45.33500 20.86700
N  35.55700 47.00900 25.60200
C  35.89900 45.86500 24.82900
C  36.27500 44.84800 25.83100
C  35.98200 45.39500 27.07300
C  35.52000 46.71700 26.87700
C  36.80400 43.43300 25.65300
C  36.03500 45.05600 28.44700
O  36.40300 44.07500 29.08900
C  35.51300 46.29500 29.12300
C  34.22900 45.90400 29.84200
O  33.22400 45.53500 29.22400
O  34.31700 45.82600 31.19400
C  33.16700 45.34300 32.00200
H  33.65800 52.58300 26.97400
H  35.17000 50.68000 20.81200
H  36.78600 45.05500 23.15000
H  33.43200 49.03000 29.79900
H  34.68700 51.62800 29.10300
H  31.87800 51.08400 28.54900
H  32.63500 52.36100 29.46700
H  32.31800 50.76800 30.18400
H  35.68100 50.53800 30.63400
H  36.44400 49.03700 30.22100
H  35.68900 48.09400 32.19700
H  34.08800 48.26000 31.75300
H  32.26700 54.47000 24.07500
H  33.78800 54.95100 24.74600
H  32.66300 54.06800 25.71100
H  33.90400 55.28800 22.19700
H  32.18800 54.48500 21.85900
H  33.22600 54.96300 20.54500
H  36.86400 48.73800 20.06200
H  35.99800 46.12700 20.71100
H  35.25100 48.69900 18.72300
H  34.01300 48.00900 19.79700
H  35.27700 47.02200 18.92700
H  38.58200 47.10600 21.99300
H  38.55200 47.40400 20.26100
H  37.88700 44.64400 20.44400
H  38.83600 44.92900 21.85400
H  39.49500 45.25800 20.22600
H  37.55300 43.23200 26.41800
H  37.12700 43.33300 24.61700
H  35.93000 42.84400 25.93000
H  36.28700 46.52100 29.85700
H  33.27100 44.31100 32.33500
H  32.20600 45.45000 31.50000
H  33.18400 45.92800 32.92200

