158

Mg 35.45400 1.61000 28.85300
C  33.39400 2.78900 31.35700
C  38.09300 1.28500 31.06100
C  37.59300 0.70900 26.23600
C  32.86000 2.01300 26.56400
N  35.71300 2.01500 30.90900
C  34.69100 2.45300 31.76400
C  35.20200 2.45700 33.18200
C  36.70500 2.17700 33.06000
C  36.89700 1.81200 31.56300
C  37.52900 3.42500 33.32200
C  34.48000 1.41400 34.05500
C  34.20600 1.86400 35.49200
H  34.81200 3.14800 36.02400
N  37.47400 0.85500 28.70100
C  38.38600 0.85500 29.69700
C  39.61500 0.43000 29.14700
C  39.55700 0.30100 27.75700
C  38.14000 0.60200 27.48000
C  40.78700 0.13400 29.96100
C  40.71500 -0.06300 26.73400
O  40.46900 -0.11600 25.51800
C  42.12300 -0.12600 27.12300
N  35.28000 1.35400 26.71500
C  36.29200 1.11700 25.86700
C  35.83400 1.30200 24.43900
C  34.22700 1.29100 24.60100
C  34.05400 1.57300 26.06900
C  36.34200 2.68100 23.82100
C  33.41100 0.01800 24.08200
C  32.85000 -0.98200 25.06600
N  33.51300 2.26000 28.91100
C  32.55200 2.37600 27.88300
C  31.26400 2.86800 28.42800
C  31.55300 3.05300 29.83400
C  32.92400 2.64400 30.02800
C  30.00000 3.05200 27.70400
C  30.99300 3.41700 31.10100
O  29.83200 3.75700 31.33400
C  32.22200 3.25400 32.19700
C  32.32700 4.65600 32.73800
O  32.94800 5.58600 32.19000
O  31.48700 4.76800 33.81200
C  31.50800 6.02900 34.56100
H  39.00800 1.27200 31.65700
H  38.31500 0.56300 25.43000
H  31.98200 2.09100 25.91800
H  35.10300 3.50800 33.45500
H  37.08200 1.51400 33.83900
H  37.05400 4.36100 33.02500
H  38.45700 3.46600 32.75200
H  37.70500 3.60900 34.38200
H  34.98500 0.44800 34.07200
H  33.50000 1.16500 33.64900
H  34.55200 1.05600 36.13600
H  33.15000 1.83100 35.76000
H  40.53200 -0.22700 30.95700
H  41.40500 1.03200 29.94800
H  41.36600 -0.62400 29.43400
H  42.43800 -1.05400 27.60100
H  42.23200 0.75600 27.75300
H  42.68700 0.10200 26.21900
H  36.12200 0.48500 23.77800
H  33.79600 2.15700 24.09800
H  36.89900 2.36400 22.93900
H  37.05900 3.09500 24.53000
H  35.64100 3.48700 23.60300
H  34.06700 -0.52100 23.39900
H  32.70900 0.41500 23.34900
H  32.79700 -0.48100 26.03300
H  33.32700 -1.93600 25.29000
H  31.83500 -1.25200 24.77600
H  29.14500 2.42700 27.96100
H  30.09300 2.95900 26.62200
H  29.65000 4.05200 27.95900
H  31.80200 2.61700 32.97500
H  32.35800 6.68300 34.36400
H  31.50100 5.99600 35.65000
H  30.66300 6.62900 34.22400
Mg 9.13600 47.46100 25.51200
C  7.16000 47.28600 28.32100
C  11.72000 48.76600 27.44500
C  10.97100 47.88100 22.73400
C  6.31500 46.73500 23.45800
N  9.34400 47.93400 27.65900
C  8.44100 47.68000 28.68600
C  9.03900 48.08200 30.04100
C  10.32000 48.90600 29.63500
C  10.48600 48.55000 28.16800
C  10.26500 50.43400 29.77800
C  9.27900 46.91900 31.03500
C  8.53200 46.92700 32.36100
H  8.88800 45.87100 33.37700
N  11.06400 48.13700 25.17700
C  12.01200 48.44300 26.12400
C  13.33100 48.48400 25.52300
C  13.09000 48.21800 24.12100
C  11.60900 48.13300 23.98600
C  14.59000 48.72000 26.32000
C  14.10100 48.01100 23.03100
O  13.78600 47.80700 21.87400
C  15.56200 48.03900 23.34400
N  8.56600 47.67100 23.29000
C  9.64300 47.65700 22.43900
C  9.21100 47.15900 21.05600
C  7.70400 46.84900 21.30000
C  7.45300 47.04900 22.74600
C  9.36600 48.28700 19.97200
C  7.35600 45.33300 20.92700
C  6.15700 45.13400 20.03500
N  7.15800 47.06100 25.72500
C  6.09600 46.79500 24.82400
C  4.88400 46.63500 25.56800
C  5.26100 46.71500 26.93600
C  6.64400 46.99900 26.95900
C  3.57400 46.40900 25.06600
C  4.75400 46.62800 28.28500
O  3.68800 46.20600 28.70400
C  6.03600 46.83600 29.27700
C  6.18900 45.45200 29.84800
O  6.85100 44.54200 29.43500
O  5.54100 45.51200 31.06300
C  5.66200 44.42300 31.96500
H  12.51000 49.08600 28.12700
H  11.55000 47.98600 21.81400
H  5.47800 46.36600 22.86200
H  8.29900 48.72000 30.52500
H  11.13000 48.53000 30.25900
H  9.48900 50.63200 30.51700
H  10.13600 50.97600 28.84100
H  11.21700 50.72200 30.22400
H  10.34000 46.86700 31.27700
H  9.07000 45.99900 30.48900
H  7.46400 46.85200 32.15500
H  8.59500 47.94300 32.75200
H  14.48200 48.73600 27.40500
H  14.97400 49.72200 26.13000
H  15.30000 47.95600 26.00300
H  16.15800 48.06500 22.43200
H  15.65500 47.05500 23.80500
H  15.87800 48.89700 23.93700
H  9.74300 46.22200 20.89100
H  7.08300 47.56500 20.76300
H  8.91600 47.87200 19.07000
H  10.43200 48.45700 19.81800
H  8.92000 49.25200 20.21000
H  7.30600 44.70000 21.81200
H  8.16800 44.92000 20.32800
H  6.51600 44.86500 19.04200
H  5.49200 45.99500 19.97900
H  5.60100 44.36800 20.57600
H  3.48800 45.85200 24.13300
H  3.16800 47.38000 24.78400
H  2.95200 45.95400 25.83600
H  5.83500 47.57100 30.05700
H  6.22400 44.72100 32.85100
H  6.21700 43.59800 31.51700
H  4.76100 43.91900 32.31600

