158

Mg 2.37100 -1.55600 44.97200
C  5.80600 -1.15000 44.06200
C  1.65500 1.07600 42.82800
C  -0.78900 -2.48900 44.93400
C  3.25800 -4.69900 46.35200
N  3.59000 -0.18000 43.71900
C  5.00600 -0.19600 43.49300
C  5.34300 0.80900 42.43900
C  4.06100 1.71400 42.37000
C  3.03000 0.81400 43.03100
C  4.18400 3.10200 43.08900
C  5.82100 0.12000 41.11200
C  5.02000 -0.18000 39.83000
H  5.17100 0.79500 38.61900
N  0.60900 -0.70000 44.16600
C  0.53100 0.38000 43.34400
C  -0.87700 0.64100 43.06000
C  -1.72000 -0.34500 43.73200
C  -0.64500 -1.24600 44.30500
C  -1.32100 1.83700 42.26000
C  -3.27700 -0.35500 43.69600
O  -3.98100 0.56600 43.21500
C  -3.90100 -1.56400 44.23300
N  1.34900 -3.33300 45.41600
C  0.04000 -3.44800 45.43600
C  -0.58000 -4.76500 45.97000
C  0.77100 -5.45800 46.49800
C  1.86700 -4.48000 46.07200
C  -1.51300 -4.55600 47.13400
C  1.04200 -6.87700 45.92600
C  0.72800 -7.96500 46.92800
N  4.15800 -2.69200 45.30800
C  4.32300 -3.88800 45.95400
C  5.79900 -4.22300 46.01000
C  6.37000 -3.08100 45.33200
C  5.32000 -2.21400 44.94100
C  6.46000 -5.47600 46.55500
C  7.62000 -2.56400 44.90200
O  8.75800 -2.93300 45.11800
C  7.34100 -1.23200 44.12200
C  8.07300 -0.13000 44.87200
O  7.89800 0.21200 45.98700
O  8.78000 0.63500 43.93000
C  9.46600 1.79600 44.56600
H  1.45600 2.06600 42.41400
H  -1.73800 -3.00600 44.78300
H  3.46600 -5.66200 46.82300
H  6.12400 1.37700 42.94500
H  3.79100 1.85400 41.32300
H  5.20400 3.44500 43.26400
H  3.57800 3.19700 43.99000
H  3.66000 3.66200 42.31600
H  6.13600 -0.89900 41.33500
H  6.63900 0.75400 40.76900
H  3.98400 -0.18700 40.16900
H  5.21100 -1.21400 39.53900
H  -1.68700 1.70500 41.24200
H  -0.48900 2.54200 42.25200
H  -2.03200 2.35500 42.90300
H  -3.49400 -2.40900 43.67800
H  -4.98200 -1.41900 44.22300
H  -3.65300 -1.67700 45.28900
H  -1.08900 -5.40500 45.24900
H  0.76800 -5.45200 47.58800
H  -0.98800 -4.34400 48.06500
H  -2.12000 -5.44800 47.29200
H  -2.18800 -3.71700 46.96800
H  2.06100 -6.87100 45.54000
H  0.28500 -6.98200 45.14900
H  0.40800 -7.54000 47.88000
H  1.58100 -8.62600 47.07800
H  -0.05400 -8.60000 46.51300
H  7.21600 -5.83600 45.85800
H  5.67100 -6.21600 46.69200
H  6.92300 -5.33000 47.53000
H  7.86000 -1.35000 43.17100
H  8.87400 2.44600 45.21100
H  9.93500 2.36000 43.75900
H  10.19600 1.51500 45.32500
Mg 25.71000 -8.25000 48.72800
C  27.33000 -5.72900 47.00600
C  23.11200 -8.07200 46.59100
C  24.58900 -11.32100 49.97300
C  28.83300 -8.95100 50.24900
N  25.42400 -7.23400 46.80700
C  26.11900 -6.13400 46.41200
C  25.34700 -5.42000 45.30200
C  23.89300 -5.99900 45.33600
C  24.14100 -7.09200 46.41300
C  22.74900 -5.05800 45.81300
C  26.07700 -5.45200 43.89800
C  26.44700 -4.11200 43.31400
H  25.59800 -3.76000 42.01000
N  23.99900 -9.40000 48.48800
C  22.99900 -9.08700 47.55700
C  21.86300 -9.92600 47.82100
C  22.23700 -10.65000 49.02100
C  23.68500 -10.51000 49.19600
C  20.64400 -9.92100 47.01200
C  21.30500 -11.52600 49.75700
O  20.10900 -11.60800 49.46600
C  21.78400 -12.29600 50.92300
N  26.60800 -9.83900 50.02000
C  25.95600 -11.03500 50.29800
C  26.94300 -12.07800 51.00900
C  28.13600 -11.09500 51.31600
C  27.88500 -9.94800 50.41800
C  26.27600 -12.65300 52.33400
C  29.51100 -11.66700 51.07500
C  30.40500 -11.67800 52.24400
N  27.64100 -7.42600 48.78600
C  28.81000 -7.76900 49.46200
C  29.92600 -6.86100 49.15200
C  29.30200 -5.89900 48.33900
C  27.96800 -6.35600 48.08700
C  31.36300 -6.95700 49.76400
C  29.43300 -4.64200 47.61000
O  30.39000 -3.84400 47.51900
C  28.13900 -4.53300 46.78700
C  27.50400 -3.21100 46.99800
O  26.74800 -2.88000 47.90200
O  27.92600 -2.37400 45.99400
C  27.56900 -1.00500 46.07300
H  22.24300 -7.91100 45.95000
H  24.24800 -12.32500 50.23800
H  29.76100 -9.04200 50.81700
H  25.24400 -4.38000 45.61300
H  23.62500 -6.48300 44.39800
H  22.05700 -4.95600 44.97700
H  23.22200 -4.12800 46.12700
H  22.22000 -5.58600 46.60700
H  25.40100 -5.90500 43.17300
H  26.95200 -6.09200 44.01300
H  27.49600 -4.25400 43.05300
H  26.34500 -3.31800 44.05300
H  20.24500 -10.90100 46.75000
H  20.94100 -9.53900 46.03500
H  19.80000 -9.32500 47.36000
H  22.33300 -13.20300 50.66900
H  21.04100 -12.73100 51.59200
H  22.42900 -11.65100 51.51800
H  27.13900 -12.92800 50.35500
H  27.96100 -10.66700 52.30300
H  25.90200 -13.64800 52.09200
H  25.52000 -11.99700 52.76500
H  27.13200 -12.79700 52.99300
H  30.04300 -11.13200 50.28800
H  29.39200 -12.69600 50.73500
H  31.31700 -11.19700 51.89000
H  30.54700 -12.65500 52.70500
H  29.93100 -11.11000 53.04400
H  31.27200 -7.11400 50.83900
H  31.76200 -5.95600 49.60100
H  32.01900 -7.70300 49.31400
H  28.58300 -4.58200 45.79200
H  28.05800 -0.43200 45.28500
H  27.80600 -0.50300 47.01100
H  26.51800 -0.78900 45.88100

