158

Mg 27.15200 51.05800 26.10600
C  25.11600 52.19000 28.84000
C  29.48100 49.96300 28.40800
C  29.09400 50.22500 23.61400
C  24.87400 52.49600 23.96000
N  27.09800 50.89000 28.28600
C  26.15900 51.37600 29.27500
C  26.51000 50.94800 30.62900
C  28.02800 50.55100 30.51100
C  28.22300 50.48200 28.94600
C  29.07200 51.43600 31.29300
C  25.61300 49.77800 31.06300
C  25.18000 49.58600 32.58500
H  25.82900 50.38100 33.72300
N  28.99500 50.08200 25.99800
C  29.77000 49.63700 27.03900
C  30.98300 48.97800 26.56800
C  30.91000 49.09800 25.14600
C  29.65700 49.87700 24.85100
C  31.95100 48.26500 27.43700
C  31.82200 48.57600 24.04500
O  31.70100 48.86800 22.85000
C  32.88900 47.63100 24.45700
N  26.89700 51.20200 24.07500
C  27.88200 50.86200 23.23500
C  27.50800 50.93800 21.77200
C  26.12800 51.78000 21.84800
C  25.87600 51.76500 23.34800
C  28.72400 51.54800 21.04800
C  25.06300 51.12900 21.05000
C  24.26300 52.12100 20.14700
N  25.45200 52.19800 26.29200
C  24.55100 52.70300 25.33000
C  23.50100 53.46100 25.91500
C  23.69900 53.32600 27.29000
C  24.87500 52.53100 27.50200
C  22.46900 54.18900 25.22700
C  23.26500 53.78800 28.61600
O  22.37700 54.55000 28.90500
C  24.06500 52.90600 29.68300
C  24.71000 53.85600 30.67200
O  25.69100 54.44100 30.37400
O  24.04000 53.83900 31.87200
C  24.34000 54.94000 32.88000
H  30.24900 49.58000 29.08400
H  29.73200 49.93300 22.77700
H  24.26600 53.05900 23.24800
H  26.64500 51.81000 31.28300
H  28.11600 49.56100 30.95800
H  28.57500 52.39000 31.46600
H  29.86400 51.59800 30.56200
H  29.52000 51.02900 32.19900
H  26.04200 48.82600 30.75100
H  24.66600 49.92600 30.54300
H  25.30900 48.56900 32.95500
H  24.12900 49.86700 32.65100
H  31.89100 47.19800 27.22600
H  31.95300 48.41900 28.51600
H  32.91700 48.65500 27.11600
H  33.42600 47.47300 23.52200
H  32.38200 46.76300 24.87900
H  33.52200 48.04700 25.24100
H  27.45800 49.90200 21.43600
H  26.21800 52.85500 21.69700
H  28.36400 52.46700 20.58700
H  29.12300 50.81800 20.34400
H  29.50300 51.94300 21.70000
H  24.26500 50.64900 21.61500
H  25.38300 50.36900 20.33700
H  24.30500 51.80100 19.10600
H  24.76600 53.08700 20.17400
H  23.26800 52.15400 20.59100
H  21.65000 54.47600 25.88500
H  22.09400 53.60100 24.38900
H  22.91000 55.07300 24.76500
H  23.52100 52.14800 30.24600
H  24.70800 55.79100 32.30700
H  25.14400 54.65200 33.55600
H  23.48200 55.32100 33.43300
Mg 4.89100 55.07100 41.53000
C  3.72600 51.73100 41.50700
C  7.64400 54.06700 39.70800
C  5.57100 58.42500 41.01400
C  1.73600 55.97600 42.93300
N  5.53100 53.14900 40.62100
C  4.93600 51.92000 40.80800
C  5.69100 50.86200 39.95700
C  7.05400 51.56000 39.70900
C  6.77500 53.02300 40.08300
C  8.28600 51.01900 40.49200
C  4.95100 50.43300 38.62700
C  4.94200 48.91500 38.26800
H  5.55800 48.41300 36.99600
N  6.39800 56.12500 40.55200
C  7.46700 55.47300 39.90400
C  8.41400 56.56100 39.36400
C  7.79800 57.78400 39.77200
C  6.54200 57.49400 40.49200
C  9.57900 56.18200 38.42700
C  8.45000 59.18000 39.43800
O  9.52900 59.22700 38.80500
C  7.82900 60.53900 39.76900
N  3.77500 56.91700 41.87000
C  4.32400 58.21400 41.66500
C  3.45600 59.36400 42.12200
C  2.13200 58.47700 42.50200
C  2.59700 57.01200 42.53400
C  3.97500 60.38300 43.22400
C  0.98700 58.62700 41.46900
C  -0.05900 59.83200 41.74100
N  3.12300 54.07100 42.17400
C  2.03400 54.60600 42.80600
C  1.19600 53.48400 43.25200
C  1.88600 52.37300 42.74900
C  2.98700 52.73900 42.06700
C  -0.03100 53.61600 43.95600
C  1.75700 50.89700 42.65900
O  0.99000 50.13300 43.20000
C  3.09000 50.41100 42.00200
C  2.97000 49.33200 41.02500
O  2.12100 49.33700 40.11500
O  3.81100 48.34800 41.40200
C  3.63800 46.99600 40.95200
H  8.51600 53.68800 39.17100
H  5.89400 59.43100 40.73900
H  0.78300 56.25200 43.39000
H  5.86100 49.96000 40.54500
H  7.20100 51.53600 38.63000
H  8.80700 50.45700 39.71700
H  8.04700 50.31300 41.28800
H  8.98000 51.77300 40.86300
H  5.41900 51.04000 37.85200
H  3.94600 50.85200 38.59200
H  3.96800 48.44100 38.38900
H  5.55700 48.44700 39.03700
H  9.15200 55.63600 37.58600
H  10.36700 55.63200 38.94100
H  10.06300 57.08800 38.06200
H  8.40200 61.41600 39.46800
H  7.80700 60.58800 40.85800
H  6.90700 60.69300 39.20900
H  3.36700 59.94800 41.20600
H  1.69600 58.67400 43.48100
H  3.11000 60.65000 43.83200
H  4.37000 61.27900 42.74700
H  4.69600 59.94300 43.91400
H  0.25900 57.81700 41.51200
H  1.33900 58.88900 40.47100
H  0.08300 60.09600 42.78900
H  -1.03300 59.39700 41.51500
H  0.13600 60.72500 41.14600
H  -0.72800 53.95400 43.18900
H  -0.10000 54.33300 44.77400
H  -0.45400 52.69100 44.35000
H  3.59600 49.91700 42.83200
H  2.82900 46.43000 41.41600
H  4.59700 46.48000 40.99200
H  3.37000 47.05400 39.89700

