158

Mg 29.06400 57.05900 41.48500
C  26.99500 54.56500 40.44100
C  31.81400 55.19500 40.26600
C  31.13100 59.91700 41.76200
C  26.44900 59.06400 42.33200
N  29.34100 55.04900 40.56500
C  28.31300 54.20200 40.21600
C  28.89600 52.98200 39.48800
C  30.47100 53.10400 39.69100
C  30.57600 54.51100 40.20100
C  31.08200 52.02600 40.59700
C  28.43100 52.79200 38.07500
C  28.80200 53.95200 37.05200
H  27.67800 54.69000 36.32900
N  31.16200 57.45000 41.14800
C  32.09800 56.49000 40.71700
C  33.40800 57.19700 40.69000
C  33.22700 58.49500 41.13800
C  31.75800 58.66100 41.40700
C  34.64800 56.54000 40.06200
C  34.42800 59.48400 41.41300
O  35.62500 59.25300 41.12800
C  34.17000 60.88500 42.03100
N  28.83800 59.25100 41.76900
C  29.78700 60.17600 42.01300
C  29.16600 61.49600 42.45300
C  27.58900 61.19900 42.45400
C  27.62300 59.68600 42.18800
C  29.65900 62.12900 43.76100
C  26.72400 61.96800 41.35400
C  25.78400 63.02200 42.02500
N  27.14500 56.90900 41.38500
C  26.18700 57.72900 41.91100
C  24.83600 57.11500 41.69600
C  25.13900 55.84100 41.15100
C  26.54000 55.76200 41.03600
C  23.51500 57.73500 42.06300
C  24.62500 54.59900 40.75800
O  23.47800 54.19000 40.78100
C  25.81100 53.67000 40.28000
C  25.76400 52.35200 41.07000
O  26.19600 52.06000 42.20100
O  25.26700 51.30500 40.27700
C  24.86100 50.07100 40.93100
H  32.69700 54.58400 40.06800
H  31.74900 60.81700 41.80300
H  25.56900 59.60400 42.68700
H  28.52000 52.17000 40.11100
H  31.00200 53.06100 38.74100
H  31.61700 52.42800 41.45700
H  31.72400 51.43300 39.94600
H  30.32700 51.37900 41.04400
H  27.36100 52.63000 38.20200
H  28.94100 51.85600 37.84300
H  29.51700 53.59200 36.31200
H  29.24000 54.68500 37.73000
H  34.85000 56.92800 39.06300
H  34.55300 55.45800 39.96700
H  35.51800 56.72900 40.69100
H  33.72000 61.59000 41.33200
H  35.18500 61.14100 42.33400
H  33.50000 60.66700 42.86300
H  29.52000 62.12500 41.63600
H  27.29100 61.36200 43.48900
H  28.94100 62.20200 44.57800
H  29.83700 63.16400 43.46900
H  30.59100 61.72800 44.16000
H  26.13100 61.29900 40.73100
H  27.44800 62.43300 40.68600
H  25.90700 63.00300 43.10800
H  24.76200 62.72000 41.79800
H  26.11200 64.00700 41.69200
H  22.71400 57.01400 41.89800
H  23.53000 58.61000 41.41400
H  23.43000 57.91500 43.13400
H  25.76700 53.47500 39.20800
H  24.26000 49.38700 40.33300
H  24.35200 50.11600 41.89300
H  25.69500 49.39100 41.10800
Mg 36.28700 49.77500 24.72500
C  36.48500 47.85200 27.74500
C  34.82100 52.17500 26.48200
C  35.31600 51.01800 21.70700
C  37.44700 46.90500 23.06100
N  35.57000 49.90500 26.94900
C  35.90800 49.12400 27.93300
C  35.71900 49.84100 29.34000
C  35.04000 51.25000 28.82500
C  35.23500 51.15200 27.35700
C  33.55300 51.50500 29.23400
C  37.06900 50.15900 30.09800
C  37.06400 49.88000 31.61500
H  35.67600 49.85000 32.37000
N  35.29300 51.44200 24.11700
C  34.81500 52.31000 25.01100
C  34.20800 53.39800 24.30600
C  34.38800 53.19800 22.87600
C  34.98200 51.84200 22.85800
C  33.52900 54.60300 25.02500
C  33.93400 54.09000 21.72600
O  33.92900 53.58800 20.64500
C  33.35400 55.51900 21.95400
N  36.12700 48.95300 22.67900
C  35.72800 49.66700 21.66100
C  35.98900 48.98400 20.31400
C  36.92000 47.78400 20.74400
C  36.84800 47.85800 22.22800
C  34.66800 48.61300 19.52300
C  38.43200 47.92500 20.19400
C  39.54000 48.70700 20.98200
N  37.04100 47.83300 25.22800
C  37.50700 46.79400 24.48300
C  37.98000 45.72700 25.34800
C  37.53500 46.08200 26.58500
C  36.94100 47.30500 26.48600
C  38.56200 44.42300 24.87900
C  37.30700 45.65300 27.96000
O  37.58700 44.52600 28.38000
C  36.74900 46.80200 28.79300
C  35.52400 46.36300 29.49000
O  34.46900 46.00300 29.01000
O  35.87400 46.36900 30.80200
C  34.91500 45.92900 31.79500
H  34.33200 52.97600 27.04100
H  35.00000 51.56800 20.81800
H  37.70700 46.03400 22.45600
H  35.00000 49.19400 29.84200
H  35.61500 52.12700 29.12400
H  33.30900 50.95900 30.14500
H  32.83600 51.20400 28.47100
H  33.40700 52.56400 29.44600
H  37.36200 51.18200 29.86600
H  37.79400 49.48400 29.64200
H  37.66500 50.67400 32.05700
H  37.65000 48.97800 31.79000
H  34.13100 55.48500 24.80700
H  33.41600 54.52900 26.10600
H  32.54600 54.83200 24.61600
H  33.32300 56.00900 20.98100
H  33.86100 56.18400 22.65300
H  32.31400 55.46000 22.27400
H  36.62000 49.66000 19.73900
H  36.50600 46.80000 20.52300
H  34.76200 47.58700 19.16600
H  34.46200 49.25800 18.66900
H  33.78100 48.68700 20.15200
H  38.43400 48.14400 19.12600
H  38.70100 46.87400 20.09600
H  39.02200 49.27400 21.75500
H  39.97300 49.31900 20.19100
H  40.27700 47.96900 21.29900
H  39.38400 44.09600 25.51600
H  38.89100 44.37600 23.84100
H  37.79500 43.64800 24.84900
H  37.52200 47.08400 29.50700
H  34.98800 44.87000 32.04100
H  33.96400 46.34200 31.45600
H  35.23200 46.34400 32.75100

