158

Mg 35.16500 3.28200 30.41500
C  32.76500 4.17400 32.74100
C  37.52600 3.15400 33.09000
C  37.75200 2.94400 28.34200
C  32.99300 3.72700 27.84800
N  35.16500 3.65500 32.66900
C  34.00600 3.96200 33.34800
C  34.27100 3.83100 34.87600
C  35.83200 3.75000 34.98300
C  36.20200 3.49400 33.49500
C  36.58900 5.05000 35.49100
C  33.53700 2.57500 35.50500
C  32.94300 2.74100 36.87000
H  33.51900 3.74500 37.90600
N  37.21800 2.77100 30.69700
C  38.01800 2.79600 31.81100
C  39.40900 2.44800 31.47300
C  39.49600 2.33000 30.04600
C  38.13300 2.67500 29.65000
C  40.48200 2.33600 32.49500
C  40.68200 1.98100 29.12100
O  40.64200 1.94400 27.87600
C  42.05600 1.76900 29.63200
N  35.35000 3.14500 28.39400
C  36.52200 3.17800 27.72400
C  36.28000 3.24200 26.16800
C  34.65600 3.08500 26.08600
C  34.29000 3.26400 27.53200
C  36.74600 4.56600 25.62200
C  34.16800 1.81100 25.45500
C  32.91800 1.88300 24.63600
N  33.26100 3.81700 30.30300
C  32.46700 3.94700 29.16700
C  31.16000 4.34500 29.57300
C  31.20000 4.38700 31.00800
C  32.52000 4.12800 31.41400
C  30.06900 4.54100 28.60900
C  30.47900 4.70300 32.19800
O  29.33000 5.06800 32.24600
C  31.40100 4.45400 33.40100
C  31.42500 5.71900 34.25400
O  31.93000 6.80200 33.94700
O  30.73900 5.48800 35.43200
C  30.81100 6.63700 36.36200
H  38.33500 3.17400 33.82300
H  38.54600 2.92000 27.59200
H  32.37500 3.74400 26.94800
H  33.83800 4.68100 35.40400
H  36.23900 2.95200 35.60400
H  35.88200 5.75400 35.93000
H  37.03400 5.58500 34.65200
H  37.24300 4.73300 36.30400
H  34.24500 1.74600 35.50400
H  32.67400 2.30600 34.89700
H  33.09900 1.79200 37.38300
H  31.87200 2.92900 36.78600
H  41.21700 1.54600 32.34100
H  40.00100 1.90700 33.37400
H  40.91500 3.31000 32.72400
H  42.24200 2.57500 30.34100
H  42.87600 1.67600 28.91900
H  41.94900 0.84700 30.20300
H  36.86400 2.38000 25.84700
H  34.30600 3.80800 25.34800
H  37.19600 5.24700 26.34500
H  35.92300 5.10600 25.15300
H  37.47500 4.41100 24.82700
H  34.03400 1.03400 26.20800
H  34.89800 1.38400 24.76800
H  32.12200 1.28500 25.08100
H  33.19800 1.64600 23.60900
H  32.49500 2.88800 24.64500
H  29.63100 3.54300 28.59600
H  30.40500 4.84700 27.61800
H  29.35800 5.26400 29.00900
H  31.11100 3.57400 33.97600
H  30.64400 7.55700 35.80200
H  31.83000 6.66400 36.74700
H  30.06600 6.36900 37.11200
Mg 53.50600 23.99700 45.24700
C  50.87700 26.36900 44.73000
C  51.32700 21.56800 44.61900
C  56.18300 22.20500 44.54100
C  55.64000 26.96400 45.39700
N  51.39300 23.99800 44.69200
C  50.52800 25.04800 44.45200
C  49.16100 24.56000 43.96900
C  49.18300 23.16700 44.65700
C  50.72100 22.82400 44.59800
C  48.64000 23.03400 46.15200
C  49.04800 24.52300 42.37900
C  47.67800 24.09300 41.79000
H  47.51600 24.06600 40.24800
N  53.78200 22.09700 44.70000
C  52.72200 21.21500 44.63500
C  53.25800 19.90900 44.40000
C  54.73400 19.99000 44.39000
C  54.99100 21.43700 44.53900
C  52.43300 18.64800 44.25000
C  55.68300 18.86800 44.36400
O  55.28100 17.74400 44.31900
C  57.13900 19.04000 44.30400
N  55.56600 24.54600 44.91200
C  56.47300 23.53300 44.71300
C  57.89200 24.12000 44.88700
C  57.68500 25.65800 44.72600
C  56.17800 25.76300 45.05000
C  58.58000 23.72900 46.21800
C  58.00800 26.33200 43.32300
C  56.78500 26.64600 42.40200
N  53.28200 26.21700 45.40600
C  54.23400 27.18000 45.58000
C  53.52600 28.47100 45.58800
C  52.22000 28.20700 45.25000
C  52.12500 26.80500 45.12600
C  54.24800 29.76600 45.70600
C  50.95600 28.77500 44.85800
O  50.57800 29.93300 44.82300
C  50.04800 27.61400 44.57100
C  49.39800 27.79000 43.18800
O  50.01900 27.76500 42.13200
O  48.03200 27.94500 43.36200
C  47.36300 28.04500 42.08400
H  50.68300 20.69100 44.70600
H  57.07900 21.60600 44.36600
H  56.25200 27.86300 45.48900
H  48.39000 25.22400 44.36100
H  48.73700 22.37200 44.05700
H  49.26000 22.45400 46.83600
H  47.59400 22.72900 46.12900
H  48.62500 24.00600 46.64600
H  49.72900 23.74200 42.04100
H  49.45900 25.41800 41.91000
H  46.87800 24.74000 42.14800
H  47.40600 23.10300 42.15900
H  51.41500 18.76000 44.62300
H  52.86600 17.80100 44.78300
H  52.35400 18.42900 43.18500
H  57.67600 18.19400 44.73400
H  57.25300 19.81800 45.05800
H  57.54600 19.24300 43.31300
H  58.56100 23.85600 44.06900
H  58.34800 26.08900 45.47600
H  59.03700 24.59200 46.70300
H  59.44300 23.09100 46.02900
H  57.86800 23.23900 46.88100
H  58.72800 25.72000 42.78100
H  58.65400 27.20000 43.45000
H  55.82000 26.14800 42.49300
H  56.95500 26.71600 41.32800
H  56.54400 27.67600 42.66500
H  54.51400 30.14400 44.71900
H  55.16200 29.71500 46.29700
H  53.51600 30.40800 46.19600
H  49.33000 27.56100 45.38900
H  46.39500 28.41000 42.42800
H  47.17800 27.11900 41.54000
H  47.73800 28.73200 41.32600

