158

Mg 49.19600 46.47600 42.73200
C  45.87200 47.00500 41.57600
C  49.12700 43.38200 41.26200
C  52.51500 46.32200 43.35300
C  49.16500 49.92900 43.68800
N  47.74600 45.40600 41.45400
C  46.47200 45.80200 41.13800
C  45.75900 44.70200 40.31800
C  46.57300 43.44600 40.63600
C  47.92000 44.06500 41.13200
C  45.94700 42.57600 41.72000
C  45.66100 45.13100 38.77700
C  44.44200 44.79100 37.91300
H  44.63300 44.12500 36.56000
N  50.65400 45.05300 42.38200
C  50.37500 43.78300 41.78400
C  51.60700 43.05100 41.75300
C  52.57500 43.86400 42.42500
C  51.90200 45.10700 42.79500
C  51.74300 41.70000 41.12400
C  54.03100 43.48800 42.73000
O  54.45300 42.41300 42.36200
C  55.05800 44.39200 43.43300
N  50.60700 47.99900 43.41800
C  51.93500 47.67500 43.62900
C  52.70700 48.90000 44.06000
C  51.61000 50.00400 44.18300
C  50.34900 49.24900 43.80900
C  53.46800 48.63100 45.36300
C  51.84100 51.29900 43.23700
C  51.98900 52.54700 44.05300
N  47.79900 48.10000 42.82900
C  47.94200 49.39300 43.22600
C  46.65500 50.09700 43.22800
C  45.79000 49.15700 42.57400
C  46.54100 47.94300 42.32300
C  46.39500 51.43500 43.67500
C  44.45900 48.95400 42.08200
O  43.45300 49.66800 42.17600
C  44.46600 47.53700 41.33000
C  43.33700 46.66300 41.81000
O  43.35300 45.86700 42.72600
O  42.19300 46.99900 41.10900
C  41.00300 46.43300 41.65100
H  48.98800 42.33700 40.97800
H  53.56600 46.43000 43.62700
H  49.28600 50.94200 44.07900
H  44.73500 44.53500 40.65300
H  46.80800 42.88900 39.73000
H  44.97600 42.92100 42.07700
H  46.58200 42.68300 42.59900
H  45.96800 41.50000 41.55000
H  46.58500 44.75500 38.33700
H  45.76800 46.21300 38.70000
H  43.86000 45.70600 37.80400
H  43.86400 44.00600 38.39900
H  52.49100 41.06000 41.59100
H  51.95800 41.78800 40.05900
H  50.76400 41.22000 41.12800
H  54.65600 44.81100 44.35600
H  55.30600 45.19600 42.74000
H  55.91300 43.73000 43.56800
H  53.48400 49.18600 43.35100
H  51.43900 50.35700 45.20000
H  54.54800 48.66700 45.21400
H  53.18400 47.63800 45.70900
H  53.12900 49.34800 46.11100
H  50.96900 51.48700 42.61100
H  52.69800 51.23100 42.56800
H  52.55900 52.30700 44.95100
H  51.04400 53.01000 44.33800
H  52.55000 53.25500 43.44400
H  47.11200 52.09300 43.18400
H  46.56900 51.43400 44.75100
H  45.35300 51.69900 43.49600
H  44.25700 47.74700 40.28100
H  40.47700 46.09000 40.75900
H  40.40200 47.10700 42.26100
H  41.11400 45.57600 42.31600
Mg 28.51100 58.80900 42.54400
C  25.87200 56.89200 41.03400
C  30.73500 56.99500 40.83600
C  30.72700 61.06900 43.39800
C  25.89000 60.99600 43.63300
N  28.23100 57.11500 41.12800
C  27.17000 56.50700 40.61000
C  27.52100 55.39500 39.59000
C  29.09800 55.35100 39.74100
C  29.39300 56.59800 40.64800
C  29.63300 54.07200 40.38100
C  26.99500 55.64200 38.14300
C  26.47400 54.48400 37.35900
H  27.08600 54.29500 35.98900
N  30.49300 58.98400 42.17100
C  31.29100 58.13600 41.45700
C  32.63900 58.55200 41.47100
C  32.65500 59.71800 42.23400
C  31.24600 59.96400 42.69300
C  33.77200 57.83300 40.77200
C  33.84700 60.53000 42.61800
O  34.94200 60.12500 42.30400
C  33.81300 61.70000 43.49200
N  28.31500 60.68500 43.57400
C  29.40200 61.36100 43.92200
C  29.04000 62.69800 44.57800
C  27.54800 62.66200 44.49600
C  27.17800 61.29600 43.90600
C  29.57600 62.75700 46.04400
C  26.99200 63.94500 43.78400
C  25.80100 64.61900 44.48000
N  26.31100 58.87100 42.58800
C  25.39200 59.78800 43.09300
C  24.05600 59.40900 42.94900
C  24.20200 58.30300 42.11300
C  25.56500 57.96400 41.91900
C  22.84400 60.10000 43.34800
C  23.36500 57.34800 41.46700
O  22.12300 57.18600 41.55800
C  24.48800 56.38200 40.70900
C  24.23600 54.96500 41.19600
O  24.07200 54.52100 42.32000
O  24.35200 54.15700 40.04100
C  24.47900 52.67900 40.22100
H  31.47100 56.29200 40.43900
H  31.48300 61.79200 43.71100
H  25.11100 61.69000 43.95300
H  26.94900 54.52100 39.90400
H  29.51000 55.32800 38.73200
H  30.40400 53.67500 39.72000
H  28.90800 53.28300 40.57900
H  30.18400 54.22000 41.30900
H  27.85800 56.09000 37.65100
H  26.17800 56.35600 38.24300
H  25.38500 54.50300 37.30100
H  26.68200 53.51600 37.81500
H  33.30900 56.96000 40.31000
H  34.69400 57.67400 41.33000
H  34.13900 58.44100 39.94500
H  33.41400 62.59900 43.02300
H  34.86900 61.89100 43.68500
H  33.35000 61.51600 44.46200
H  29.62300 63.49500 44.11800
H  27.03400 62.69400 45.45700
H  29.53500 63.77000 46.44400
H  30.62300 62.46700 45.96200
H  29.07800 62.10000 46.75800
H  26.58400 63.55500 42.85100
H  27.78300 64.64600 43.51700
H  25.70900 65.70300 44.41800
H  25.76300 64.32000 45.52800
H  24.89400 64.13700 44.11300
H  22.97100 60.73600 44.22300
H  21.99200 59.43200 43.47200
H  22.58000 60.69800 42.47600
H  24.18900 56.54100 39.67300
H  23.44900 52.32100 40.22000
H  24.94400 52.45200 41.18000
H  24.86500 52.18800 39.32700

