158

Mg 26.66900 50.88300 27.29200
C  24.48600 51.74000 29.89800
C  28.88100 49.69200 29.76700
C  28.68100 49.96500 24.81800
C  24.16600 51.92500 25.00500
N  26.69200 50.84300 29.53100
C  25.62000 51.21100 30.36800
C  25.94300 50.77700 31.82200
C  27.46400 50.27600 31.79700
C  27.68600 50.29300 30.28500
C  28.43100 51.15700 32.63400
C  24.89400 49.75900 32.49500
C  24.12000 50.24500 33.73900
H  23.95200 49.24800 34.87200
N  28.55800 50.03400 27.26800
C  29.31500 49.61300 28.42100
C  30.60100 49.25400 27.91300
C  30.67700 49.34300 26.48500
C  29.26500 49.80400 26.09400
C  31.64200 48.76300 28.89200
C  31.81200 49.09400 25.51000
O  31.63200 49.05000 24.30300
C  33.20900 48.82600 26.10100
N  26.45400 51.10500 25.23100
C  27.50200 50.58000 24.37900
C  27.07000 50.62800 22.88400
C  25.63100 51.24000 22.98500
C  25.37100 51.40600 24.48800
C  27.94500 51.56500 22.05100
C  24.62700 50.22000 22.38800
C  23.81000 50.74300 21.19800
N  24.76200 51.77200 27.31300
C  23.84800 52.05100 26.33300
C  22.71600 52.66200 26.93000
C  22.87100 52.57600 28.29900
C  24.16300 52.05600 28.56300
C  21.51400 53.26700 26.19200
C  22.17200 52.73900 29.57000
O  21.09000 53.20600 29.95000
C  23.21500 52.23400 30.60700
C  23.54800 53.35600 31.43200
O  24.07200 54.39400 31.06000
O  23.09400 53.07300 32.75300
C  23.39700 53.94900 33.87700
H  29.44900 49.28000 30.60400
H  29.24100 49.55900 23.97400
H  23.29000 52.16000 24.39700
H  25.86400 51.66500 32.44900
H  27.55200 49.26800 32.20100
H  28.70500 50.62000 33.54200
H  27.89800 52.01700 33.03800
H  29.31400 51.58200 32.15700
H  25.28600 48.76500 32.71200
H  24.09600 49.62500 31.76500
H  23.14300 50.66600 33.50100
H  24.71100 51.03900 34.19600
H  32.42600 49.47800 29.14300
H  32.18700 47.97400 28.37500
H  31.18700 48.32400 29.78000
H  33.45500 49.27800 27.06200
H  33.80600 49.32300 25.33600
H  33.38800 47.75000 26.11100
H  27.12700 49.58300 22.57900
H  25.54200 52.25800 22.60700
H  28.59500 52.15600 22.69600
H  27.45100 52.12100 21.25400
H  28.62900 50.90300 21.52000
H  23.94500 49.81800 23.13700
H  25.12200 49.31600 22.03200
H  23.92900 51.80900 21.00400
H  22.73900 50.65200 21.37700
H  24.19900 50.23900 20.31300
H  20.73300 53.41900 26.93700
H  21.17100 52.49100 25.50800
H  21.70300 54.22500 25.70700
H  22.70200 51.40800 31.10000
H  23.95800 54.82700 33.55700
H  23.99600 53.36800 34.57800
H  22.47200 54.20200 34.39400
Mg -2.24000 34.58700 26.49700
C  -3.92700 32.65500 29.02000
C  -1.25100 36.72300 28.96700
C  -1.03400 36.63300 24.05400
C  -4.05800 32.84100 24.12500
N  -2.49200 34.57100 28.77800
C  -3.18300 33.67700 29.56400
C  -2.91700 33.99900 31.06300
C  -2.28400 35.47000 30.97500
C  -1.94300 35.62300 29.51400
C  -2.86700 36.73000 31.64000
C  -2.14900 32.88100 31.72600
C  -2.78100 32.19900 32.94300
H  -2.05500 32.11000 34.24500
N  -1.16100 36.37900 26.51500
C  -0.81600 37.05800 27.64000
C  0.06200 38.16400 27.24100
C  0.15900 38.07700 25.80900
C  -0.77000 37.04400 25.39100
C  0.88100 38.99100 28.23900
C  1.05600 38.80500 24.84300
O  0.99400 38.65200 23.60700
C  2.17500 39.58300 25.46100
N  -2.54400 34.72400 24.48300
C  -1.90400 35.60300 23.71800
C  -2.36800 35.50300 22.29000
C  -2.91100 34.06200 22.21800
C  -3.20200 33.82500 23.70700
C  -3.50700 36.50400 21.81800
C  -1.89000 33.08300 21.50500
C  -0.55900 32.61900 22.14600
N  -3.64300 33.11600 26.49700
C  -4.25500 32.44500 25.44600
C  -5.07800 31.31300 25.89300
C  -4.93200 31.40300 27.31400
C  -4.04200 32.45200 27.59100
C  -5.83400 30.39400 25.10800
C  -5.36300 30.76800 28.59300
O  -6.12600 29.79600 28.77600
C  -4.71400 31.54000 29.66700
C  -5.82000 32.14500 30.42700
O  -6.37800 33.19200 30.13800
O  -6.04100 31.49700 31.64400
C  -6.94300 32.17800 32.57600
H  -0.99400 37.36700 29.81200
H  -0.63900 37.17200 23.19100
H  -4.66200 32.40800 23.32500
H  -3.90100 34.11800 31.51800
H  -1.36000 35.38200 31.54600
H  -3.88300 36.47800 31.94400
H  -3.11200 37.50800 30.91600
H  -2.21300 37.17300 32.39100
H  -1.18200 33.31000 31.98900
H  -1.98600 32.18500 30.90300
H  -3.07400 31.19200 32.64400
H  -3.80000 32.55500 33.10000
H  0.53100 39.03500 29.27100
H  0.84000 40.01000 27.85400
H  1.93200 38.70500 28.20600
H  2.86400 39.60700 24.61700
H  2.71900 38.97500 26.18400
H  1.92100 40.60600 25.73700
H  -1.62800 35.72800 21.52100
H  -3.86700 33.92100 21.71400
H  -3.30400 36.89400 20.82000
H  -3.57500 37.38600 22.45400
H  -4.42600 35.91600 21.83500
H  -1.64200 33.47800 20.52000
H  -2.49600 32.18200 21.41200
H  0.20800 32.48200 21.38300
H  -0.55400 31.62000 22.58300
H  -0.10500 33.26900 22.89400
H  -5.74100 30.61000 24.04400
H  -6.88300 30.53600 25.37100
H  -5.61400 29.33300 25.23100
H  -4.19000 30.97700 30.44000
H  -7.76400 31.53700 32.89700
H  -7.43000 33.03800 32.11600
H  -6.44400 32.49400 33.49300

