158

Mg 48.47500 35.83300 28.43300
C  46.53300 33.87100 30.55900
C  48.74900 38.25100 30.80200
C  49.77100 37.93800 26.09300
C  48.25300 33.32600 25.98800
N  47.61700 36.03000 30.39000
C  47.11300 35.05900 31.15900
C  47.43200 35.30000 32.62100
C  47.60900 36.85800 32.60000
C  48.09000 37.09900 31.21300
C  46.40900 37.79200 33.01500
C  48.72400 34.54300 33.03500
C  49.09500 34.37300 34.50700
H  48.29800 35.21700 35.55900
N  49.37100 37.70700 28.51900
C  49.34800 38.49200 29.61400
C  49.98300 39.77400 29.28900
C  50.30600 39.72100 27.91300
C  49.75700 38.44300 27.44500
C  50.37100 40.84600 30.31100
C  51.04600 40.72100 27.19200
O  51.32000 40.41300 26.04600
C  51.47900 42.03400 27.82200
N  48.88900 35.66100 26.34700
C  49.38500 36.66700 25.56100
C  49.69600 36.09200 24.11900
C  49.47300 34.65000 24.29900
C  48.86500 34.51700 25.62600
C  48.73200 36.76500 23.11800
C  50.86100 33.86800 24.21200
C  50.94800 32.73200 23.16500
N  47.49600 33.95300 28.23700
C  47.55500 32.99200 27.19700
C  46.63100 31.97600 27.52000
C  46.21100 32.24100 28.83800
C  46.84300 33.42300 29.22800
C  46.33000 30.82500 26.60500
C  45.40300 31.77700 29.97400
O  44.64000 30.80800 30.06200
C  45.69900 32.76000 31.14000
C  46.42800 32.01000 32.20200
O  47.48200 31.38000 32.02000
O  45.82600 32.20100 33.48300
C  46.55600 31.79000 34.64600
H  48.89100 38.96500 31.61600
H  50.20400 38.49000 25.25600
H  48.32700 32.59100 25.18300
H  46.53200 35.16800 33.22200
H  48.42300 37.23000 33.22200
H  45.55100 37.15000 33.21500
H  46.08600 38.42500 32.18900
H  46.85500 38.39600 33.80500
H  49.54500 35.00000 32.48300
H  48.56900 33.49600 32.77200
H  50.15900 34.55100 34.66300
H  49.10000 33.30400 34.71900
H  51.43600 41.07000 30.24600
H  50.01200 40.65400 31.32300
H  49.74800 41.72600 30.15000
H  50.64300 42.52100 28.32400
H  51.78500 42.59800 26.94100
H  52.31100 41.87900 28.50800
H  50.68600 36.33100 23.73100
H  48.79200 34.25500 23.54500
H  49.28800 37.03800 22.22100
H  48.33200 37.71200 23.48300
H  47.94400 36.02300 22.99100
H  51.08500 33.50200 25.21400
H  51.63300 34.61600 24.03100
H  51.84100 32.17300 23.44600
H  51.05700 33.21800 22.19500
H  50.07700 32.11300 23.38100
H  45.49000 30.17800 26.85800
H  47.28400 30.30200 26.53300
H  46.04900 31.19200 25.61800
H  44.74200 33.11200 31.52400
H  46.73700 32.66200 35.27400
H  47.50500 31.30800 34.41400
H  45.84800 31.11100 35.12200
Mg -5.03600 24.99700 26.12000
C  -3.77400 26.21300 29.09200
C  -7.07200 22.82100 27.95600
C  -6.06500 23.45700 23.25800
C  -2.90800 26.95500 24.31300
N  -5.32200 24.61100 28.28800
C  -4.78100 25.37500 29.30200
C  -5.28400 24.94200 30.67300
C  -6.14500 23.66800 30.23400
C  -6.19700 23.69900 28.74100
C  -5.67100 22.28800 30.82600
C  -6.12400 26.09700 31.42300
C  -6.19100 26.02800 32.95600
H  -5.53100 24.78300 33.66800
N  -6.45200 23.47800 25.65100
C  -7.23500 22.74800 26.56500
C  -8.08200 21.79900 25.86100
C  -7.81300 22.03400 24.53400
C  -6.70600 22.97500 24.41800
C  -9.19700 21.01700 26.46600
C  -8.60600 21.36500 23.44100
O  -8.18900 21.50000 22.29500
C  -9.87000 20.62000 23.62400
N  -4.52600 25.14000 24.05000
C  -5.09700 24.41000 23.07200
C  -4.38000 24.71500 21.68300
C  -3.60500 25.99700 22.01400
C  -3.61700 26.02200 23.55800
C  -3.48200 23.52400 21.16200
C  -4.19700 27.32800 21.43600
C  -3.28400 28.12700 20.43000
N  -3.52500 26.23100 26.57100
C  -2.84700 27.14700 25.71000
C  -2.02500 27.97700 26.59200
C  -2.40300 27.69200 27.90100
C  -3.22400 26.52600 27.85900
C  -1.06500 29.05600 26.20600
C  -2.15400 28.02500 29.26900
O  -1.50600 28.95800 29.77900
C  -3.04300 27.04300 30.11000
C  -2.09300 26.38400 31.09600
O  -1.26100 25.52400 30.85800
O  -2.27800 26.93000 32.29500
C  -1.54500 26.49600 33.46800
H  -7.73900 22.22700 28.58400
H  -6.35300 22.98300 22.31700
H  -2.34700 27.77900 23.86700
H  -4.35300 24.70300 31.18600
H  -7.20500 23.81600 30.44400
H  -6.45800 21.65800 31.24000
H  -5.00500 22.49500 31.66300
H  -5.22400 21.67000 30.04700
H  -7.14800 26.18500 31.06000
H  -5.73900 27.08900 31.18400
H  -7.24700 25.97000 33.21900
H  -5.71000 26.90300 33.39300
H  -9.07900 21.06000 27.54900
H  -9.12000 19.94200 26.30500
H  -10.19600 21.40400 26.26500
H  -9.70600 19.65700 24.10800
H  -10.30100 20.47700 22.63400
H  -10.62900 21.04500 24.28000
H  -5.07800 24.99500 20.89400
H  -2.55300 25.82200 21.79000
H  -4.02300 23.31600 20.23900
H  -3.57400 22.68500 21.85000
H  -2.41200 23.71700 21.07500
H  -4.41800 28.04100 22.23000
H  -5.13700 27.05100 20.96000
H  -3.55800 28.08500 19.37600
H  -2.27900 27.70400 20.44400
H  -3.31200 29.19400 20.64800
H  -0.69300 28.87800 25.19700
H  -0.20800 29.19700 26.86400
H  -1.59900 30.00300 26.12000
H  -3.77300 27.61600 30.68200
H  -1.37900 27.29800 34.18800
H  -0.67500 25.92100 33.15200
H  -2.10500 25.72200 33.99200

