158

Mg 41.92200 7.95100 28.96800
C  43.96500 9.23500 31.68600
C  39.80300 6.56700 31.43400
C  40.47200 5.90600 26.68700
C  44.65300 8.51700 26.91500
N  41.87000 8.06800 31.30200
C  42.79400 8.58500 32.15300
C  42.42000 8.45800 33.69300
C  41.16800 7.51200 33.49600
C  40.85300 7.34800 31.95700
C  40.96600 6.23500 34.38300
C  42.19700 9.83400 34.46900
C  41.32700 9.76600 35.78200
H  41.96100 10.27900 37.13700
N  40.18600 6.68300 29.03800
C  39.44000 6.28900 30.09300
C  38.32400 5.53100 29.68200
C  38.48200 5.34400 28.29200
C  39.74500 6.00300 27.93700
C  37.15600 5.13300 30.54800
C  37.60900 4.63200 27.31600
O  37.87700 4.45600 26.12900
C  36.41300 3.77400 27.84800
N  42.46800 7.29400 27.08100
C  41.75900 6.34700 26.38000
C  42.44800 6.21700 24.96600
C  43.65900 7.15600 24.97600
C  43.65300 7.66900 26.36600
C  42.78800 4.78600 24.49100
C  43.61100 8.31300 23.92900
C  44.73500 8.25100 22.83500
N  43.88000 8.66000 29.23800
C  44.79400 8.98200 28.24600
C  45.82300 9.81900 28.80800
C  45.56500 9.98000 30.17000
C  44.30800 9.29100 30.37300
C  47.02100 10.23400 28.06700
C  46.06100 10.53800 31.42800
O  47.08700 11.07700 31.73900
C  44.92100 10.13400 32.43800
C  45.47600 9.51200 33.60700
O  45.78700 8.34200 33.79400
O  45.72800 10.49300 34.56100
C  46.47100 10.03900 35.77700
H  39.09600 6.23400 32.19700
H  40.11700 5.27900 25.86700
H  45.38300 8.85700 26.17800
H  43.25500 7.98600 34.21100
H  40.29000 8.11800 33.71900
H  40.89900 5.37400 33.71700
H  40.10700 6.35600 35.04300
H  41.84300 6.13900 35.02400
H  41.76400 10.61700 33.84700
H  43.15200 10.26000 34.77500
H  40.94000 8.75100 35.87200
H  40.46700 10.39300 35.54600
H  36.92200 4.07400 30.65500
H  36.17300 5.56300 30.36000
H  37.40700 5.34500 31.58700
H  35.94400 3.27900 26.99700
H  35.60600 4.34200 28.31000
H  36.87700 3.05600 28.52400
H  41.58700 6.47200 24.34800
H  44.57200 6.62100 24.71800
H  43.66500 4.70000 23.85100
H  41.91500 4.38800 23.97200
H  42.96000 4.19600 25.39200
H  43.72600 9.27900 24.42000
H  42.64100 8.43800 23.44900
H  45.66500 8.38400 23.38600
H  44.61100 9.02800 22.08100
H  44.72800 7.23600 22.43600
H  46.69700 10.65500 27.11500
H  47.69400 9.39900 27.87000
H  47.48600 11.06300 28.59900
H  44.24000 10.94100 32.71000
H  47.24900 9.29600 35.60500
H  45.82300 9.49800 36.46600
H  46.82800 10.91100 36.32500
Mg 0.11100 43.21500 27.01500
C  2.51400 42.86300 29.42600
C  -2.34200 42.20900 29.41800
C  -2.35000 43.45900 24.66700
C  2.50900 43.53500 24.52400
N  0.09200 42.61800 29.15000
C  1.18400 42.67000 29.96700
C  0.81900 42.56300 31.45100
C  -0.59100 41.89000 31.37000
C  -0.98900 42.30900 29.87100
C  -0.59100 40.39300 31.57100
C  0.92800 43.86200 32.14200
C  0.90100 43.80300 33.65900
H  0.26800 42.63300 34.41500
N  -2.03500 42.91300 27.04600
C  -2.77500 42.57900 28.13500
C  -4.19100 42.63600 27.80900
C  -4.24200 43.07000 26.43100
C  -2.88700 43.24600 25.97000
C  -5.30900 42.27000 28.78000
C  -5.49500 43.31000 25.40100
O  -5.40100 43.72800 24.25300
C  -6.84300 42.86200 25.89100
N  0.05700 43.25900 24.86700
C  -1.05700 43.47800 24.17600
C  -0.73000 43.72500 22.64500
C  0.77600 43.76800 22.56600
C  1.16200 43.58500 24.07600
C  -1.35500 42.67000 21.71500
C  1.41500 44.91800 21.82900
C  1.92600 46.09000 22.73900
N  2.09600 43.19700 26.92000
C  2.94900 43.32500 25.84200
C  4.35200 43.32200 26.32100
C  4.20000 43.05500 27.68300
C  2.77100 43.01300 28.04700
C  5.71900 43.43700 25.55500
C  5.00600 42.86200 28.89100
O  6.19000 42.57900 29.18600
C  3.95800 42.84400 30.09600
C  4.25200 41.71900 31.03300
O  4.33000 40.52300 30.75000
O  4.39200 42.19400 32.24800
C  4.47500 41.19100 33.30500
H  -3.07300 41.87600 30.15800
H  -3.07200 43.68000 23.87800
H  3.33500 43.66000 23.82100
H  1.47900 41.86200 31.96200
H  -1.27900 42.31400 32.10200
H  0.36500 39.93300 31.82100
H  -0.80600 39.97000 30.59000
H  -1.36400 40.20800 32.31700
H  0.21700 44.58300 31.73900
H  1.90100 44.29600 31.90900
H  0.50600 44.76800 33.97800
H  1.90500 43.88000 34.07700
H  -6.13900 42.91300 28.48800
H  -5.13600 42.60600 29.80300
H  -5.58200 41.21500 28.74600
H  -6.78900 41.83000 26.23800
H  -7.63100 43.08400 25.17200
H  -7.09800 43.47300 26.75700
H  -1.14700 44.70000 22.39400
H  1.16000 42.84100 22.13900
H  -0.56800 42.31500 21.05000
H  -2.25300 43.11800 21.29000
H  -1.59300 41.80000 22.32600
H  0.90000 45.26800 20.93500
H  2.36900 44.48400 21.53000
H  1.22600 46.25500 23.55900
H  2.04300 46.98600 22.12900
H  2.93800 46.00200 23.13300
H  6.51300 43.15100 26.24500
H  5.83900 44.43200 25.12600
H  5.79500 42.73200 24.72800
H  4.12500 43.82600 30.53800
H  5.49500 41.23900 33.68600
H  4.04400 40.19800 33.17800
H  3.85500 41.62400 34.09100

