158

Mg 47.34600 25.95000 28.95100
C  48.80000 28.00400 31.53500
C  46.33500 23.77700 31.35900
C  46.78200 23.60900 26.60900
C  48.87900 28.00300 26.59500
N  47.57800 25.89900 31.24200
C  48.10800 26.90500 32.04700
C  47.89300 26.54000 33.49300
C  47.00500 25.28200 33.36100
C  46.98300 24.90400 31.91800
C  47.32300 23.97200 34.16400
C  47.19300 27.71400 34.31100
C  46.28200 27.38600 35.52300
H  46.85900 27.59900 36.94500
N  46.49900 24.01900 28.94600
C  46.18900 23.28000 30.02900
C  45.55800 21.99200 29.63500
C  45.58500 22.05000 28.19900
C  46.33100 23.26600 27.83300
C  44.85400 21.02300 30.55900
C  44.94700 21.00600 27.12700
O  45.04400 21.08000 25.90700
C  44.29900 19.72000 27.65600
N  47.92600 25.78400 26.94600
C  47.47400 24.76400 26.18300
C  47.79300 25.05000 24.70200
C  47.81800 26.59700 24.68700
C  48.37300 26.79500 26.14900
C  49.08100 24.33600 24.19900
C  46.40600 27.17200 24.56000
C  46.22400 28.05800 23.26700
N  48.55900 27.69400 28.99200
C  49.08900 28.41100 27.95300
C  49.78500 29.56600 28.46900
C  49.65800 29.46000 29.86000
C  48.91900 28.30300 30.12700
C  50.49400 30.50400 27.63000
C  50.06400 30.08100 31.14800
O  50.78300 31.07200 31.34600
C  49.40200 29.15300 32.28900
C  50.44900 28.75000 33.18800
O  51.36500 28.03000 32.87600
O  50.17400 29.23000 34.43500
C  50.92600 28.51200 35.47500
H  45.78400 23.14700 32.06100
H  46.56700 22.86200 25.84200
H  49.00400 28.70800 25.77000
H  48.81500 26.19200 33.96000
H  45.95900 25.53400 33.53100
H  48.02100 24.21800 34.96500
H  47.94500 23.25600 33.62900
H  46.46600 23.41000 34.53700
H  46.73800 28.46200 33.66100
H  48.01400 28.25700 34.78000
H  45.87700 26.37800 35.62100
H  45.37200 27.96300 35.36000
H  43.79600 20.96100 30.30400
H  44.80400 21.39700 31.58100
H  45.12800 19.96900 30.49900
H  45.06300 19.00600 27.96200
H  43.65300 19.25800 26.90900
H  43.74100 20.05400 28.53000
H  47.01900 24.74700 23.99700
H  48.52700 27.02200 23.97600
H  49.44700 23.69000 24.99700
H  49.75000 25.06900 23.74900
H  48.90800 23.68000 23.34600
H  46.30400 27.79600 25.44800
H  45.68900 26.37000 24.73700
H  45.14100 28.14400 23.17800
H  46.59900 27.55200 22.37700
H  46.59600 29.07500 23.39000
H  49.95700 31.45200 27.60300
H  50.71000 30.09700 26.64200
H  51.46100 30.79800 28.03900
H  48.56300 29.58100 32.83900
H  51.27500 27.54100 35.12400
H  50.26500 28.36900 36.33000
H  51.67200 29.21800 35.84200
Mg 43.67300 42.44800 26.68200
C  42.58900 44.70400 29.09700
C  45.08600 40.41200 29.06000
C  44.91000 40.41000 24.21400
C  42.74900 44.70200 24.20000
N  43.71300 42.51000 28.78600
C  43.19800 43.55100 29.61600
C  43.34000 43.17800 31.10700
C  44.48100 42.05700 31.00600
C  44.48300 41.63400 29.52300
C  45.94600 42.56900 31.39100
C  42.01100 42.87500 31.78800
C  41.70100 43.67300 33.06300
H  42.49400 43.40700 34.30200
N  44.75300 40.53800 26.64400
C  45.28300 39.94800 27.75200
C  45.83300 38.63400 27.36100
C  45.69400 38.52400 25.89700
C  45.12800 39.85300 25.51500
C  46.27100 37.58400 28.34100
C  45.96800 37.34900 24.94900
O  45.80600 37.44000 23.70500
C  46.49800 36.00600 25.51100
N  44.01600 42.66700 24.56800
C  44.50900 41.65100 23.76100
C  44.32800 42.02900 22.23300
C  43.72000 43.40800 22.31400
C  43.41300 43.60000 23.80000
C  45.63400 41.86300 21.42400
C  42.60900 43.78500 21.25600
C  41.23400 43.11700 21.40300
N  42.75200 44.30800 26.57400
C  42.50500 45.17200 25.52100
C  41.96700 46.38400 25.96100
C  41.96800 46.29400 27.42400
C  42.45500 44.98800 27.73500
C  41.75000 47.61400 25.19200
C  41.66700 46.91100 28.71400
O  41.19000 48.03500 28.96400
C  42.14000 45.95400 29.84200
C  43.13600 46.60900 30.67600
O  44.33700 46.63400 30.33500
O  42.60700 47.16900 31.84100
C  43.49200 47.94000 32.69700
H  45.49600 39.75300 29.82800
H  45.32800 39.71200 23.48500
H  42.44200 45.36500 23.38900
H  43.73400 44.01800 31.67900
H  44.30200 41.23800 31.70300
H  46.05000 43.63000 31.61700
H  46.57100 42.41800 30.51100
H  46.49200 41.98200 32.12900
H  42.02800 41.82700 32.08700
H  41.21200 43.02800 31.06300
H  40.64700 43.58700 33.32700
H  41.86900 44.69700 32.72800
H  45.50400 36.82300 28.48600
H  46.65500 38.09300 29.22500
H  47.12800 37.11100 27.86200
H  45.93300 35.56000 26.33000
H  47.49000 36.20300 25.91800
H  46.60600 35.30900 24.68000
H  43.52200 41.48100 21.74600
H  44.52600 44.11400 22.11400
H  45.33100 41.74500 20.38300
H  46.23300 41.11000 21.93400
H  46.15500 42.82100 21.41600
H  43.07900 43.50800 20.31200
H  42.46900 44.86500 21.22100
H  40.93300 42.71200 20.43700
H  40.48300 43.83900 21.72300
H  41.27400 42.35800 22.18500
H  42.66800 48.15500 24.96200
H  41.08800 48.33300 25.67500
H  41.28100 47.16600 24.31600
H  41.20000 45.90500 30.39100
H  44.49000 48.00200 32.26300
H  43.44900 47.51200 33.69900
H  43.07200 48.93100 32.87000

