158

Mg 54.39400 24.80000 44.25100
C  51.61500 26.92600 43.47900
C  52.46800 22.10500 42.95800
C  57.03400 23.03500 44.15100
C  56.30300 27.69000 45.00800
N  52.24200 24.50600 43.27200
C  51.41200 25.58300 43.06800
C  50.16000 24.99200 42.33100
C  50.27700 23.43900 42.49100
C  51.75400 23.33200 42.95800
C  49.18000 22.77700 43.46700
C  49.91300 25.50400 40.81900
C  48.40800 25.48500 40.42900
H  48.03900 25.15600 38.96000
N  54.70200 22.82300 43.70100
C  53.79700 21.88000 43.27200
C  54.49800 20.58500 43.19200
C  55.89800 20.76500 43.57300
C  55.89500 22.22900 43.81500
C  53.71900 19.31500 42.71400
C  57.05100 19.77700 43.66400
O  56.84000 18.58300 43.39600
C  58.46800 20.14200 43.99100
N  56.43700 25.37500 44.36700
C  57.32000 24.33800 44.46100
C  58.74300 24.91100 44.59100
C  58.54200 26.43600 44.95400
C  57.04400 26.57600 44.79600
C  59.58100 24.12700 45.66300
C  59.31100 27.44800 44.09600
C  60.18400 28.51400 44.89000
N  54.06900 26.83400 44.42200
C  54.91700 27.84800 44.79900
C  54.05800 29.02200 45.08600
C  52.75400 28.69400 44.56900
C  52.86400 27.39100 44.13700
C  54.43100 30.29100 45.84200
C  51.38500 29.17600 44.31800
O  50.92700 30.20700 44.61400
C  50.62000 28.09500 43.45400
C  50.39500 28.73800 42.11100
O  51.12600 29.04000 41.20100
O  49.07400 28.75900 41.96200
C  48.57900 29.31400 40.66900
H  51.83200 21.32400 42.53700
H  58.00900 22.54400 44.15400
H  56.76100 28.47500 45.61400
H  49.34500 25.38200 42.94000
H  50.09500 22.94900 41.53500
H  49.64400 22.46700 44.40300
H  48.80400 21.87400 42.98700
H  48.39000 23.50100 43.67000
H  50.57300 24.92300 40.17400
H  50.29300 26.50800 40.63100
H  48.04100 26.51100 40.47400
H  47.89900 24.71100 41.00400
H  54.32200 18.86200 41.92700
H  52.65100 19.48200 42.58000
H  53.62800 18.54300 43.47800
H  58.78300 20.89000 43.26300
H  59.16300 19.30800 43.90100
H  58.62600 20.55300 44.98800
H  59.30000 24.83700 43.65700
H  58.90900 26.61300 45.96500
H  58.89300 23.48900 46.21800
H  60.08300 24.72300 46.42500
H  60.29100 23.44100 45.20100
H  58.58100 28.09900 43.61600
H  59.94600 26.91200 43.39100
H  59.81800 29.47900 44.53800
H  61.23100 28.37600 44.62000
H  59.95200 28.34100 45.94000
H  53.74800 31.12300 45.67300
H  55.45300 30.55900 45.57500
H  54.33700 29.98500 46.88400
H  49.69900 27.67800 43.86200
H  48.89200 28.72200 39.81000
H  48.72600 30.39300 40.63200
H  47.50000 29.25100 40.81100
Mg 17.03200 51.77600 26.02400
C  19.13300 50.33700 28.53000
C  14.70400 52.42200 28.51000
C  15.16100 53.14300 23.68100
C  19.47300 50.98600 23.68000
N  17.01300 51.59100 28.20200
C  17.94800 50.90300 29.01900
C  17.53700 50.89000 30.46300
C  16.07100 51.32600 30.35700
C  15.89900 51.88000 28.99700
C  15.04000 50.23900 30.73700
C  18.36100 51.82600 31.40200
C  18.52000 51.44800 32.89300
H  17.18100 51.09900 33.73500
N  15.20400 52.75200 26.08300
C  14.35400 52.83300 27.22000
C  13.13500 53.45300 26.78500
C  13.20900 53.67100 25.38800
C  14.56200 53.23600 24.98600
C  12.10800 53.84600 27.76300
C  12.23500 54.37100 24.44600
O  12.49500 54.49100 23.25700
C  10.99500 55.14400 24.93600
N  17.34200 52.08100 23.95100
C  16.38800 52.68600 23.19700
C  16.84600 52.89600 21.69900
C  18.19900 52.10800 21.69700
C  18.36600 51.70800 23.17600
C  15.85100 52.50400 20.59700
C  19.48800 52.86200 21.16500
C  20.25500 53.79200 22.11400
N  18.92500 50.82700 25.99400
C  19.77400 50.53500 24.97800
C  20.87000 49.75700 25.42700
C  20.66900 49.56300 26.82400
C  19.45000 50.31700 27.12600
C  22.03300 49.19500 24.61300
C  21.22800 49.01000 28.05700
O  22.25400 48.37300 28.24400
C  20.25200 49.55400 29.22200
C  19.78400 48.45200 30.08000
O  19.11500 47.45600 29.79600
O  20.26300 48.72800 31.35500
C  19.75200 47.84200 32.35700
H  13.98800 52.61300 29.31100
H  14.50500 53.42500 22.85500
H  20.30300 50.80000 22.99400
H  17.76700 49.89400 30.83900
H  15.84800 52.13200 31.05600
H  14.46100 49.89200 29.88000
H  14.34300 50.74600 31.40500
H  15.52800 49.42800 31.27600
H  17.91000 52.81900 31.42700
H  19.39900 51.89600 31.07600
H  19.06100 52.28800 33.32900
H  19.28100 50.67100 32.95900
H  12.26500 53.54300 28.79800
H  11.17300 53.48700 27.33000
H  12.08400 54.93000 27.87000
H  11.36200 56.01300 25.48300
H  10.49400 54.45900 25.62100
H  10.44900 55.34600 24.01500
H  17.15000 53.93900 21.60500
H  18.01800 51.14800 21.21300
H  16.31300 52.02100 19.73600
H  15.23300 53.38100 20.40300
H  15.17200 51.77000 21.03000
H  19.22600 53.63100 20.43800
H  20.08200 52.13800 20.60700
H  19.94500 53.65300 23.14900
H  20.13800 54.83000 21.80400
H  21.33000 53.61600 22.16500
H  22.87500 49.83200 24.88300
H  21.92100 49.36500 23.54200
H  22.26100 48.15800 24.85900
H  20.86200 50.26900 29.77200
H  18.67000 47.75200 32.44800
H  19.99500 48.30100 33.31500
H  20.31900 46.91200 32.37100

