158

Mg 50.21800 45.22800 41.49300
C  46.88000 45.85100 40.34800
C  50.14200 42.31300 39.64300
C  53.46900 45.22700 41.65000
C  50.34800 48.74700 42.24700
N  48.79400 44.30800 40.04700
C  47.45900 44.70900 39.84600
C  46.82900 43.77400 38.76200
C  47.71100 42.50600 38.81200
C  48.99400 43.04100 39.52700
C  47.06500 41.24000 39.42600
C  46.77600 44.41600 37.33500
C  45.40700 44.46100 36.58200
H  45.33600 44.37800 34.99700
N  51.56100 43.81000 40.91100
C  51.37900 42.66200 40.20000
C  52.58300 41.85400 40.27200
C  53.57600 42.56500 41.03900
C  52.86800 44.00300 41.20700
C  52.60500 40.47900 39.64900
C  54.94500 42.09300 41.48100
O  55.33400 40.97200 41.14400
C  55.79400 42.94800 42.31400
N  51.68500 46.77700 41.76200
C  52.99100 46.46300 41.86600
C  53.89400 47.61100 42.27300
C  52.83600 48.71300 42.67600
C  51.53200 48.03900 42.19400
C  54.97300 47.34400 43.33700
C  53.08200 50.01300 41.88600
C  52.64800 50.02800 40.38800
N  48.89000 46.90700 41.63700
C  49.06700 48.24900 41.92100
C  47.81400 48.93900 41.83000
C  46.94200 48.01600 41.29900
C  47.59500 46.82000 41.11100
C  47.50300 50.31300 42.21300
C  45.56000 47.84900 40.89000
O  44.63100 48.62000 40.81900
C  45.45000 46.44200 40.22100
C  44.56000 45.52300 40.94900
O  43.96000 44.60500 40.43200
O  44.30800 45.88900 42.25800
C  42.97500 45.47300 42.78200
H  49.98400 41.35700 39.13900
H  54.54100 45.02500 41.60100
H  50.44600 49.74100 42.68700
H  45.88100 43.41900 39.16700
H  48.00500 42.15600 37.82300
H  47.77500 40.62200 39.97600
H  46.70400 40.67400 38.56700
H  46.25000 41.48800 40.10500
H  47.34100 43.80100 36.63500
H  47.17900 45.42800 37.35500
H  44.96100 45.39900 36.91400
H  44.72500 43.68400 36.92800
H  51.57200 40.16000 39.78400
H  53.33200 39.72900 39.96000
H  52.80000 40.60700 38.58400
H  55.19000 43.49900 43.03500
H  56.41100 43.51500 41.61700
H  56.44500 42.28200 42.88000
H  54.44400 47.91200 41.38200
H  52.81200 48.88300 43.75200
H  55.06000 48.12200 44.09600
H  55.89800 47.38400 42.76200
H  54.90500 46.34300 43.76400
H  54.15600 50.19500 41.92200
H  52.58600 50.85200 42.37400
H  53.45200 50.51400 39.83500
H  51.70200 50.55300 40.26200
H  52.56800 48.99500 40.05000
H  47.39800 50.99900 41.37200
H  48.28000 50.62200 42.91100
H  46.51900 50.38800 42.67600
H  45.15100 46.53000 39.17700
H  43.19200 45.06900 43.77100
H  42.32700 44.77300 42.25400
H  42.50100 46.41600 43.05200
Mg -10.01100 39.54200 39.73100
C  -9.12200 36.22900 39.02500
C  -6.95100 40.48700 38.77800
C  -11.27800 42.62300 39.69300
C  -13.30200 38.30800 40.47600
N  -8.24000 38.43200 39.01500
C  -8.07000 37.13400 38.72500
C  -6.61600 36.82000 38.30600
C  -5.86500 38.14500 38.62200
C  -7.09400 39.10700 38.89400
C  -4.93000 37.98300 39.89300
C  -6.59900 36.34000 36.81100
C  -6.73500 37.46600 35.77600
H  -7.85600 37.36100 34.72800
N  -9.20500 41.25300 39.25800
C  -7.94300 41.44400 38.83500
C  -7.69800 42.87000 38.63700
C  -8.92500 43.55200 38.94000
C  -9.89700 42.50200 39.41000
C  -6.38700 43.49700 38.19500
C  -9.11300 45.05700 38.75200
O  -8.20900 45.72100 38.24500
C  -10.36800 45.78200 39.24500
N  -12.14300 40.31100 39.99300
C  -12.26200 41.65700 39.95500
C  -13.74500 42.06600 40.10100
C  -14.42300 40.64400 40.30600
C  -13.24700 39.65800 40.20300
C  -14.03600 43.15200 41.19500
C  -15.61700 40.36700 39.30400
C  -16.71400 39.32300 39.71900
N  -11.06000 37.70900 39.75600
C  -12.31400 37.35300 40.27800
C  -12.49100 35.91300 40.41800
C  -11.26900 35.44800 39.95300
C  -10.44600 36.58400 39.48000
C  -13.68100 35.25800 40.84900
C  -10.53800 34.21800 39.45500
O  -10.87900 33.06900 39.41600
C  -9.04900 34.69600 39.04100
C  -8.26000 34.23200 40.20000
O  -8.61200 34.25800 41.41000
O  -6.95400 33.89000 39.78000
C  -6.12500 33.31300 40.77900
H  -5.96700 40.82100 38.44500
H  -11.64300 43.65000 39.74100
H  -14.22900 37.91000 40.89400
H  -6.26600 35.98300 38.91000
H  -5.22200 38.56300 37.84700
H  -5.46900 38.23900 40.80500
H  -4.14600 38.73100 39.77000
H  -4.42200 37.02000 39.84800
H  -7.46200 35.67400 36.79000
H  -5.64700 35.86800 36.56800
H  -5.72700 37.63600 35.39600
H  -7.04700 38.37000 36.29900
H  -6.53600 44.08000 37.28600
H  -5.82100 42.61400 37.90000
H  -5.89700 44.03800 39.00500
H  -10.55600 45.52500 40.28800
H  -11.18800 45.61400 38.54800
H  -10.27300 46.86200 39.13600
H  -13.91000 42.40100 39.07700
H  -14.80000 40.58100 41.32600
H  -14.71100 43.95700 40.90700
H  -13.12400 43.68900 41.45600
H  -14.26000 42.62800 42.12400
H  -15.23800 40.11200 38.31400
H  -16.06300 41.35700 39.20400
H  -17.20700 38.80400 38.89700
H  -17.50300 39.82200 40.28100
H  -16.24400 38.63100 40.41800
H  -14.48500 35.64800 40.22500
H  -13.89100 35.47500 41.89600
H  -13.56600 34.19700 40.62900
H  -8.83900 34.27500 38.05800
H  -6.67400 32.82400 41.58400
H  -5.70400 34.24600 41.15200
H  -5.34700 32.67700 40.35700

