158

Mg 35.27700 48.59900 25.19800
C  35.70200 46.73100 28.11000
C  34.62600 51.32600 27.18600
C  34.74200 50.28900 22.45500
C  35.89000 45.62100 23.36900
N  34.85500 48.89800 27.35300
C  35.26200 48.07100 28.35900
C  35.35500 48.72500 29.73500
C  34.55500 50.09200 29.42700
C  34.65700 50.13300 27.91200
C  33.10900 50.20000 30.01300
C  36.80600 48.97000 30.26900
C  37.00600 49.14500 31.76600
H  35.84800 49.03100 32.78300
N  34.78800 50.53600 24.86800
C  34.60500 51.48100 25.79000
C  34.45500 52.77600 25.14400
C  34.46000 52.57900 23.75700
C  34.64300 51.04100 23.61100
C  34.38300 54.18700 25.74500
C  34.22000 53.55200 22.54500
O  34.42200 53.20100 21.36400
C  33.79900 54.92400 22.77400
N  35.21500 48.04600 23.19000
C  35.06800 48.95600 22.26800
C  35.42700 48.43600 20.86700
C  35.71100 46.89200 21.13900
C  35.57800 46.82000 22.65900
C  34.24200 48.52200 19.90000
C  37.15200 46.48500 20.69700
C  38.34400 47.00100 21.53300
N  35.52200 46.53900 25.59700
C  35.90000 45.49100 24.80100
C  36.50000 44.34700 25.59000
C  36.35600 44.83500 26.89400
C  35.76400 46.14200 26.87100
C  37.08900 43.06600 25.07000
C  36.72900 44.43600 28.23600
O  37.27300 43.40500 28.65100
C  36.27300 45.67700 29.08600
C  35.12300 45.24700 30.01500
O  33.91100 45.24600 29.74800
O  35.62900 44.94100 31.18500
C  34.69600 44.77200 32.35300
H  34.48500 52.24000 27.76700
H  34.63100 50.79500 21.49300
H  36.15900 44.81700 22.68200
H  34.67100 48.10600 30.31700
H  35.08200 50.99600 29.73100
H  32.39900 50.56100 29.26900
H  32.97300 50.86500 30.86600
H  32.82300 49.24600 30.45700
H  37.17100 49.95200 29.96700
H  37.46600 48.19300 29.88100
H  37.53100 50.07800 31.97100
H  37.66200 48.37100 32.16400
H  35.32500 54.70100 25.55500
H  34.31400 54.11000 26.83000
H  33.53300 54.83700 25.53900
H  32.79400 54.83000 23.18400
H  33.71000 55.42500 21.80900
H  34.54800 55.49200 23.32600
H  36.32900 48.92200 20.49400
H  34.98000 46.23400 20.67000
H  34.26400 47.65800 19.23600
H  34.36800 49.45900 19.35700
H  33.29200 48.51800 20.43400
H  37.23800 46.80200 19.65800
H  37.14300 45.40300 20.56700
H  39.27500 47.10500 20.97500
H  38.53000 46.26100 22.31100
H  38.11600 47.95300 22.01300
H  37.00000 42.95400 23.98900
H  36.62700 42.21800 25.57600
H  38.15000 43.07500 25.32000
H  37.11200 46.10400 29.63500
H  33.80200 45.38100 32.22400
H  35.31700 45.09900 33.18700
H  34.51700 43.71100 32.53100
Mg 6.74100 55.20000 40.71300
C  5.64800 51.92600 41.18800
C  9.69400 54.02500 39.53600
C  7.14300 58.10500 39.16100
C  3.24000 56.08200 41.25500
N  7.52400 53.22100 40.24400
C  6.84500 52.03600 40.55100
C  7.77700 50.81500 40.06900
C  9.17200 51.49900 39.98400
C  8.77800 53.01500 39.90200
C  10.14500 51.20600 41.22000
C  7.26800 50.04900 38.76400
C  6.33400 50.70700 37.78000
H  6.98600 51.37900 36.52600
N  8.31800 56.06300 39.65800
C  9.49800 55.39600 39.46200
C  10.42800 56.42800 39.15000
C  9.68200 57.59200 38.79900
C  8.29100 57.32500 39.17900
C  11.92800 56.08600 38.85100
C  10.20200 58.84000 38.21400
O  11.39500 58.88100 37.98100
C  9.32200 60.01700 37.88200
N  5.38200 56.81500 40.15200
C  5.82800 57.89900 39.53800
C  4.84800 59.09500 39.58500
C  3.66100 58.43300 40.34700
C  4.14900 57.05700 40.67800
C  5.46300 60.34700 40.23200
C  2.29200 58.33200 39.55500
C  1.11800 58.97400 40.29800
N  4.83400 54.26200 41.42500
C  3.58300 54.76000 41.58400
C  2.64700 53.75700 42.01300
C  3.44300 52.63700 41.92000
C  4.76400 52.98200 41.59400
C  1.07300 53.91300 42.19600
C  3.44300 51.23600 42.12300
O  2.59900 50.49400 42.56100
C  4.94300 50.71100 41.72200
C  4.77500 49.61600 40.78000
O  4.21800 49.77100 39.72700
O  5.27500 48.36500 41.27000
C  4.89000 47.16700 40.42300
H  10.72900 53.80000 39.27300
H  7.32400 59.10200 38.75400
H  2.20800 56.34000 41.50200
H  7.66200 50.04200 40.82800
H  9.63800 51.36500 39.00800
H  9.60800 51.08500 42.16000
H  10.61600 52.17800 41.36400
H  10.94400 50.49400 41.01300
H  6.79300 49.12000 39.08100
H  8.17300 49.87800 38.18000
H  5.87400 51.58500 38.23400
H  5.44400 50.12800 37.53100
H  11.93700 55.80300 37.79900
H  12.37500 55.30600 39.46800
H  12.50400 56.99800 39.00900
H  9.89900 60.92700 37.71500
H  8.78800 60.40300 38.75000
H  8.43000 59.88000 37.27000
H  4.67400 59.40200 38.55300
H  3.36800 58.94000 41.26700
H  5.76900 61.01100 39.42300
H  6.25900 60.14900 40.95000
H  4.68600 60.93000 40.72700
H  2.09200 57.27000 39.41300
H  2.32600 58.86100 38.60300
H  0.47700 59.28100 39.47200
H  1.41200 59.87700 40.83400
H  0.53700 58.24100 40.85900
H  0.57600 52.94900 42.30600
H  0.58600 54.53900 41.44900
H  0.88500 54.44100 43.13100
H  5.51300 50.39300 42.59500
H  4.66300 47.41600 39.38600
H  3.96500 46.68600 40.73900
H  5.67600 46.41400 40.38000

