158

Mg 1.67100 -1.90800 44.50300
C  5.04300 -1.00400 44.39200
C  0.91000 0.76000 42.61900
C  -1.36200 -3.19300 44.25500
C  2.74300 -4.87100 46.16200
N  2.86500 -0.42500 43.48100
C  4.18600 -0.12300 43.64000
C  4.61900 1.09700 42.84000
C  3.26700 1.80900 42.50100
C  2.31400 0.57200 42.77700
C  2.85900 3.04500 43.29600
C  5.49200 0.82900 41.59200
C  6.68100 1.70000 41.16300
H  6.90100 2.09400 39.68400
N  -0.05900 -1.27200 43.68900
C  -0.20600 -0.11600 43.01300
C  -1.65500 0.16100 42.88100
C  -2.30700 -0.97100 43.28900
C  -1.26600 -1.87900 43.78800
C  -2.20900 1.40400 42.20200
C  -3.71300 -1.16700 43.18400
O  -4.38700 -0.37300 42.64300
C  -4.33400 -2.39800 43.73300
N  0.84500 -3.85900 44.99900
C  -0.47800 -4.03700 44.89900
C  -0.87600 -5.44700 45.28800
C  0.42000 -5.93000 45.94600
C  1.45100 -4.90200 45.69100
C  -2.06400 -5.59500 46.26000
C  0.89100 -7.33200 45.35300
C  0.05000 -8.52900 45.81600
N  3.48900 -2.80500 45.23400
C  3.81200 -3.94700 45.95100
C  5.19500 -3.90900 46.31100
C  5.71400 -2.79700 45.65800
C  4.66000 -2.14400 45.06200
C  5.87700 -4.92100 47.13700
C  6.93800 -2.01600 45.39300
O  8.10300 -2.23900 45.69000
C  6.58000 -0.80900 44.57000
C  7.04700 0.40000 45.30400
O  6.76500 0.75400 46.47400
O  7.87300 1.09100 44.45100
C  8.05800 2.50400 44.81400
H  0.70100 1.71000 42.12400
H  -2.32400 -3.70500 44.32500
H  3.02700 -5.78000 46.69600
H  5.13200 1.69800 43.59000
H  3.14000 2.07600 41.45200
H  3.60800 3.19500 44.07400
H  1.89300 2.92300 43.78600
H  2.88900 3.93500 42.66800
H  4.92700 0.95700 40.66800
H  5.84600 -0.20200 41.55900
H  7.59500 1.15300 41.39500
H  6.66200 2.53300 41.86600
H  -2.52400 1.17000 41.18500
H  -1.47500 2.20500 42.11800
H  -3.13100 1.60400 42.74800
H  -3.93200 -3.29900 43.26900
H  -5.41700 -2.42800 43.61400
H  -4.12900 -2.47700 44.80000
H  -1.12400 -5.95000 44.35300
H  0.40100 -6.06800 47.02700
H  -2.51800 -4.62000 46.43900
H  -1.65000 -5.90000 47.22100
H  -2.75000 -6.35400 45.88400
H  1.90400 -7.47500 45.72900
H  0.90100 -7.21800 44.26900
H  0.77100 -9.07500 46.42500
H  -0.29600 -9.14400 44.98600
H  -0.76000 -8.16700 46.44900
H  5.15700 -5.69000 47.41900
H  6.20600 -4.50300 48.08800
H  6.69600 -5.28700 46.51700
H  7.00500 -0.76700 43.56700
H  8.95100 2.85600 44.29600
H  8.13800 2.77000 45.86800
H  7.17100 3.04700 44.48900
Mg 49.20400 35.30700 27.78500
C  47.18400 33.82400 30.27600
C  49.46300 38.01700 29.87500
C  51.26900 36.60000 25.59900
C  48.54500 32.68100 25.77000
N  48.39100 35.77900 29.92800
C  47.66800 35.02700 30.74400
C  47.77500 35.52700 32.22900
C  48.22200 37.08000 31.95700
C  48.85500 36.94600 30.53300
C  47.09200 38.14100 32.18400
C  48.99400 34.83600 32.97200
C  48.73300 34.38900 34.35300
H  47.73800 35.29100 35.19400
N  50.17800 37.07600 27.74400
C  50.12500 38.15300 28.63900
C  50.80100 39.37400 28.06500
C  51.43200 38.90800 26.82200
C  50.98800 37.52700 26.67600
C  50.82400 40.69500 28.77100
C  52.40500 39.55300 25.90600
O  52.82400 39.07100 24.86700
C  52.98300 40.91400 26.28700
N  49.71100 34.78700 25.88200
C  50.72600 35.41900 25.20000
C  51.15200 34.58400 23.94600
C  50.10100 33.42100 23.94200
C  49.36700 33.66000 25.27000
C  51.11400 35.35700 22.61600
C  50.75600 32.02000 23.75900
C  50.26100 31.32500 22.49500
N  48.08700 33.57200 27.91700
C  47.84500 32.63100 26.95900
C  47.00000 31.57600 27.50200
C  46.70100 32.05400 28.75800
C  47.44200 33.27000 28.99300
C  46.56800 30.38600 26.76900
C  45.89300 31.77300 29.89300
O  45.15400 30.84800 30.02500
C  46.18400 32.88300 30.90200
C  46.48300 32.22200 32.18800
O  47.40400 31.45800 32.38000
O  45.48600 32.39600 33.05800
C  45.62900 31.70600 34.31500
H  49.58100 38.96600 30.40200
H  51.98900 36.92600 24.84500
H  48.40400 31.81500 25.12000
H  46.78900 35.59400 32.69000
H  48.97500 37.34900 32.69700
H  46.10900 37.68700 32.31200
H  47.01400 38.85500 31.36400
H  47.34000 38.77200 33.03700
H  49.95000 35.35300 32.89100
H  49.19600 33.87100 32.50700
H  49.73100 34.45100 34.78600
H  48.29500 33.39200 34.30400
H  50.05600 40.64400 29.54300
H  50.55400 41.46400 28.04700
H  51.79100 40.95000 29.20700
H  53.71600 40.77100 27.08100
H  52.22200 41.59600 26.66600
H  53.55500 41.23400 25.41600
H  52.16200 34.27700 24.21800
H  49.38600 33.53500 23.12800
H  52.08600 35.72900 22.29300
H  50.33600 36.11500 22.71500
H  50.95500 34.53900 21.91400
H  50.59900 31.44800 24.67400
H  51.83400 32.08900 23.61300
H  50.36600 32.07400 21.71100
H  49.21000 31.06900 22.62700
H  50.98000 30.55300 22.22100
H  46.85700 30.30300 25.72100
H  45.48300 30.31600 26.84900
H  46.96200 29.47300 27.21500
H  45.25100 33.44500 30.91700
H  46.45900 32.01500 34.95000
H  45.74600 30.64700 34.08400
H  44.67300 31.77800 34.83500

