158

Mg 40.14100 10.00300 29.55500
C  42.16300 11.20800 32.01100
C  38.08800 8.63000 31.81700
C  38.29800 8.60600 26.94700
C  42.51800 11.01300 27.12000
N  40.15100 9.89600 31.69800
C  41.02500 10.60100 32.54000
C  40.54400 10.45400 33.98600
C  39.29900 9.49500 33.92200
C  39.22300 9.28700 32.38400
C  39.48900 8.22500 34.74500
C  40.23900 11.85900 34.46400
C  39.65100 12.10700 35.93400
H  40.31600 13.10300 36.93900
N  38.50300 8.75800 29.45000
C  37.71600 8.33400 30.49700
C  36.56800 7.59700 30.02600
C  36.56600 7.69800 28.65000
C  37.86700 8.38500 28.30900
C  35.65800 6.84600 30.99000
C  35.53900 7.19100 27.69100
O  35.62800 7.34800 26.50300
C  34.39700 6.51100 28.31000
N  40.36200 9.75800 27.38600
C  39.48700 9.16500 26.53600
C  39.88800 9.18100 25.10100
C  41.25600 9.99800 25.10800
C  41.39900 10.26700 26.66800
C  39.93700 7.76800 24.45000
C  41.13900 11.25900 24.14200
C  40.67500 12.60400 24.81000
N  41.95300 10.94700 29.51900
C  42.78800 11.35100 28.46100
C  43.89300 12.04600 29.00500
C  43.66800 12.03100 30.40800
C  42.48600 11.31800 30.61100
C  45.10100 12.42700 28.31900
C  44.22200 12.52200 31.63900
O  45.17300 13.29200 31.86300
C  43.07900 12.12200 32.75400
C  43.73500 11.48000 33.86800
O  44.26500 10.37900 33.83100
O  43.68400 12.28100 35.04600
C  44.16000 11.72600 36.33700
H  37.52200 8.32000 32.69800
H  37.72600 8.14300 26.14000
H  43.19500 11.28200 26.30700
H  41.30300 10.09200 34.68000
H  38.41500 10.08800 34.15500
H  38.67600 8.05200 35.45000
H  40.43800 8.23900 35.28000
H  39.59800 7.35600 34.09600
H  39.69400 12.27300 33.61600
H  41.15300 12.45200 34.51500
H  39.58100 11.14300 36.43900
H  38.56900 12.20500 35.84500
H  36.24600 6.79200 31.90700
H  35.41500 5.82900 30.68200
H  34.82500 7.51800 31.19700
H  34.76300 5.55000 28.67300
H  33.70400 6.28900 27.49800
H  33.95100 7.09600 29.11400
H  39.06100 9.68400 24.60100
H  42.07700 9.39500 24.72000
H  39.09900 7.55000 23.78900
H  40.08300 6.93600 25.13900
H  40.69400 7.65100 23.67500
H  40.43200 10.96900 23.36500
H  42.12700 11.49800 23.74800
H  40.28500 12.39800 25.80700
H  39.87500 13.04600 24.21600
H  41.40700 13.41200 24.82000
H  45.55700 11.62200 27.74200
H  45.79700 12.87100 29.03000
H  44.87700 13.23200 27.61900
H  42.71500 13.06600 33.16100
H  45.04400 12.28000 36.64900
H  44.49600 10.69300 36.24900
H  43.36700 11.84200 37.07500
Mg 27.13600 50.28300 25.95200
C  25.20900 51.33300 28.84400
C  29.58600 49.23900 28.19700
C  29.16400 49.90100 23.36200
C  24.75200 51.95200 24.00100
N  27.30100 50.26400 28.29800
C  26.38900 50.71200 29.25200
C  26.88000 50.41300 30.68400
C  28.26500 49.79500 30.45200
C  28.41500 49.66700 28.91000
C  29.43500 50.61100 31.05900
C  25.92900 49.56200 31.50600
C  25.61500 50.11100 32.89100
H  26.66600 49.93400 33.98100
N  28.97300 49.48200 25.77600
C  29.82400 49.16600 26.84400
C  31.08100 48.74700 26.24900
C  30.99700 48.91200 24.81100
C  29.69200 49.43700 24.57900
C  32.20700 48.25700 27.11800
C  32.02700 48.57600 23.80000
O  31.74400 48.64800 22.56800
C  33.47100 48.12900 24.14700
N  27.02000 50.95400 24.03400
C  27.90600 50.46800 23.11500
C  27.38600 50.58700 21.69600
C  25.87800 51.03100 21.92000
C  25.85200 51.35000 23.40200
C  28.17100 51.58000 20.77900
C  24.74100 50.07900 21.46700
C  23.60000 50.76400 20.66400
N  25.28200 51.37000 26.30300
C  24.46000 52.04100 25.43000
C  23.30100 52.57800 26.09600
C  23.58400 52.29000 27.42300
C  24.78500 51.60300 27.49300
C  22.17900 53.20000 25.54200
C  23.02500 52.37700 28.82200
O  21.94600 52.83700 29.14600
C  24.08400 51.79500 29.85200
C  24.51900 52.82800 30.88200
O  25.44800 53.57600 30.81000
O  23.56100 52.84400 31.85900
C  23.76200 53.71200 33.07900
H  30.24300 48.77700 28.93700
H  29.80900 49.77000 22.49100
H  23.99300 52.37800 23.34200
H  27.04400 51.31200 31.27800
H  28.39400 48.82200 30.92700
H  29.14000 51.60300 31.40100
H  30.15600 50.69400 30.24500
H  29.88900 50.03600 31.86700
H  26.38100 48.57700 31.62600
H  24.96600 49.42300 31.01500
H  24.67900 49.63000 33.17600
H  25.25200 51.13600 32.82800
H  32.94700 49.04100 27.28100
H  32.64700 47.41000 26.59000
H  31.89400 48.01200 28.13300
H  33.91300 47.72800 23.23500
H  33.43100 47.17600 24.67400
H  33.92100 48.96600 24.68100
H  27.53700 49.69000 21.09600
H  25.83300 51.93500 21.31300
H  28.78800 52.22900 21.40100
H  27.60500 52.26600 20.15000
H  28.81700 50.95200 20.16600
H  24.33300 49.59100 22.35200
H  25.23300 49.30600 20.87600
H  22.64500 50.48300 21.10900
H  23.67200 50.35200 19.65700
H  23.72000 51.84700 20.67500
H  22.47800 54.06400 24.94900
H  21.44200 53.54300 26.26800
H  21.62400 52.50800 24.90800
H  23.66900 50.97100 30.43300
H  24.23200 54.62200 32.70500
H  24.55000 53.23500 33.66200
H  22.85300 53.83400 33.66800

