158

Mg 7.55400 2.95000 27.66800
C  9.15200 1.94000 30.68900
C  5.46500 4.78700 29.82100
C  6.48400 4.48000 24.95300
C  9.68700 0.88400 25.83900
N  7.46200 3.37600 29.99100
C  8.20600 2.82800 30.96200
C  8.01300 3.51100 32.30000
C  6.63400 4.31300 32.05000
C  6.44900 4.07800 30.53200
C  5.47100 3.74400 33.00100
C  9.16100 4.46500 32.67200
C  9.10000 5.05500 34.07200
H  9.93900 4.49700 35.29900
N  6.03500 4.32800 27.35200
C  5.27900 4.91300 28.37600
C  4.30000 5.91600 27.70900
C  4.61800 5.84100 26.33100
C  5.70900 4.89700 26.11900
C  3.31300 6.76600 28.53900
C  4.00000 6.68000 25.26000
O  4.31800 6.57700 24.05800
C  3.07100 7.84200 25.57600
N  7.89500 2.60800 25.71600
C  7.38500 3.43500 24.77400
C  7.95100 3.06800 23.33300
C  9.05200 1.99000 23.65000
C  8.89600 1.82400 25.12300
C  6.79500 2.57000 22.42500
C  10.48200 2.24800 23.11700
C  10.94200 1.59300 21.83700
N  8.96100 1.50000 28.12300
C  9.75800 0.77100 27.24500
C  10.64700 -0.10300 28.03100
C  10.47000 0.44800 29.39900
C  9.48300 1.39200 29.35400
C  11.64300 -1.09800 27.46700
C  10.95700 0.33100 30.77700
O  11.84300 -0.47000 31.17200
C  10.09000 1.23600 31.64600
C  9.25300 0.36800 32.61100
O  8.22600 -0.23400 32.37100
O  9.83200 0.37200 33.83100
C  9.18200 -0.19600 35.01400
H  4.92000 5.43600 30.51000
H  6.16600 5.02700 24.06300
H  10.34700 0.24500 25.24900
H  7.96100 2.79100 33.11700
H  6.84700 5.32400 32.39600
H  4.53700 3.76500 32.43900
H  5.36500 4.46600 33.81100
H  5.70100 2.75000 33.38300
H  9.19300 5.29000 31.96100
H  10.05100 3.83900 32.61600
H  8.11100 4.88600 34.49600
H  9.25500 6.12400 33.92300
H  3.16200 6.32400 29.52400
H  2.34700 6.60200 28.06100
H  3.53900 7.83200 28.54800
H  2.57500 8.15800 24.65900
H  3.68400 8.59400 26.07400
H  2.27000 7.50000 26.23100
H  8.38800 3.97600 22.91800
H  8.72700 1.03400 23.24000
H  5.81000 2.54900 22.89100
H  6.94000 1.61600 21.91800
H  6.69700 3.30100 21.62100
H  11.20100 1.98700 23.89300
H  10.62800 3.30700 22.90300
H  10.18100 0.98700 21.34500
H  11.75700 0.90000 22.04500
H  11.27600 2.41600 21.20500
H  11.51900 -2.02900 28.02000
H  12.62200 -0.65200 27.63800
H  11.50100 -1.39200 26.42700
H  10.66900 2.00000 32.16300
H  9.78500 0.30600 35.77100
H  9.20600 -1.27400 35.17000
H  8.15800 0.17300 35.06300
Mg 17.45900 51.72200 26.38000
C  19.41100 50.23400 28.98300
C  15.00500 52.31500 28.65600
C  15.44300 52.50600 23.86200
C  19.93000 50.72600 24.11200
N  17.33300 51.34300 28.63100
C  18.15000 50.71100 29.49000
C  17.68300 50.99800 30.91000
C  16.16300 51.29100 30.75200
C  16.18000 51.76700 29.28300
C  15.17600 50.20200 31.14200
C  18.56400 52.11600 31.48800
C  18.94200 52.00700 33.04600
H  17.94300 51.26800 33.92900
N  15.57900 52.32700 26.29500
C  14.72000 52.55400 27.31400
C  13.44600 53.02100 26.86200
C  13.55800 53.17000 25.49300
C  14.95900 52.67300 25.15300
C  12.14800 53.22900 27.76200
C  12.47900 53.68000 24.50100
O  12.87700 54.00200 23.39200
C  11.07500 53.93400 24.84300
N  17.63600 51.60600 24.32100
C  16.68400 52.03000 23.43700
C  17.19200 51.95300 22.00200
C  18.68100 51.57500 22.12500
C  18.78300 51.33700 23.64000
C  16.35500 51.06200 21.04000
C  19.55600 52.79700 21.68700
C  20.88300 52.47500 21.10500
N  19.20100 50.59400 26.47500
C  20.09100 50.26300 25.44400
C  21.27500 49.62300 25.98200
C  21.04200 49.59600 27.32600
C  19.78900 50.25800 27.57400
C  22.46800 49.15700 25.17700
C  21.53700 49.10500 28.60700
O  22.62300 48.61600 28.86700
C  20.57900 49.65500 29.70600
C  20.07100 48.57600 30.57500
O  19.23500 47.74100 30.29900
O  20.57800 48.71100 31.86100
C  20.03400 47.83500 32.97400
H  14.23700 52.40400 29.42700
H  14.77900 52.81700 23.05300
H  20.80000 50.70700 23.45200
H  17.87000 50.12100 31.53000
H  15.79500 52.14300 31.32300
H  14.43400 49.96200 30.38100
H  14.83500 50.47800 32.14000
H  15.76300 49.30800 31.35100
H  17.98700 52.99100 31.18900
H  19.50100 52.02500 30.93900
H  19.01300 53.02400 33.43100
H  19.87400 51.44400 33.09400
H  11.42200 52.47400 27.46200
H  11.80500 54.26400 27.76000
H  12.38500 53.11900 28.82000
H  10.58800 53.01300 25.16600
H  10.72100 54.23900 23.85900
H  10.84100 54.59500 25.67700
H  17.14100 52.93700 21.53600
H  19.11900 50.70200 21.64100
H  15.45400 50.71300 21.54500
H  16.95600 50.23900 20.65300
H  15.88600 51.61800 20.22800
H  19.80700 53.28900 22.62700
H  19.00300 53.56500 21.14700
H  21.59600 52.80000 21.86400
H  20.97800 53.15100 20.25600
H  21.06300 51.48700 20.68100
H  22.18300 48.76900 24.19900
H  22.87000 48.37600 25.82200
H  23.17400 49.91200 24.83100
H  21.14600 50.30800 30.36900
H  20.00000 48.41300 33.89700
H  20.76700 47.04800 33.15100
H  19.10200 47.36300 32.66200

