158

Mg 24.93200 1.66200 29.62100
C  27.08200 1.67400 32.29800
C  22.30500 2.05300 31.75100
C  23.02800 1.98800 26.88600
C  27.80700 1.58200 27.42700
N  24.71100 1.61400 31.80400
C  25.71400 1.67100 32.73200
C  25.20900 2.04900 34.08000
C  23.59800 1.87700 33.96800
C  23.51000 1.87300 32.46600
C  22.86200 0.67300 34.61700
C  25.58400 3.47900 34.61200
C  26.39400 3.61400 35.91500
H  25.85600 4.43800 37.09400
N  22.92900 1.78000 29.37400
C  22.03400 1.95200 30.36100
C  20.69100 1.97900 29.78200
C  20.88100 2.06300 28.35800
C  22.28900 1.95200 28.11100
C  19.40100 2.17800 30.64700
C  19.77700 2.20700 27.32900
O  20.01700 2.25000 26.15700
C  18.35500 2.08200 27.81200
N  25.39600 1.48600 27.38300
C  24.32900 1.73300 26.53500
C  24.84300 2.00800 25.15000
C  26.44200 2.00400 25.28000
C  26.59300 1.66400 26.80100
C  24.25200 1.04900 24.02600
C  27.12300 3.36000 24.97200
C  26.48300 4.61900 25.50000
N  26.94300 1.36300 29.76800
C  27.98600 1.40700 28.81300
C  29.27500 1.39000 29.50500
C  29.00900 1.55400 30.85700
C  27.56300 1.40500 30.94600
C  30.63100 1.21100 28.81000
C  29.54500 1.78100 32.14100
O  30.71100 1.84700 32.55300
C  28.34200 1.91800 33.08300
C  28.61700 0.89700 34.12600
O  28.24200 -0.25600 34.01100
O  29.14100 1.49400 35.25600
C  29.08600 0.50500 36.38000
H  21.44700 2.29000 32.38300
H  22.32100 2.15800 26.07100
H  28.65200 1.64400 26.73900
H  25.71300 1.26400 34.64400
H  23.01000 2.70900 34.35700
H  22.34900 0.12400 33.82800
H  22.14200 0.95500 35.38600
H  23.66400 0.08200 35.06000
H  24.62800 3.97000 34.79600
H  26.23300 3.99900 33.90700
H  27.28000 4.16500 35.60200
H  26.64800 2.62000 36.28400
H  19.08700 3.21200 30.50800
H  19.56700 1.82700 31.66600
H  18.62800 1.48900 30.30800
H  18.31600 1.07000 28.21500
H  17.64800 2.01600 26.98500
H  17.95200 2.81100 28.51500
H  24.60300 3.03800 24.88500
H  26.76800 1.12000 24.73200
H  23.50000 1.50500 23.38200
H  23.72700 0.23800 24.53100
H  25.08900 0.60500 23.48800
H  26.97100 3.50700 23.90300
H  28.19500 3.37100 25.17100
H  25.87300 4.51700 26.39800
H  25.71200 4.94600 24.80300
H  27.20600 5.43200 25.56900
H  30.70700 1.82500 27.91300
H  30.77700 0.21100 28.40100
H  31.43300 1.43200 29.51500
H  28.22500 2.86600 33.60800
H  28.20000 0.71500 36.97900
H  29.92100 0.76300 37.03200
H  28.93300 -0.53200 36.08100
Mg -12.18400 38.72000 41.36700
C  -9.86600 36.08900 40.58200
C  -9.89700 40.94800 39.69200
C  -14.47700 41.17300 41.29800
C  -14.51500 36.47500 42.18800
N  -10.09900 38.45700 40.14600
C  -9.38500 37.31600 40.04300
C  -8.12300 37.51700 39.17500
C  -8.08600 39.08900 39.00800
C  -9.45600 39.58500 39.66300
C  -6.79600 39.80600 39.55100
C  -8.15400 36.80100 37.78400
C  -7.00600 35.89200 37.42300
H  -5.90600 36.51000 36.56400
N  -12.12900 40.84700 40.79800
C  -11.04900 41.51300 40.24700
C  -11.44100 42.89100 40.02000
C  -12.79700 43.01500 40.38600
C  -13.22900 41.66200 40.85000
C  -10.54300 43.92800 39.33100
C  -13.63800 44.29600 40.36500
O  -13.05400 45.28500 40.00700
C  -15.09900 44.41400 40.76000
N  -14.12700 38.80000 41.65300
C  -14.83700 39.91400 41.73300
C  -16.23100 39.67600 42.26000
C  -16.30100 38.15100 42.28100
C  -14.90300 37.77800 42.08000
C  -16.48600 40.51300 43.48800
C  -17.30100 37.46900 41.34300
C  -18.15100 36.29700 41.94700
N  -12.16000 36.74100 41.54100
C  -13.21800 35.92100 41.92700
C  -12.75700 34.61400 42.15100
C  -11.45400 34.66900 41.55800
C  -11.14100 35.99200 41.20700
C  -13.47700 33.48700 42.81100
C  -10.30700 33.82500 41.26800
O  -10.11700 32.61200 41.53200
C  -9.28900 34.72400 40.65600
C  -7.98600 34.47800 41.42300
O  -7.27000 33.52900 41.27200
O  -7.77100 35.45100 42.37100
C  -6.73100 35.09000 43.26100
H  -9.24700 41.58400 39.08700
H  -15.33300 41.85000 41.30700
H  -15.34000 35.79200 42.40100
H  -7.29600 37.16500 39.79200
H  -8.17500 39.38300 37.96300
H  -6.23600 39.12700 40.19300
H  -6.92700 40.72000 40.13100
H  -6.09800 40.11200 38.77100
H  -8.42000 37.44500 36.94500
H  -8.98900 36.11900 37.93800
H  -7.22800 34.97300 36.88100
H  -6.51400 35.65100 38.36500
H  -11.07900 44.65900 38.72500
H  -9.81100 43.39200 38.72700
H  -9.87100 44.29200 40.10900
H  -15.41300 45.45300 40.65400
H  -15.27900 44.26100 41.82400
H  -15.84900 43.80900 40.25000
H  -16.92700 39.93900 41.46400
H  -16.62200 37.90500 43.29300
H  -15.62400 41.16600 43.62800
H  -16.60100 39.95600 44.41700
H  -17.35600 41.13400 43.27300
H  -16.65900 37.13700 40.52800
H  -17.92000 38.23400 40.87500
H  -19.13200 36.27800 41.47200
H  -18.28000 36.45900 43.01700
H  -17.65700 35.34000 41.78300
H  -12.71700 32.84300 43.25400
H  -14.14000 33.07400 42.05100
H  -13.94700 33.98100 43.66100
H  -9.10500 34.46200 39.61400
H  -5.81200 34.91300 42.70100
H  -6.91400 34.17400 43.82200
H  -6.65400 35.90100 43.98500

