158

Mg 3.01300 -0.68300 43.66000
C  6.31000 0.39700 43.25900
C  1.90100 2.09400 41.84600
C  -0.07000 -2.10400 43.41500
C  4.18900 -3.60800 45.03800
N  3.95700 0.91700 42.43400
C  5.30500 1.22000 42.56800
C  5.50800 2.63500 42.14600
C  4.18500 3.28700 42.06000
C  3.27400 2.02600 42.17900
C  3.86200 4.37400 43.14600
C  6.33900 2.78800 40.84000
C  5.81700 2.18600 39.54800
H  5.71700 3.16700 38.38300
N  1.08900 -0.02700 42.83600
C  0.85400 1.15400 42.16600
C  -0.54100 1.23100 41.83700
C  -1.17600 -0.05300 42.24700
C  -0.07600 -0.78200 42.94500
C  -1.11800 2.47700 41.21200
C  -2.56100 -0.44000 41.95200
O  -3.28900 0.32400 41.39500
C  -3.08000 -1.85100 42.23400
N  2.22300 -2.69100 44.04300
C  0.92600 -2.99700 43.95900
C  0.65600 -4.47600 44.13800
C  2.01000 -4.94300 44.69900
C  2.89700 -3.69800 44.59600
C  -0.57900 -4.78300 44.97300
C  2.74500 -6.13800 43.85900
C  3.59700 -7.08100 44.67800
N  4.94100 -1.52300 44.13600
C  5.23000 -2.55500 44.86200
C  6.64700 -2.61600 45.10500
C  7.12000 -1.46800 44.48500
C  6.01300 -0.80200 43.94500
C  7.33700 -3.64500 45.84400
C  8.27200 -0.66500 44.24500
O  9.46800 -0.82700 44.55700
C  7.80800 0.64600 43.43600
C  8.16100 1.86800 44.22500
O  8.79700 2.83700 43.83200
O  7.98400 1.64500 45.59400
C  8.56800 2.65400 46.45300
H  1.57000 2.96000 41.26900
H  -1.04400 -2.59900 43.39400
H  4.45000 -4.56200 45.50100
H  6.02600 3.10600 42.98200
H  4.09600 3.86600 41.14100
H  3.40600 5.19600 42.59300
H  4.76100 4.71800 43.65700
H  3.10700 4.05400 43.86400
H  7.28500 2.27600 41.01200
H  6.66400 3.80200 40.60800
H  4.82300 1.77600 39.72400
H  6.44800 1.32400 39.33400
H  -0.87700 2.52200 40.15000
H  -0.75500 3.38800 41.68800
H  -2.19300 2.57800 41.36400
H  -4.04700 -1.92900 41.73700
H  -3.19700 -2.08600 43.29200
H  -2.41500 -2.53300 41.70400
H  0.57500 -4.93700 43.15300
H  1.87600 -5.28200 45.72600
H  -1.16300 -3.92400 45.30200
H  -0.23200 -5.30300 45.86500
H  -1.28500 -5.38100 44.39700
H  3.29500 -5.80200 42.98000
H  2.02800 -6.80200 43.37500
H  3.30300 -8.11900 44.52700
H  3.66800 -6.82600 45.73600
H  4.61700 -7.06100 44.29300
H  7.57300 -4.56200 45.30500
H  6.60000 -3.92400 46.59700
H  8.21300 -3.21600 46.33100
H  8.34600 0.69200 42.48900
H  9.65700 2.68500 46.45300
H  8.28200 2.55500 47.50100
H  8.11500 3.59600 46.14400
Mg 1.37200 7.62100 25.47900
C  1.98200 9.48700 28.41500
C  1.42900 4.81600 27.39900
C  0.73200 5.82500 22.69500
C  1.64200 10.46500 23.58200
N  1.76800 7.22500 27.70700
C  1.76900 8.10500 28.68700
C  1.77700 7.45300 30.13600
C  1.81900 5.96100 29.73800
C  1.60900 5.95300 28.18900
C  3.00800 5.18000 30.27800
C  0.53800 8.05300 30.96100
C  0.91600 8.51400 32.37100
H  1.99200 7.68600 33.04400
N  1.22400 5.51600 25.09000
C  1.25700 4.53000 25.98300
C  1.08900 3.19300 25.30900
C  0.96000 3.58300 23.91900
C  0.92800 5.01900 23.83100
C  1.17700 1.81900 25.95100
C  0.85900 2.56800 22.76700
O  0.63200 2.96100 21.65000
C  0.85400 1.12300 22.92100
N  1.24200 8.03700 23.38500
C  0.88500 7.18300 22.45900
C  0.65600 7.88100 21.04500
C  0.93000 9.40500 21.38600
C  1.21000 9.32800 22.92500
C  1.63700 7.21800 20.03600
C  -0.23600 10.33200 21.00500
C  0.29400 11.62200 20.29800
N  1.68700 9.61100 25.89200
C  1.83800 10.64200 24.97400
C  2.19300 11.86500 25.73700
C  2.26900 11.41800 27.05400
C  1.96600 10.05900 27.09700
C  2.38900 13.25000 25.24300
C  2.51600 11.88900 28.44000
O  2.82800 13.02500 28.75400
C  2.25900 10.66300 29.41900
C  3.44700 10.54400 30.23600
O  4.51900 10.27400 29.88200
O  3.18000 11.08100 31.48100
C  4.28500 11.42000 32.38600
H  1.37200 3.83800 27.88300
H  0.35200 5.33800 21.79500
H  1.75300 11.36500 22.97200
H  2.64100 7.87400 30.65000
H  0.90800 5.51700 30.13900
H  3.72800 5.92700 30.61100
H  3.31900 4.49800 29.48700
H  2.60200 4.54700 31.06700
H  -0.30000 7.36100 31.04800
H  0.20800 8.94700 30.43100
H  0.07100 8.53600 33.05900
H  1.28100 9.52500 32.18800
H  1.27900 1.92800 27.03100
H  2.00800 1.21900 25.57900
H  0.24800 1.28000 25.76600
H  0.86300 0.63300 21.94700
H  -0.08000 0.95000 23.45500
H  1.65200 0.60600 23.45500
H  -0.38100 7.69600 20.76200
H  1.80600 9.77300 20.85100
H  2.61000 7.11000 20.51700
H  1.60000 7.82100 19.12900
H  1.39500 6.17800 19.81800
H  -0.70200 10.80300 21.87000
H  -0.95700 9.78200 20.40100
H  -0.32000 12.39600 20.75800
H  -0.02600 11.45500 19.27000
H  1.36100 11.84700 20.30300
H  2.86200 13.86900 26.00500
H  1.43500 13.64300 24.89200
H  3.00900 13.22000 24.34600
H  1.41900 10.91100 30.06800
H  3.97000 11.44800 33.42900
H  4.62300 12.42400 32.13000
H  5.06800 10.66600 32.29500

