158

Mg 17.56600 -1.13600 27.80600
C  16.60700 0.96300 30.51700
C  19.29600 -3.05100 29.80900
C  18.84100 -2.60800 24.97100
C  15.87300 1.12300 25.62900
N  18.05000 -0.93100 30.04100
C  17.45600 -0.08800 30.94300
C  17.78700 -0.62900 32.38900
C  18.71400 -1.90100 32.10900
C  18.71200 -1.95600 30.55400
C  20.13600 -1.77600 32.78500
C  16.44700 -1.10000 33.02100
C  16.37100 -0.80000 34.57300
H  17.56300 -0.26200 35.42700
N  18.84100 -2.65400 27.40500
C  19.43900 -3.35600 28.42400
C  20.25400 -4.40600 27.94000
C  20.26700 -4.17600 26.48600
C  19.27700 -3.15900 26.24700
C  21.11800 -5.33100 28.77200
C  21.05000 -4.93200 25.43800
O  20.85900 -4.80100 24.22900
C  21.91800 -6.00900 25.88600
N  17.36800 -0.79400 25.58000
C  18.04800 -1.53900 24.64300
C  17.69400 -1.03300 23.20900
C  16.42000 -0.11200 23.48300
C  16.52600 0.07300 24.99500
C  18.85700 -0.28600 22.56800
C  15.05000 -0.67200 23.02200
C  13.96700 0.30100 22.70200
N  16.49400 0.64600 28.01700
C  15.87000 1.41100 27.04100
C  15.27300 2.51800 27.71100
C  15.42100 2.35000 29.02900
C  16.17300 1.18200 29.19200
C  14.44400 3.59800 27.10000
C  15.14400 2.95100 30.33500
O  14.53400 4.03000 30.62200
C  15.79400 1.94000 31.33000
C  16.62000 2.66600 32.35800
O  17.82700 2.80600 32.29400
O  15.68500 3.16200 33.26800
C  16.28900 3.78200 34.47600
H  19.84000 -3.60100 30.58000
H  19.08000 -3.19100 24.07900
H  15.40800 1.96100 25.10600
H  18.27800 0.12900 33.00000
H  18.27200 -2.82300 32.48600
H  20.22600 -1.00200 33.54700
H  20.83600 -1.55000 31.98100
H  20.45500 -2.75400 33.14500
H  16.28500 -2.17800 33.04700
H  15.58900 -0.64400 32.52900
H  15.99300 -1.67600 35.10000
H  15.67100 0.03500 34.55900
H  22.09800 -5.44200 28.30700
H  20.65500 -6.31200 28.88700
H  21.39400 -4.93000 29.74700
H  21.40100 -6.73000 26.51800
H  22.83100 -5.61700 26.33500
H  22.31500 -6.46400 24.97800
H  17.48800 -1.86200 22.53200
H  16.52300 0.83600 22.95400
H  18.76000 0.75100 22.89200
H  18.92400 -0.35200 21.48200
H  19.80400 -0.63100 22.98200
H  14.60000 -1.29900 23.79300
H  15.26000 -1.29200 22.15100
H  13.67300 0.24900 21.65300
H  14.38800 1.30300 22.61700
H  13.09800 0.24200 23.35800
H  13.42500 3.23300 26.97100
H  14.86400 3.86800 26.13100
H  14.42700 4.54800 27.63400
H  14.91400 1.51000 31.80800
H  16.10500 3.19100 35.37300
H  15.85100 4.73900 34.75900
H  17.35800 3.98500 34.54500
Mg 40.90500 9.06900 29.43400
C  42.56400 10.67800 32.06100
C  38.78600 7.55100 31.72200
C  39.44800 7.74200 26.94400
C  43.54100 10.37500 27.27300
N  40.71400 9.18700 31.67500
C  41.38900 10.02100 32.54700
C  40.89900 9.82400 34.00300
C  39.71700 8.69800 33.81500
C  39.81800 8.38000 32.36200
C  39.81000 7.42600 34.80000
C  40.42800 11.20100 34.57400
C  39.65000 11.10600 35.95200
H  40.29000 11.69800 37.20300
N  39.30800 7.82200 29.34200
C  38.51700 7.42700 30.36400
C  37.41600 6.65700 29.72400
C  37.46300 6.84900 28.30500
C  38.76000 7.56200 28.14000
C  36.35300 5.94900 30.59200
C  36.52000 6.51200 27.22900
O  36.76300 6.95900 26.07600
C  35.24600 5.75500 27.49700
N  41.37500 9.06700 27.34600
C  40.62400 8.35500 26.52800
C  41.08200 8.59900 25.08500
C  42.23500 9.66200 25.17400
C  42.41900 9.64500 26.67100
C  41.59700 7.33600 24.31300
C  41.74000 11.05700 24.68700
C  42.11500 11.57700 23.29500
N  42.71500 10.12000 29.56600
C  43.70800 10.58800 28.64400
C  44.66700 11.35200 29.31600
C  44.25800 11.40300 30.66800
C  43.10600 10.62500 30.70800
C  45.88400 11.77900 28.70200
C  44.62500 11.89600 31.99200
O  45.53600 12.64100 32.40500
C  43.55700 11.42200 32.96000
C  44.07900 10.44600 33.87500
O  44.56300 9.37300 33.53900
O  43.95400 10.91100 35.19800
C  44.55400 10.05500 36.19900
H  38.12500 6.93000 32.33100
H  38.93100 7.33800 26.07000
H  44.13500 10.86300 26.49700
H  41.73000 9.51000 34.63500
H  38.73600 9.16200 33.91600
H  38.79500 7.27800 35.16800
H  40.44900 7.68400 35.64500
H  40.23800 6.57000 34.27900
H  39.91700 11.65400 33.72400
H  41.26800 11.89500 34.60800
H  39.19900 10.13200 36.14300
H  38.84200 11.81300 35.76100
H  35.30200 6.19000 30.43000
H  36.56000 5.83500 31.65600
H  36.27900 4.90900 30.27500
H  34.85800 5.40900 26.53900
H  34.57000 6.50700 27.90600
H  35.42600 4.97900 28.24100
H  40.24300 8.91500 24.46400
H  43.08300 9.42200 24.53200
H  42.38900 6.91400 24.93300
H  42.09400 7.62400 23.38600
H  40.72700 6.68500 24.22800
H  42.30900 11.76800 25.28600
H  40.67600 11.24300 24.83200
H  42.48100 12.60100 23.22200
H  41.15300 11.56200 22.78400
H  42.84500 10.86400 22.91200
H  46.63900 11.97700 29.46300
H  45.65700 12.72700 28.21400
H  46.25600 11.03200 28.00000
H  43.18100 12.26300 33.54400
H  44.01000 9.11100 36.17100
H  44.30100 10.43900 37.18700
H  45.63500 9.95600 36.10800

