158

Mg -0.36000 7.54100 25.30300
C  0.93400 9.61400 27.77200
C  0.15800 4.84300 27.31400
C  -1.19600 5.46900 22.71000
C  0.16700 10.05800 22.94800
N  0.60700 7.24900 27.26600
C  0.81900 8.26500 28.16100
C  0.95100 7.68600 29.63200
C  0.95400 6.19200 29.38000
C  0.50000 6.07000 27.95300
C  2.26000 5.50300 29.63400
C  -0.09900 8.16100 30.58600
C  0.28100 8.26200 32.10300
H  1.37100 7.39600 32.56200
N  -0.64400 5.40600 25.10300
C  -0.35000 4.51100 26.00900
C  -0.68900 3.15500 25.54400
C  -1.18200 3.33800 24.17800
C  -0.96400 4.77900 23.91800
C  -0.65000 1.88800 26.37400
C  -1.64700 2.26200 23.23800
O  -1.97400 2.50200 22.06200
C  -1.90300 0.80200 23.64000
N  -0.31700 7.64700 23.00400
C  -0.82900 6.73600 22.24200
C  -1.12600 7.17800 20.80900
C  -0.76600 8.75500 20.93100
C  -0.29000 8.86600 22.39900
C  -0.35600 6.52900 19.69000
C  -1.93100 9.72600 20.50900
C  -3.04000 9.98100 21.50500
N  0.38400 9.47900 25.30000
C  0.46300 10.41700 24.28200
C  0.84700 11.69600 24.87800
C  1.05800 11.46100 26.26800
C  0.83000 10.06800 26.41000
C  1.03000 12.95900 24.15200
C  1.38400 12.05500 27.56400
O  1.66200 13.19600 27.94300
C  1.20500 10.82200 28.61000
C  2.32200 10.72000 29.62500
O  3.39600 10.19900 29.43200
O  1.99200 11.38600 30.80500
C  2.86000 11.24100 31.98200
H  0.17800 3.93400 27.92000
H  -1.64200 4.86700 21.91500
H  0.29800 10.84600 22.20300
H  1.95600 8.00200 29.90800
H  0.22400 5.59900 29.93100
H  3.03300 6.17200 30.01400
H  2.68400 4.93100 28.80900
H  2.11200 4.77200 30.42800
H  -0.90300 7.43600 30.46100
H  -0.38200 9.12000 30.15200
H  -0.64900 7.85300 32.49600
H  0.43900 9.25400 32.52600
H  0.23800 1.94200 27.00500
H  -0.57100 0.94700 25.83000
H  -1.45900 1.82200 27.10100
H  -0.97500 0.27500 23.86400
H  -2.37600 0.41600 22.73700
H  -2.64900 0.81700 24.43400
H  -2.16200 6.94300 20.56600
H  0.14600 9.05300 20.41400
H  -1.04200 6.37100 18.85700
H  0.15700 5.60400 19.95300
H  0.32000 7.29200 19.30300
H  -2.34200 9.34800 19.57200
H  -1.48700 10.69100 20.26200
H  -3.98800 9.60200 21.12200
H  -3.27500 11.02700 21.69900
H  -2.87600 9.43700 22.43500
H  1.48200 12.75500 23.18100
H  1.71100 13.62300 24.68300
H  0.10100 13.45500 23.87200
H  0.34000 11.10800 29.20800
H  3.66400 11.97600 31.95400
H  3.34100 10.26500 32.04400
H  2.37900 11.36700 32.95200
Mg -5.62100 25.71800 25.99400
C  -3.85100 26.83300 28.88400
C  -7.39600 23.71000 27.82300
C  -6.47400 24.16500 23.11500
C  -3.40100 27.78700 24.08700
N  -5.67000 25.34600 28.12800
C  -4.87900 25.87500 29.10000
C  -5.41000 25.51700 30.43000
C  -6.44700 24.30100 30.10400
C  -6.61200 24.53300 28.64000
C  -5.93500 22.87300 30.42400
C  -6.14400 26.78900 31.01800
C  -5.78200 27.11900 32.38300
H  -5.24400 26.03600 33.33400
N  -6.83000 24.25800 25.52900
C  -7.48300 23.50400 26.45300
C  -8.23600 22.40800 25.86600
C  -7.97600 22.48900 24.49900
C  -7.08000 23.67200 24.31900
C  -9.21200 21.51800 26.59200
C  -8.42800 21.58400 23.37100
O  -8.14500 21.83500 22.23700
C  -9.40000 20.35200 23.59200
N  -5.15500 26.07200 23.85200
C  -5.63900 25.29700 22.84200
C  -5.06100 25.69800 21.44300
C  -4.14000 26.91300 21.78400
C  -4.23100 26.93900 23.33100
C  -4.39900 24.46900 20.80700
C  -4.54400 28.30500 21.17000
C  -3.35800 29.25000 20.74400
N  -3.95000 27.01700 26.28000
C  -3.25000 27.84400 25.43900
C  -2.22400 28.51600 26.23100
C  -2.44100 28.06500 27.53500
C  -3.53800 27.23400 27.52600
C  -1.03100 29.36200 25.82100
C  -1.90800 28.20900 28.90500
O  -0.89400 28.88400 29.27500
C  -2.95600 27.52000 29.87900
C  -2.05600 26.60700 30.58000
O  -1.53000 25.59600 30.08300
O  -1.78200 27.23000 31.79100
C  -0.77500 26.40800 32.42900
H  -8.07800 23.28400 28.56200
H  -6.69000 23.58900 22.21400
H  -2.68000 28.41300 23.55800
H  -4.67300 25.00200 31.04700
H  -7.36300 24.35100 30.69300
H  -5.13600 22.80000 31.16200
H  -5.71700 22.33000 29.50400
H  -6.75900 22.25000 30.77200
H  -7.21000 26.58300 30.92200
H  -6.00200 27.66500 30.38600
H  -6.68000 27.41000 32.92700
H  -4.97500 27.83200 32.21000
H  -10.19000 21.57500 26.11400
H  -9.30300 21.83800 27.63000
H  -8.90900 20.47500 26.68200
H  -9.00000 19.77400 24.42500
H  -9.37900 19.79900 22.65300
H  -10.38300 20.71800 23.88900
H  -6.00100 25.98600 20.97200
H  -3.07700 26.77500 21.58500
H  -5.08700 24.16900 20.01600
H  -4.27600 23.63100 21.49300
H  -3.38500 24.66600 20.45800
H  -5.09100 28.75800 21.99700
H  -5.36900 28.15400 20.47400
H  -2.35900 29.04500 21.12900
H  -3.36800 30.28900 21.07600
H  -3.24500 29.29000 19.66100
H  -0.63100 28.92200 24.90700
H  -0.23100 29.37900 26.56100
H  -1.40100 30.33900 25.51200
H  -3.36400 28.16500 30.65700
H  0.19800 26.59800 31.97700
H  -1.08700 25.36800 32.53200
H  -0.71800 26.63300 33.49400

