158

Mg 40.63300 8.57100 29.47500
C  42.26100 10.37200 31.91500
C  38.52200 7.28800 31.85900
C  38.87000 7.31000 27.04800
C  43.00400 9.72200 27.15300
N  40.44900 8.90700 31.73400
C  41.13400 9.72100 32.50200
C  40.71400 9.63700 34.00300
C  39.44700 8.64100 33.84600
C  39.50200 8.23400 32.41100
C  39.37600 7.34900 34.74800
C  40.32200 11.01700 34.66800
C  39.38900 10.95600 35.78200
H  39.66900 11.77100 36.99800
N  38.95100 7.47600 29.40100
C  38.19200 6.97200 30.47100
C  37.16100 6.13900 30.06100
C  37.14400 6.21500 28.62200
C  38.35000 7.04900 28.28800
C  36.37900 5.25600 30.96500
C  36.09300 5.78100 27.53600
O  36.09400 6.05200 26.35200
C  34.84600 5.13600 28.12800
N  41.11400 8.31400 27.42000
C  40.06800 7.86900 26.63500
C  40.36500 8.14100 25.12000
C  41.85200 8.67200 25.17000
C  42.06600 8.92300 26.67400
C  40.11500 7.03500 24.03000
C  42.10900 9.81500 24.17200
C  41.47700 11.18400 24.46100
N  42.35100 9.61800 29.53600
C  43.17200 10.06700 28.51100
C  44.22700 10.86900 29.03100
C  43.88500 11.11400 30.33600
C  42.69500 10.36800 30.56200
C  45.33300 11.31700 28.22300
C  44.24400 11.75200 31.60800
O  45.22600 12.43200 31.83900
C  43.21600 11.35400 32.61800
C  43.95400 10.73000 33.79200
O  44.21200 9.54200 33.95800
O  43.94800 11.67400 34.79400
C  44.33100 11.18300 36.19500
H  37.81100 6.98200 32.62900
H  38.31400 7.04700 26.14600
H  43.58300 10.29500 26.42600
H  41.47800 9.02900 34.48600
H  38.47700 9.09000 34.06000
H  38.36500 7.21500 35.13400
H  40.09800 7.32900 35.56500
H  39.72200 6.47200 34.20200
H  39.98500 11.77200 33.95800
H  41.28300 11.37200 35.04000
H  39.34000 9.91300 36.09300
H  38.36400 11.08500 35.43300
H  36.63500 4.22900 30.70300
H  35.30300 5.28500 30.79900
H  36.48100 5.43200 32.03600
H  34.06800 4.92600 27.39400
H  34.44800 5.90400 28.79200
H  35.12400 4.20200 28.61500
H  39.68000 8.95700 24.89100
H  42.49500 7.82300 24.93400
H  39.97200 6.08000 24.53500
H  40.92100 7.06100 23.29500
H  39.21500 7.32700 23.48900
H  41.66900 9.52100 23.22000
H  43.18700 9.91300 24.03700
H  41.00000 11.39200 25.41900
H  40.74400 11.23500 23.65600
H  42.30000 11.85300 24.21100
H  45.78900 12.20900 28.65200
H  44.94700 11.56500 27.23400
H  46.08800 10.53300 28.16500
H  42.66200 12.21200 33.00000
H  43.64700 11.46200 36.99700
H  45.21200 11.77300 36.44600
H  44.58400 10.13100 36.32600
Mg -2.35100 35.50600 26.57700
C  -4.00300 33.79100 29.19300
C  -0.68900 37.42000 28.83300
C  -1.06600 37.20300 24.03800
C  -4.40500 33.81800 24.44500
N  -2.59800 35.68800 28.78000
C  -3.16400 34.85900 29.64100
C  -2.72400 35.16600 31.15400
C  -1.90700 36.48400 30.97500
C  -1.75300 36.58000 29.42600
C  -2.49300 37.77800 31.64900
C  -1.98200 33.98000 31.81900
C  -2.68500 33.35200 33.06400
H  -1.74000 33.30900 34.31700
N  -0.85600 36.88800 26.44800
C  -0.30800 37.63200 27.51100
C  0.80500 38.50700 26.97800
C  0.75400 38.39800 25.53200
C  -0.38900 37.48400 25.22800
C  1.62000 39.37100 27.85400
C  1.61500 39.19900 24.54900
O  1.53600 39.01900 23.34600
C  2.80200 39.97500 24.93700
N  -2.93400 35.73800 24.55600
C  -2.17400 36.40100 23.73000
C  -2.75800 36.36200 22.32200
C  -3.76800 35.18400 22.41400
C  -3.71000 34.87000 23.86900
C  -3.25500 37.70300 21.74800
C  -3.44900 33.97800 21.51400
C  -2.08900 33.27300 21.92000
N  -3.84100 34.06300 26.71800
C  -4.49800 33.35800 25.76500
C  -5.08100 32.22200 26.31400
C  -4.93600 32.36500 27.67600
C  -4.25800 33.50300 27.87600
C  -5.66400 31.12400 25.40400
C  -5.26000 31.79900 28.94400
O  -5.78900 30.74000 29.22400
C  -4.79700 32.76600 30.01900
C  -5.98700 33.27800 30.77000
O  -6.93300 33.86200 30.33700
O  -5.81100 32.95600 32.09300
C  -7.04800 32.84400 32.94000
H  -0.16400 37.99500 29.59800
H  -0.72100 37.91200 23.28200
H  -4.84900 33.10900 23.74200
H  -3.60500 35.38300 31.75900
H  -0.90200 36.50700 31.39600
H  -3.29100 37.49600 32.33500
H  -2.93100 38.43900 30.90100
H  -1.77900 38.27900 32.30200
H  -1.00600 34.36600 32.11400
H  -1.88200 33.17300 31.09300
H  -2.78900 32.29900 32.80400
H  -3.66700 33.80300 33.19900
H  1.82800 40.30400 27.33100
H  2.46000 38.75300 28.17300
H  1.07500 39.59600 28.77100
H  2.44700 40.94800 25.27800
H  3.39700 40.08700 24.03100
H  3.34700 39.45300 25.72300
H  -1.94800 36.02200 21.67600
H  -4.80400 35.41300 22.16300
H  -2.62600 38.50100 22.14100
H  -4.30600 37.88100 21.97500
H  -3.07500 37.71600 20.67300
H  -3.27600 34.16100 20.45400
H  -4.27900 33.27700 21.61000
H  -1.57800 33.11400 20.97000
H  -2.22700 32.35600 22.49400
H  -1.36600 33.89500 22.44800
H  -4.97500 30.67200 24.69100
H  -6.56500 31.45500 24.88600
H  -5.97300 30.32500 26.07700
H  -4.16600 32.18000 30.68700
H  -7.81200 33.39000 32.38700
H  -6.79900 33.36000 33.86600
H  -7.26000 31.78100 33.05500

