158

Mg 2.02200 -1.44000 44.03700
C  5.36900 -1.04100 43.28900
C  1.36800 1.52700 42.26700
C  -1.33700 -2.06600 44.08800
C  2.64200 -4.63100 45.10500
N  3.19300 -0.07200 42.72800
C  4.56300 -0.03800 42.64200
C  5.12000 1.18200 41.76700
C  3.80100 1.98700 41.54700
C  2.72600 1.09600 42.26500
C  3.97400 3.36900 42.21000
C  5.69400 0.54400 40.51200
C  6.79700 1.32800 39.86700
H  6.51000 2.08100 38.56800
N  0.18500 -0.39600 43.31600
C  0.20000 0.88100 42.74400
C  -1.20400 1.42800 42.67500
C  -2.05300 0.32600 43.11800
C  -1.09500 -0.78400 43.59100
C  -1.55400 2.85300 42.16800
C  -3.60700 0.30000 43.00200
O  -4.23600 1.15900 42.39800
C  -4.34400 -0.75800 43.57100
N  0.84100 -3.10800 44.50000
C  -0.55100 -3.18500 44.43600
C  -1.13900 -4.57200 44.80500
C  0.22000 -5.34800 44.99200
C  1.35400 -4.28600 44.86700
C  -2.18000 -4.48300 45.99000
C  0.44800 -6.64300 44.08900
C  0.39400 -8.02000 44.79100
N  3.69600 -2.58000 44.37500
C  3.79300 -3.90300 44.76100
C  5.22000 -4.22500 44.84600
C  5.87400 -3.09900 44.32100
C  4.88800 -2.16500 43.96000
C  5.71000 -5.51100 45.33900
C  7.12500 -2.46900 44.01500
O  8.27700 -2.88800 44.18200
C  6.91600 -1.12600 43.34400
C  7.66700 0.01400 43.91800
O  8.62900 0.45400 43.33000
O  7.00400 0.70300 44.97800
C  7.41400 2.12100 45.27900
H  1.09900 2.54600 41.98100
H  -2.39400 -2.27200 43.90700
H  2.91500 -5.59800 45.53200
H  5.94400 1.62900 42.32300
H  3.43900 2.04800 40.52100
H  4.72100 3.33900 43.00400
H  3.08300 3.74400 42.71300
H  4.28100 4.11900 41.48000
H  4.87500 0.46100 39.79800
H  5.92500 -0.52000 40.56400
H  7.55500 0.63100 39.51000
H  7.24900 2.05800 40.53800
H  -1.66400 2.82000 41.08400
H  -0.82900 3.54700 42.59300
H  -2.53100 3.08200 42.59200
H  -5.39700 -0.52100 43.72200
H  -3.94600 -0.97200 44.56300
H  -4.17200 -1.61300 42.91600
H  -1.74800 -4.79100 43.92800
H  0.18900 -5.73300 46.01100
H  -1.76400 -5.00400 46.85200
H  -3.10800 -4.98100 45.70700
H  -2.31200 -3.42300 46.20200
H  1.41800 -6.50800 43.61100
H  -0.42900 -6.59500 43.44400
H  0.28500 -8.05200 45.87500
H  1.27900 -8.60400 44.54000
H  -0.54700 -8.47800 44.48400
H  5.29200 -6.26200 44.66900
H  5.43200 -5.70900 46.37500
H  6.79600 -5.54800 45.25700
H  7.25300 -1.26200 42.31600
H  7.83000 2.26100 46.27600
H  6.51300 2.71900 45.14100
H  8.19100 2.56000 44.65300
Mg -0.27200 7.26400 27.17600
C  0.69100 9.75900 29.57200
C  -0.11600 4.94400 29.53800
C  -1.07000 5.30600 24.75700
C  0.44200 9.91000 24.65600
N  0.22400 7.40200 29.29500
C  0.44600 8.48200 30.04700
C  0.39800 8.10700 31.53000
C  0.32600 6.51500 31.52700
C  0.14100 6.24100 30.06200
C  1.63200 5.81500 32.07800
C  -0.90200 8.67000 32.22500
C  -0.81200 8.69700 33.75400
H  0.54400 8.42600 34.47600
N  -0.58300 5.35500 27.21200
C  -0.43500 4.47100 28.26500
C  -0.60500 3.11400 27.79300
C  -0.79700 3.22600 26.35500
C  -0.82700 4.68300 26.01100
C  -0.48500 1.86700 28.62900
C  -0.98300 2.10200 25.37000
O  -1.01600 2.26800 24.17400
C  -1.03700 0.67100 25.80800
N  -0.26100 7.56300 25.03000
C  -0.89100 6.59000 24.30000
C  -1.19300 7.07000 22.82000
C  -0.79100 8.61100 22.93500
C  -0.15300 8.71600 24.27600
C  -0.42500 6.34000 21.66400
C  -2.07000 9.48100 22.93400
C  -2.22700 10.45600 21.82700
N  0.44800 9.40600 27.06400
C  0.78700 10.21200 26.00100
C  1.34000 11.42700 26.49900
C  1.28200 11.35600 27.85900
C  0.72800 10.14500 28.15400
C  1.85800 12.63300 25.69700
C  1.64300 11.97400 29.09900
O  2.25100 13.06400 29.19500
C  1.21300 11.01200 30.23600
C  2.46700 10.84600 31.04500
O  3.44500 10.15100 30.70400
O  2.46100 11.62900 32.14800
C  3.72500 11.73100 32.89100
H  0.00100 4.17500 30.30300
H  -1.52100 4.79500 23.90400
H  0.60900 10.68100 23.90200
H  1.32500 8.43900 31.99700
H  -0.45800 6.06500 32.13700
H  1.34200 4.97800 32.71300
H  2.15200 6.58900 32.64300
H  2.18200 5.40100 31.23200
H  -1.79200 8.19300 31.81600
H  -0.95800 9.73100 31.98000
H  -1.55900 8.02000 34.16800
H  -1.08500 9.71900 34.01500
H  0.42800 1.31500 28.40600
H  -1.45900 1.38300 28.70500
H  -0.34000 2.08500 29.68700
H  -1.19600 0.03800 24.93500
H  -1.82100 0.39800 26.51400
H  -0.02000 0.40200 26.09300
H  -2.24800 6.91700 22.58900
H  -0.11900 8.93100 22.13900
H  -0.11700 7.04400 20.89000
H  -0.99500 5.62500 21.07100
H  0.47900 5.86400 22.04300
H  -2.09300 10.05200 23.86200
H  -3.05200 9.01000 22.96400
H  -1.52500 11.28500 21.91700
H  -3.23200 10.87700 21.80800
H  -1.99300 10.05000 20.84300
H  2.52300 12.26400 24.91600
H  2.42700 13.28700 26.35800
H  1.16800 13.21100 25.08100
H  0.37200 11.43900 30.78200
H  3.65400 12.34600 33.78800
H  4.55600 12.18200 32.34800
H  3.93200 10.69600 33.16400

