158

Mg -1.50900 17.89000 26.01700
C  -1.60600 15.41400 28.58700
C  -1.86600 20.29100 28.46200
C  -1.42700 20.08000 23.69200
C  -1.33800 15.26600 23.74000
N  -1.63000 17.80900 28.29300
C  -1.51200 16.76100 29.13800
C  -1.50200 17.28800 30.63800
C  -2.01600 18.77400 30.52400
C  -1.91100 18.98100 29.00400
C  -3.51600 19.09600 30.96000
C  -0.11000 17.23500 31.43300
C  -0.10900 17.85600 32.89400
H  0.32400 17.09000 34.08000
N  -1.33600 19.93000 26.07000
C  -1.68200 20.69600 27.14000
C  -1.68500 22.12900 26.67300
C  -1.53200 22.12100 25.31200
C  -1.50500 20.71800 24.97200
C  -2.02900 23.30600 27.69000
C  -1.66200 23.30100 24.27200
O  -1.62700 23.07300 23.05100
C  -1.86200 24.67400 24.79400
N  -1.41300 17.68400 24.00900
C  -1.44300 18.77400 23.20600
C  -1.41200 18.42600 21.65300
C  -1.40300 16.84600 21.65100
C  -1.40000 16.56900 23.21300
C  -2.61600 19.03200 20.84100
C  -0.17100 16.19000 21.01700
C  -0.42000 14.93100 20.24100
N  -1.70100 15.74000 26.08400
C  -1.72400 14.84300 25.01900
C  -1.78300 13.44100 25.65800
C  -1.76100 13.62100 27.11100
C  -1.63100 15.04200 27.23300
C  -1.72700 12.20300 24.85800
C  -1.81200 12.97900 28.44000
O  -1.85700 11.81000 28.81900
C  -1.80600 14.14100 29.40500
C  -0.72800 13.84800 30.35600
O  0.46500 13.95600 30.13000
O  -1.26300 13.43500 31.58800
C  -0.33600 12.93500 32.59600
H  -2.15900 21.16800 29.04400
H  -1.28300 20.76000 22.85000
H  -1.36000 14.43500 23.03200
H  -2.29900 16.83300 31.22700
H  -1.39400 19.48900 31.06200
H  -4.24300 19.20200 30.15500
H  -3.51500 20.03500 31.51400
H  -3.90200 18.26300 31.54700
H  0.71300 17.61700 30.82900
H  0.11000 16.17500 31.56200
H  -1.13900 18.14100 33.10700
H  0.43200 18.80000 32.96300
H  -3.04500 23.67600 27.55200
H  -1.29000 24.03800 27.36100
H  -1.71600 23.17600 28.72600
H  -1.73800 25.42600 24.01500
H  -1.08800 24.80500 25.55000
H  -2.84300 24.55100 25.25300
H  -0.53100 18.74900 21.09800
H  -2.33900 16.53100 21.19200
H  -2.30500 19.71100 20.04700
H  -3.19000 19.66600 21.51700
H  -3.19300 18.18600 20.46700
H  0.52300 16.00500 21.83700
H  0.26000 16.81100 20.23200
H  0.41400 14.23000 20.26800
H  -0.38800 15.12800 19.16900
H  -1.42100 14.54700 20.43900
H  -2.07400 12.30400 23.83000
H  -2.34900 11.57100 25.49200
H  -0.71900 11.80400 24.97100
H  -2.70100 14.21600 30.02400
H  -0.78700 13.37300 33.48600
H  0.70600 13.22800 32.47100
H  -0.35300 11.89400 32.92100
Mg 30.17800 57.59600 39.89700
C  27.17100 55.97000 39.07400
C  31.95300 54.71300 39.11700
C  33.12300 59.46700 40.08200
C  28.41500 60.63300 40.41000
N  29.57900 55.64400 39.06000
C  28.31500 55.12200 38.81600
C  28.42200 53.70100 38.11900
C  29.76300 53.29400 38.76400
C  30.54300 54.63100 39.01400
C  29.62800 52.35400 40.03600
C  28.51000 53.86900 36.52200
C  27.32800 53.07700 35.87100
H  26.95600 53.44300 34.42400
N  32.30200 57.17400 39.71900
C  32.75100 55.88700 39.39500
C  34.25600 55.95600 39.40100
C  34.57300 57.26800 39.80500
C  33.32000 58.02100 39.94400
C  35.15100 54.77900 39.07300
C  36.03600 57.73800 40.08100
O  36.99600 56.96000 39.99200
C  36.32800 59.07800 40.68900
N  30.64300 59.74300 40.55200
C  31.94100 60.18300 40.35000
C  31.96900 61.66900 40.53200
C  30.49300 62.09300 40.77000
C  29.77900 60.73900 40.66300
C  32.89700 62.08100 41.69800
C  30.04200 63.24600 39.81800
C  29.38200 64.54200 40.40800
N  28.15300 58.20100 39.87200
C  27.61600 59.47000 40.11000
C  26.12500 59.33500 39.99100
C  25.94500 58.02600 39.53500
C  27.17300 57.36100 39.46900
C  25.01100 60.37200 40.12700
C  24.93900 56.96700 39.19800
O  23.67900 57.01800 39.13200
C  25.68600 55.59400 38.88800
C  25.22700 54.41200 39.71700
O  25.66200 54.02700 40.79600
O  24.12800 53.79200 39.04600
C  23.39300 52.83200 39.91900
H  32.48900 53.76200 39.15200
H  34.05200 60.03900 40.03600
H  27.91300 61.58900 40.56700
H  27.66100 52.96400 38.37600
H  30.29800 52.67800 38.04100
H  30.24200 51.48700 39.79100
H  28.56000 52.14500 39.98900
H  29.97600 52.81400 40.96000
H  29.52200 53.64400 36.18600
H  28.29700 54.90500 36.25700
H  26.40700 53.20800 36.43900
H  27.64100 52.03300 35.90700
H  35.88500 54.95700 38.28800
H  34.54400 53.87500 39.02900
H  35.76800 54.77200 39.97100
H  35.99500 59.86700 40.01500
H  37.41600 59.13700 40.70300
H  35.81500 58.98000 41.64600
H  32.33000 62.05800 39.58100
H  30.29500 62.32200 41.81600
H  33.32600 61.20500 42.18500
H  32.39400 62.61500 42.50500
H  33.73100 62.67500 41.32400
H  29.44700 62.83000 39.00600
H  30.88300 63.63400 39.24400
H  29.58300 64.55800 41.47900
H  28.32300 64.36100 40.22400
H  29.68500 65.41700 39.83300
H  24.06600 59.89200 40.38200
H  25.11000 60.96200 39.21600
H  25.37500 60.97200 40.96000
H  25.50600 55.39500 37.83100
H  22.36100 53.08300 39.67500
H  23.55700 52.95300 40.98900
H  23.40600 51.79200 39.59500

