158

Mg 17.73300 -0.91500 27.46000
C  16.29200 0.45100 30.40100
C  19.59900 -2.96800 29.43400
C  18.86000 -2.21600 24.71600
C  15.67400 1.29400 25.51300
N  17.99500 -1.12300 29.67100
C  17.30800 -0.47400 30.70400
C  17.74800 -0.90400 32.11500
C  19.00900 -1.81000 31.73200
C  18.92600 -1.99600 30.18800
C  20.37000 -1.23800 32.21900
C  16.60200 -1.59100 32.86300
C  16.49200 -1.22600 34.38100
H  17.82000 -0.64900 35.11600
N  19.12100 -2.40300 27.12700
C  19.67400 -3.21300 28.02800
C  20.36200 -4.32000 27.35400
C  20.08900 -4.16500 25.95800
C  19.33300 -2.88900 25.88300
C  20.99400 -5.44400 28.11200
C  20.57200 -4.98700 24.81400
O  20.14800 -4.87100 23.68100
C  21.46200 -6.06400 25.23000
N  17.16000 -0.52700 25.43900
C  18.01000 -1.10900 24.53600
C  17.78800 -0.54800 23.12400
C  16.77000 0.62800 23.35800
C  16.48000 0.47600 24.81500
C  19.03600 -0.24600 22.22300
C  15.55400 0.59000 22.39000
C  15.90900 0.63900 20.86900
N  16.30400 0.54000 27.80000
C  15.51600 1.29000 26.94600
C  14.46400 1.99600 27.68500
C  14.77600 1.66000 29.07700
C  15.87000 0.79200 29.08800
C  13.40200 2.99300 27.13700
C  14.30400 1.91700 30.43900
O  13.36700 2.55800 30.92500
C  15.34200 1.14200 31.29200
C  16.12600 2.18800 32.03900
O  17.04300 2.83800 31.58400
O  15.57000 2.27000 33.31400
C  16.05400 3.41800 34.08800
H  20.14600 -3.66700 30.07100
H  19.28700 -2.54900 23.76700
H  15.08900 2.09800 25.06100
H  17.97500 -0.00900 32.69400
H  18.84900 -2.76800 32.22800
H  20.87400 -1.99500 32.82000
H  20.23700 -0.29700 32.75300
H  21.02800 -1.17200 31.35300
H  16.72200 -2.65300 32.64800
H  15.68000 -1.23300 32.40600
H  16.10500 -2.03000 35.00700
H  15.72700 -0.47000 34.20800
H  20.29900 -6.27400 28.23700
H  21.24900 -5.20100 29.14300
H  21.97000 -5.79800 27.78200
H  22.34900 -5.60300 25.66500
H  21.78900 -6.47700 24.27600
H  20.90800 -6.79000 25.82600
H  17.28100 -1.40100 22.67200
H  17.27300 1.59400 23.30900
H  18.95200 0.73200 21.75000
H  19.04900 -1.03300 21.46900
H  19.90800 -0.32900 22.87200
H  14.90400 1.43200 22.62800
H  15.00200 -0.32900 22.58600
H  15.11500 1.24600 20.43300
H  15.90200 -0.41500 20.59200
H  16.90700 0.98300 20.59900
H  12.96000 3.52200 27.98200
H  12.67400 2.38500 26.59900
H  13.78400 3.80800 26.52300
H  14.70000 0.49400 31.88900
H  17.08000 3.70100 33.85300
H  16.11700 3.18200 35.15100
H  15.41400 4.29600 34.00500
Mg 1.09500 43.95600 25.15500
C  3.03500 43.81000 28.06800
C  -1.72000 43.10100 27.19600
C  -0.79000 43.20100 22.35000
C  3.79600 44.16000 23.30200
N  0.77100 43.57200 27.48600
C  1.74200 43.61600 28.42300
C  1.09700 43.31700 29.77500
C  -0.44700 42.94100 29.42000
C  -0.51700 43.20900 27.94700
C  -0.94000 41.52400 29.78000
C  1.15800 44.60500 30.69600
C  0.47000 44.48400 32.12800
H  0.34500 43.10700 32.84400
N  -1.01500 43.59400 24.77600
C  -1.93200 43.37000 25.80000
C  -3.21500 43.34900 25.18200
C  -3.03100 43.10800 23.72800
C  -1.54200 43.25700 23.52100
C  -4.54200 43.53400 26.00400
C  -4.10400 43.01600 22.71400
O  -3.94700 43.06900 21.50600
C  -5.51600 43.05700 23.20000
N  1.43800 43.68000 23.03400
C  0.51800 43.49500 22.00300
C  1.16700 43.45700 20.61800
C  2.63200 43.87400 20.95800
C  2.64700 43.94900 22.54800
C  1.17000 42.04800 19.89300
C  3.00500 45.25500 20.23600
C  2.53100 46.71500 20.82900
N  3.02000 44.02700 25.53900
C  3.98800 44.29300 24.67800
C  5.26300 44.44100 25.43900
C  4.88200 44.17600 26.75100
C  3.47700 43.96300 26.77700
C  6.58600 44.66500 24.86700
C  5.42000 43.95200 28.09200
O  6.58700 43.77800 28.43500
C  4.27900 43.84600 29.05300
C  4.29600 42.55400 29.81700
O  4.04700 41.46900 29.34300
O  4.58600 42.73600 31.17400
C  4.69500 41.55100 32.03400
H  -2.55200 42.82900 27.84900
H  -1.35300 42.83000 21.49100
H  4.69100 44.32100 22.69800
H  1.49400 42.50100 30.37800
H  -1.19900 43.53600 29.93800
H  -1.87700 41.65400 30.32200
H  -0.23700 41.07800 30.48300
H  -1.20700 41.00500 28.86000
H  0.72800 45.43400 30.13400
H  2.18700 44.83900 30.97000
H  -0.56000 44.81100 31.98100
H  1.10500 45.12700 32.73700
H  -5.13900 44.33700 25.57100
H  -4.46800 43.71900 27.07500
H  -5.10600 42.60500 25.92400
H  -5.67100 42.21300 23.87100
H  -6.13700 42.82300 22.33500
H  -5.77200 44.01200 23.66000
H  0.59400 44.20400 20.06900
H  3.31300 43.04600 20.76100
H  0.60600 41.38700 20.55000
H  2.09800 41.57800 19.56500
H  0.49900 42.21400 19.05100
H  2.60900 45.26000 19.22100
H  4.06700 45.34400 20.00700
H  2.25000 47.38100 20.01300
H  3.37300 47.18700 21.33500
H  1.66500 46.77000 21.49000
H  6.83700 45.72500 24.90200
H  6.68100 44.28000 23.85100
H  7.27300 44.01200 25.40500
H  4.31300 44.64100 29.79800
H  5.64700 41.04600 31.87000
H  3.84000 40.90900 31.82200
H  4.63300 41.90000 33.06500

