158

Mg 24.18800 -5.09300 45.72200
C  26.07300 -2.41900 44.57500
C  21.63400 -3.97600 43.74100
C  22.71900 -8.12700 46.03800
C  27.16500 -6.48300 47.09000
N  23.88700 -3.41800 44.38700
C  24.75000 -2.36100 44.14000
C  24.10500 -1.36800 43.21800
C  22.58300 -1.70600 43.28400
C  22.68300 -3.15700 43.79400
C  21.80100 -0.88100 44.20100
C  24.76800 -1.18700 41.76800
C  25.22400 -2.44400 41.11400
H  26.02900 -2.29800 39.71000
N  22.33800 -5.95200 45.04000
C  21.44400 -5.28700 44.27000
C  20.36600 -6.13500 44.07000
C  20.51600 -7.30200 44.90600
C  21.91100 -7.18900 45.38600
C  19.21600 -5.61200 43.27100
C  19.48900 -8.50000 45.06500
O  18.44400 -8.51700 44.44700
C  19.82100 -9.57500 46.04100
N  24.87400 -7.05300 46.37400
C  23.99700 -8.11600 46.46700
C  24.57500 -9.22700 47.32900
C  25.95200 -8.64300 47.80500
C  26.01200 -7.29600 47.07200
C  23.66900 -9.66500 48.55500
C  27.08100 -9.54500 47.26400
C  28.51500 -9.46000 47.95500
N  26.13700 -4.52800 45.98400
C  27.18900 -5.18900 46.55300
C  28.32900 -4.33800 46.50900
C  27.94600 -3.26000 45.77200
C  26.58500 -3.38100 45.43600
C  29.72200 -4.60500 46.98100
C  28.43400 -2.01100 45.15600
O  29.45600 -1.36600 45.25200
C  27.22700 -1.54800 44.23600
C  27.08000 -0.03800 44.34200
O  26.43200 0.59100 45.16100
O  27.89100 0.53100 43.37100
C  27.86900 1.98800 43.29800
H  20.77800 -3.69800 43.12300
H  22.27500 -9.12000 46.13200
H  28.02300 -6.90500 47.61800
H  24.26400 -0.37400 43.63500
H  22.20700 -1.58800 42.26700
H  22.26000 -0.90900 45.19000
H  20.85400 -1.41800 44.24900
H  21.69100 0.18900 44.02400
H  25.61400 -0.50400 41.68800
H  23.87800 -0.93600 41.19200
H  24.33000 -3.05200 40.97800
H  25.83800 -3.01900 41.80700
H  18.87500 -4.69900 43.75900
H  18.31600 -6.22600 43.24000
H  19.57600 -5.60100 42.24300
H  19.02000 -10.09000 46.57200
H  20.38300 -9.07700 46.83100
H  20.29300 -10.34500 45.43100
H  24.69000 -10.02100 46.59100
H  26.07000 -8.45800 48.87300
H  22.88300 -8.95000 48.80000
H  24.25100 -9.83200 49.46100
H  23.14100 -10.57600 48.27600
H  27.14600 -9.21800 46.22700
H  26.88600 -10.61800 47.25400
H  29.19800 -9.05300 47.20900
H  28.93200 -10.37500 48.37600
H  28.44200 -8.66600 48.69800
H  29.77200 -4.24400 48.00800
H  30.42100 -4.00900 46.39400
H  29.81500 -5.68900 46.90700
H  27.56200 -1.68400 43.20800
H  26.90000 2.45900 43.45800
H  28.23600 2.37500 42.34700
H  28.57200 2.20900 44.10100
Mg -5.89500 24.90800 25.98000
C  -4.35000 26.32000 28.84400
C  -7.76200 22.93400 28.13300
C  -6.95500 23.36100 23.20000
C  -3.62700 26.66600 23.97900
N  -5.78500 24.49000 28.20900
C  -5.24000 25.28400 29.20100
C  -5.76000 24.85200 30.60900
C  -6.69600 23.60700 30.27600
C  -6.79800 23.72400 28.77400
C  -6.08000 22.14900 30.80400
C  -6.50800 26.05700 31.27900
C  -6.39100 26.17900 32.79400
H  -5.92500 24.95600 33.53600
N  -7.38600 23.56600 25.65700
C  -8.03100 22.85800 26.66700
C  -9.08200 22.07100 26.09200
C  -8.78400 22.03800 24.66500
C  -7.66200 22.97700 24.45600
C  -10.15700 21.50400 26.91100
C  -9.46300 21.30200 23.54100
O  -9.19800 21.49000 22.30100
C  -10.70800 20.41000 23.80600
N  -5.25700 24.82300 23.92300
C  -5.86600 24.21200 22.94300
C  -5.41000 24.59900 21.58600
C  -4.49600 25.81000 21.78000
C  -4.47900 25.76700 23.32900
C  -4.73300 23.41800 20.78400
C  -5.09100 27.09100 21.13200
C  -4.25700 27.57900 19.96600
N  -4.33900 26.27200 26.27500
C  -3.56800 26.89300 25.35100
C  -2.69600 27.84700 26.01500
C  -2.90600 27.57100 27.36800
C  -3.94500 26.61600 27.50300
C  -1.70900 28.87400 25.37000
C  -2.45400 27.86800 28.70000
O  -1.47900 28.49000 29.04700
C  -3.42500 27.12100 29.74200
C  -2.55200 26.37300 30.67100
O  -2.08800 25.27500 30.42500
O  -2.43700 26.97100 31.84700
C  -1.76500 26.21100 32.93400
H  -8.47900 22.43900 28.79100
H  -7.48100 22.97600 22.32400
H  -2.90300 27.10600 23.29000
H  -4.90100 24.50800 31.18500
H  -7.63700 23.64400 30.82500
H  -6.86600 21.75800 31.45000
H  -5.23900 22.21700 31.49400
H  -6.02800 21.46600 29.95600
H  -7.53000 25.99900 30.90400
H  -6.12700 26.96700 30.81500
H  -7.38400 26.42300 33.17300
H  -5.75600 27.05000 32.95400
H  -10.45500 22.19600 27.69900
H  -10.01200 20.57100 27.45400
H  -11.03200 21.25500 26.30900
H  -10.40500 19.62500 24.49900
H  -11.08400 20.05700 22.84600
H  -11.46000 20.97800 24.35300
H  -6.37600 24.83100 21.13700
H  -3.47400 25.61500 21.45400
H  -3.81900 23.64100 20.23400
H  -5.47900 23.06800 20.07000
H  -4.42400 22.60500 21.44200
H  -5.24200 27.81800 21.93000
H  -6.08900 26.95400 20.71600
H  -3.60600 26.76800 19.63800
H  -3.62600 28.40400 20.29600
H  -4.92900 27.88600 19.16500
H  -2.02700 29.87500 25.66000
H  -1.71300 28.68600 24.29600
H  -0.69600 28.64200 25.69800
H  -3.91900 27.89700 30.32700
H  -0.69200 26.30100 32.76600
H  -2.06400 25.18200 33.13300
H  -2.11400 26.67400 33.85700

