158

Mg 16.52400 -1.67100 28.04800
C  15.51100 0.22100 30.72700
C  18.60300 -3.36900 30.03400
C  17.59900 -3.34500 25.26500
C  14.44500 0.19800 25.93300
N  16.97800 -1.52500 30.14500
C  16.44300 -0.73800 31.02500
C  16.95700 -0.99700 32.44400
C  18.17300 -2.00100 32.15800
C  17.93800 -2.34300 30.68300
C  19.64200 -1.46000 32.41600
C  15.85900 -1.66600 33.35700
C  15.78500 -1.26100 34.90900
H  17.04700 -0.63000 35.46700
N  17.73600 -3.33100 27.69600
C  18.51600 -3.82700 28.70600
C  19.39100 -4.77200 28.04600
C  19.03800 -4.83200 26.57600
C  18.04800 -3.84800 26.46400
C  20.35700 -5.59800 28.74100
C  19.65100 -5.70300 25.50500
O  19.24800 -5.73700 24.35100
C  20.90500 -6.39800 25.71500
N  16.25400 -1.46700 25.93100
C  16.85700 -2.26300 25.02800
C  16.46000 -1.91000 23.53700
C  15.27200 -0.92200 23.73300
C  15.29700 -0.73900 25.29400
C  17.63600 -1.43000 22.59400
C  13.85900 -1.28000 23.23700
C  13.18900 -0.29100 22.34300
N  15.22300 -0.09300 28.23000
C  14.44500 0.52600 27.28300
C  13.61100 1.49200 28.06900
C  13.95300 1.36100 29.36200
C  15.00800 0.44300 29.42500
C  12.64500 2.44800 27.59000
C  13.79200 1.92500 30.66200
O  12.95800 2.74900 31.01900
C  14.72700 1.17300 31.64900
C  15.63200 2.16600 32.25400
O  16.45900 2.86900 31.65000
O  15.31800 2.19900 33.58900
C  16.12300 3.16000 34.30700
H  19.29800 -3.87600 30.70700
H  18.15800 -3.81400 24.45300
H  13.73100 0.78700 25.35400
H  17.33700 -0.02700 32.76500
H  18.11400 -2.94100 32.70600
H  20.16600 -1.30600 31.47300
H  20.22800 -2.11600 33.06000
H  19.47300 -0.46100 32.81800
H  16.05300 -2.73600 33.28500
H  14.89600 -1.52100 32.86700
H  15.57200 -2.14700 35.50700
H  14.98900 -0.62400 35.29300
H  21.35800 -5.17200 28.68100
H  20.47700 -6.67900 28.66800
H  19.98700 -5.55100 29.76600
H  21.32000 -6.57700 24.72300
H  20.75800 -7.36800 26.18900
H  21.55400 -5.75800 26.31300
H  16.10300 -2.86000 23.13800
H  15.51800 0.03200 23.26600
H  17.35500 -0.48900 22.12200
H  17.74400 -2.25100 21.88500
H  18.49900 -1.48600 23.25800
H  13.21600 -1.49100 24.09200
H  14.04500 -2.19800 22.68000
H  12.45800 -0.82200 21.73200
H  13.96400 -0.07200 21.60900
H  12.69600 0.56900 22.79700
H  12.08000 1.83100 26.89100
H  13.01200 3.23900 26.93600
H  12.03300 2.88400 28.38000
H  14.13500 0.47500 32.24200
H  15.55700 4.08600 34.19800
H  17.07000 3.38200 33.81600
H  16.23400 2.95000 35.37100
Mg 43.39200 41.93200 27.00500
C  42.23000 44.45000 29.30200
C  44.67300 40.33100 29.71600
C  44.89600 39.88500 24.84900
C  42.58800 44.21400 24.33700
N  43.40000 42.37900 29.19000
C  42.78000 43.32300 29.87700
C  42.88100 43.09200 31.37000
C  43.64600 41.77900 31.46500
C  43.96800 41.50900 30.04800
C  44.85600 41.91500 32.38700
C  41.46200 43.17400 32.02400
C  41.04100 42.13200 33.15400
H  40.23700 42.70600 34.36300
N  44.40900 40.20300 27.23000
C  44.91700 39.72000 28.40500
C  45.51200 38.39100 28.19400
C  45.64600 38.20900 26.77000
C  44.99900 39.47400 26.19800
C  45.92900 37.42600 29.34600
C  46.20900 37.05000 26.01400
O  46.09900 36.91300 24.76900
C  46.99900 35.96700 26.79500
N  43.75800 42.05200 24.89400
C  44.28400 40.97700 24.23000
C  44.18000 41.20300 22.71800
C  43.47700 42.57900 22.57100
C  43.30300 43.00900 24.02100
C  45.59600 41.15700 21.93700
C  42.17300 42.49700 21.70500
C  40.95500 41.79500 22.36300
N  42.63800 43.93300 26.80000
C  42.36500 44.72900 25.69000
C  41.79600 46.01800 26.11300
C  41.71400 45.82700 27.52100
C  42.24500 44.65000 27.91000
C  41.22300 47.20200 25.26200
C  41.18500 46.57500 28.72000
O  40.52900 47.61700 28.80300
C  41.51600 45.61200 29.91500
C  42.46800 46.34700 30.81700
O  43.58900 46.78500 30.55800
O  41.79300 46.59300 32.00000
C  42.58900 47.41800 32.96700
H  44.96300 39.82100 30.63700
H  45.31100 39.18000 24.12500
H  42.13600 44.87500 23.59500
H  43.49800 43.87400 31.81300
H  43.06000 40.88500 31.68000
H  44.76200 42.68100 33.15600
H  45.76500 42.14900 31.83200
H  45.16500 40.95700 32.80400
H  40.67700 43.22000 31.27000
H  41.36700 44.16500 32.46900
H  41.92800 41.57200 33.44900
H  40.29400 41.48200 32.69600
H  45.30000 36.53900 29.27000
H  45.60500 37.87000 30.28800
H  46.99100 37.18400 29.39300
H  47.97300 36.41700 26.98800
H  47.10400 35.11800 26.11800
H  46.42000 35.60300 27.64400
H  43.48400 40.47300 22.30500
H  44.10800 43.36200 22.14900
H  46.09400 42.12600 21.98700
H  45.46100 40.86700 20.89500
H  46.20200 40.43200 22.47900
H  42.19600 42.10400 20.68900
H  41.95700 43.55700 21.57100
H  40.56500 40.91900 21.84500
H  40.07300 42.43500 22.37300
H  41.32500 41.51400 23.34900
H  41.21500 46.92200 24.20800
H  41.92900 48.03300 25.27100
H  40.30000 47.64100 25.63800
H  40.59100 45.37200 30.43800
H  43.26900 48.16000 32.54800
H  43.24700 46.86400 33.63600
H  41.91900 47.80100 33.73600

