158

Mg 41.31000 9.46800 29.67300
C  42.97900 10.69000 32.41500
C  38.82000 8.18000 31.61800
C  39.86900 8.27800 26.82900
C  43.78500 10.87900 27.71100
N  41.01300 9.30700 31.74800
C  41.81300 9.91900 32.72600
C  41.19400 9.56700 34.10700
C  40.03900 8.60900 33.79600
C  39.96800 8.64300 32.27300
C  40.07700 7.15700 34.36600
C  40.85200 10.82500 34.99000
C  41.18300 10.63700 36.48900
H  40.96400 11.85400 37.42600
N  39.62500 8.35000 29.23300
C  38.74300 7.95000 30.24100
C  37.62900 7.28700 29.62600
C  37.84100 7.31900 28.18800
C  39.15100 7.97200 28.03200
C  36.51200 6.60800 30.43900
C  36.89200 7.01100 26.99700
O  37.20600 7.33000 25.86900
C  35.56600 6.31800 27.21200
N  41.77800 9.57600 27.59000
C  41.07300 8.95500 26.62600
C  41.69200 9.26700 25.24400
C  42.64700 10.51600 25.46000
C  42.70400 10.37900 26.98100
C  42.35700 7.95300 24.65100
C  42.21600 11.90700 24.95200
C  40.87200 12.43400 25.48300
N  43.11900 10.42700 29.95000
C  44.08100 10.83800 29.05500
C  45.11400 11.48100 29.71400
C  44.78800 11.43200 31.09300
C  43.49700 10.78200 31.17000
C  46.13200 12.15300 28.95200
C  45.17700 11.76300 32.49100
O  46.20000 12.30800 32.88700
C  44.01800 11.22400 33.41800
C  44.58400 10.14300 34.30300
O  44.43500 8.93100 34.21900
O  45.42000 10.67800 35.26400
C  46.20700 9.84100 36.23500
H  38.05300 7.73300 32.25400
H  39.44400 7.95700 25.87600
H  44.52000 11.33000 27.04000
H  41.87900 9.02800 34.76100
H  39.16000 9.14700 34.15100
H  39.15600 6.97300 34.91900
H  40.86300 7.12700 35.12100
H  40.17300 6.36600 33.62200
H  39.77000 10.94900 35.03000
H  41.30800 11.75000 34.63700
H  42.15700 10.23200 36.76400
H  40.50700 9.88800 36.90100
H  35.58600 6.63700 29.86400
H  36.40500 7.08400 31.41300
H  36.85100 5.59100 30.63700
H  35.14800 6.17500 26.21600
H  34.96200 7.00900 27.79900
H  35.67900 5.38800 27.77000
H  40.91300 9.50400 24.51900
H  43.62400 10.43900 24.98300
H  43.41600 8.13900 24.47400
H  41.92000 7.49600 23.76400
H  42.22100 7.09800 25.31400
H  42.11300 11.90300 23.86700
H  42.93000 12.66200 25.28000
H  40.28200 12.97600 24.74300
H  41.26700 13.04100 26.29700
H  40.15600 11.71300 25.87800
H  45.74400 13.00800 28.39900
H  46.59900 11.45900 28.25300
H  46.93500 12.55900 29.56800
H  43.67200 12.05000 34.04000
H  45.56700 9.02300 36.56600
H  46.77400 10.47400 36.91700
H  46.89800 9.41100 35.51000
Mg 49.42300 47.34400 43.05700
C  46.01400 47.53600 42.08800
C  49.44200 44.13000 41.64100
C  52.70700 47.33500 43.19000
C  49.29100 50.75400 43.60200
N  47.89000 46.06400 41.94400
C  46.57500 46.34600 41.63600
C  45.86000 45.16400 41.00300
C  46.81500 43.97700 41.28200
C  48.15500 44.77800 41.60400
C  46.42200 43.00400 42.46700
C  45.48300 45.27100 39.46400
C  43.99600 45.45200 39.14000
H  43.52200 45.19300 37.69200
N  50.82700 45.90700 42.55500
C  50.66300 44.68000 42.05700
C  51.90100 44.00000 41.96400
C  52.93500 44.91000 42.30500
C  52.19500 46.10700 42.68900
C  51.99300 42.54700 41.45000
C  54.44000 44.60500 42.29000
O  54.86200 43.49900 41.93200
C  55.38900 45.65500 42.77500
N  50.81700 48.82600 43.29900
C  52.09500 48.55700 43.50000
C  52.90000 49.73900 43.98600
C  51.83500 50.87700 44.05900
C  50.56700 50.15000 43.63000
C  53.84100 49.60900 45.19000
C  52.08600 52.21000 43.35300
C  51.79300 53.48300 44.18900
N  47.83900 48.82000 43.17800
C  48.05600 50.18400 43.32000
C  46.75600 50.86000 43.24300
C  45.89800 49.80400 42.74900
C  46.68100 48.56900 42.64600
C  46.48300 52.26000 43.62700
C  44.52100 49.46100 42.37900
O  43.55100 50.22400 42.36100
C  44.52300 47.89200 42.01800
C  43.64000 47.28100 42.98900
O  43.87000 47.34900 44.20500
O  42.65300 46.53600 42.43700
C  41.57300 46.03100 43.32100
H  49.28400 43.14300 41.20200
H  53.77800 47.41100 43.39300
H  49.26800 51.83900 43.72000
H  44.94700 44.98700 41.57100
H  46.84600 43.21500 40.50400
H  46.42000 41.95800 42.16000
H  45.39800 43.13100 42.81800
H  47.10000 43.05100 43.31900
H  45.85000 44.43000 38.87700
H  46.03500 46.15500 39.14400
H  43.68700 46.49300 39.22900
H  43.38300 44.79600 39.75900
H  52.98100 42.30500 41.05700
H  51.17200 42.31000 40.77400
H  51.90100 41.90400 42.32500
H  55.13400 46.50500 42.14100
H  56.34100 45.25900 42.42300
H  55.04600 45.59600 43.80800
H  53.51100 49.97900 43.11600
H  51.59000 51.08000 45.10200
H  54.88900 49.76200 44.93400
H  53.80100 48.63500 45.67800
H  53.56100 50.45800 45.81400
H  51.56200 52.34400 42.40700
H  53.15100 52.12000 43.13900
H  52.74800 53.98000 44.35700
H  51.28800 53.19800 45.11200
H  51.11900 54.11200 43.60700
H  47.22000 52.90900 43.15200
H  46.57700 52.33300 44.71100
H  45.55200 52.71000 43.28300
H  44.03500 47.79400 41.04800
H  41.82500 44.99100 43.53200
H  40.65300 46.05600 42.73700
H  41.59200 46.67600 44.19900

