158

Mg -1.20100 17.48000 25.76900
C  -1.97400 15.34500 28.57200
C  -2.36200 20.14300 27.69500
C  -0.95300 19.44100 23.12700
C  -0.99500 14.55200 23.86300
N  -1.88200 17.71900 28.03100
C  -2.18900 16.68500 28.91500
C  -2.79900 17.31500 30.24200
C  -3.21500 18.66800 29.66700
C  -2.46300 18.92600 28.34900
C  -4.78500 18.70400 29.33900
C  -1.75200 17.49500 31.39300
C  -2.30800 17.38300 32.74900
H  -1.32600 16.95500 33.80800
N  -1.28600 19.48100 25.54200
C  -1.78800 20.45500 26.41600
C  -1.52200 21.73000 25.88700
C  -1.13000 21.58400 24.51700
C  -1.23700 20.11400 24.30000
C  -1.69300 23.06500 26.65100
C  -0.82500 22.66000 23.49500
O  -0.59100 22.35700 22.31300
C  -0.67600 24.16400 23.84000
N  -0.97900 17.03800 23.83800
C  -0.85000 18.07600 22.99000
C  -0.47000 17.50800 21.58400
C  -0.07500 15.99100 21.95000
C  -0.66000 15.78900 23.32900
C  -1.53800 17.62300 20.41700
C  1.48700 15.68500 21.79500
C  2.44600 16.26000 22.81900
N  -1.47800 15.31600 26.06400
C  -1.35300 14.26300 25.24000
C  -1.29000 12.99800 25.97300
C  -1.56100 13.39000 27.30700
C  -1.69600 14.81500 27.28000
C  -0.86400 11.71200 25.33100
C  -1.72400 12.91200 28.60500
O  -1.68800 11.80200 29.07300
C  -1.88400 14.16400 29.54100
C  -0.71400 14.20100 30.43300
O  0.44800 14.49200 30.15400
O  -1.03000 13.61900 31.57600
C  0.06500 13.45500 32.57600
H  -2.68500 21.02400 28.25400
H  -0.70300 19.94000 22.18800
H  -0.85600 13.67000 23.23400
H  -3.68000 16.76800 30.57800
H  -2.94200 19.55600 30.23600
H  -5.43900 17.90300 29.68300
H  -4.99900 18.79500 28.27400
H  -5.14800 19.65800 29.72200
H  -1.28300 18.47800 31.35100
H  -0.95200 16.76700 31.25500
H  -3.09100 16.62600 32.79900
H  -2.73000 18.33200 33.08000
H  -0.85100 23.71900 26.42200
H  -1.83000 22.97200 27.72800
H  -2.51900 23.61500 26.20200
H  0.23500 24.36200 24.40500
H  -1.59000 24.52700 24.30900
H  -0.47600 24.66400 22.89300
H  0.47800 17.95400 21.28300
H  -0.67800 15.31100 21.34800
H  -1.99800 18.60200 20.55500
H  -2.26700 16.81400 20.45600
H  -0.97200 17.52500 19.49100
H  1.83800 16.11500 20.85800
H  1.56400 14.59900 21.83100
H  1.99000 16.37000 23.80300
H  2.92100 17.18000 22.47900
H  3.24000 15.54600 23.03800
H  -1.77000 11.20600 24.99600
H  -0.30100 11.08600 26.02300
H  -0.21800 11.96800 24.49200
H  -2.78000 14.11500 30.15900
H  0.96000 14.03800 32.36200
H  0.36200 12.41300 32.45000
H  -0.28200 13.59700 33.59900
Mg 9.29600 47.86600 27.42300
C  7.52000 47.44700 30.35100
C  12.10900 48.49700 29.28800
C  10.88200 48.53600 24.55400
C  6.18300 47.92600 25.58500
N  9.69300 48.13600 29.57700
C  8.87900 47.66100 30.58500
C  9.55900 47.98700 31.93400
C  11.07600 48.09000 31.57400
C  10.94500 48.20700 30.07100
C  11.68000 49.31700 32.26300
C  9.26800 46.92400 32.99600
C  10.33000 46.49300 34.06700
H  9.83800 45.80200 35.35300
N  11.24900 48.54300 26.96600
C  12.27000 48.68800 27.88100
C  13.46500 48.97500 27.20100
C  13.22200 48.90200 25.80400
C  11.75900 48.69500 25.73800
C  14.87500 49.08600 27.85800
C  14.16200 49.01600 24.60600
O  13.80300 48.95700 23.44800
C  15.60700 49.06500 24.89000
N  8.57400 48.14600 25.33000
C  9.52300 48.38700 24.35900
C  8.79000 48.59800 22.98100
C  7.29100 48.33800 23.29600
C  7.33800 48.06800 24.80000
C  9.14700 50.11400 22.49800
C  6.72400 47.18200 22.45600
C  6.66600 47.52600 20.95600
N  7.27400 47.51200 27.83200
C  6.18300 47.62500 26.99700
C  4.97300 47.37900 27.84000
C  5.48200 47.28700 29.13100
C  6.85300 47.38500 29.06800
C  3.51700 47.46400 27.47600
C  5.10500 47.09300 30.48200
O  3.95000 46.89700 30.90700
C  6.42100 47.19800 31.37700
C  6.48700 45.87200 32.11100
O  7.02500 44.86800 31.70300
O  5.66400 46.00500 33.24400
C  5.66500 44.85900 34.19800
H  13.10100 48.54900 29.74000
H  11.48200 48.60900 23.64400
H  5.19200 48.02800 25.13600
H  9.03000 48.90600 32.18500
H  11.56900 47.13000 31.73100
H  12.75200 49.32300 32.46300
H  11.09700 49.43100 33.17700
H  11.53500 50.14100 31.56500
H  9.03700 46.04200 32.39700
H  8.33900 47.23300 33.47500
H  10.70200 47.45900 34.40900
H  11.14100 45.96300 33.56800
H  15.45900 48.24200 27.49300
H  14.93300 49.04600 28.94500
H  15.22400 50.10400 27.68200
H  15.83500 49.88400 25.57200
H  16.09000 49.19900 23.92200
H  15.86300 48.05900 25.22100
H  9.31900 47.94600 22.28600
H  6.82500 49.31500 23.16900
H  9.88800 50.13700 21.69900
H  9.50800 50.70600 23.33900
H  8.23600 50.57800 22.12000
H  5.67500 47.04300 22.71800
H  7.12100 46.21900 22.77900
H  6.84400 46.64300 20.34200
H  7.35500 48.34500 20.74800
H  5.68200 47.81700 20.58700
H  3.11400 48.46100 27.65200
H  2.93400 46.76900 28.08100
H  3.40700 47.27900 26.40800
H  6.36700 48.02500 32.08500
H  5.62300 45.14400 35.24900
H  6.44800 44.10100 34.15800
H  4.64200 44.51100 34.05100

