158

Mg 25.48400 1.65300 29.87000
C  27.62600 1.52500 32.76900
C  22.91400 2.08700 31.95500
C  23.51900 1.61800 27.27100
C  28.23700 0.62500 27.98200
N  25.46700 1.64300 32.21400
C  26.36700 1.83100 33.16900
C  25.79600 2.21600 34.50500
C  24.24700 2.31600 34.23100
C  24.19300 1.95300 32.71100
C  23.41300 1.30600 35.16200
C  26.47700 3.54900 35.04700
C  27.30400 3.41600 36.34100
H  27.09900 4.42000 37.49100
N  23.50800 1.79900 29.66200
C  22.60600 1.97800 30.65900
C  21.26200 2.10800 30.08900
C  21.44000 2.00200 28.66500
C  22.83500 1.82900 28.46200
C  20.05300 2.36500 30.90700
C  20.34600 2.06500 27.56600
O  20.61700 2.02000 26.37000
C  18.84900 2.08800 27.84400
N  25.79900 1.20300 27.93600
C  24.88900 1.36600 27.00300
C  25.48800 1.36600 25.62700
C  26.96900 0.98000 25.79600
C  27.02400 0.96500 27.35600
C  24.74800 0.42000 24.54500
C  28.03600 1.82700 25.17000
C  28.14700 3.34100 25.51000
N  27.49800 1.19400 30.22200
C  28.52000 0.76600 29.38000
C  29.76000 0.56300 30.14200
C  29.44100 0.82500 31.45400
C  28.12900 1.29100 31.44700
C  31.00300 0.08700 29.54300
C  29.92000 0.89600 32.79400
O  31.05500 0.64400 33.18700
C  28.81200 1.40200 33.70000
C  28.67900 0.47400 34.78400
O  28.20400 -0.69100 34.76400
O  29.22000 1.08200 35.86200
C  29.37000 0.24500 37.00200
H  22.13100 2.42100 32.63800
H  22.82400 1.69600 26.43200
H  29.04900 0.16100 27.41900
H  26.08400 1.30700 35.03400
H  23.94400 3.32700 34.50100
H  22.76000 0.72700 34.51100
H  22.75100 1.92000 35.77400
H  23.99400 0.66100 35.82100
H  25.65000 4.22600 35.26600
H  27.09400 3.99700 34.26700
H  28.36700 3.44900 36.10100
H  26.98200 2.42700 36.66900
H  19.15400 1.87600 30.53300
H  19.93000 3.42800 30.70000
H  20.22300 2.20100 31.97100
H  18.72200 3.00200 28.42400
H  18.63600 1.29100 28.55600
H  18.25900 1.99000 26.93300
H  25.35500 2.38900 25.27500
H  27.12200 -0.03800 25.43900
H  23.83200 -0.05100 24.90100
H  25.28600 -0.46200 24.19500
H  24.58200 1.01200 23.64500
H  27.80300 1.89900 24.10800
H  28.99900 1.31900 25.21100
H  29.03000 3.31100 26.14800
H  27.19100 3.67400 25.91400
H  28.32800 3.90300 24.59300
H  31.09900 0.36600 28.49300
H  31.18200 -0.97800 29.69100
H  31.79500 0.57100 30.11300
H  29.07800 2.40100 34.04500
H  29.59600 -0.80600 36.82400
H  28.37600 0.29900 37.44700
H  30.13000 0.68600 37.64800
Mg 28.35500 56.43200 40.87800
C  25.76300 54.18000 40.34000
C  30.56300 54.12600 39.60200
C  30.66600 58.92100 40.63600
C  25.74100 58.90900 41.28500
N  28.13300 54.39000 39.99300
C  27.02600 53.64600 39.89300
C  27.27900 52.29200 39.18000
C  28.80100 52.27700 39.19000
C  29.19500 53.71800 39.59800
C  29.38000 51.07900 39.98300
C  26.44400 52.11600 37.91300
C  26.21000 53.42400 37.02600
H  26.77300 53.42600 35.64800
N  30.41500 56.49100 40.41700
C  31.11000 55.45300 39.88500
C  32.50200 55.87200 39.73100
C  32.55000 57.24300 40.16100
C  31.20000 57.62400 40.45000
C  33.65800 54.94500 39.20000
C  33.79800 58.13500 40.18200
O  34.94800 57.72000 39.90200
C  33.83700 59.60800 40.61300
N  28.15100 58.63900 40.53100
C  29.31500 59.40800 40.78300
C  28.90600 60.79600 41.01100
C  27.32200 60.84800 41.16200
C  27.01000 59.40400 40.85600
C  29.70200 61.56700 42.15400
C  26.43100 61.94700 40.50000
C  25.40200 62.68400 41.40100
N  26.22200 56.57800 40.84300
C  25.32600 57.59700 41.10000
C  24.02100 57.07800 41.35800
C  24.13200 55.69800 41.03600
C  25.47500 55.50500 40.69800
C  22.78100 57.75800 41.73100
C  23.45800 54.45000 41.08700
O  22.30800 54.04800 41.29800
C  24.38600 53.45600 40.38200
C  24.48500 52.09400 41.05000
O  23.74000 51.19800 40.71600
O  25.48200 52.08000 42.02900
C  25.53900 50.75800 42.60300
H  31.21200 53.34700 39.19500
H  31.31700 59.79000 40.52000
H  24.99100 59.65000 41.56700
H  26.83000 51.48700 39.76300
H  29.06500 52.21100 38.13500
H  29.01200 50.29200 39.32500
H  29.08600 51.11400 41.03200
H  30.46500 51.03000 39.89400
H  25.56100 51.52200 38.14600
H  26.96900 51.32200 37.38200
H  26.52200 54.34300 37.52200
H  25.13200 53.51400 36.89000
H  33.35800 54.60400 38.20900
H  33.66400 54.06400 39.84200
H  34.60000 55.49300 39.20800
H  33.24300 59.46900 41.51700
H  33.38300 60.19800 39.81800
H  34.84300 59.95500 40.84900
H  29.28200 61.36100 40.15900
H  27.31500 60.83100 42.25200
H  30.16700 60.82900 42.80700
H  28.96500 62.17100 42.68200
H  30.48000 62.16300 41.67700
H  25.92700 61.57300 39.60900
H  27.10300 62.73400 40.15800
H  25.55600 62.39800 42.44200
H  24.40200 62.40800 41.06600
H  25.43600 63.76900 41.30100
H  22.84900 58.68600 42.29900
H  22.21300 57.06600 42.35200
H  22.28200 57.95500 40.78200
H  23.95900 53.28400 39.39400
H  25.98300 50.14400 41.82000
H  24.59200 50.44900 43.04600
H  26.30100 50.75600 43.38300

