158

Mg -2.70700 17.39600 25.61900
C  -2.55400 14.80900 28.14400
C  -2.76800 19.70400 27.94700
C  -2.83700 19.56300 23.13600
C  -2.85400 14.80700 23.21300
N  -2.87100 17.23200 27.85000
C  -2.63400 16.15500 28.67400
C  -2.68100 16.57700 30.17900
C  -2.81900 18.14300 30.04300
C  -2.74800 18.37300 28.49000
C  -4.09700 18.73700 30.58100
C  -1.37600 16.24400 31.01600
C  -1.18400 16.98600 32.35600
H  -0.78100 16.25500 33.63500
N  -2.69800 19.42300 25.56200
C  -2.79300 20.19200 26.64600
C  -2.70500 21.57900 26.26200
C  -2.88500 21.58000 24.90000
C  -2.81700 20.13200 24.44500
C  -2.62200 22.73700 27.26100
C  -3.09600 22.77000 23.99200
O  -3.12300 22.63400 22.79200
C  -3.33400 24.16100 24.51100
N  -2.91800 17.22600 23.44600
C  -2.86000 18.25200 22.62100
C  -2.73100 17.91100 21.11800
C  -3.07300 16.39900 21.15500
C  -2.94500 16.12400 22.74800
C  -3.68300 18.69200 20.25100
C  -2.09900 15.56800 20.14400
C  -2.84400 14.57800 19.20100
N  -2.54600 15.30700 25.62700
C  -2.64500 14.42400 24.56300
C  -2.48900 13.04200 25.05800
C  -2.41000 13.19800 26.47500
C  -2.51200 14.59100 26.75300
C  -2.36900 11.81700 24.21200
C  -2.32700 12.46100 27.69400
O  -2.03600 11.28100 27.91400
C  -2.54500 13.43700 28.83100
C  -1.41000 13.15600 29.73500
O  -0.27400 13.47400 29.54500
O  -1.88600 12.44600 30.83200
C  -0.90000 12.13900 31.84300
H  -2.73000 20.43100 28.76100
H  -2.87100 20.30800 22.33800
H  -2.89900 13.95500 22.53100
H  -3.53500 16.11600 30.67500
H  -2.00600 18.75400 30.43700
H  -4.86200 19.13600 29.91400
H  -3.86400 19.52600 31.29600
H  -4.57100 17.93000 31.14000
H  -0.58400 16.37500 30.27900
H  -1.20300 15.21600 31.33600
H  -2.13000 17.44000 32.64700
H  -0.54100 17.83600 32.12600
H  -3.56000 23.24800 27.47900
H  -1.83100 23.43700 26.99600
H  -2.29700 22.49600 28.27400
H  -3.96000 24.22500 25.40100
H  -3.74800 24.80200 23.73300
H  -2.40300 24.65700 24.79000
H  -1.69000 18.15300 20.90500
H  -4.12200 16.28100 20.88300
H  -4.52100 18.10200 19.88000
H  -3.14800 19.25500 19.48600
H  -4.24800 19.43900 20.80800
H  -1.33600 15.07300 20.74600
H  -1.64800 16.35300 19.53600
H  -2.40300 14.57200 18.20500
H  -3.88100 14.89200 19.08000
H  -2.80500 13.64900 19.77000
H  -3.34000 11.54200 23.80100
H  -1.85200 11.06200 24.80400
H  -1.82000 12.02800 23.29400
H  -3.52400 13.14100 29.20900
H  -0.56300 11.15300 31.52100
H  -1.45100 11.90300 32.75300
H  -0.02900 12.78900 31.93000
Mg 26.16100 1.37600 29.37800
C  27.98700 0.94700 32.35800
C  23.24400 1.80900 31.26800
C  24.47500 1.51900 26.59100
C  29.22900 0.69100 27.67500
N  25.72300 1.37500 31.56300
C  26.63700 1.30700 32.58700
C  25.93100 1.55700 33.92900
C  24.40700 1.64500 33.56600
C  24.43300 1.57400 32.04400
C  23.55900 0.53100 34.15400
C  26.48900 2.83100 34.74200
C  26.72500 2.54400 36.22500
H  26.47600 3.53600 37.35300
N  24.13300 1.53900 29.00000
C  23.13200 1.78000 29.88800
C  21.87300 1.99200 29.12400
C  22.19300 1.89800 27.70600
C  23.67800 1.65800 27.70200
C  20.52300 2.11100 29.76400
C  21.31500 1.91900 26.45800
O  21.76700 2.02300 25.30600
C  19.71000 1.91300 26.46500
N  26.78300 1.27300 27.46500
C  25.84100 1.28100 26.44300
C  26.55000 1.03600 25.00800
C  28.07000 1.10500 25.39500
C  28.03800 0.97700 26.91500
C  26.16100 -0.36900 24.38700
C  28.86400 2.41700 24.95900
C  30.01100 2.37900 23.94700
N  28.14900 0.87000 29.83700
C  29.33200 0.62900 29.05700
C  30.46100 0.31700 29.96700
C  29.95000 0.46600 31.27800
C  28.53500 0.74700 31.15600
C  31.81400 0.05000 29.51200
C  30.41600 0.39200 32.64300
O  31.51200 0.09500 33.10700
C  29.16500 0.82300 33.36400
C  28.82800 -0.34400 34.25000
O  28.14600 -1.34500 33.96800
O  29.42100 -0.10100 35.50300
C  29.43400 -1.31100 36.39900
H  22.43000 2.00300 31.97000
H  23.99300 1.43600 25.61400
H  30.09200 0.64500 27.00800
H  26.17200 0.68700 34.54000
H  23.84000 2.54100 33.82100
H  23.21000 -0.23400 33.46000
H  22.74000 0.98300 34.71300
H  24.10100 -0.03900 34.90800
H  25.80300 3.67700 34.70900
H  27.39800 3.21100 34.27500
H  27.76600 2.22000 36.22000
H  26.20900 1.60400 36.41800
H  19.99000 1.16700 29.65300
H  19.94800 2.96300 29.40300
H  20.71000 2.26900 30.82600
H  19.19200 1.25700 27.16500
H  19.32900 1.64000 25.48100
H  19.32600 2.93100 26.53000
H  26.21700 1.69600 24.20700
H  28.54500 0.17600 25.08100
H  25.57200 -0.93800 25.10600
H  27.06700 -0.92800 24.15500
H  25.55300 -0.28900 23.48600
H  29.20700 2.73700 25.94300
H  28.09500 3.14200 24.69400
H  30.90500 2.84900 24.35600
H  29.68800 2.82000 23.00400
H  30.25700 1.32200 23.84200
H  32.01400 0.47800 28.52900
H  31.98100 -1.02700 29.46400
H  32.54100 0.44300 30.22200
H  29.35400 1.60900 34.09500
H  29.80400 -2.22800 35.94100
H  28.46500 -1.38600 36.89300
H  30.13700 -0.98600 37.16600

