158

Mg 44.92600 4.70900 45.98100
C  43.31400 7.76900 46.04500
C  41.85900 3.17800 45.32800
C  46.63900 1.91200 45.31000
C  48.02000 6.56300 45.82400
N  42.86200 5.43400 45.44800
C  42.36500 6.74900 45.77200
C  40.91200 6.87200 45.51400
C  40.50900 5.32600 45.54000
C  41.82700 4.53100 45.52800
C  39.44700 4.94700 46.64800
C  40.65600 7.60400 44.21100
C  41.49900 7.15200 42.99700
H  40.76700 6.71900 41.72100
N  44.30200 2.79100 45.43400
C  43.01600 2.34000 45.17100
C  43.00600 0.95600 44.79000
C  44.41600 0.54800 44.88200
C  45.18900 1.75600 45.37500
C  41.81100 0.18000 44.46200
C  44.84500 -0.85900 44.52200
O  44.10400 -1.72200 44.07800
C  46.25900 -1.28300 44.64500
N  47.13700 4.33400 45.60500
C  47.50500 2.99300 45.44300
C  49.02600 2.93200 45.23400
C  49.38100 4.43200 45.62800
C  48.09400 5.18000 45.69000
C  49.70700 1.85100 46.19600
C  50.52900 5.09100 44.84400
C  51.57900 5.73900 45.74000
N  45.55800 6.74400 45.90100
C  46.80000 7.34100 45.94900
C  46.71900 8.74000 46.07200
C  45.30000 8.94400 46.16400
C  44.66100 7.70100 46.05100
C  47.71500 9.78700 46.09400
C  44.34800 9.94400 46.47200
O  44.53500 11.15800 46.69600
C  42.97800 9.21100 46.31400
C  42.13200 9.39600 47.52000
O  41.97600 8.54000 48.38600
O  41.38800 10.60300 47.46600
C  40.44400 10.66100 48.59300
H  40.85400 2.78800 45.15600
H  47.12500 0.96600 45.06000
H  48.96600 7.09600 45.93400
H  40.40600 7.27500 46.39100
H  39.96900 5.00200 44.65100
H  38.68200 5.69400 46.86300
H  39.93500 4.58800 47.55400
H  38.97900 4.07700 46.18800
H  40.72400 8.68600 44.32000
H  39.63000 7.30000 44.00300
H  42.20700 6.33700 43.15100
H  42.07600 7.99500 42.61800
H  41.87100 -0.60400 43.70700
H  40.95200 0.77700 44.15400
H  41.64000 -0.28200 45.43400
H  46.22600 -2.29100 44.23300
H  46.54800 -1.34000 45.69500
H  46.81000 -0.56600 44.03600
H  49.33200 2.60500 44.24000
H  49.64400 4.33700 46.68100
H  49.96500 0.97600 45.59900
H  48.98200 1.52100 46.94000
H  50.58100 2.26800 46.69600
H  50.15900 5.87300 44.18000
H  51.07000 4.42600 44.17000
H  51.52300 5.35800 46.75900
H  51.40300 6.81500 45.72200
H  52.54900 5.50600 45.30100
H  48.59100 9.31400 45.65000
H  47.95500 10.08600 47.11500
H  47.31200 10.68200 45.61900
H  42.49500 9.59100 45.41400
H  41.02500 10.77600 49.50800
H  39.73100 9.83700 48.57300
H  39.90800 11.60900 48.53400
Mg 34.58800 2.91500 29.95800
C  32.46300 3.63800 32.52800
C  37.18400 3.03400 32.28400
C  36.71300 2.70300 27.49400
C  32.08700 3.55700 27.62100
N  34.76300 3.10100 32.16200
C  33.73400 3.41500 33.02300
C  34.16000 3.42800 34.51000
C  35.66800 3.17500 34.44100
C  35.95600 3.11200 32.85300
C  36.56300 4.16800 35.26100
C  33.30000 2.47700 35.39200
C  32.77600 3.12200 36.68200
H  33.77700 4.02900 37.40600
N  36.61700 2.78000 29.86400
C  37.52500 2.84100 30.93700
C  38.88100 2.75300 30.44800
C  38.78000 2.46300 29.01400
C  37.34300 2.59000 28.75600
C  40.10800 3.05100 31.20600
C  39.91500 2.14700 27.96800
O  39.64500 1.92400 26.78400
C  41.35500 2.16100 28.40200
N  34.37900 2.90900 27.88400
C  35.38700 2.75900 27.06100
C  35.02700 2.68400 25.46500
C  33.48000 2.92900 25.55400
C  33.33800 3.18100 27.08600
C  35.89300 3.74900 24.60100
C  32.45400 1.82300 25.05500
C  31.38100 2.37200 24.05100
N  32.64500 3.48000 29.99400
C  31.73900 3.71800 28.97400
C  30.44000 4.02400 29.58300
C  30.68200 4.08500 30.97300
C  32.05000 3.65300 31.13600
C  29.22300 4.29300 28.90700
C  30.09600 4.28300 32.30500
O  28.95400 4.57800 32.57600
C  31.22300 4.15600 33.34900
C  31.37900 5.54700 33.95200
O  32.13800 6.40000 33.53800
O  30.73500 5.69000 35.17400
C  31.17200 6.79100 35.97600
H  38.03500 3.05500 32.96700
H  37.49000 2.67400 26.72800
H  31.28400 3.52600 26.88000
H  33.98700 4.44000 34.87500
H  35.83800 2.12600 34.68300
H  36.96300 3.53900 36.05700
H  36.01400 5.00800 35.68600
H  37.37200 4.51800 34.62000
H  33.92000 1.68500 35.81200
H  32.51900 2.08000 34.74300
H  32.45500 2.29200 37.31100
H  31.79100 3.51600 36.42900
H  39.88600 3.55900 32.14400
H  40.77400 3.63100 30.56700
H  40.69400 2.15600 31.41400
H  41.56800 1.64300 29.33700
H  41.70500 3.18900 28.50100
H  41.90500 1.69700 27.58300
H  35.27200 1.66100 25.18200
H  33.21800 3.91200 25.16500
H  36.44600 4.35300 25.32100
H  35.31900 4.38000 23.92300
H  36.50700 3.13800 23.93900
H  31.95200 1.36800 25.90900
H  33.02100 0.96200 24.70200
H  31.51800 3.40600 23.73700
H  30.38900 2.33900 24.50300
H  31.27700 1.74400 23.16600
H  29.16500 4.79700 27.94200
H  28.72200 4.97000 29.59900
H  28.62300 3.38400 28.87500
H  30.87800 3.45500 34.11000
H  30.67300 6.96500 36.92900
H  30.93000 7.71100 35.44400
H  32.24800 6.81300 36.14800

