158

Mg 54.21000 23.46200 44.82000
C  51.71900 25.66600 43.80600
C  52.48600 20.94200 43.40500
C  56.81200 21.39600 45.61200
C  56.12800 26.23800 45.82000
N  52.41300 23.42000 43.58600
C  51.44200 24.32800 43.39200
C  50.35200 23.79500 42.43500
C  50.36200 22.32200 42.90200
C  51.86000 22.16500 43.23400
C  49.28100 21.96700 43.99700
C  50.67700 23.90600 40.89000
C  49.72400 24.60400 39.88200
H  50.42600 25.28600 38.68000
N  54.59300 21.43900 44.46200
C  53.70400 20.59900 43.92200
C  54.23800 19.22000 43.95700
C  55.40200 19.24900 44.77500
C  55.70600 20.74000 44.96800
C  53.52500 17.98800 43.25100
C  56.23000 17.98700 45.20900
O  55.91400 16.91300 44.77900
C  57.55800 18.10200 45.89600
N  56.18300 23.79300 45.49500
C  56.96800 22.74600 45.86400
C  58.22600 23.23000 46.58800
C  58.25700 24.79000 46.34100
C  56.74100 24.98900 45.85300
C  58.25600 22.65800 48.06400
C  59.20600 25.23900 45.17400
C  59.73200 26.65100 45.38700
N  53.98500 25.50500 44.93600
C  54.80900 26.48000 45.44200
C  54.08200 27.71200 45.47100
C  52.92800 27.49800 44.75500
C  52.86000 26.09800 44.50300
C  54.59100 28.90600 46.23300
C  51.62700 27.99800 44.26400
O  51.24300 29.13600 44.27200
C  50.86300 26.88400 43.67200
C  50.40400 27.18200 42.30000
O  51.02700 27.55900 41.37800
O  49.07000 27.02300 42.22600
C  48.45600 28.02700 41.32900
H  52.00100 20.07700 42.94800
H  57.59500 20.72300 45.97100
H  56.65500 27.05500 46.31700
H  49.43700 24.34700 42.64800
H  50.00700 21.70300 42.07800
H  48.51400 22.73200 44.11900
H  49.71300 21.69000 44.95800
H  48.80800 21.04400 43.65900
H  50.92400 22.90900 40.52500
H  51.61500 24.44500 40.76100
H  49.15400 25.32600 40.46700
H  49.04600 23.86800 39.45100
H  52.97800 17.35700 43.95100
H  54.41800 17.47300 42.89600
H  52.98700 18.22400 42.33300
H  57.98100 17.09900 45.96500
H  57.31700 18.44900 46.90100
H  58.24500 18.72700 45.32500
H  59.06300 22.79000 46.04700
H  58.34600 25.28300 47.30800
H  58.65600 21.64400 48.08300
H  57.26200 22.64700 48.51200
H  58.93600 23.30200 48.62200
H  58.59300 25.27700 44.27400
H  60.02700 24.55200 44.96900
H  59.68100 26.93700 46.43800
H  59.23300 27.36500 44.73000
H  60.77500 26.68400 45.07100
H  54.75900 28.62600 47.27300
H  53.87700 29.72400 46.14700
H  55.45800 29.26000 45.67400
H  49.95200 26.72400 44.24700
H  48.86400 29.03000 41.45500
H  47.36900 27.97100 41.38300
H  48.60300 27.69200 40.30200
Mg -11.81800 37.91700 42.83100
C  -9.66900 35.32100 41.90200
C  -9.57700 40.15700 41.45200
C  -14.06200 40.42300 43.26600
C  -14.31600 35.52600 43.63300
N  -9.89700 37.76300 41.57500
C  -9.18500 36.57200 41.42300
C  -7.89500 36.86200 40.63900
C  -7.81300 38.41900 40.64100
C  -9.12700 38.82500 41.35600
C  -6.60000 39.11500 41.35300
C  -7.88900 36.17000 39.14000
C  -6.68800 35.31600 38.76300
H  -6.52400 34.81000 37.34700
N  -11.75600 39.95700 42.49900
C  -10.75200 40.69100 41.93500
C  -11.05700 42.00200 41.95100
C  -12.42100 42.15100 42.40000
C  -12.79400 40.78800 42.82400
C  -10.14400 43.12600 41.30500
C  -13.26100 43.42200 42.34300
O  -12.77100 44.42600 41.90300
C  -14.75200 43.52200 42.79800
N  -13.85000 37.88800 43.25000
C  -14.53400 39.11000 43.46900
C  -15.91100 38.86700 44.12700
C  -16.04800 37.32600 44.00700
C  -14.71500 36.88400 43.54100
C  -15.87000 39.41200 45.54700
C  -17.24600 36.82700 43.04100
C  -18.39000 36.09700 43.80800
N  -12.05500 35.89800 42.70200
C  -13.05300 35.07000 43.18100
C  -12.62800 33.68400 43.15400
C  -11.29700 33.78500 42.68700
C  -11.01700 35.10200 42.36900
C  -13.47600 32.45800 43.56800
C  -10.06600 33.00700 42.42000
O  -9.81600 31.79500 42.59900
C  -8.99200 33.95600 41.94500
C  -7.86200 33.89900 42.92900
O  -7.98100 34.20500 44.09600
O  -6.71100 33.52400 42.34600
C  -5.61000 33.25000 43.33600
H  -8.83300 40.89000 41.13300
H  -14.76400 41.17100 43.64100
H  -15.06000 34.80800 43.98500
H  -7.15600 36.47300 41.34000
H  -7.78600 38.72200 39.59400
H  -5.94200 39.28500 40.50000
H  -6.15900 38.32900 41.96700
H  -6.89900 40.00600 41.90300
H  -7.90200 36.99900 38.43300
H  -8.83600 35.66300 38.95500
H  -6.64500 34.39800 39.35000
H  -5.81400 35.80900 39.18700
H  -10.23600 42.90000 40.24300
H  -9.16000 42.96100 41.74400
H  -10.34200 44.18500 41.46600
H  -15.41400 42.73500 42.43600
H  -15.27600 44.34900 42.31900
H  -14.78000 43.51100 43.88700
H  -16.65500 39.33800 43.48400
H  -16.18600 36.95400 45.02300
H  -16.26500 40.42500 45.61900
H  -14.88700 39.15500 45.94400
H  -16.62600 38.85000 46.09500
H  -16.79400 36.06600 42.40600
H  -17.62800 37.64000 42.42300
H  -19.34800 36.60700 43.70400
H  -18.16700 35.96300 44.86600
H  -18.46500 35.10600 43.36000
H  -12.80600 31.61300 43.72300
H  -14.24700 32.12700 42.87200
H  -13.91100 32.70900 44.53500
H  -8.62600 33.84800 40.92400
H  -4.73900 32.89800 42.78400
H  -5.92500 32.49300 44.05500
H  -5.23900 34.07600 43.94300

