158

Mg 47.52100 24.76900 27.97500
C  48.41100 27.05900 30.60400
C  47.03900 22.36000 30.50500
C  46.91300 22.49300 25.56400
C  48.66100 26.96900 25.81700
N  47.64500 24.77200 30.28900
C  47.81200 25.89100 31.11200
C  47.82700 25.53400 32.64700
C  47.54800 23.97800 32.52300
C  47.36400 23.65500 31.01400
C  48.68400 23.16900 33.25500
C  46.76900 26.27400 33.51200
C  47.06700 26.25700 34.99900
H  45.89500 26.41800 35.96700
N  46.94500 22.76700 28.07900
C  46.85600 21.92300 29.15200
C  46.32900 20.61400 28.76700
C  46.34000 20.62800 27.27900
C  46.72800 22.03000 26.91600
C  45.99700 19.53400 29.69900
C  46.10600 19.55200 26.27500
O  46.39600 19.66600 25.09200
C  45.65400 18.20300 26.79100
N  48.04400 24.57800 25.91500
C  47.49300 23.66700 25.07200
C  47.45100 24.12400 23.60700
C  48.01400 25.59900 23.71900
C  48.18900 25.76100 25.26100
C  48.27200 23.17500 22.67400
C  47.15100 26.74700 23.13800
C  47.75800 27.55300 21.96200
N  48.29600 26.73600 28.15100
C  48.72200 27.45200 27.09600
C  49.20800 28.68300 27.50000
C  49.15100 28.61800 28.94600
C  48.58100 27.34200 29.26700
C  49.94000 29.70900 26.70600
C  49.46300 29.27000 30.21400
O  50.11600 30.31300 30.49100
C  48.79000 28.40200 31.23300
C  49.61800 28.38200 32.52100
O  50.72300 27.81900 32.61100
O  48.99000 29.01100 33.52100
C  49.60000 29.16500 34.85700
H  46.81300 21.62000 31.27500
H  46.48500 21.89300 24.75900
H  48.91800 27.66800 25.01800
H  48.79200 25.75300 33.10600
H  46.58600 23.68400 32.94300
H  49.26600 23.81400 33.91400
H  49.45200 22.76900 32.59300
H  48.24900 22.37500 33.86200
H  45.84800 25.69500 33.44100
H  46.68400 27.26000 33.05400
H  47.79800 27.04700 35.16800
H  47.39200 25.23300 35.18400
H  45.00600 19.09000 29.60900
H  46.12800 19.76400 30.75600
H  46.80900 18.82500 29.53500
H  46.46600 17.79900 27.39600
H  45.54100 17.48400 25.97900
H  44.67300 18.27900 27.26000
H  46.45300 24.23900 23.18500
H  49.01900 25.62900 23.29700
H  48.57200 22.23400 23.13500
H  49.18000 23.75000 22.49300
H  47.79800 23.06100 21.69900
H  47.03700 27.51400 23.90400
H  46.16700 26.38200 22.84300
H  48.67500 27.10500 21.57700
H  47.82400 28.63700 22.05000
H  46.96200 27.59600 21.21800
H  49.78900 29.57200 25.63500
H  51.02600 29.70400 26.80600
H  49.50800 30.67700 26.95900
H  47.83700 28.88800 31.44200
H  50.53100 28.60200 34.92900
H  48.98100 28.76300 35.65900
H  49.72800 30.21200 35.13000
Mg -5.03600 25.97400 25.95000
C  -3.99000 27.26500 28.91200
C  -6.87800 23.54900 27.69500
C  -5.80500 24.42100 23.11000
C  -2.94900 28.03000 24.27800
N  -5.28500 25.36400 28.04800
C  -4.87100 26.17400 29.10900
C  -5.46600 25.61300 30.43700
C  -6.09200 24.20600 30.06100
C  -6.11000 24.37500 28.47700
C  -5.33000 22.89100 30.45900
C  -6.38500 26.52500 31.19400
C  -6.38500 26.51400 32.80200
H  -5.64900 25.39400 33.53000
N  -6.32700 24.35900 25.48900
C  -6.97800 23.49700 26.30800
C  -7.87800 22.72300 25.54700
C  -7.47000 22.80700 24.17500
C  -6.55400 23.95000 24.21700
C  -8.77100 21.66700 26.14100
C  -7.87900 21.96700 22.91500
O  -7.20900 22.04400 21.91300
C  -9.01100 20.97100 23.00300
N  -4.55300 26.29300 23.98400
C  -4.90600 25.43600 23.00500
C  -4.24700 25.73700 21.61400
C  -3.51000 27.06900 21.96800
C  -3.74500 27.23000 23.48500
C  -3.33700 24.53900 21.10900
C  -3.94900 28.29300 21.12800
C  -3.12500 28.69500 19.91900
N  -3.61200 27.27600 26.46900
C  -2.86400 28.11800 25.71500
C  -2.09300 29.05800 26.46400
C  -2.54300 28.72500 27.76700
C  -3.47300 27.68700 27.70400
C  -1.21500 30.15600 25.97300
C  -2.52900 29.16500 29.14100
O  -2.04100 30.19000 29.62500
C  -3.42100 28.20900 29.95200
C  -2.54400 27.46700 30.89700
O  -1.80600 26.52800 30.57600
O  -2.70800 27.93200 32.16800
C  -1.84500 27.36500 33.21100
H  -7.38900 22.76500 28.25700
H  -5.82000 23.94100 22.12900
H  -2.41400 28.76500 23.67300
H  -4.66300 25.45600 31.15800
H  -7.12000 24.12000 30.41400
H  -5.30600 22.18300 29.63100
H  -5.91000 22.36300 31.21600
H  -4.27600 23.02300 30.70300
H  -7.44300 26.32900 31.02000
H  -6.20900 27.56300 30.91400
H  -7.43000 26.54500 33.11400
H  -5.97000 27.48900 33.05700
H  -8.23500 20.72100 26.06100
H  -9.63300 21.59900 25.47800
H  -9.06000 21.90800 27.16400
H  -9.19800 20.31900 22.14900
H  -9.95500 21.49400 23.16100
H  -8.68200 20.29400 23.79000
H  -5.10600 25.85000 20.95300
H  -2.44700 26.84900 21.87300
H  -3.66500 23.63500 21.62100
H  -2.27500 24.58300 21.34900
H  -3.61100 24.43400 20.05900
H  -3.97400 29.14300 21.81000
H  -5.02700 28.22000 20.98800
H  -3.92200 29.00700 19.24400
H  -2.51000 27.88600 19.52600
H  -2.48900 29.55400 20.13300
H  -1.91300 30.78200 25.41700
H  -0.39000 29.82000 25.34500
H  -0.88600 30.78900 26.79700
H  -4.22100 28.64500 30.55100
H  -0.80500 27.68200 33.14600
H  -1.98700 26.28600 33.15200
H  -2.17600 27.75400 34.17400

