158

Mg 47.24500 33.64300 26.58300
C  45.63900 32.76100 29.45500
C  47.64200 37.01200 27.99000
C  48.50900 34.86100 23.61300
C  46.54900 30.71900 25.10000
N  46.87800 34.76900 28.55300
C  46.17100 34.11500 29.53800
C  46.14700 34.98600 30.74600
C  46.60000 36.34700 30.20800
C  47.10400 36.07800 28.82500
C  45.46000 37.38400 30.41600
C  47.01300 34.33700 31.96200
C  46.32300 34.57900 33.36000
H  45.10600 35.56800 33.45000
N  47.95900 35.63000 25.90300
C  48.07900 36.82900 26.60400
C  48.74200 37.81600 25.79500
C  49.15700 37.22400 24.57900
C  48.54200 35.87500 24.68100
C  49.03800 39.26300 26.31900
C  49.90400 37.73900 23.34200
O  50.32300 37.00200 22.41200
C  50.22100 39.14400 23.19200
N  47.54200 32.92800 24.58500
C  48.08600 33.57400 23.57900
C  48.20700 32.68800 22.32900
C  47.51900 31.40400 22.77600
C  47.19200 31.65100 24.29000
C  47.66400 33.30200 21.04700
C  48.32100 30.08300 22.62000
C  49.69300 29.96300 23.37000
N  46.42600 31.90600 27.19700
C  46.07900 30.83500 26.43200
C  45.19400 30.00300 27.22900
C  44.93700 30.69000 28.40600
C  45.74600 31.81100 28.38000
C  44.53800 28.81200 26.72300
C  44.17700 30.71900 29.63100
O  43.38500 29.94800 30.07000
C  44.67500 32.02200 30.38000
C  45.01800 31.49800 31.80300
O  46.15200 31.11200 32.18000
O  43.97100 31.68100 32.68700
C  44.19600 31.04800 33.99600
H  47.68900 38.01700 28.41400
H  49.04200 35.08600 22.68700
H  46.33200 29.70600 24.75400
H  45.10700 34.95400 31.07100
H  47.48700 36.72600 30.71600
H  45.66700 38.15400 31.15900
H  44.49900 36.97900 30.73400
H  45.22100 37.96800 29.52800
H  47.91900 34.93200 32.08100
H  47.39300 33.32500 31.81800
H  47.11900 35.02300 33.95600
H  46.11500 33.56100 33.69000
H  48.71400 40.08300 25.67800
H  50.12200 39.36400 26.37700
H  48.59500 39.50600 27.28500
H  49.26700 39.66600 23.11200
H  50.89800 39.28300 22.35000
H  50.83000 39.46300 24.03700
H  49.24400 32.39200 22.17300
H  46.58000 31.20600 22.26000
H  46.85600 32.69200 20.64400
H  48.50300 33.42600 20.36200
H  47.25900 34.30600 21.17100
H  48.58500 30.10900 21.56300
H  47.64500 29.24500 22.78900
H  50.01500 28.94100 23.57300
H  49.60700 30.38300 24.37100
H  50.59200 30.38100 22.91600
H  44.13900 29.02900 25.73300
H  43.84000 28.44500 27.47600
H  45.26400 28.01700 26.54900
H  43.84600 32.70800 30.55600
H  44.96400 31.61000 34.52800
H  44.53800 30.01300 33.98900
H  43.32900 31.01500 34.65600
Mg 26.97300 50.85000 26.92600
C  24.88100 51.78400 29.52100
C  29.35100 49.86100 29.24700
C  29.01400 49.90700 24.41200
C  24.74400 52.24400 24.65100
N  27.06300 50.81100 29.02600
C  26.06000 51.20600 29.97000
C  26.52900 50.95800 31.38300
C  28.01200 50.69600 31.25200
C  28.13600 50.38000 29.73100
C  28.87000 51.82900 31.83900
C  25.69000 49.67400 31.92100
C  25.18400 49.67300 33.32700
H  25.88800 50.34600 34.51300
N  28.92500 50.01600 26.79400
C  29.77000 49.62000 27.89400
C  30.96500 48.97500 27.47300
C  30.94000 49.04900 26.08600
C  29.57200 49.68600 25.65200
C  31.94700 48.30000 28.42400
C  31.99000 48.65200 25.13300
O  31.91400 48.73300 23.91800
C  33.22500 47.97500 25.56100
N  26.83800 50.88300 24.89200
C  27.78200 50.48300 24.03200
C  27.41800 50.73800 22.52300
C  25.93600 51.29800 22.60900
C  25.85600 51.54100 24.16500
C  28.38100 51.70700 21.75800
C  24.93500 50.27700 22.15200
C  23.47500 50.61200 21.70800
N  25.18200 51.84300 26.93000
C  24.38000 52.36900 25.96700
C  23.27800 53.01400 26.56400
C  23.33200 52.79500 27.98100
C  24.52100 51.98200 28.11200
C  22.22800 53.82000 25.82700
C  22.74900 52.93800 29.31300
O  21.64100 53.38300 29.65300
C  23.70800 52.23000 30.39600
C  24.09300 53.27800 31.39500
O  24.85400 54.26200 31.23200
O  23.58600 52.86000 32.55000
C  23.73500 53.66200 33.79400
H  29.95100 49.56600 30.11100
H  29.50200 49.58900 23.48800
H  24.07000 52.76700 23.97000
H  26.27500 51.79400 32.03500
H  28.23600 49.73600 31.71800
H  29.29900 51.49300 32.78300
H  28.30000 52.74800 31.97500
H  29.78800 51.92900 31.25900
H  26.17500 48.71100 31.76200
H  24.70800 49.60300 31.45300
H  25.07800 48.60000 33.48900
H  24.12100 49.89000 33.43600
H  33.01300 48.48700 28.30400
H  31.67300 47.24600 28.47100
H  31.79300 48.66400 29.44000
H  33.81600 48.62900 26.20200
H  33.84000 47.68500 24.70900
H  32.93400 47.04000 26.04000
H  27.53700 49.75500 22.06800
H  25.82300 52.21700 22.03400
H  29.15600 52.07400 22.43100
H  27.87000 52.60400 21.40700
H  28.87400 51.11100 20.98900
H  24.76900 49.49500 22.89200
H  25.39300 49.78300 21.29500
H  22.70700 49.97300 22.14400
H  23.42000 50.49500 20.62500
H  23.17100 51.63100 21.94700
H  22.10500 54.78800 26.31300
H  21.38900 53.16000 26.04400
H  22.33700 53.93900 24.74900
H  23.18300 51.40600 30.87800
H  22.80300 53.92100 34.29700
H  24.19400 54.63500 33.62000
H  24.30200 53.09300 34.53100

