158

Mg 40.43600 8.87600 28.90200
C  42.33100 10.01700 31.70100
C  38.62600 7.12100 31.22600
C  38.91700 7.44200 26.43400
C  42.97800 9.97100 26.81900
N  40.51500 8.58500 31.17100
C  41.29700 9.23600 32.13000
C  40.90100 8.93000 33.56800
C  39.85100 7.75300 33.31000
C  39.68400 7.77800 31.82800
C  40.36600 6.39500 33.82600
C  40.29900 10.14000 34.22600
C  39.58600 9.90600 35.55600
H  39.97900 10.70700 36.71300
N  38.84200 7.55900 28.77900
C  38.22600 6.95700 29.85900
C  37.07500 6.22400 29.38700
C  37.08100 6.44000 27.92400
C  38.28700 7.21400 27.68300
C  36.05800 5.49400 30.21200
C  36.07000 6.02600 26.91300
O  36.08700 6.44800 25.76500
C  35.05100 5.07000 27.34000
N  40.90500 8.65200 26.92700
C  40.16200 8.00500 26.11200
C  40.62300 8.11300 24.59600
C  41.82500 9.01700 24.69800
C  41.92600 9.25600 26.24400
C  40.87600 6.68400 23.93900
C  41.70100 10.38600 23.88100
C  41.03600 11.70300 24.54000
N  42.26100 9.77100 29.13800
C  43.15100 10.16300 28.19000
C  44.27400 10.87900 28.82700
C  43.95600 10.92900 30.20900
C  42.81100 10.13700 30.35800
C  45.43000 11.56000 28.17300
C  44.30600 11.42800 31.54800
O  45.28400 12.05400 31.85700
C  43.29000 10.81400 32.58300
C  44.01400 10.09900 33.53000
O  44.66100 9.08000 33.31600
O  43.92500 10.70400 34.74700
C  44.34600 9.88900 35.89000
H  38.05700 6.56800 31.97500
H  38.44600 6.94600 25.58300
H  43.71600 10.41900 26.15100
H  41.74200 8.63000 34.19300
H  38.92200 7.89700 33.86200
H  40.80100 5.73400 33.07600
H  39.59500 5.88000 34.39900
H  41.13800 6.51800 34.58500
H  39.65700 10.68100 33.53100
H  41.13700 10.81600 34.39400
H  39.71600 8.85800 35.82900
H  38.53300 10.14200 35.40400
H  35.04900 5.75600 29.89300
H  36.10300 5.87000 31.23500
H  36.20100 4.41400 30.18500
H  34.31500 5.42700 28.06000
H  35.52800 4.19600 27.78400
H  34.67900 4.74200 26.36900
H  39.84500 8.54900 23.96900
H  42.76600 8.63500 24.30300
H  40.89900 5.85200 24.64300
H  41.75300 6.78500 23.30100
H  40.02200 6.46600 23.29700
H  41.18000 10.12100 22.96200
H  42.71900 10.65800 23.60100
H  40.52400 11.47400 25.47400
H  40.29000 12.05200 23.82600
H  41.73700 12.53800 24.58000
H  46.33600 11.06600 28.52500
H  45.53400 12.63100 28.35000
H  45.31900 11.46600 27.09300
H  42.61100 11.55700 33.00200
H  43.57500 9.73300 36.64400
H  45.12500 10.48600 36.36400
H  44.82700 8.92600 35.72100
Mg 9.67300 48.33200 26.21200
C  7.42100 48.68100 28.89500
C  12.15700 49.57400 28.08400
C  11.54100 48.24900 23.44800
C  6.71400 47.95100 24.12000
N  9.70900 49.08300 28.17800
C  8.75800 48.88400 29.14900
C  9.44000 49.29900 30.52900
C  10.70000 50.12900 30.17500
C  10.85500 49.64900 28.66500
C  10.33800 51.59600 30.30200
C  9.76900 47.91800 31.20200
C  9.79600 47.94200 32.72400
H  9.22500 46.75500 33.46900
N  11.65900 48.79700 25.86000
C  12.58300 49.16500 26.80600
C  13.91400 49.05000 26.20700
C  13.70700 48.82800 24.78500
C  12.27500 48.60600 24.65400
C  15.26100 49.24800 26.93400
C  14.70900 48.60700 23.61000
O  14.45300 48.37600 22.43200
C  16.10900 48.82100 23.82200
N  9.12200 48.31600 24.02700
C  10.17100 48.20800 23.14700
C  9.57800 47.87500 21.69200
C  8.06200 47.63300 22.02900
C  7.93900 47.92400 23.50700
C  9.87900 48.93100 20.66000
C  7.51100 46.16300 21.63800
C  8.47900 44.97800 21.84000
N  7.56600 48.02600 26.43600
C  6.47500 47.93400 25.50300
C  5.20800 47.85600 26.16300
C  5.51900 48.17100 27.52800
C  6.93200 48.35800 27.59500
C  3.89200 47.58000 25.58800
C  5.00000 48.28800 28.90000
O  3.86000 48.10100 29.26000
C  6.27500 48.61100 29.86100
C  6.34600 47.42000 30.77800
O  6.97100 46.40400 30.62800
O  5.32900 47.54700 31.72500
C  5.04100 46.29000 32.48700
H  13.01000 49.75500 28.74100
H  12.20000 48.12100 22.58600
H  5.81800 47.91100 23.49700
H  8.65900 49.77600 31.12000
H  11.52400 49.83500 30.82500
H  9.67300 51.85200 29.47700
H  11.11600 52.36000 30.31600
H  9.79600 51.79200 31.22700
H  10.74200 47.59200 30.83700
H  9.10600 47.12400 30.85600
H  9.06200 48.71700 32.94500
H  10.82300 48.11400 33.04300
H  15.00000 49.58700 27.93600
H  15.60300 50.15000 26.42700
H  15.98600 48.43400 26.89500
H  16.54900 47.99000 24.37400
H  16.36700 49.75200 24.32500
H  16.78500 48.70300 22.97400
H  10.10200 46.97900 21.35700
H  7.42200 48.37200 21.54600
H  9.02000 49.53000 20.35600
H  10.28800 48.35400 19.83200
H  10.61500 49.58500 21.12800
H  7.13700 46.22400 20.61500
H  6.54400 46.00300 22.11500
H  8.72500 44.73700 20.80600
H  7.88700 44.16700 22.26400
H  9.27100 45.16600 22.56500
H  3.21600 47.29700 26.39600
H  4.17500 46.74500 24.94700
H  3.45400 48.39900 25.01900
H  5.93500 49.53700 30.32500
H  5.50800 46.26300 33.47100
H  5.51600 45.40200 32.06900
H  3.96200 46.16900 32.58700

