158

Mg 6.65200 53.06500 41.60500
C  5.74100 49.77400 41.15700
C  9.73400 52.41000 40.16900
C  7.23700 56.44800 41.27800
C  3.32200 53.78100 42.72400
N  7.60200 51.33000 40.83400
C  7.08600 50.02100 40.78200
C  8.01100 49.06600 40.21000
C  9.40400 49.88400 40.23300
C  8.88700 51.31200 40.47300
C  10.47600 49.44100 41.40400
C  7.67700 48.48200 38.82900
C  7.28400 49.38000 37.67000
H  6.64300 48.81500 36.36000
N  8.32400 54.22600 41.02700
C  9.48500 53.76500 40.41300
C  10.41000 54.89200 40.24700
C  9.71600 56.16100 40.61800
C  8.38700 55.60200 40.99100
C  11.80400 54.70900 39.70400
C  10.27500 57.58100 40.48400
O  11.39300 57.68600 40.07400
C  9.54100 58.78800 40.95000
N  5.44100 54.89900 41.97100
C  5.94700 56.12200 41.76100
C  4.92700 57.24900 42.02300
C  3.59300 56.40400 42.51500
C  4.10000 54.95900 42.47400
C  5.33000 58.28100 43.10500
C  2.34300 56.61400 41.54500
C  1.10600 57.28200 42.06500
N  4.99600 52.02400 41.98500
C  3.73200 52.43700 42.49200
C  2.94700 51.34200 42.61000
C  3.67300 50.21500 42.10800
C  4.90400 50.67700 41.70100
C  1.48500 51.36300 43.10900
C  3.53600 48.81900 41.84800
O  2.62400 48.03100 41.98400
C  4.96500 48.49500 41.21100
C  4.59000 47.82400 39.97500
O  4.14700 48.36400 38.98200
O  4.82200 46.48400 40.06900
C  4.75200 45.62200 38.92000
H  10.66100 52.03400 39.73200
H  7.42300 57.51600 41.14400
H  2.27200 53.79000 43.02600
H  8.06300 48.20900 40.88200
H  9.93400 49.66700 39.30500
H  10.50200 50.15600 42.22600
H  11.47400 49.44600 40.96600
H  10.22600 48.45800 41.80400
H  6.93800 47.69300 38.96800
H  8.63700 48.03400 38.57200
H  8.19600 49.90800 37.39200
H  6.51900 50.03400 38.08700
H  12.47500 55.13100 40.45300
H  11.94500 55.15000 38.71700
H  12.10100 53.66700 39.81800
H  10.26900 59.59800 41.00100
H  9.29900 58.56900 41.99000
H  8.61000 59.01600 40.43100
H  4.71000 57.74500 41.07600
H  3.29000 56.58600 43.54600
H  6.21700 57.89400 43.60700
H  4.57800 58.40600 43.88400
H  5.55700 59.21800 42.59500
H  2.15000 55.63400 41.10800
H  2.72300 57.34200 40.82800
H  0.85200 58.19000 41.51900
H  1.13000 57.60500 43.10500
H  0.35600 56.49200 42.02400
H  1.57400 51.55500 44.17900
H  1.02000 50.39100 42.94300
H  0.89900 52.14300 42.62300
H  5.57400 47.84900 41.84400
H  3.90900 44.94900 39.07800
H  5.67400 45.03900 38.91400
H  4.70900 46.12900 37.95600
Mg -12.54300 17.12100 41.88600
C  -9.68800 15.01100 41.47600
C  -10.62600 19.71600 40.51200
C  -15.33300 18.74000 41.44800
C  -14.30700 14.10800 42.66800
N  -10.42600 17.33300 40.86300
C  -9.43700 16.35000 40.97600
C  -8.12800 16.89900 40.50100
C  -8.34600 18.47900 40.59800
C  -9.89300 18.54500 40.61500
C  -7.73000 19.27200 41.79400
C  -7.75600 16.29200 39.13700
C  -6.23700 15.94900 38.85600
H  -5.64700 16.40100 37.43400
N  -12.91000 19.00900 41.13900
C  -12.00700 19.94300 40.66900
C  -12.71200 21.13500 40.25200
C  -14.08900 20.77400 40.41300
C  -14.18300 19.51100 40.98700
C  -12.01900 22.36900 39.64100
C  -15.22300 21.57900 39.81100
O  -14.89100 22.62300 39.15200
C  -16.63700 21.19700 39.97200
N  -14.58500 16.40700 41.83400
C  -15.50700 17.41000 41.88000
C  -16.86500 16.92000 42.25400
C  -16.60600 15.42400 42.63600
C  -15.07100 15.22600 42.39100
C  -17.45300 17.70500 43.50800
C  -17.52000 14.48500 41.78100
C  -18.87100 14.12600 42.38800
N  -12.14100 14.98800 42.08000
C  -12.93300 13.96900 42.31000
C  -12.09700 12.77800 42.62800
C  -10.84000 13.19400 42.34600
C  -10.86300 14.51300 41.95800
C  -12.59200 11.46000 43.30900
C  -9.47000 12.75300 42.26700
O  -9.02200 11.61500 42.53400
C  -8.67100 13.89500 41.68700
C  -7.46400 14.24100 42.49300
O  -7.59200 14.55800 43.66400
O  -6.30900 14.22400 41.77400
C  -5.19300 14.73800 42.60500
H  -9.99000 20.54000 40.18400
H  -16.23100 19.35800 41.51100
H  -14.76500 13.40700 43.36900
H  -7.26200 16.69300 41.13100
H  -7.87900 19.01400 39.77000
H  -7.04600 18.57800 42.28400
H  -8.49000 19.53700 42.53000
H  -7.22900 20.19600 41.50700
H  -8.19400 16.95800 38.39300
H  -8.20600 15.30100 39.08500
H  -6.09000 14.88000 39.00800
H  -5.55100 16.41200 39.56600
H  -12.35900 23.15600 40.31300
H  -12.34100 22.74500 38.67000
H  -10.92900 22.36600 39.59800
H  -16.76700 21.29900 41.04900
H  -16.82000 20.18400 39.61500
H  -17.21600 21.92900 39.40900
H  -17.59400 17.04700 41.45300
H  -16.77400 15.19000 43.68700
H  -17.76000 16.93700 44.21800
H  -18.34100 18.30600 43.31400
H  -16.76800 18.35500 44.05200
H  -16.99600 13.56600 41.51900
H  -17.66800 15.06800 40.87100
H  -19.64000 14.61600 41.79100
H  -18.99900 14.47500 43.41300
H  -19.10700 13.06700 42.27800
H  -11.97200 11.32900 44.19600
H  -12.57900 10.62800 42.60500
H  -13.54600 11.69900 43.77700
H  -8.35600 13.52400 40.71200
H  -4.22500 14.65600 42.11100
H  -5.05600 14.21700 43.55200
H  -5.23800 15.78300 42.91200

