158

Mg 0.20700 7.79300 26.34700
C  1.24500 9.51600 29.16700
C  0.13100 4.87900 28.03100
C  -0.16000 6.16800 23.40800
C  0.31000 10.85500 24.55300
N  0.73100 7.27800 28.32700
C  1.05200 8.13400 29.39800
C  0.99400 7.37600 30.66500
C  0.79200 5.83200 30.26800
C  0.47300 5.98800 28.77700
C  2.07600 4.96700 30.51500
C  -0.15900 7.99800 31.52900
C  0.19100 8.38600 32.98400
H  1.27200 7.58400 33.80500
N  0.08300 5.75700 25.79800
C  0.01100 4.74700 26.61700
C  -0.24200 3.51000 25.94100
C  -0.18300 3.84600 24.60000
C  -0.18100 5.31200 24.52500
C  -0.45100 2.19900 26.65800
C  -0.34900 2.94300 23.32600
O  -0.38700 3.36800 22.15400
C  -0.38600 1.50900 23.45600
N  0.02900 8.43300 24.37000
C  -0.08600 7.52000 23.35800
C  -0.12000 8.14800 22.03600
C  -0.36900 9.68400 22.38300
C  0.04100 9.67600 23.84800
C  1.09100 7.92300 21.08700
C  -1.82400 10.22400 22.18700
C  -2.03000 11.48100 21.28000
N  0.60300 9.83100 26.81600
C  0.70500 10.90000 25.88200
C  1.19100 12.06400 26.64100
C  1.50100 11.62100 27.94300
C  1.03500 10.22600 27.95300
C  1.57600 13.43300 26.03700
C  2.00400 11.94200 29.27000
O  2.47800 13.03400 29.69600
C  1.67000 10.61600 30.09100
C  2.78000 10.21800 30.97100
O  3.84700 9.69900 30.62900
O  2.54100 10.74000 32.25100
C  3.68500 10.78000 33.13600
H  -0.09100 4.01700 28.66300
H  -0.33100 5.55600 22.52000
H  0.25000 11.74900 23.92900
H  1.95100 7.42000 31.18400
H  -0.05500 5.35500 30.76100
H  2.75300 5.43700 31.22800
H  2.58900 4.73800 29.58100
H  1.63300 4.08800 30.98300
H  -0.99000 7.29800 31.44700
H  -0.42100 8.88300 30.95000
H  -0.74900 8.28800 33.52700
H  0.49100 9.43000 32.89500
H  -0.93500 1.52200 25.95500
H  -1.07000 2.38000 27.53600
H  0.48500 1.81300 27.06200
H  -1.35400 1.27300 23.89900
H  0.45100 1.14200 24.05000
H  -0.47200 1.20500 22.41300
H  -0.97800 7.68300 21.55000
H  0.26600 10.36000 21.81100
H  1.23000 6.87900 20.80800
H  2.00200 8.29300 21.55700
H  0.76500 8.43200 20.18000
H  -2.29800 10.25200 23.16800
H  -2.36100 9.40100 21.71600
H  -2.68100 11.20100 20.45200
H  -1.10500 11.82300 20.81700
H  -2.47900 12.35000 21.76000
H  2.47600 13.88400 26.45600
H  0.77500 14.09500 26.36400
H  1.51900 13.31900 24.95400
H  0.85100 10.87000 30.76400
H  4.67800 10.51500 32.77200
H  3.41000 10.08700 33.93000
H  3.80700 11.78900 33.53000
Mg 42.96100 3.35300 47.19900
C  41.06200 6.20600 47.19000
C  40.05600 1.50900 47.08400
C  44.77200 0.55300 46.11700
C  45.85500 5.30200 46.43500
N  40.83000 3.84900 47.14300
C  40.22200 5.12100 47.21200
C  38.66900 4.96400 47.37400
C  38.44300 3.40200 47.63700
C  39.88600 2.87600 47.21200
C  37.97500 3.03400 49.05500
C  37.73900 5.58800 46.26500
C  38.16700 5.41400 44.78900
H  38.02500 6.63600 43.84300
N  42.48900 1.29000 46.76400
C  41.19800 0.76200 46.77700
C  41.25100 -0.61600 46.52600
C  42.62500 -0.98400 46.11800
C  43.36900 0.28600 46.43300
C  39.97700 -1.43200 46.62600
C  43.16400 -2.30100 45.55000
O  42.35000 -3.22600 45.37400
C  44.65700 -2.59100 45.15700
N  44.95400 3.02000 46.26300
C  45.45800 1.77500 46.11100
C  46.94500 1.78200 45.97100
C  47.32000 3.32900 45.88000
C  45.97300 3.96500 46.10700
C  47.54600 0.97200 47.15000
C  48.05600 3.71700 44.52200
C  49.58900 3.93000 44.60600
N  43.49000 5.32200 47.12400
C  44.66800 6.05000 46.85500
C  44.46900 7.44800 47.08900
C  43.04800 7.53600 47.27000
C  42.49600 6.22800 47.14400
C  45.33200 8.64700 46.80200
C  41.93800 8.51400 47.42200
O  41.98400 9.75800 47.36200
C  40.63500 7.65200 47.42300
C  39.95200 7.96300 48.74900
O  40.17000 7.41200 49.79100
O  38.83600 8.66300 48.43700
C  37.86600 8.81100 49.49600
H  39.11400 0.95700 47.07700
H  45.36300 -0.34300 45.91700
H  46.70800 5.95800 46.25100
H  38.49000 5.54800 48.27700
H  37.73100 2.97000 46.93400
H  37.13500 2.35400 48.91600
H  37.57400 3.91300 49.56100
H  38.75600 2.55100 49.64200
H  37.55100 6.65900 46.32800
H  36.78200 5.09800 46.44200
H  37.55100 4.59700 44.41300
H  39.20300 5.07600 44.77300
H  39.39800 -1.11400 45.75900
H  39.39600 -1.29700 47.53800
H  40.14500 -2.49700 46.46800
H  45.39100 -2.49600 45.95700
H  44.91200 -1.82700 44.42300
H  44.64500 -3.59000 44.72000
H  47.27400 1.10000 45.18700
H  47.99700 3.55200 46.70500
H  47.88400 0.04600 46.68500
H  46.93700 0.76200 48.02900
H  48.46000 1.47000 47.47500
H  47.68000 4.60900 44.02100
H  47.91500 2.86200 43.86000
H  49.91700 4.89900 44.22900
H  50.08600 3.25300 43.91200
H  49.88000 3.78400 45.64600
H  46.26600 8.36100 46.31900
H  45.52900 9.16400 47.74100
H  44.78400 9.25500 46.08100
H  40.07200 7.93700 46.53500
H  38.21100 9.63600 50.12000
H  37.71500 7.91600 50.09900
H  36.89200 9.08500 49.08900

