158

Mg 16.22500 -2.89400 28.32500
C  15.15700 -0.76100 30.86600
C  18.64800 -4.17500 30.33400
C  17.65000 -4.56600 25.72400
C  14.32700 -0.99200 26.02400
N  16.83600 -2.48000 30.33700
C  16.20700 -1.64500 31.26500
C  16.87400 -1.75300 32.64400
C  18.04200 -2.81700 32.38100
C  17.87500 -3.14100 30.89100
C  19.53600 -2.35800 32.77600
C  15.79700 -2.13600 33.73100
C  15.68000 -1.29000 35.04100
H  16.89200 -0.51400 35.60500
N  17.73100 -4.44900 28.11100
C  18.58100 -4.81300 29.06500
C  19.50200 -5.82500 28.58000
C  19.29900 -5.96600 27.17000
C  18.13600 -4.98400 26.92200
C  20.58100 -6.39200 29.42000
C  19.84800 -6.94200 26.15800
O  19.50400 -6.93800 24.93800
C  20.94000 -7.86600 26.59800
N  16.08300 -2.74400 26.14400
C  16.83800 -3.45200 25.37600
C  16.65900 -2.94000 23.91000
C  15.48300 -1.97200 23.99200
C  15.20900 -1.92900 25.45200
C  17.89700 -2.27500 23.26200
C  14.22700 -2.37900 23.09500
C  13.98300 -1.44800 21.89100
N  15.11100 -1.20300 28.32300
C  14.25900 -0.64000 27.34200
C  13.41600 0.31000 27.97500
C  13.76600 0.33400 29.28100
C  14.77500 -0.63100 29.51100
C  12.30200 1.06500 27.28500
C  13.45300 0.94400 30.55200
O  12.69300 1.89200 30.87100
C  14.39000 0.33400 31.61900
C  15.33100 1.39300 32.14500
O  16.48800 1.51400 31.79900
O  14.76300 2.17100 33.16300
C  15.60000 3.20900 33.82200
H  19.52300 -4.46500 30.91900
H  18.13900 -4.97100 24.83500
H  13.69000 -0.42900 25.33800
H  17.35200 -0.84800 33.01800
H  17.91900 -3.71500 32.98700
H  20.15700 -3.24800 32.87500
H  19.46700 -1.73300 33.66600
H  20.06200 -1.88700 31.94500
H  16.07700 -3.13000 34.07800
H  14.81000 -2.17600 33.27200
H  15.55600 -2.00100 35.85800
H  14.71000 -0.79500 34.99900
H  20.92400 -7.35300 29.03700
H  20.31300 -6.52000 30.46900
H  21.34500 -5.62000 29.51200
H  21.77800 -7.22600 26.87700
H  21.24700 -8.54500 25.80300
H  20.70000 -8.42500 27.50200
H  16.35000 -3.74100 23.23800
H  15.76400 -0.96400 23.68700
H  18.12300 -2.61500 22.25100
H  18.73000 -2.54800 23.90900
H  17.78500 -1.19200 23.31900
H  13.30900 -2.43900 23.68100
H  14.29100 -3.36400 22.63200
H  12.91700 -1.57900 21.70800
H  14.57200 -1.82200 21.05300
H  14.23300 -0.40600 22.09000
H  11.91800 0.74300 26.31700
H  12.47000 2.13800 27.19800
H  11.42800 0.95400 27.92700
H  13.80700 -0.03500 32.46200
H  15.87000 3.85500 32.98600
H  16.53500 2.77200 34.17300
H  15.02900 3.59800 34.66500
Mg 50.89200 44.48600 42.57100
C  47.68400 45.43600 41.12400
C  50.36000 41.33600 41.28600
C  54.15500 43.94600 43.11900
C  51.38900 47.87500 43.15100
N  49.19400 43.57700 41.35100
C  48.02500 44.14600 40.86500
C  47.23700 43.10900 40.10100
C  48.04400 41.76100 40.29900
C  49.27100 42.22600 41.01600
C  47.15600 40.75900 41.05300
C  47.19700 43.63000 38.63600
C  45.81100 43.70500 38.00800
H  45.69200 42.98300 36.64000
N  52.07600 42.83200 42.34200
C  51.66500 41.57400 41.95100
C  52.74100 40.61700 42.14100
C  53.86800 41.34300 42.68200
C  53.44000 42.79300 42.75700
C  52.66200 39.17400 41.78800
C  55.18000 40.73600 43.13200
O  55.47900 39.53100 42.89300
C  56.17900 41.51400 43.96000
N  52.57100 45.76300 42.96500
C  53.83300 45.31800 43.17400
C  54.83100 46.47300 43.39700
C  53.91900 47.70400 43.30600
C  52.48700 47.06700 43.20400
C  55.62300 46.56200 44.78500
C  54.15600 48.81700 42.23300
C  54.41400 50.23000 42.78000
N  49.71500 46.29000 42.50800
C  49.98600 47.59800 42.87200
C  48.78100 48.44500 42.73300
C  47.80500 47.60100 42.11900
C  48.46200 46.31500 41.94700
C  48.67600 49.89000 43.05800
C  46.49700 47.60500 41.49100
O  45.65400 48.45800 41.36800
C  46.38800 46.18000 40.74500
C  45.03900 45.59000 41.11200
O  44.05900 45.52000 40.43700
O  45.07500 45.17500 42.44400
C  43.84400 44.79800 43.11600
H  50.20900 40.34800 40.84600
H  55.20700 43.78700 43.36100
H  51.46800 48.95700 43.27900
H  46.21100 43.07600 40.46700
H  48.22500 41.33200 39.31300
H  46.12700 41.12000 41.02900
H  47.50700 40.75700 42.08500
H  47.06000 39.77100 40.60400
H  47.91500 43.04800 38.05900
H  47.51900 44.66300 38.50600
H  45.57500 44.73900 37.75500
H  44.99500 43.30300 38.60900
H  53.07900 39.08700 40.78500
H  51.65900 38.77500 41.63900
H  53.14600 38.49000 42.48500
H  55.69800 42.21800 44.64000
H  56.84800 41.92700 43.20500
H  56.74700 40.86200 44.62400
H  55.59300 46.56900 42.62400
H  53.74500 48.23200 44.24400
H  55.60700 45.56900 45.23300
H  55.26100 47.36100 45.43200
H  56.67500 46.76600 44.58400
H  53.40900 48.76400 41.44000
H  55.12300 48.49800 41.84400
H  54.12400 50.36800 43.82200
H  54.02500 50.95400 42.06500
H  55.48800 50.41400 42.74900
H  48.78900 50.51900 42.17500
H  49.55400 50.03000 43.68900
H  47.79700 49.99500 43.69500
H  46.41200 46.36800 39.67200
H  43.92700 43.71800 42.99100
H  42.98900 45.16900 42.55100
H  43.76300 45.17800 44.13400

