158

Mg 0.45900 7.91900 24.81100
C  1.32800 9.60200 27.88800
C  0.73900 4.98200 26.53600
C  0.08300 6.38500 21.95200
C  0.79300 11.12400 23.13300
N  0.90200 7.41200 26.96900
C  1.13500 8.26100 28.07700
C  1.24600 7.42000 29.34500
C  1.15300 5.92900 28.87000
C  0.89400 6.08500 27.35600
C  2.38000 4.94700 29.09000
C  0.23200 7.92400 30.37700
C  0.71000 7.76900 31.78900
H  1.89700 6.77600 32.17500
N  0.40400 5.96000 24.33500
C  0.46500 4.89800 25.19400
C  0.33000 3.66600 24.48700
C  0.17200 4.05400 23.10400
C  0.11800 5.49800 23.13200
C  0.43800 2.28400 25.00800
C  0.12500 3.25700 21.80100
O  -0.14100 3.79700 20.73800
C  0.35500 1.79500 21.80200
N  0.65900 8.73800 22.83500
C  0.30600 7.77500 21.83100
C  0.16500 8.52200 20.47800
C  0.37900 10.02700 20.86600
C  0.62000 10.03300 22.37000
C  1.05900 8.00500 19.37700
C  -0.62200 11.01700 20.41200
C  -1.90500 11.19100 21.27300
N  0.92200 9.94800 25.38200
C  0.99300 11.08900 24.54600
C  1.21400 12.19900 25.42700
C  1.43800 11.68400 26.72700
C  1.21000 10.29700 26.63300
C  1.19500 13.67500 25.06500
C  1.69000 12.04400 28.05800
O  1.88100 13.15300 28.61000
C  1.56000 10.72400 28.92400
C  2.74100 10.65100 29.83000
O  3.87300 10.39100 29.46900
O  2.37800 11.09300 31.11300
C  3.32800 11.42200 32.14800
H  0.88800 4.06700 27.11400
H  -0.00300 5.94300 20.95800
H  0.91500 12.08700 22.63300
H  2.23800 7.64400 29.73700
H  0.34500 5.43400 29.40900
H  2.86700 4.60700 28.17600
H  1.97000 4.09400 29.63100
H  3.08800 5.49800 29.70900
H  -0.61200 7.24300 30.26900
H  0.02600 8.98900 30.27500
H  -0.15000 7.37100 32.32700
H  0.93300 8.72700 32.25600
H  -0.44600 1.65500 24.90400
H  0.68400 2.30600 26.07000
H  1.29900 1.78900 24.55800
H  0.01300 1.24000 22.67500
H  1.43000 1.62600 21.73400
H  -0.12500 1.32100 20.94600
H  -0.85500 8.44900 20.10200
H  1.31200 10.29700 20.37100
H  1.59200 8.84000 18.92200
H  0.40400 7.60000 18.60600
H  1.76000 7.26000 19.75300
H  -0.92600 10.85200 19.37800
H  -0.24600 12.03900 20.39000
H  -2.88100 11.30000 20.79900
H  -1.74800 12.10900 21.84000
H  -1.92400 10.47300 22.09300
H  2.04900 13.87300 24.41700
H  1.22100 14.44800 25.83300
H  0.43000 13.84000 24.30700
H  0.64200 10.89300 29.48800
H  3.31800 12.51000 32.21700
H  4.33300 11.13800 31.83600
H  3.07900 10.80200 33.00900
Mg -3.35400 34.74800 26.88600
C  -4.88400 33.02500 29.49800
C  -1.86500 36.78400 29.28300
C  -2.45200 36.97800 24.45400
C  -5.61500 33.20600 24.61000
N  -3.50000 34.98700 29.18000
C  -3.97600 33.96900 29.97300
C  -3.63400 34.26200 31.43500
C  -2.77600 35.54800 31.42000
C  -2.69200 35.87600 29.87900
C  -3.22400 36.68300 32.32000
C  -2.96500 33.00900 32.13400
C  -3.53900 32.68800 33.49000
H  -2.58500 33.12000 34.59700
N  -2.25800 36.47000 26.83800
C  -1.67400 37.11900 27.95500
C  -0.80900 38.21500 27.46600
C  -0.92800 38.20900 26.05100
C  -1.95300 37.22100 25.70300
C  0.00200 39.05700 28.41700
C  -0.15100 39.14800 25.03600
O  -0.21200 39.04200 23.81900
C  0.86100 40.03400 25.49400
N  -3.90200 35.01200 24.85200
C  -3.39500 35.99700 24.01700
C  -4.12900 36.02400 22.62500
C  -5.00300 34.69900 22.67100
C  -4.84100 34.25600 24.12100
C  -4.91700 37.39200 22.60300
C  -4.47000 33.63000 21.66300
C  -3.20700 32.69100 22.03500
N  -4.79100 33.19500 26.91300
C  -5.68800 32.70200 25.95000
C  -6.40700 31.63900 26.56100
C  -6.08900 31.72400 27.89300
C  -5.18700 32.74300 28.11700
C  -7.38300 30.73600 25.83500
C  -6.36600 31.09400 29.16800
O  -7.00600 30.13700 29.34700
C  -5.63700 31.91000 30.30100
C  -6.71900 32.51600 31.11300
O  -7.72800 33.09000 30.75700
O  -6.46200 32.24400 32.37300
C  -7.50200 32.48600 33.43700
H  -1.19200 37.30500 29.96700
H  -2.18600 37.73500 23.71300
H  -6.39300 32.82100 23.94800
H  -4.55700 34.45700 31.98100
H  -1.74100 35.30200 31.66000
H  -4.10100 36.33300 32.86400
H  -3.41700 37.63600 31.82900
H  -2.35900 36.80900 32.97200
H  -1.95000 33.35900 32.32300
H  -2.81900 32.08900 31.56700
H  -3.64200 31.60400 33.53900
H  -4.49100 33.21000 33.59000
H  1.06300 39.08500 28.17100
H  -0.00200 38.86200 29.49000
H  -0.28900 40.08500 28.20100
H  1.42200 40.39500 24.63100
H  1.63200 39.47800 26.02700
H  0.33700 40.73600 26.14300
H  -3.32600 36.05700 21.88900
H  -6.04700 34.98400 22.53800
H  -5.95000 37.19700 22.31700
H  -4.45800 38.07000 21.88300
H  -5.08800 37.88400 23.56100
H  -4.25800 34.21600 20.76900
H  -5.41100 33.11400 21.47500
H  -2.71600 33.07000 22.93200
H  -2.45700 32.67000 21.24500
H  -3.61500 31.71900 22.31300
H  -8.16300 30.41900 26.52700
H  -6.91900 29.82100 25.46700
H  -7.80400 31.27100 24.98400
H  -4.97400 31.35400 30.96300
H  -6.89200 32.57300 34.33600
H  -8.18000 31.64900 33.59900
H  -8.12900 33.35800 33.25000

