158

Mg 9.04700 4.17200 27.32500
C  10.27000 2.61600 30.15700
C  7.16400 6.20800 29.20300
C  8.10900 5.62500 24.49900
C  10.79900 1.67600 25.33700
N  8.73200 4.42500 29.49800
C  9.39500 3.68000 30.45600
C  9.15000 4.21400 31.81600
C  7.92500 5.22600 31.56300
C  7.96600 5.33100 29.99000
C  6.58500 4.82600 32.21600
C  10.39900 4.79100 32.61900
C  10.10900 5.88100 33.72000
H  10.86400 5.64000 35.06000
N  7.82700 5.72700 26.94600
C  7.01300 6.31400 27.83300
C  6.06000 7.17000 27.06900
C  6.47300 7.09300 25.66100
C  7.58900 6.13800 25.67800
C  4.99200 7.92000 27.77500
C  5.87600 7.82700 24.44800
O  6.21600 7.64400 23.33200
C  4.96700 8.92800 24.60100
N  9.34500 3.62700 25.16300
C  8.88300 4.45300 24.23900
C  9.09100 3.90000 22.79400
C  9.95100 2.59200 23.08200
C  10.11300 2.64000 24.60700
C  7.73200 3.65500 22.05300
C  11.34100 2.39100 22.38500
C  11.56500 1.05800 21.55200
N  10.19600 2.43800 27.61500
C  10.90300 1.62100 26.74500
C  11.64800 0.71300 27.53300
C  11.46800 1.08700 28.87700
C  10.53500 2.09600 28.89100
C  12.47000 -0.37500 27.06700
C  11.91900 0.77500 30.26300
O  12.62000 -0.09200 30.77300
C  11.05500 1.76400 31.12600
C  10.15800 0.93200 32.00100
O  9.35600 0.05200 31.66900
O  10.38400 1.38400 33.29600
C  9.42300 0.84000 34.28600
H  6.47800 6.84300 29.76700
H  7.76300 5.99700 23.53300
H  11.39200 0.94000 24.79000
H  8.77900 3.37600 32.40700
H  8.18500 6.23700 31.88000
H  5.88700 4.81600 31.38000
H  6.27100 5.63200 32.88000
H  6.69000 3.93700 32.83900
H  10.98900 5.16000 31.78000
H  10.94500 4.00600 33.14100
H  9.03400 5.81700 33.88700
H  10.30200 6.89500 33.36800
H  4.69400 7.46400 28.71900
H  4.11900 7.81100 27.13100
H  5.10500 9.00400 27.80400
H  5.44200 9.70800 25.19500
H  4.01500 8.61700 25.03100
H  4.84300 9.39600 23.62400
H  9.60200 4.72000 22.29000
H  9.43500 1.66700 22.82300
H  6.89100 4.12700 22.56100
H  7.51300 2.60200 21.87600
H  7.79700 4.14600 21.08200
H  12.17900 2.31600 23.07800
H  11.46400 3.15000 21.61300
H  12.10400 1.39300 20.66500
H  10.63700 0.59100 21.22300
H  12.12200 0.34000 22.15300
H  13.14000 -0.17000 26.23100
H  11.84900 -1.23500 26.81400
H  13.09600 -0.53300 27.94600
H  11.78400 2.34500 31.69000
H  9.43300 -0.24900 34.24600
H  8.49400 1.37800 34.09500
H  9.71900 1.10400 35.30100
Mg 23.90700 -5.62400 45.47300
C  26.32700 -3.45900 44.06100
C  21.63500 -4.31600 43.19900
C  21.86300 -8.22200 46.15300
C  26.40600 -7.10400 47.27100
N  24.02000 -4.09800 43.81100
C  25.11000 -3.41500 43.36100
C  24.69700 -2.59200 42.06000
C  23.15200 -2.81600 41.95200
C  22.89000 -3.76200 43.07300
C  22.27600 -1.53800 41.88100
C  25.60800 -2.93100 40.85000
C  26.62100 -1.81100 40.40900
H  26.44400 -1.27000 38.99900
N  21.98300 -6.07500 44.91600
C  21.18200 -5.37800 44.00600
C  19.93300 -6.10400 43.83700
C  20.03600 -7.27500 44.58500
C  21.32000 -7.24600 45.31300
C  18.82100 -5.56900 42.93700
C  18.92900 -8.30400 44.66700
O  17.89900 -8.07600 44.01000
C  18.96500 -9.46200 45.61700
N  24.04600 -7.35200 46.80400
C  23.14700 -8.25600 46.78000
C  23.70400 -9.54100 47.35900
C  25.06100 -9.08700 47.95700
C  25.18000 -7.79600 47.25200
C  22.86300 -10.40400 48.45300
C  26.26700 -10.08900 47.77500
C  27.20900 -10.12200 48.95200
N  25.90500 -5.23400 45.85400
C  26.80800 -5.95700 46.57400
C  28.14500 -5.27700 46.45900
C  27.97700 -4.27000 45.50200
C  26.58900 -4.30600 45.13700
C  29.26200 -5.74600 47.23800
C  28.62000 -3.13500 44.91200
O  29.69600 -2.57500 45.07800
C  27.61700 -2.67100 43.74900
C  27.44400 -1.16100 43.97700
O  26.62600 -0.63300 44.72800
O  28.23000 -0.45300 43.10200
C  28.25000 0.99900 43.09700
H  20.98700 -4.06500 42.35700
H  21.29900 -9.15600 46.20700
H  27.22500 -7.59600 47.79900
H  24.87500 -1.56500 42.37900
H  23.04500 -3.31000 40.98700
H  22.08000 -1.13000 42.87300
H  21.38200 -1.56900 41.25800
H  22.83200 -0.68700 41.48800
H  25.04500 -3.07200 39.92700
H  26.06500 -3.91900 40.90200
H  27.63900 -2.17600 40.54800
H  26.53200 -0.90900 41.01400
H  18.86100 -5.86200 41.88800
H  18.79300 -4.48600 43.05900
H  17.79100 -5.74700 43.24500
H  19.29200 -9.12400 46.60100
H  19.67200 -10.07700 45.06000
H  18.01000 -9.98300 45.68200
H  23.92200 -10.19400 46.51500
H  24.95200 -8.97500 49.03500
H  21.80200 -10.22200 48.27900
H  23.08100 -10.11100 49.48000
H  23.12300 -11.45400 48.32500
H  26.77500 -9.74900 46.87200
H  25.79900 -11.04300 47.53500
H  27.12500 -11.13200 49.35400
H  26.97600 -9.36100 49.69600
H  28.22100 -9.96600 48.57600
H  30.07700 -5.10300 46.90600
H  29.36900 -6.81500 47.05600
H  29.00000 -5.61700 48.28800
H  28.00500 -3.02000 42.79200
H  27.77300 1.43000 43.97700
H  27.61000 1.20700 42.23900
H  29.27900 1.33800 42.97600

