158

Mg 53.47200 24.64000 44.54500
C  50.69400 26.78700 44.16900
C  51.38800 22.01800 44.23300
C  56.22900 22.78000 43.98200
C  55.54200 27.41400 44.86000
N  51.27700 24.48600 44.10500
C  50.30700 25.44900 44.07400
C  48.90600 24.95400 44.09700
C  49.20100 23.47300 44.63600
C  50.70200 23.26300 44.31400
C  48.96800 23.09000 46.08800
C  48.12300 25.01500 42.79800
C  48.59700 24.14700 41.56900
H  49.64200 24.66500 40.59900
N  53.76500 22.70700 44.14600
C  52.79500 21.77500 44.13100
C  53.42900 20.49800 44.05900
C  54.80800 20.61400 44.01500
C  54.99500 22.08400 44.04700
C  52.69400 19.18400 44.08400
C  55.89700 19.52200 44.15600
O  55.59300 18.33600 43.95900
C  57.40800 19.75000 44.35300
N  55.66700 25.11400 44.15800
C  56.53800 24.10100 44.06100
C  58.01200 24.57700 43.97000
C  57.74800 26.06900 44.40700
C  56.23600 26.24800 44.52100
C  59.17600 23.93500 44.74300
C  58.34500 27.13000 43.48600
C  59.37800 28.09200 44.07100
N  53.20800 26.69900 44.52700
C  54.14700 27.71400 44.76000
C  53.52600 28.97300 44.79100
C  52.14300 28.65100 44.55800
C  51.94300 27.28400 44.43800
C  54.17500 30.27300 44.92900
C  50.85300 29.29100 44.42700
O  50.53500 30.48500 44.50200
C  49.85200 28.09000 44.11700
C  49.16800 28.45100 42.82300
O  49.67700 28.52900 41.72700
O  47.81600 28.68400 43.03100
C  47.01100 28.77500 41.79300
H  50.90500 21.05100 44.38300
H  57.02600 22.13600 43.60300
H  56.25900 28.18200 45.16000
H  48.44700 25.57000 44.87000
H  48.53000 22.85600 44.03900
H  48.37300 23.86300 46.57200
H  49.79300 22.87000 46.76600
H  48.36500 22.18200 46.06200
H  48.23700 26.05200 42.48300
H  47.06100 24.78000 42.87000
H  47.74800 23.69600 41.05500
H  49.03400 23.28700 42.07500
H  52.15000 18.93000 43.17500
H  51.90700 19.24700 44.83600
H  53.32800 18.32000 44.28300
H  57.86200 19.84200 43.36600
H  57.97600 18.95900 44.84200
H  57.50400 20.63800 44.97800
H  58.38000 24.51500 42.94600
H  58.06200 26.33400 45.41600
H  59.94300 23.54100 44.07700
H  58.75900 23.04000 45.20400
H  59.70200 24.59600 45.43100
H  57.50800 27.62600 42.99400
H  58.94100 26.57800 42.76000
H  60.37400 28.04700 43.63000
H  59.54100 27.88600 45.12900
H  59.00400 29.10700 43.93500
H  54.69000 30.59700 44.02400
H  54.93500 30.17400 45.70400
H  53.55200 31.10700 45.25200
H  49.06500 28.11100 44.87100
H  46.66700 29.79300 41.60900
H  46.12400 28.20400 42.06800
H  47.37000 28.31900 40.87100
Mg 48.61800 35.17200 27.44500
C  46.65600 33.87200 30.06900
C  49.30100 37.92100 29.34600
C  50.37800 36.28500 24.84700
C  47.55200 32.34600 25.49600
N  48.14900 35.70700 29.48900
C  47.40100 35.01100 30.42400
C  47.74500 35.58800 31.80600
C  47.94400 37.09400 31.46800
C  48.49500 36.95000 29.99100
C  46.80400 38.19100 31.64900
C  48.94500 34.78600 32.54900
C  48.98500 34.64900 34.09700
H  48.11800 35.56700 34.87300
N  49.56200 36.92100 27.10000
C  49.77600 37.88800 28.03000
C  50.64300 38.88600 27.40600
C  51.08600 38.39000 26.12300
C  50.36600 37.13300 25.97900
C  50.98100 40.25800 28.02600
C  52.16500 38.92300 25.22000
O  52.43900 38.40300 24.17700
C  52.97800 40.15500 25.63800
N  48.80100 34.45100 25.47600
C  49.63400 35.10700 24.62400
C  49.84200 34.37300 23.32500
C  48.92000 33.01900 23.51200
C  48.38400 33.29200 24.93700
C  49.34000 35.33100 22.24100
C  49.84200 31.65600 23.31900
C  49.50800 30.80600 22.06400
N  47.38300 33.50400 27.64700
C  47.05700 32.41900 26.84000
C  46.21100 31.52700 27.48900
C  46.04800 32.11100 28.75000
C  46.77700 33.27200 28.78100
C  45.60800 30.24600 26.98700
C  45.33000 31.89300 29.99500
O  44.49100 31.07500 30.27200
C  45.79400 33.01200 30.96700
C  46.56100 32.33200 32.06200
O  47.57000 31.66100 31.99900
O  45.72300 32.40600 33.16000
C  46.07400 31.48300 34.19500
H  49.57600 38.80700 29.92300
H  50.98000 36.60600 23.99400
H  47.23900 31.41500 25.01800
H  46.88100 35.53700 32.47000
H  48.75400 37.47600 32.08900
H  46.30000 38.42600 30.71100
H  47.07800 39.10200 32.18100
H  45.98500 37.75900 32.22400
H  49.89600 35.22200 32.24500
H  48.89000 33.77900 32.13500
H  49.99600 34.65100 34.50500
H  48.65800 33.63900 34.34300
H  50.18000 40.51900 28.71800
H  50.87900 40.92700 27.17100
H  51.89500 40.43500 28.59300
H  53.83100 40.21900 24.96200
H  53.20100 40.06500 26.70100
H  52.27800 40.96800 25.44800
H  50.90300 34.12900 23.29600
H  48.07100 33.17300 22.84600
H  48.64600 36.08600 22.61100
H  48.87000 34.84900 21.38400
H  50.15200 35.92300 21.82000
H  49.87700 30.93400 24.13400
H  50.84900 31.99900 23.08400
H  49.26400 29.82500 22.47200
H  50.37900 30.70100 21.41800
H  48.65100 31.22800 21.53900
H  45.39900 30.23700 25.91800
H  44.72000 30.02100 27.57700
H  46.37100 29.51100 27.24600
H  45.09900 33.71100 31.43100
H  45.51400 31.61800 35.12000
H  47.08500 31.55800 34.59500
H  46.01200 30.44200 33.87700

