158

Mg 35.10300 3.02200 30.07000
C  32.77400 3.94600 32.58200
C  37.62100 3.36800 32.48600
C  37.31700 2.20200 27.79300
C  32.64100 3.58900 27.73500
N  35.16700 3.91800 32.19500
C  34.11700 3.94600 33.10200
C  34.61800 3.87200 34.53700
C  36.13100 4.10100 34.40700
C  36.34500 3.82200 32.91600
C  36.58100 5.55900 34.66100
C  34.24300 2.47900 35.14300
C  33.74000 2.47600 36.59300
H  34.42900 3.42800 37.56600
N  37.17300 2.71100 30.10700
C  37.99500 2.83800 31.17700
C  39.27900 2.32700 30.85600
C  39.19000 1.96100 29.46800
C  37.87600 2.27200 29.02300
C  40.36400 2.25700 31.84600
C  40.30600 1.38100 28.49800
O  40.12900 1.10200 27.33600
C  41.73500 1.27600 29.06700
N  34.99600 3.01000 28.02500
C  36.06100 2.58300 27.31000
C  35.62000 2.44300 25.81100
C  34.07900 2.76100 25.88200
C  33.85600 3.11800 27.32800
C  36.38200 3.35300 24.74500
C  33.20400 1.50100 25.60200
C  32.87100 1.30000 24.08000
N  33.04500 3.64300 30.08300
C  32.14900 3.78500 29.05600
C  30.83000 4.09800 29.60500
C  31.03100 4.14000 31.02200
C  32.39100 3.87400 31.24000
C  29.57800 4.36800 28.79200
C  30.40200 4.37200 32.34400
O  29.26000 4.61500 32.65000
C  31.47400 4.13500 33.44300
C  31.57100 5.26100 34.34500
O  32.04200 6.37500 34.19100
O  31.13900 4.74900 35.58200
C  31.22400 5.84700 36.65400
H  38.37600 3.37700 33.27500
H  37.97800 2.13800 26.92600
H  31.91000 3.67500 26.92900
H  34.14100 4.66600 35.11100
H  36.72900 3.40700 34.99800
H  37.27400 5.61400 35.50000
H  35.66500 6.15000 34.64300
H  37.14600 5.94800 33.81400
H  35.07800 1.78100 35.20600
H  33.43000 2.11800 34.51300
H  33.75400 1.47000 37.01200
H  32.72500 2.87200 36.61300
H  39.91800 1.83500 32.74600
H  40.69400 3.28300 32.00800
H  41.13600 1.51700 31.63400
H  42.31800 1.09400 28.16500
H  41.72700 0.40400 29.72100
H  42.12000 2.15800 29.57900
H  35.83100 1.40200 25.56800
H  33.90900 3.55400 25.15400
H  37.03000 4.14100 25.13000
H  35.62700 3.90400 24.18400
H  36.90800 2.92600 23.89100
H  32.25800 1.72700 26.09500
H  33.67100 0.59800 25.99600
H  33.26800 0.32300 23.80600
H  33.19900 2.15500 23.48900
H  31.78800 1.23900 23.97600
H  28.80200 4.19600 29.53800
H  29.59600 3.54700 28.07600
H  29.75600 5.35200 28.35800
H  31.20300 3.21700 33.96500
H  32.27900 5.99100 36.88700
H  30.76800 5.75900 37.64000
H  30.79000 6.76700 36.26300
Mg 47.07800 25.67000 28.75400
C  48.11700 27.79700 31.30200
C  45.99700 23.41400 31.02300
C  46.64100 23.36800 26.21000
C  48.52300 27.80700 26.33000
N  47.16300 25.65300 30.87700
C  47.59400 26.59500 31.78600
C  47.26200 26.24500 33.23900
C  46.77900 24.76000 33.04800
C  46.55400 24.60100 31.52500
C  47.70200 23.68300 33.67400
C  46.10900 27.21200 33.87200
C  46.47800 27.48600 35.29100
H  45.33800 27.09000 36.24200
N  46.40900 23.64600 28.58100
C  45.92100 22.94200 29.65800
C  45.55700 21.64900 29.29900
C  45.70600 21.60100 27.89400
C  46.30400 22.86800 27.47200
C  45.03000 20.58400 30.27900
C  45.44400 20.42300 26.94600
O  45.76700 20.47600 25.78700
C  44.84800 19.15500 27.50300
N  47.52100 25.61500 26.57500
C  47.12300 24.53100 25.79600
C  47.54000 24.80600 24.41300
C  47.84100 26.29600 24.37600
C  48.01000 26.58800 25.84000
C  48.63800 23.87900 23.79500
C  46.80500 27.22000 23.64700
C  47.47300 28.00400 22.46700
N  48.02400 27.48000 28.77600
C  48.50700 28.24200 27.73600
C  49.18100 29.36700 28.29700
C  48.94800 29.25100 29.67900
C  48.29500 28.08700 29.93000
C  49.94100 30.43800 27.57200
C  49.20900 29.90700 30.95800
O  49.74900 30.92700 31.29400
C  48.55400 29.01600 32.02700
C  49.58000 28.65800 33.07900
O  50.71100 28.29900 32.85200
O  49.01900 28.80100 34.33300
C  49.96800 28.77700 35.44800
H  45.69300 22.74300 31.83000
H  46.50400 22.66500 25.38600
H  48.85400 28.46700 25.52500
H  48.16700 26.24300 33.84500
H  45.86300 24.55800 33.60400
H  48.59100 24.13000 34.11900
H  47.82200 22.98200 32.84800
H  47.22900 23.11000 34.47200
H  45.07200 26.97500 33.63500
H  46.24400 28.13800 33.31300
H  46.54300 28.56400 35.44100
H  47.41000 27.02000 35.61000
H  45.60400 19.66400 30.39500
H  44.08300 20.27600 29.83600
H  44.85900 20.91000 31.30500
H  44.68600 18.47900 26.66400
H  43.90800 19.45500 27.96600
H  45.51200 18.65100 28.20500
H  46.70000 24.75100 23.72200
H  48.84500 26.43200 23.97400
H  48.77100 22.99800 24.42300
H  49.52600 24.50100 23.67900
H  48.30700 23.53500 22.81500
H  46.36000 27.82100 24.43900
H  46.00200 26.63100 23.20300
H  46.88000 27.94900 21.55400
H  48.50400 27.69400 22.29800
H  47.38700 29.08200 22.60700
H  49.96200 30.31200 26.48900
H  50.94400 30.24800 27.95300
H  49.57100 31.43500 27.81400
H  47.73300 29.53800 32.51900
H  49.81800 27.84100 35.98600
H  49.80200 29.62600 36.11200
H  51.00800 29.00400 35.21600

