158

Mg 35.68600 2.87900 30.41200
C  33.31900 4.11500 32.63500
C  37.81400 2.48800 33.04300
C  38.04600 1.75100 28.29600
C  33.55200 3.60100 27.73100
N  35.63700 3.46800 32.58400
C  34.54500 3.89400 33.26300
C  34.82100 3.72100 34.74900
C  36.35800 3.63000 34.80500
C  36.63000 3.13200 33.43000
C  37.07000 4.98100 35.04300
C  34.09100 2.52400 35.39500
C  33.76500 2.53700 36.82400
H  34.47100 3.68200 37.58700
N  37.65800 2.32100 30.65000
C  38.30500 2.16000 31.75100
C  39.59600 1.38100 31.54700
C  39.67200 1.20000 30.13700
C  38.43100 1.83400 29.62700
C  40.54200 0.86000 32.60100
C  40.65400 0.38900 29.32200
O  40.53700 0.16700 28.12100
C  41.76500 -0.33700 30.04900
N  35.84400 2.85600 28.23600
C  36.79800 2.10000 27.73100
C  36.55600 1.92200 26.17000
C  35.07600 2.46600 26.02100
C  34.75900 2.96300 27.41300
C  37.62200 2.51800 25.25100
C  34.03900 1.47100 25.49000
C  32.96500 2.04800 24.58600
N  33.79400 3.60100 30.20400
C  33.09200 3.86200 29.04200
C  31.78100 4.35600 29.48200
C  31.83400 4.50700 30.85600
C  33.08800 4.05900 31.24800
C  30.52800 4.56400 28.62400
C  31.02600 4.84700 32.05000
O  29.88800 5.24800 32.17700
C  32.07500 4.67000 33.28500
C  32.29700 6.01200 33.97500
O  33.14100 6.85200 33.61000
O  31.64300 6.08600 35.18900
C  31.65500 7.27300 35.96600
H  38.53700 2.36700 33.85300
H  38.70700 1.22600 27.60300
H  32.81000 3.82000 26.96000
H  34.43100 4.63300 35.20100
H  36.62900 2.86100 35.52900
H  36.50300 5.64700 35.69300
H  37.26200 5.43700 34.07200
H  38.03600 4.81400 35.52000
H  34.64800 1.63300 35.10400
H  33.10800 2.56000 34.92500
H  34.14900 1.64100 37.31200
H  32.74100 2.58100 37.19600
H  41.51400 1.34300 32.49700
H  40.60200 -0.22700 32.54600
H  40.10300 0.91000 33.59800
H  42.36300 -0.90600 29.33700
H  41.23500 -1.08200 30.64200
H  42.43100 0.29500 30.63700
H  36.49100 0.85200 25.97000
H  35.08300 3.38000 25.42800
H  38.46000 2.92700 25.81600
H  37.19300 3.27900 24.59900
H  38.00100 1.70000 24.63800
H  33.66300 1.01700 26.40700
H  34.50000 0.72600 24.84200
H  33.10700 1.63000 23.58900
H  32.91000 3.13500 24.52600
H  31.94800 1.79800 24.88600
H  29.72600 3.97200 29.06600
H  30.70100 4.28200 27.58500
H  30.16600 5.58500 28.74500
H  31.70600 4.01000 34.07100
H  30.61100 7.53000 36.14400
H  32.05100 8.14400 35.44400
H  32.19900 7.28800 36.91000
Mg 56.45500 25.24400 45.07300
C  54.16700 27.64100 43.75900
C  54.88100 22.84100 43.64800
C  59.29500 23.42400 45.57900
C  58.32000 28.15300 46.18000
N  54.91900 25.32800 43.67000
C  54.06100 26.34700 43.28300
C  53.08600 25.80600 42.28500
C  53.04500 24.24200 42.58800
C  54.41600 24.12500 43.28800
C  51.84700 23.79200 43.49400
C  53.58200 26.02200 40.76900
C  52.55700 26.01100 39.64700
H  52.48000 24.83700 38.57700
N  56.94700 23.23500 44.81100
C  56.09800 22.36900 44.26600
C  56.73300 21.11200 44.08100
C  58.10300 21.32900 44.43900
C  58.19100 22.70100 44.97500
C  56.10300 19.89900 43.45400
C  59.27800 20.21800 44.25000
O  58.97100 19.10200 43.76600
C  60.68400 20.51000 44.60200
N  58.52600 25.75600 45.81100
C  59.47200 24.75600 45.88600
C  60.81200 25.21900 46.38300
C  60.46400 26.70400 46.63000
C  59.00300 26.93500 46.13800
C  61.32300 24.45200 47.61200
C  61.43900 27.67600 45.92100
C  61.86400 28.91200 46.71500
N  56.22900 27.48200 45.17000
C  57.01700 28.47500 45.70800
C  56.24300 29.77500 45.65600
C  55.14700 29.46800 44.89800
C  55.20400 28.10500 44.57900
C  56.64900 31.05700 46.24600
C  53.98000 30.02400 44.26600
O  53.58700 31.15400 44.23000
C  53.21400 28.81700 43.57400
C  53.06300 29.19000 42.08800
O  53.90100 29.77500 41.40000
O  51.78700 28.90800 41.75200
C  51.49300 29.15900 40.30400
H  54.39100 22.01500 43.12900
H  60.21300 22.84800 45.70800
H  58.96700 28.93400 46.58400
H  52.07700 26.20500 42.39300
H  52.94400 23.72900 41.63200
H  51.23300 24.60900 43.87500
H  52.25300 23.39200 44.42300
H  51.33200 23.07600 42.85400
H  54.42800 25.37400 40.54000
H  53.90200 27.06300 40.72600
H  52.74500 26.91400 39.06600
H  51.50300 26.07700 39.91800
H  56.23200 19.10900 44.19400
H  56.57900 19.51500 42.55100
H  55.03600 20.08200 43.32800
H  61.26200 19.73300 44.10200
H  60.69600 20.41000 45.68800
H  60.96200 21.50400 44.25400
H  61.42600 25.15400 45.48500
H  60.44800 26.91000 47.70000
H  61.89100 25.15700 48.22000
H  61.89500 23.63600 47.17100
H  60.50900 24.01500 48.19100
H  60.96700 27.92800 44.97200
H  62.35700 27.14600 45.66900
H  61.21500 29.77700 46.57300
H  62.89800 29.23600 46.59900
H  61.72900 28.73900 47.78300
H  57.37700 31.05400 47.05700
H  55.80900 31.45400 46.81600
H  56.99200 31.76500 45.49100
H  52.25300 28.56500 44.02200
H  52.30400 29.43100 39.62800
H  50.86200 30.04100 40.41100
H  50.89600 28.33100 39.92200

