158

Mg 24.36900 -5.59400 47.06800
C  26.25600 -3.40100 45.15200
C  21.75200 -5.04100 44.91000
C  22.83200 -8.26300 48.45400
C  27.48400 -6.81300 48.50600
N  24.10200 -4.52400 45.18300
C  24.93100 -3.54000 44.67100
C  24.29500 -2.66200 43.58800
C  22.85000 -3.22200 43.60300
C  22.89500 -4.31100 44.64400
C  21.72600 -2.21200 43.87800
C  25.00400 -2.61300 42.16600
C  25.18000 -1.11200 41.66100
H  25.37800 -0.96300 40.09000
N  22.53500 -6.46400 46.79000
C  21.62000 -6.10300 45.86000
C  20.44100 -6.90900 46.10200
C  20.68200 -7.80300 47.14300
C  22.11800 -7.51400 47.55100
C  19.15200 -6.56000 45.33000
C  19.70900 -8.80100 47.74600
O  18.59500 -8.82700 47.17000
C  19.93200 -9.69500 48.90500
N  25.08100 -7.46300 48.10700
C  24.19400 -8.30200 48.65600
C  24.90800 -9.37900 49.55000
C  26.27200 -8.78100 49.71900
C  26.33900 -7.64000 48.65900
C  24.31600 -9.75000 50.92800
C  27.40200 -9.86800 49.65400
C  27.88100 -10.62100 50.90400
N  26.39600 -5.10800 47.05800
C  27.50100 -5.60900 47.70600
C  28.64500 -4.91000 47.35500
C  28.20900 -3.97500 46.39200
C  26.81100 -4.18700 46.16500
C  30.08400 -5.12200 47.91900
C  28.65500 -2.94400 45.50200
O  29.78500 -2.53900 45.34700
C  27.34400 -2.49800 44.73100
C  27.12800 -1.06000 45.05300
O  26.29300 -0.63400 45.81700
O  27.86700 -0.22100 44.34700
C  27.84000 1.20300 44.66900
H  20.88000 -4.83300 44.28600
H  22.37600 -9.16700 48.86200
H  28.44400 -7.02000 48.98300
H  24.24400 -1.67400 44.04600
H  22.63300 -3.66000 42.62900
H  21.03400 -2.21200 43.03600
H  22.07100 -1.19200 44.04700
H  21.22100 -2.53000 44.79100
H  24.40100 -3.09100 41.39400
H  25.92800 -3.19200 42.16400
H  26.12700 -0.70400 42.01500
H  24.27000 -0.65800 42.05500
H  18.87000 -7.34700 44.63100
H  19.18000 -5.71900 44.63700
H  18.42600 -6.39100 46.12500
H  18.96900 -10.16200 49.11200
H  20.38500 -9.14900 49.73200
H  20.67000 -10.48300 48.75300
H  25.04300 -10.25900 48.92100
H  26.42100 -8.23500 50.65000
H  23.49300 -9.08300 51.18400
H  24.95500 -9.65300 51.80600
H  23.97600 -10.78500 50.95400
H  28.27600 -9.32100 49.30100
H  27.15100 -10.65900 48.94700
H  28.92500 -10.42800 51.15200
H  27.84100 -11.70500 50.79300
H  27.27400 -10.46700 51.79600
H  30.82300 -4.60500 47.30600
H  30.13600 -6.21000 47.96100
H  30.05900 -4.65800 48.90500
H  27.53900 -2.52000 43.65900
H  28.63400 1.36900 45.39800
H  26.88100 1.51800 45.08000
H  28.23600 1.75100 43.81400
Mg -10.83500 38.03800 42.55800
C  -8.70200 35.42700 41.83300
C  -8.67400 40.16500 40.98800
C  -13.27400 40.43300 42.65700
C  -13.24100 35.55700 43.53000
N  -9.09100 37.66800 41.31000
C  -8.33900 36.53600 41.05300
C  -7.24300 36.83100 40.02800
C  -7.05900 38.34500 39.99000
C  -8.36900 38.79500 40.84400
C  -5.60400 38.90800 40.37000
C  -7.74800 36.20700 38.63600
C  -6.84700 35.10100 38.15100
H  -5.77500 35.58200 37.19000
N  -10.89200 40.08100 41.97800
C  -9.86000 40.77900 41.44100
C  -10.25400 42.19000 41.42600
C  -11.65400 42.28000 41.91500
C  -12.02000 40.92400 42.26500
C  -9.23800 43.17100 40.86400
C  -12.52300 43.58600 42.03500
O  -12.04200 44.73000 41.87700
C  -13.93500 43.55400 42.48400
N  -12.90600 38.00600 42.90700
C  -13.66200 39.13500 42.87700
C  -15.21000 38.80400 43.12000
C  -15.14500 37.23400 43.28000
C  -13.60900 36.93300 43.32000
C  -15.69100 39.53500 44.38800
C  -15.88600 36.44800 42.11100
C  -16.76700 35.27500 42.45000
N  -11.01200 35.98500 42.72100
C  -11.97900 35.16200 43.32400
C  -11.48100 33.86300 43.54000
C  -10.21200 33.85600 42.95200
C  -9.98300 35.20800 42.51300
C  -12.18100 32.76800 44.28700
C  -8.99200 33.14200 42.72600
O  -8.62300 32.00000 42.95800
C  -8.09100 34.07800 41.77900
C  -6.64200 34.12600 42.18000
O  -5.86900 33.21100 41.98300
O  -6.31800 35.20500 42.97700
C  -4.87200 35.33500 43.28300
H  -8.00700 40.96300 40.65600
H  -14.14600 41.06500 42.83600
H  -14.03800 34.89400 43.87400
H  -6.30100 36.37200 40.32800
H  -7.32900 38.58200 38.96100
H  -5.13400 39.16600 39.42000
H  -4.99000 38.15800 40.86800
H  -5.67000 39.74700 41.06200
H  -7.69900 36.95300 37.84200
H  -8.75100 35.80900 38.78700
H  -7.56500 34.44800 37.65500
H  -6.22500 34.68900 38.94600
H  -8.31900 43.01300 41.43000
H  -9.53100 44.21400 40.98400
H  -8.92900 42.96800 39.83900
H  -13.85200 43.04700 43.44500
H  -14.69600 43.13700 41.82500
H  -14.30600 44.54800 42.73700
H  -15.66800 39.18900 42.20900
H  -15.47500 36.95800 44.28100
H  -15.93900 40.51800 43.98700
H  -14.76900 39.61900 44.96300
H  -16.46300 39.00400 44.94400
H  -15.08800 36.12100 41.44500
H  -16.61000 37.09700 41.61700
H  -17.77800 35.60600 42.69000
H  -16.45600 34.81200 43.38600
H  -16.76000 34.52800 41.65600
H  -12.78300 33.22900 45.07000
H  -11.41900 32.17000 44.78800
H  -12.65500 32.11200 43.55800
H  -8.15300 33.64100 40.78200
H  -4.37200 35.75200 42.40900
H  -4.54500 34.37400 43.68000
H  -4.81100 36.04500 44.10800

