158

Mg 9.97300 48.35400 24.01400
C  7.47000 49.01000 26.32100
C  12.23900 48.88900 26.52100
C  12.30200 47.26300 21.82400
C  7.51700 47.90700 21.46800
N  9.88700 48.79500 26.21500
C  8.77000 49.01600 26.85000
C  9.03300 49.22400 28.32300
C  10.53300 49.68400 28.23700
C  10.95800 49.01900 26.94600
C  10.67000 51.22500 28.10700
C  8.95500 47.91200 29.21300
C  8.33500 48.33500 30.66100
H  8.05600 47.18400 31.67500
N  11.88800 48.15600 24.08000
C  12.65700 48.48700 25.22900
C  14.06900 48.43000 24.87400
C  14.12700 47.95000 23.51800
C  12.73300 47.71100 23.08400
C  15.13100 48.91300 25.86500
C  15.38400 47.84100 22.54100
O  15.26700 47.51500 21.35000
C  16.72300 48.06300 23.13700
N  9.94200 47.81900 21.83000
C  11.04700 47.39000 21.19000
C  10.72200 46.89700 19.76800
C  9.18400 47.22500 19.61300
C  8.83300 47.73900 21.04400
C  11.59400 47.34000 18.61200
C  8.32300 45.96300 19.25700
C  7.77600 45.08700 20.32700
N  7.91800 48.47500 23.87400
C  7.04700 48.29900 22.79300
C  5.65800 48.54100 23.25700
C  5.79100 48.91300 24.59300
C  7.16700 48.78400 24.93000
C  4.42100 48.40600 22.50000
C  5.08900 49.42500 25.76700
O  3.94900 49.81800 25.93100
C  6.08400 49.26100 26.99900
C  5.70000 48.12700 27.80200
O  5.97200 46.96900 27.42100
O  4.96600 48.46000 28.93900
C  4.67300 47.25500 29.63100
H  12.97800 49.03300 27.31200
H  13.13300 46.67200 21.43200
H  6.74100 47.73500 20.72000
H  8.50200 50.08600 28.72500
H  11.16100 49.29100 29.03700
H  11.22300 51.45400 27.19600
H  11.24200 51.61800 28.94700
H  9.72700 51.76000 27.99800
H  9.91200 47.40700 29.34300
H  8.24200 47.28500 28.67800
H  7.33400 48.69100 30.41800
H  8.92100 49.13800 31.10800
H  14.91000 48.76100 26.92100
H  15.35700 49.95600 25.64100
H  16.09800 48.42600 25.74700
H  16.95400 47.20400 23.76700
H  16.68100 49.02500 23.64700
H  17.55500 47.99900 22.43600
H  10.78800 45.80900 19.73700
H  8.95500 48.03900 18.92400
H  11.07800 48.12900 18.06600
H  11.80100 46.45000 18.01700
H  12.49800 47.81900 18.98800
H  8.78600 45.40000 18.44600
H  7.40400 46.34500 18.81100
H  8.48100 45.26700 21.13900
H  7.85400 44.05800 19.97700
H  6.77700 45.39600 20.63400
H  4.60800 47.77300 21.63300
H  4.04300 49.39300 22.23200
H  3.63900 47.91700 23.08100
H  5.97500 50.18100 27.57200
H  3.62900 47.06200 29.38600
H  4.54400 47.56400 30.66800
H  5.33600 46.39500 29.53300
Mg 0.88100 44.02200 23.92600
C  2.73400 43.77400 26.89700
C  -2.00800 43.64000 25.90400
C  -0.89400 43.90200 21.14200
C  3.87200 43.75400 22.07200
N  0.40800 43.83000 26.24900
C  1.37900 43.75300 27.22200
C  0.66600 43.50500 28.58800
C  -0.83800 43.43600 28.23200
C  -0.83500 43.61400 26.74000
C  -1.55900 42.14000 28.80100
C  0.88100 44.52900 29.75700
C  1.38200 44.03300 31.07600
H  1.04500 42.61500 31.63900
N  -1.17200 43.86700 23.57900
C  -2.17300 43.83400 24.49200
C  -3.44800 43.94600 23.79900
C  -3.17700 44.12900 22.43400
C  -1.69100 44.02000 22.32600
C  -4.87700 43.80800 24.42100
C  -4.03100 44.33900 21.29700
O  -3.62900 44.44900 20.15100
C  -5.55200 44.60800 21.46200
N  1.41900 43.88400 21.91100
C  0.50100 43.79900 20.95700
C  1.13000 43.68300 19.62000
C  2.63700 44.01900 19.84700
C  2.65400 43.84800 21.35700
C  0.86300 42.23100 19.13900
C  3.11100 45.51100 19.45000
C  3.97500 45.52700 18.11000
N  2.89800 43.87800 24.33300
C  4.02200 43.83400 23.49300
C  5.22300 43.83800 24.29400
C  4.75300 43.86600 25.59100
C  3.36300 43.85900 25.58700
C  6.67400 43.63000 23.73200
C  5.10700 43.77700 26.98000
O  6.20800 43.76600 27.49700
C  3.82600 43.71500 27.89100
C  3.93300 42.35900 28.56200
O  3.75000 41.24500 28.00800
O  4.20300 42.57600 29.89000
C  4.65300 41.45900 30.61200
H  -2.95300 43.59500 26.45000
H  -1.44200 43.77700 20.20600
H  4.75900 43.70900 21.43700
H  1.13100 42.57200 28.90400
H  -1.39300 44.29500 28.60800
H  -0.96700 41.61700 29.55200
H  -1.64100 41.41500 27.99000
H  -2.52000 42.30700 29.28700
H  0.06700 45.23000 29.94100
H  1.64900 45.16000 29.31000
H  0.92600 44.76300 31.74500
H  2.41300 44.35100 31.22500
H  -5.70500 44.47500 24.18100
H  -4.77400 43.93200 25.49900
H  -5.19300 42.78200 24.23000
H  -6.04900 43.65600 21.64900
H  -5.91300 44.95100 20.49200
H  -5.69300 45.36600 22.23200
H  0.73200 44.36800 18.87100
H  3.34100 43.29800 19.43200
H  0.15600 41.58700 19.66100
H  1.73800 41.63900 18.87100
H  0.37600 42.28200 18.16500
H  3.74300 45.99200 20.19600
H  2.27300 46.20400 19.37800
H  3.57600 46.22200 17.37200
H  3.91900 44.57200 17.58800
H  5.00200 45.84800 18.28300
H  7.32100 43.78500 24.59500
H  6.83100 44.40900 22.98600
H  6.72700 42.64500 23.26700
H  3.76600 44.47000 28.67400
H  5.70600 41.22100 30.45800
H  4.03200 40.61900 30.29900
H  4.67000 41.57300 31.69500

