158

Mg 43.89700 5.43800 47.25800
C  41.87300 8.26000 46.69500
C  41.20300 3.42400 46.47800
C  46.05300 2.79200 47.12500
C  46.66000 7.50000 46.86500
N  41.71900 5.80400 46.57100
C  41.12700 7.03300 46.68300
C  39.68700 6.87700 46.47800
C  39.41400 5.34800 46.47700
C  40.86000 4.77400 46.55500
C  38.48300 4.75400 47.60100
C  39.04700 7.63900 45.31200
C  39.82800 7.70500 44.00700
H  39.24800 7.00500 42.74000
N  43.59000 3.36900 47.08100
C  42.46000 2.71900 46.71900
C  42.68800 1.33600 46.52100
C  44.01900 1.12400 46.92700
C  44.64700 2.45200 47.06100
C  41.68600 0.34900 46.11700
C  44.69200 -0.26300 47.09100
O  44.07400 -1.26200 46.96600
C  46.21300 -0.44600 47.41900
N  46.03400 5.21700 47.06500
C  46.66500 4.00800 47.14900
C  48.19400 4.11300 47.44000
C  48.37400 5.61900 47.04500
C  46.92200 6.16300 46.96300
C  48.61700 3.58000 48.86200
C  49.21300 5.89200 45.77900
C  48.98500 4.96100 44.54400
N  44.25500 7.42600 47.04300
C  45.40800 8.12700 46.81300
C  45.15400 9.57200 46.72200
C  43.74000 9.63700 46.78600
C  43.29000 8.32400 46.87900
C  46.16100 10.74100 46.66900
C  42.64200 10.58600 46.78500
O  42.63700 11.78700 46.62400
C  41.39900 9.65400 46.75600
C  40.62000 9.91900 47.92000
O  40.41200 9.25500 48.88400
O  40.07700 11.15500 47.70300
C  38.94600 11.41000 48.66100
H  40.36800 2.80800 46.13700
H  46.71300 1.92500 47.20400
H  47.56900 8.10500 46.83500
H  39.22100 7.27600 47.38000
H  38.96300 5.01300 45.54300
H  37.85200 3.95700 47.20800
H  37.96400 5.62700 47.99800
H  39.06100 4.34400 48.43000
H  38.91200 8.69600 45.53900
H  38.03800 7.23500 45.23300
H  40.86500 7.41400 44.17400
H  39.92000 8.77000 43.79300
H  42.10300 -0.27100 45.32400
H  40.72300 0.76100 45.81500
H  41.51900 -0.36800 46.92100
H  46.87600 -0.02900 46.66100
H  46.49400 -1.49900 47.40500
H  46.37800 0.00800 48.39600
H  48.77000 3.46100 46.78400
H  48.80100 6.16500 47.88600
H  47.84000 3.03100 49.39400
H  48.88200 4.49300 49.39500
H  49.54200 3.01600 48.75000
H  50.24200 5.83500 46.13300
H  49.04500 6.90800 45.42200
H  48.66900 5.51500 43.66000
H  48.20400 4.22300 44.72900
H  49.92900 4.44100 44.38300
H  46.63400 11.10100 47.58200
H  45.55300 11.56600 46.29900
H  46.90900 10.44700 45.93300
H  40.80600 9.91500 45.87900
H  38.29000 10.54000 48.66700
H  38.32700 12.18500 48.20900
H  39.16600 11.82700 49.64400
Mg 1.17900 42.34800 24.82300
C  1.80300 42.45700 28.27500
C  -1.79200 40.69500 25.66000
C  0.79900 41.70400 21.60500
C  4.37900 43.66900 24.27900
N  0.15400 41.67300 26.73500
C  0.53300 41.93100 28.03000
C  -0.63900 41.59900 29.02400
C  -1.58100 40.70900 28.10400
C  -1.03900 41.11900 26.75500
C  -1.54800 39.22800 28.39300
C  -1.39100 42.87300 29.58700
C  -1.22500 43.21200 31.07100
H  -1.49200 42.09600 32.06600
N  -0.40600 41.57700 23.80400
C  -1.53500 40.92800 24.31300
C  -2.35000 40.47600 23.16700
C  -1.75200 41.01200 21.96900
C  -0.36400 41.45500 22.39800
C  -3.62700 39.78400 23.45700
C  -2.15400 40.86100 20.56500
O  -1.35000 41.02100 19.67200
C  -3.55300 40.48100 20.18900
N  2.41900 42.48100 23.22600
C  2.05300 42.24100 21.97400
C  3.18500 42.48200 21.02400
C  4.05900 43.54800 21.72000
C  3.56600 43.25800 23.19000
C  3.93500 41.21800 20.62900
C  3.74700 44.98900 21.15100
C  2.81800 45.92700 21.89800
N  2.76700 42.93400 25.97000
C  4.00300 43.44800 25.62000
C  4.74100 43.81900 26.85600
C  3.87300 43.46700 27.85000
C  2.71800 42.86300 27.32000
C  6.02100 44.43900 27.02000
C  3.77300 43.47400 29.29600
O  4.52300 44.03800 30.16200
C  2.52500 42.74800 29.62400
C  2.83100 41.60000 30.53700
O  3.72200 40.74100 30.29800
O  2.01800 41.60200 31.57700
C  2.10900 40.38800 32.47900
H  -2.69300 40.11600 25.87100
H  0.75500 41.56500 20.52300
H  5.29000 44.21900 24.03500
H  -0.17800 41.02100 29.82500
H  -2.59600 41.06400 28.28000
H  -0.74800 39.09900 29.12100
H  -1.18200 38.72200 27.50000
H  -2.55600 38.98300 28.72800
H  -2.47100 42.76100 29.49900
H  -1.00200 43.65800 28.93800
H  -1.87900 44.02000 31.39800
H  -0.23200 43.63000 31.22900
H  -4.25700 39.84300 22.57000
H  -4.25200 40.29600 24.18900
H  -3.40100 38.73800 23.66500
H  -3.90300 39.51100 20.54200
H  -3.50700 40.31400 19.11300
H  -4.13400 41.31800 20.57800
H  2.69200 42.95100 20.17300
H  5.10800 43.26700 21.62300
H  3.87900 41.15700 19.54200
H  3.43100 40.34200 21.03700
H  4.98300 41.31400 20.91200
H  3.39600 44.85800 20.12700
H  4.72800 45.45700 21.23200
H  2.21600 45.48400 22.69100
H  2.11400 46.56600 21.36400
H  3.41400 46.66900 22.42900
H  6.69600 43.76400 27.54600
H  6.03500 45.36200 27.60000
H  6.44500 44.79300 26.08000
H  1.93600 43.48300 30.17300
H  2.92500 39.70700 32.23600
H  1.22400 39.75700 32.55400
H  2.34500 40.70100 33.49600

