158

Mg 48.39600 25.58200 29.49700
C  49.89100 27.27600 32.20500
C  47.39600 23.14900 31.76200
C  47.52500 23.60800 26.94500
C  49.73500 27.81500 27.29800
N  48.63800 25.27300 31.68300
C  49.15800 26.17000 32.59700
C  48.85000 25.80800 33.99000
C  48.32600 24.30900 33.87100
C  48.04000 24.31100 32.35400
C  49.29300 23.12900 34.30500
C  47.86700 26.82000 34.68700
C  48.47300 27.60100 35.89600
H  47.46100 28.07400 36.98600
N  47.49900 23.74300 29.40200
C  47.05800 22.90800 30.39900
C  46.41400 21.81200 29.87400
C  46.35900 21.98500 28.46000
C  47.14400 23.21000 28.22300
C  45.90000 20.70300 30.72800
C  45.68900 21.10000 27.39500
O  45.73300 21.45600 26.24000
C  44.99700 19.76300 27.73500
N  48.41100 25.79700 27.39500
C  48.17700 24.78100 26.59800
C  48.54600 25.05400 25.08800
C  49.01700 26.51000 25.18600
C  48.99900 26.79600 26.70000
C  49.60200 24.09100 24.44600
C  48.22500 27.54600 24.30100
C  46.74300 27.56500 24.67000
N  49.51000 27.34400 29.65400
C  49.94400 28.11000 28.68300
C  50.70800 29.25000 29.26600
C  50.71500 28.95600 30.66100
C  49.97600 27.79000 30.82800
C  51.38000 30.36600 28.47900
C  51.19100 29.37900 31.97800
O  51.79300 30.38100 32.24300
C  50.60200 28.33100 33.02600
C  51.72900 27.85000 33.97200
O  52.73200 27.24200 33.55300
O  51.55300 28.40100 35.21200
C  52.62900 28.03200 36.19700
H  46.97900 22.37200 32.40600
H  47.51800 22.85400 26.15500
H  50.15100 28.55400 26.61000
H  49.73400 25.75400 34.62600
H  47.43700 24.07100 34.45500
H  49.81900 22.54600 33.54900
H  48.64600 22.36200 34.73000
H  50.02200 23.46400 35.04300
H  47.07400 26.16500 35.04800
H  47.35800 27.50300 34.00600
H  48.80700 28.55300 35.48100
H  49.31700 27.09800 36.36800
H  45.48900 21.01900 31.68700
H  46.61800 19.90300 30.90900
H  45.04600 20.27400 30.20200
H  45.70700 19.04800 28.15100
H  44.67100 19.36500 26.77400
H  44.13300 19.92300 28.37900
H  47.63700 25.02200 24.48800
H  50.03500 26.60100 24.80700
H  50.12200 24.65800 23.67400
H  49.07800 23.27000 23.95600
H  50.29100 23.65600 25.17000
H  48.32700 27.28700 23.24700
H  48.57100 28.56100 24.49400
H  46.52000 28.61000 24.45600
H  46.61800 27.48600 25.75000
H  46.10000 26.98600 24.00700
H  50.69900 31.11600 28.07700
H  52.11200 30.05600 27.73300
H  51.94000 30.76800 29.32300
H  49.90400 28.96700 33.57100
H  53.17900 28.95700 36.37100
H  53.38900 27.29300 35.94200
H  52.25500 27.89500 37.21200
Mg 50.10600 35.52600 29.10200
C  47.45200 34.03300 31.08100
C  50.27800 37.94200 31.53500
C  51.74700 37.43300 27.02600
C  49.30300 33.23100 26.64500
N  48.94600 35.89900 30.95900
C  48.05100 35.13000 31.66400
C  47.87700 35.75000 33.05600
C  48.25600 37.22500 32.85400
C  49.26100 36.99000 31.75000
C  47.04700 38.08900 32.36800
C  48.64900 34.94000 34.10100
C  50.05200 35.37400 34.66800
H  50.12400 35.90100 36.05100
N  51.07500 37.35100 29.36000
C  51.11600 38.12000 30.46700
C  51.98000 39.26200 30.22400
C  52.35000 39.20400 28.84600
C  51.75600 37.97500 28.37000
C  51.97700 40.50700 31.15200
C  53.04200 40.22200 27.91700
O  53.02900 40.08600 26.71900
C  53.74900 41.45500 28.49800
N  50.50400 35.28300 27.08100
C  51.15100 36.30400 26.40100
C  51.34000 35.89300 24.93800
C  50.64900 34.50900 24.78400
C  50.19100 34.28800 26.21700
C  50.93500 36.91500 23.88300
C  51.34800 33.21800 24.15300
C  50.74200 32.73100 22.82900
N  48.75000 33.88100 28.90800
C  48.56000 33.03400 27.81500
C  47.61300 31.97800 28.19400
C  47.10000 32.37100 29.46600
C  47.80000 33.58200 29.79000
C  47.15000 30.87000 27.30100
C  46.12500 32.03500 30.48900
O  45.44000 30.99800 30.65600
C  46.28700 33.18400 31.52400
C  46.40600 32.49200 32.93200
O  46.98800 31.44100 33.23100
O  45.89800 33.31500 33.90500
C  45.78700 32.66500 35.25500
H  50.24800 38.62700 32.38500
H  52.23200 37.93100 26.18400
H  49.06700 32.47000 25.89800
H  46.89100 35.71300 33.52100
H  48.71900 37.74300 33.69300
H  46.21900 37.47300 32.01600
H  47.33200 38.71100 31.52000
H  46.65100 38.75500 33.13500
H  48.81400 33.94400 33.68900
H  48.08100 34.79900 35.02100
H  50.42300 36.22500 34.09600
H  50.74600 34.53400 34.70700
H  51.29000 41.31300 30.89300
H  52.98900 40.90900 31.11300
H  51.74200 40.19700 32.17100
H  54.27700 41.10800 29.38600
H  52.96200 42.16200 28.76300
H  54.38700 42.01300 27.81400
H  52.41600 35.71400 24.92400
H  49.76900 34.53700 24.14200
H  50.22900 37.69800 24.16100
H  50.52600 36.34300 23.05100
H  51.73900 37.52000 23.46400
H  51.23800 32.42500 24.89300
H  52.40400 33.40200 23.95600
H  50.08800 31.88200 23.02800
H  51.53200 32.57800 22.09500
H  50.01400 33.42400 22.40600
H  46.06500 30.78200 27.35600
H  47.67600 29.95000 27.55700
H  47.55500 31.14100 26.32600
H  45.39400 33.80800 31.50600
H  46.73500 32.50900 35.76800
H  45.23500 31.72900 35.33600
H  45.24000 33.20800 36.02600

