158

Mg 39.84800 9.81600 30.24900
C  41.90000 10.67700 33.04200
C  37.58300 8.42200 32.60600
C  38.30200 8.34300 27.82200
C  42.34300 10.90500 28.09900
N  39.73200 9.59600 32.53700
C  40.66500 10.05000 33.41700
C  40.13800 10.02800 34.82100
C  38.80800 9.17900 34.74400
C  38.68200 9.03400 33.23500
C  38.68500 7.79500 35.43600
C  40.00000 11.45800 35.39700
C  39.29100 11.60800 36.73300
H  39.98200 10.99900 37.92100
N  38.05500 8.72700 30.18300
C  37.34000 8.22900 31.19600
C  36.19300 7.51000 30.66000
C  36.37700 7.52800 29.26200
C  37.63400 8.20600 29.01500
C  35.21400 6.74900 31.49100
C  35.54400 6.95700 28.12800
O  35.92800 7.02100 26.92500
C  34.23300 6.36100 28.35300
N  40.33200 9.44700 28.22700
C  39.41800 8.94400 27.42100
C  39.76000 9.25400 25.91300
C  40.96200 10.24200 26.02900
C  41.16700 10.31300 27.59900
C  39.92900 7.92000 24.97600
C  40.63000 11.65500 25.41400
C  39.69500 12.57200 26.05300
N  41.75100 10.63300 30.46300
C  42.63200 11.02500 29.47600
C  43.78400 11.51100 30.16800
C  43.50700 11.38600 31.54200
C  42.28700 10.85200 31.69600
C  45.13200 11.82000 29.48900
C  44.04700 11.69400 32.79400
O  45.13400 12.20000 33.02600
C  43.01100 11.20900 33.84500
C  43.59200 10.12100 34.72700
O  43.78100 8.93800 34.42500
O  43.90400 10.58600 35.91200
C  44.34400 9.77000 37.00800
H  36.84500 8.11800 33.35200
H  38.03600 7.73800 26.95200
H  43.18900 11.20700 27.47800
H  40.90100 9.52000 35.41100
H  37.88100 9.60800 35.12300
H  37.67200 7.44500 35.63600
H  39.30500 7.78000 36.33200
H  39.13400 7.09200 34.73300
H  39.64700 12.13600 34.62000
H  41.01500 11.76000 35.65400
H  38.25100 11.28600 36.68300
H  39.27400 12.68800 36.88300
H  35.41500 5.68000 31.42600
H  34.27200 7.09000 31.06100
H  35.20700 6.99700 32.55300
H  33.61100 6.44000 27.46100
H  33.74900 6.90000 29.16700
H  34.33200 5.32400 28.67500
H  38.86300 9.76300 25.56200
H  41.87400 9.83800 25.58900
H  40.93200 7.85600 24.55500
H  39.24600 7.98600 24.12900
H  39.71300 7.00000 25.51900
H  40.10200 11.36700 24.50500
H  41.54200 12.20700 25.18900
H  38.75500 12.53800 25.50200
H  40.00400 13.61600 26.08600
H  39.42100 12.18000 27.03200
H  45.23000 12.83300 29.09700
H  45.41200 11.10300 28.71700
H  45.90500 11.80400 30.25800
H  42.76700 12.13500 34.36600
H  43.92800 10.13200 37.94800
H  45.42600 9.87000 37.08300
H  44.12200 8.70300 36.98700
Mg 29.76800 57.70100 40.71300
C  27.16100 55.46600 39.83800
C  31.98900 55.29100 39.48100
C  32.26200 60.02300 40.77800
C  27.48000 60.12500 41.43600
N  29.55300 55.63400 39.69000
C  28.44400 54.90100 39.59000
C  28.70600 53.46200 38.99600
C  30.29000 53.41200 39.06900
C  30.69700 54.87100 39.43800
C  30.89500 52.40400 40.06500
C  28.05400 53.06400 37.73000
C  27.66700 54.17100 36.67200
H  28.38300 54.11800 35.25000
N  31.85300 57.62800 40.22300
C  32.57400 56.53900 39.77500
C  33.90100 56.84400 39.59300
C  33.99000 58.26300 39.91900
C  32.66800 58.72900 40.36800
C  34.92200 55.86800 39.19400
C  35.30500 59.09600 39.85700
O  36.34000 58.69700 39.38100
C  35.32500 60.42200 40.44200
N  29.86700 59.80000 41.16300
C  30.97500 60.45500 41.14000
C  30.81400 61.95600 41.51000
C  29.31300 61.97000 42.06500
C  28.82400 60.59400 41.51300
C  31.73100 62.47500 42.61500
C  28.40600 63.22100 41.69600
C  28.20900 64.16400 42.83700
N  27.76200 57.84000 40.74900
C  26.95600 58.88900 41.11100
C  25.59500 58.50700 41.07800
C  25.63300 57.21300 40.64300
C  26.96500 56.82400 40.37600
C  24.35700 59.32800 41.32200
C  24.84000 55.99400 40.27500
O  23.65900 55.83000 40.24700
C  25.82500 54.84300 39.72400
C  25.78400 53.65900 40.57300
O  25.78300 53.68700 41.80600
O  25.70000 52.57900 39.77100
C  25.91600 51.27000 40.43500
H  32.66900 54.47100 39.24200
H  33.06300 60.76400 40.73100
H  26.75400 60.88100 41.74200
H  28.51900 52.70100 39.75500
H  30.79000 53.13400 38.14100
H  30.21200 51.58500 40.29100
H  30.93900 52.76200 41.09400
H  31.79000 51.90400 39.69700
H  27.10500 52.56600 37.93100
H  28.75000 52.41600 37.19800
H  27.82000 55.15100 37.12400
H  26.61600 53.95600 36.47800
H  35.89800 56.31300 39.00000
H  34.59500 55.26900 38.34500
H  35.17600 55.17500 39.99600
H  34.83400 61.15700 39.80400
H  36.37300 60.71400 40.37400
H  35.13500 60.62000 41.49700
H  30.94300 62.48300 40.56500
H  29.28400 61.90100 43.15300
H  32.63400 62.94300 42.22400
H  32.08900 61.61500 43.18100
H  31.18800 63.11400 43.31200
H  27.51900 62.99000 41.10700
H  29.11400 63.83200 41.13600
H  28.69900 65.12900 42.70300
H  28.52100 63.77500 43.80700
H  27.14700 64.36500 42.98100
H  24.43700 59.57500 42.38100
H  23.43800 58.75900 41.18200
H  24.23400 60.21900 40.70600
H  25.45300 54.62900 38.72200
H  26.02700 50.47300 39.70000
H  25.05400 50.92500 41.00700
H  26.76100 51.39000 41.11400

