158

Mg 16.80300 -1.64200 28.33800
C  15.58900 0.40500 30.97600
C  19.11600 -2.94200 30.59700
C  18.34600 -3.25700 25.81000
C  14.92600 0.17900 26.13000
N  17.39500 -1.22000 30.48200
C  16.61800 -0.48600 31.31900
C  17.11100 -0.72300 32.77900
C  18.23100 -1.75300 32.66000
C  18.31100 -1.97000 31.16300
C  19.52700 -1.40100 33.44400
C  15.94100 -1.24000 33.76800
C  16.00000 -0.62900 35.19300
H  17.17300 0.16800 35.75600
N  18.42500 -2.86500 28.22700
C  19.19200 -3.37100 29.27900
C  19.98600 -4.52300 28.77800
C  19.91400 -4.49900 27.35000
C  18.86200 -3.53600 27.06700
C  20.75700 -5.40700 29.69200
C  20.66700 -5.39000 26.44100
O  20.56700 -5.34400 25.25000
C  21.64600 -6.40400 26.93600
N  16.93500 -1.28500 26.24600
C  17.64700 -2.09900 25.39800
C  17.27900 -1.71600 23.91500
C  16.08200 -0.73500 24.07900
C  15.91900 -0.62300 25.57800
C  18.58200 -1.02600 23.39600
C  14.74900 -1.22800 23.36400
C  13.92400 -0.17300 22.61600
N  15.45400 -0.01000 28.51800
C  14.74700 0.63000 27.51400
C  13.87100 1.54100 28.14700
C  14.13000 1.54000 29.52400
C  15.12600 0.54200 29.66200
C  12.91400 2.39800 27.45200
C  13.87300 2.16700 30.76700
O  13.15000 3.05200 31.08400
C  14.70700 1.36200 31.83000
C  15.54800 2.29700 32.70300
O  16.60600 2.74700 32.41900
O  14.85100 2.68300 33.80900
C  15.42500 3.61200 34.83400
H  19.71800 -3.47800 31.33400
H  18.77400 -3.77800 24.95100
H  14.24600 0.58800 25.37900
H  17.47400 0.22900 33.16400
H  18.02900 -2.77400 32.98700
H  19.83500 -2.00500 34.29800
H  19.25000 -0.44800 33.89500
H  20.39300 -1.33600 32.78500
H  15.99900 -2.32200 33.88400
H  15.00800 -1.05900 33.23300
H  15.66900 -1.36300 35.92800
H  15.23500 0.14700 35.21800
H  20.29400 -6.36700 29.91700
H  20.78800 -5.00500 30.70500
H  21.80800 -5.56900 29.45000
H  21.19500 -7.17600 27.55800
H  22.48300 -5.87900 27.39600
H  22.21600 -6.92400 26.16500
H  16.98400 -2.58100 23.32100
H  16.29600 0.25700 23.67900
H  18.33600 -0.05500 22.96600
H  19.08500 -1.61000 22.62500
H  19.26200 -0.86900 24.23300
H  14.16600 -1.79800 24.08700
H  15.00600 -2.03200 22.67500
H  14.37400 0.80300 22.80000
H  12.98900 -0.09100 23.17100
H  13.70200 -0.38100 21.56900
H  12.70400 1.89700 26.50800
H  13.51000 3.28400 27.23200
H  12.07100 2.46300 28.14000
H  13.98700 0.84300 32.46200
H  15.43500 3.02200 35.75100
H  14.77100 4.48400 34.82500
H  16.42300 3.92300 34.52600
Mg 44.57600 5.53200 48.44400
C  42.80100 8.51800 47.85900
C  41.69000 3.77000 47.45400
C  46.32900 2.62500 48.44600
C  47.43900 7.34600 48.46700
N  42.49500 6.10600 47.79800
C  42.00200 7.39500 47.55700
C  40.58800 7.38300 47.01100
C  40.17800 5.83400 47.14800
C  41.51200 5.17800 47.52200
C  39.06400 5.47100 48.17100
C  40.50800 8.07800 45.61500
C  39.03200 8.40200 45.21700
H  38.48400 7.86300 43.94900
N  44.04800 3.43500 48.09300
C  42.87700 2.94500 47.67000
C  42.96400 1.44500 47.71200
C  44.30900 1.15000 48.11700
C  44.98500 2.42600 48.34300
C  41.84600 0.53400 47.23600
C  44.80500 -0.24100 48.28900
O  44.17600 -1.25000 47.91100
C  46.19800 -0.51700 48.76800
N  46.53000 5.05300 48.69600
C  46.99500 3.79900 48.59500
C  48.54800 3.78900 48.39800
C  48.93000 5.30300 48.65000
C  47.57400 5.95200 48.58100
C  49.31900 2.76300 49.31600
C  49.88200 5.82300 47.50100
C  51.34300 6.07500 47.90400
N  45.09900 7.59700 48.43200
C  46.31400 8.19900 48.43000
C  46.16000 9.62800 48.34500
C  44.73700 9.83100 48.16100
C  44.19100 8.55300 48.12300
C  47.15800 10.66900 48.43400
C  43.64400 10.78100 48.03900
O  43.67300 12.01800 48.18000
C  42.38700 9.95100 47.91600
C  41.30400 10.24700 48.88500
O  41.17300 9.73400 50.02500
O  40.40000 11.11200 48.27900
C  39.20500 11.39300 48.97100
H  40.80700 3.15600 47.26900
H  46.93200 1.73000 48.28000
H  48.33000 7.97600 48.51500
H  39.94600 7.95100 47.68300
H  39.88100 5.35000 46.21800
H  38.25600 4.92000 47.69000
H  38.61400 6.40600 48.50800
H  39.30100 5.01300 49.13100
H  41.20100 7.58700 44.93100
H  40.95200 9.06900 45.52300
H  38.88100 9.48200 45.21600
H  38.42700 7.92900 45.99100
H  40.89800 1.07000 47.27300
H  41.69100 -0.35000 47.85500
H  42.07100 0.19200 46.22600
H  46.44700 -1.53500 49.06800
H  46.40000 0.10200 49.64200
H  46.81000 -0.35000 47.88200
H  48.56800 3.38300 47.38700
H  49.38200 5.45500 49.63100
H  48.66300 1.95600 49.64200
H  49.71400 3.26400 50.20000
H  50.15300 2.29300 48.79600
H  49.48700 6.68800 46.96700
H  49.86000 5.08800 46.69700
H  51.93100 5.18800 47.67000
H  51.54100 6.17000 48.97200
H  51.72300 6.95000 47.37700
H  47.86500 10.61700 47.60700
H  47.60000 10.72800 49.42900
H  46.69700 11.64200 48.26700
H  42.10800 10.29300 46.91900
H  38.48700 11.91900 48.34100
H  39.47300 12.12900 49.73000
H  38.79300 10.49200 49.42700

