158

Mg 24.36100 -4.24700 45.81300
C  26.69700 -2.14400 44.12100
C  22.00000 -3.42800 43.44400
C  22.51200 -7.16200 46.66600
C  27.05500 -5.68300 47.44900
N  24.38000 -2.95900 43.99000
C  25.39900 -2.12700 43.51900
C  24.89900 -1.16400 42.40500
C  23.26200 -1.39600 42.51600
C  23.17900 -2.70000 43.36700
C  22.47600 -0.12700 42.99300
C  25.60100 -1.44000 41.10600
C  25.67200 -0.37600 39.95300
H  25.14600 -0.79000 38.54900
N  22.42300 -5.04300 45.25900
C  21.60700 -4.49700 44.30200
C  20.35500 -5.25200 44.28800
C  20.55700 -6.40000 45.15500
C  21.89500 -6.19500 45.81700
C  19.15500 -4.84100 43.30800
C  19.60400 -7.60900 45.32800
O  18.65800 -7.66000 44.59600
C  19.79200 -8.84500 46.19000
N  24.76300 -6.09200 46.82600
C  23.78700 -6.96500 47.24000
C  24.30400 -8.08100 48.22100
C  25.69800 -7.48200 48.57600
C  25.88900 -6.39400 47.48900
C  23.51900 -8.56900 49.36700
C  26.85100 -8.55200 48.67000
C  27.98600 -8.37100 49.69600
N  26.46400 -4.00100 45.91400
C  27.42900 -4.60100 46.57500
C  28.72000 -3.93600 46.40000
C  28.49100 -2.87300 45.44200
C  27.11000 -3.03600 45.14500
C  30.00300 -4.22800 47.25500
C  29.08000 -1.82500 44.67000
O  30.20100 -1.31400 44.54500
C  27.93400 -1.35300 43.69000
C  27.65500 0.07200 43.77800
O  27.03700 0.54800 44.72000
O  28.10700 0.89100 42.69600
C  27.86500 2.31300 42.53300
H  21.14400 -3.20700 42.80300
H  21.92000 -8.01400 47.01000
H  27.80700 -6.02700 48.16200
H  25.14200 -0.15000 42.72200
H  22.73500 -1.69800 41.61100
H  23.20000 0.68600 43.05600
H  21.95800 -0.32900 43.93000
H  21.80100 0.31900 42.26200
H  25.10700 -2.27100 40.60300
H  26.59600 -1.83700 41.30600
H  26.73000 -0.13500 39.85400
H  25.08700 0.39000 40.46200
H  19.37600 -5.53700 42.50000
H  19.24200 -3.80000 42.99600
H  18.27000 -5.10100 43.88900
H  20.57100 -9.49000 45.78400
H  18.82600 -9.35100 46.19100
H  19.96200 -8.53300 47.22100
H  24.44500 -8.91800 47.53600
H  25.65300 -7.02700 49.56500
H  22.53800 -8.09400 49.38400
H  23.92400 -8.52500 50.37800
H  23.15900 -9.59800 49.36600
H  27.31800 -8.42000 47.69400
H  26.48400 -9.57500 48.75100
H  28.37200 -9.32400 50.05800
H  27.64700 -7.89300 50.61500
H  28.80300 -7.75300 49.32200
H  30.11600 -3.56600 48.11400
H  30.89100 -4.05700 46.64600
H  29.97600 -5.29100 47.49600
H  28.29700 -1.64300 42.70400
H  27.15200 2.81500 43.18700
H  27.52600 2.43000 41.50400
H  28.85000 2.77400 42.60200
Mg 6.74800 53.04900 41.77100
C  5.48100 49.66800 41.45300
C  9.64600 51.94100 40.28600
C  7.62300 56.26500 41.42000
C  3.40000 54.06800 42.31600
N  7.45200 51.09300 40.83200
C  6.79800 49.88100 40.91100
C  7.71700 48.75300 40.33500
C  9.14800 49.41400 40.32600
C  8.78800 50.91900 40.43000
C  9.98000 49.04300 41.58200
C  7.41400 48.22300 38.92700
C  6.90800 49.25300 37.84900
H  5.59300 49.18400 37.17400
N  8.41800 54.02200 40.92400
C  9.55800 53.36700 40.50300
C  10.54700 54.37700 40.22400
C  10.04700 55.61000 40.63400
C  8.60100 55.37200 41.01500
C  11.91300 53.94900 39.77200
C  10.71600 56.92200 40.61700
O  11.73500 57.02000 40.04500
C  10.19700 58.19300 41.10300
N  5.66300 54.85400 41.86400
C  6.29700 56.04400 41.72400
C  5.35800 57.20700 42.12800
C  3.98300 56.49400 42.24100
C  4.36800 55.02300 42.10500
C  5.77700 57.99600 43.27400
C  2.93300 56.88700 41.14500
C  1.50600 57.07200 41.48800
N  4.81500 52.13200 42.03900
C  3.53000 52.66900 42.24100
C  2.52700 51.64900 42.36900
C  3.28700 50.43900 42.09800
C  4.62500 50.77800 41.83000
C  1.10000 51.94500 42.66500
C  3.16700 48.97900 41.91800
O  2.18200 48.25700 41.83900
C  4.64800 48.40400 41.76100
C  4.59700 47.30100 40.72400
O  4.31500 47.36100 39.56900
O  5.16000 46.19700 41.30200
C  5.43200 45.11900 40.39000
H  10.62800 51.56600 39.99000
H  7.77800 57.34200 41.32500
H  2.36400 54.27100 42.59300
H  7.78400 47.88700 40.99300
H  9.69500 49.14400 39.42300
H  10.97800 48.64500 41.39700
H  9.54900 48.19800 42.11900
H  9.87100 49.85100 42.30400
H  6.71400 47.38800 38.94000
H  8.34700 47.82700 38.52500
H  7.60900 49.18400 37.01800
H  6.81900 50.26000 38.25600
H  12.34400 54.77900 39.21200
H  11.95100 53.03600 39.17800
H  12.49400 53.68100 40.65500
H  10.97100 58.93700 41.29000
H  9.60400 58.05400 42.00600
H  9.55100 58.66200 40.36100
H  5.39900 57.90400 41.29100
H  3.52800 56.38000 43.22500
H  5.92100 59.04200 43.00200
H  6.73400 57.78000 43.75000
H  4.92400 58.00600 43.95300
H  3.03100 56.00500 40.51300
H  3.30600 57.71800 40.54800
H  0.91600 56.53200 40.74800
H  1.20700 58.10800 41.32800
H  1.25000 56.70700 42.48200
H  0.57500 52.37900 41.81300
H  1.08500 52.55000 43.57200
H  0.61600 51.00700 42.93800
H  4.92300 47.88000 42.67700
H  5.64100 45.51300 39.39600
H  4.59800 44.44000 40.21300
H  6.28300 44.51900 40.71100

