158

Mg 25.61600 2.02300 30.31000
C  27.74200 1.84200 33.03900
C  23.09600 2.49300 32.62100
C  23.32000 1.77900 27.78400
C  28.13300 1.28600 28.15200
N  25.41300 2.02500 32.69800
C  26.47300 2.13500 33.52200
C  26.00900 2.47000 35.02300
C  24.48600 2.69800 34.80700
C  24.27500 2.40100 33.29400
C  23.56800 1.78000 35.66000
C  26.80300 3.72900 35.57800
C  27.59600 3.60900 36.85400
H  27.32300 4.59700 37.94700
N  23.51800 2.00800 30.31700
C  22.64800 2.30300 31.31200
C  21.25900 2.27000 30.78900
C  21.31200 1.95300 29.45200
C  22.78900 1.84400 29.13400
C  19.98800 2.49000 31.62500
C  20.14900 1.61600 28.48400
O  20.38300 1.35100 27.31200
C  18.70200 1.71300 28.97200
N  25.66900 1.56100 28.22300
C  24.68000 1.73300 27.34900
C  25.19100 1.95800 25.88800
C  26.67200 1.53300 26.03900
C  26.87800 1.51700 27.54600
C  24.33100 1.21000 24.86100
C  27.67000 2.41900 25.33700
C  27.80400 3.87900 25.75100
N  27.53100 1.60500 30.48100
C  28.47900 1.33900 29.57300
C  29.74400 1.13200 30.21700
C  29.48500 1.22900 31.56000
C  28.14600 1.61600 31.70200
C  31.07900 0.66300 29.59800
C  30.09400 1.10800 32.87700
O  31.27000 0.85400 33.13200
C  28.97100 1.51500 33.95000
C  28.70500 0.44100 35.01400
O  27.83700 -0.40400 34.84100
O  29.50500 0.52300 36.10000
C  29.25800 -0.37600 37.19900
H  22.29000 2.79500 33.29200
H  22.55900 2.03000 27.04200
H  29.00100 1.20700 27.49500
H  26.26900 1.54500 35.53700
H  24.17800 3.74300 34.83600
H  23.40100 0.87000 35.08400
H  22.61200 2.30200 35.72100
H  23.89600 1.63600 36.68900
H  26.01800 4.45700 35.78300
H  27.48300 4.04900 34.78800
H  28.66200 3.65200 36.63100
H  27.39200 2.62500 37.27800
H  19.39100 3.31800 31.24300
H  20.11300 2.55700 32.70500
H  19.49700 1.54100 31.41000
H  18.03700 1.61300 28.11500
H  18.65700 2.65200 29.52500
H  18.37700 0.86600 29.57700
H  25.07400 3.02600 25.70600
H  26.69700 0.50200 25.68500
H  24.95200 0.51400 24.29800
H  23.85300 1.90100 24.16600
H  23.57500 0.58400 25.33500
H  27.55700 2.29500 24.26000
H  28.64500 1.95100 25.47600
H  28.80100 4.20400 26.04900
H  27.17400 4.13000 26.60500
H  27.47100 4.57700 24.98300
H  31.37200 1.32500 28.78200
H  31.00200 -0.35200 29.21000
H  31.82100 0.67100 30.39600
H  29.26100 2.45200 34.42500
H  28.77800 -1.26500 36.78800
H  28.66100 0.09200 37.98200
H  30.26300 -0.53500 37.58800
Mg 44.17300 4.85600 48.25800
C  42.38300 7.88100 48.14400
C  41.19600 3.15000 48.07400
C  45.94500 2.06300 47.93200
C  47.13300 6.73900 47.69400
N  42.09300 5.45200 47.86700
C  41.55500 6.72400 47.91600
C  40.04500 6.77800 47.72900
C  39.71400 5.29900 48.02400
C  41.10300 4.54100 47.96900
C  38.94700 5.11800 49.27100
C  39.60200 7.44900 46.44300
C  40.46000 7.35000 45.12300
H  39.74400 6.73600 43.90900
N  43.64600 2.86700 47.95200
C  42.40800 2.40600 47.99000
C  42.46000 0.95200 47.92800
C  43.80300 0.60800 47.89000
C  44.55000 1.88000 47.93900
C  41.27200 0.09600 47.61100
C  44.31900 -0.82900 47.69500
O  43.50600 -1.76800 47.57700
C  45.67000 -1.14700 47.46300
N  46.25300 4.47500 47.62700
C  46.72300 3.22500 47.85900
C  48.29200 3.19600 47.82000
C  48.62400 4.75500 47.72200
C  47.27800 5.33400 47.61100
C  48.96700 2.38200 48.93100
C  49.70700 5.24300 46.75000
C  50.87800 5.91100 47.47900
N  44.69300 6.90500 48.15700
C  45.94100 7.46600 47.93200
C  45.84600 8.88800 47.89000
C  44.41200 9.15100 48.01600
C  43.80600 7.90300 48.10000
C  46.98400 10.00300 47.65100
C  43.34400 10.16900 48.06200
O  43.38900 11.42100 48.12900
C  41.98900 9.35000 48.12900
C  41.25700 9.74800 49.39200
O  41.07700 9.05200 50.39400
O  40.58100 10.93600 49.14900
C  39.72800 11.45000 50.21400
H  40.25600 2.65800 48.33100
H  46.58000 1.17500 47.94400
H  48.04800 7.33400 47.72900
H  39.67400 7.35800 48.57400
H  39.08700 4.89200 47.23100
H  38.40800 6.04600 49.46200
H  39.56500 4.76700 50.09700
H  38.16900 4.38300 49.06500
H  39.33900 8.50300 46.53200
H  38.61900 6.98400 46.36100
H  41.36700 6.74600 45.11300
H  40.84400 8.33600 44.86400
H  41.27700 -0.36100 46.62200
H  40.33300 0.62200 47.78200
H  41.32100 -0.70200 48.35200
H  46.32800 -1.21700 48.32900
H  46.11000 -0.37300 46.83500
H  45.62600 -2.09300 46.92300
H  48.47100 2.72100 46.85500
H  48.98200 4.84900 48.74700
H  49.48500 1.52200 48.50700
H  48.28800 2.21000 49.76600
H  49.88100 2.82600 49.32600
H  49.39700 6.01800 46.04800
H  50.00100 4.28400 46.32600
H  50.44900 6.41800 48.34400
H  51.29200 6.60300 46.74700
H  51.63400 5.15200 47.68000
H  47.96800 9.63800 47.94400
H  46.70400 10.76700 48.37700
H  47.02500 10.42700 46.64800
H  41.33400 9.54400 47.28000
H  38.93000 11.92900 49.64800
H  40.27300 12.28300 50.65700
H  39.26300 10.69300 50.84600

