158

Mg -2.44200 16.94100 25.73900
C  -2.68000 14.82200 28.63500
C  -3.30300 19.55500 27.80100
C  -2.51100 18.89300 22.98500
C  -1.85700 14.06400 23.72800
N  -3.20900 17.08600 27.94800
C  -3.07900 16.17400 28.94600
C  -3.33100 16.82400 30.37300
C  -3.60700 18.34100 30.00500
C  -3.34800 18.37500 28.48600
C  -5.11400 18.76100 30.23100
C  -2.39600 16.49300 31.49200
C  -2.51600 17.26900 32.77100
H  -2.19400 16.43500 34.02600
N  -2.83400 18.95900 25.48700
C  -3.07100 19.86300 26.43900
C  -3.17400 21.10500 25.87500
C  -3.00000 21.05400 24.43600
C  -2.79600 19.57900 24.26900
C  -3.45300 22.42700 26.73900
C  -2.98000 22.15300 23.34000
O  -2.83400 21.96200 22.11500
C  -3.20100 23.65500 23.68600
N  -2.29700 16.53600 23.61900
C  -2.34300 17.56100 22.68500
C  -2.05300 17.02600 21.26700
C  -1.79400 15.45800 21.50800
C  -1.91600 15.36800 23.06100
C  -3.14400 17.33300 20.19900
C  -0.46700 14.91800 21.03600
C  0.76900 15.24900 21.93700
N  -2.35800 14.93700 26.06600
C  -2.08900 13.86600 25.11300
C  -2.00500 12.65600 25.80700
C  -2.09200 13.05000 27.20900
C  -2.40000 14.38600 27.34500
C  -1.69200 11.33400 25.34200
C  -1.97600 12.45700 28.53500
O  -1.65400 11.34900 28.89900
C  -2.39600 13.62300 29.52300
C  -1.33500 13.72500 30.49600
O  -0.28000 14.29300 30.23400
O  -1.60800 13.01300 31.59500
C  -0.63600 13.10300 32.73500
H  -3.38000 20.47400 28.38600
H  -2.38500 19.57900 22.14500
H  -1.61400 13.15500 23.17500
H  -4.29100 16.38600 30.64400
H  -2.85800 18.96200 30.49600
H  -5.74100 19.10300 29.40700
H  -5.06500 19.53800 30.99400
H  -5.70800 17.97300 30.69500
H  -1.41900 16.61200 31.02400
H  -2.59000 15.44400 31.71500
H  -3.48300 17.71500 33.00600
H  -1.79700 18.08800 32.74300
H  -4.15400 23.03900 26.17200
H  -2.52500 22.97600 26.89800
H  -3.84200 22.25600 27.74300
H  -2.81200 24.36400 22.95500
H  -2.73700 23.91800 24.63600
H  -4.26800 23.87600 23.71200
H  -1.10000 17.45200 20.95200
H  -2.65100 14.84400 21.23200
H  -3.92700 18.05400 20.43400
H  -3.66900 16.45000 19.83600
H  -2.63900 17.79200 19.34800
H  -0.32200 15.28200 20.01900
H  -0.49300 13.82900 21.04500
H  1.23600 14.35300 22.34800
H  0.43800 15.82400 22.80200
H  1.55900 15.76900 21.39500
H  -1.22600 10.79900 26.16900
H  -1.07900 11.28900 24.44200
H  -2.63600 10.81100 25.18900
H  -3.33200 13.37400 30.02200
H  0.38500 12.89100 32.42000
H  -0.93200 12.41800 33.52900
H  -0.67900 14.15200 33.03000
Mg 2.45600 -0.16900 42.84300
C  6.03400 0.42800 42.43500
C  1.86100 2.61300 41.07500
C  -0.55000 -1.43700 42.30200
C  3.49800 -3.29300 44.31400
N  3.82600 1.28700 41.80900
C  5.16500 1.43200 41.92800
C  5.60800 2.83700 41.40000
C  4.28500 3.54300 41.02400
C  3.22500 2.40500 41.33400
C  3.98700 4.78600 41.93300
C  6.74800 2.90800 40.31200
C  6.53400 2.03500 39.08200
H  6.49100 2.81200 37.71800
N  0.79700 0.53800 41.87200
C  0.76800 1.74200 41.18800
C  -0.54700 1.88700 40.61600
C  -1.24100 0.66900 40.95200
C  -0.35200 -0.18700 41.72400
C  -1.04700 3.12100 39.90500
C  -2.70700 0.50500 40.60300
O  -3.38500 1.35700 40.02400
C  -3.34000 -0.85600 41.05000
N  1.59400 -2.07800 43.27000
C  0.30800 -2.31500 43.01800
C  -0.18900 -3.60400 43.59800
C  1.10700 -4.15400 44.28300
C  2.13300 -3.10600 43.99000
C  -1.35000 -3.47100 44.61700
C  1.53100 -5.65500 43.82300
C  1.23300 -6.67800 44.86900
N  4.35600 -1.27400 43.20600
C  4.53700 -2.47400 43.84500
C  5.93200 -2.74400 43.92600
C  6.56900 -1.59200 43.41600
C  5.50800 -0.73300 42.97500
C  6.58000 -3.98200 44.45800
C  7.85200 -0.96600 43.14000
O  9.01600 -1.41200 43.28900
C  7.58300 0.42300 42.60200
C  8.06300 1.40000 43.63900
O  7.51600 1.63800 44.74100
O  9.07600 2.19400 43.08000
C  9.26500 3.48900 43.80400
H  1.83100 3.54800 40.51200
H  -1.53300 -1.90900 42.35500
H  3.71200 -4.27900 44.73100
H  6.05000 3.37600 42.23800
H  4.23300 3.77200 39.96000
H  3.13700 4.57400 42.58100
H  3.72300 5.55900 41.21100
H  4.84500 5.11200 42.52100
H  7.69300 2.54300 40.71500
H  7.06200 3.90300 39.99600
H  5.61000 1.45600 39.10400
H  7.40000 1.38500 38.96100
H  -0.20900 3.78000 39.67200
H  -1.84300 3.57900 40.49100
H  -1.27400 2.70600 38.92300
H  -2.77200 -1.55200 40.43100
H  -4.37400 -0.83500 40.70600
H  -3.32600 -1.05700 42.12100
H  -0.53800 -4.27500 42.81400
H  1.02800 -4.01000 45.36000
H  -2.31200 -3.86100 44.28500
H  -1.48000 -2.41300 44.84200
H  -1.14700 -4.11100 45.47500
H  2.58100 -5.70400 43.53800
H  0.97900 -6.00600 42.95100
H  0.15300 -6.68200 45.01200
H  1.86300 -6.28700 45.66800
H  1.72000 -7.59800 44.54700
H  7.60500 -3.76500 44.75700
H  6.69000 -4.77700 43.72000
H  6.02000 -4.47800 45.25100
H  8.00700 0.64800 41.62300
H  9.21000 3.34800 44.88400
H  8.39000 4.08600 43.54800
H  10.12300 4.08400 43.49100

