158

Mg 8.16000 2.54500 27.11400
C  9.74300 1.51600 30.05900
C  6.11500 4.52200 29.15400
C  6.98900 3.86100 24.33000
C  9.97400 0.14700 25.27500
N  7.84800 2.86300 29.40800
C  8.81700 2.46700 30.39600
C  8.45800 3.09100 31.77200
C  7.14800 3.94600 31.46000
C  6.94000 3.73100 29.93300
C  5.90800 3.45100 32.18800
C  9.65500 3.87500 32.40700
C  9.28500 4.45500 33.78100
H  10.26400 4.31300 34.88300
N  6.70600 3.96100 26.71000
C  5.98500 4.66400 27.68800
C  5.15000 5.68400 26.99700
C  5.48000 5.52500 25.57300
C  6.39200 4.40700 25.47900
C  4.32700 6.68500 27.63200
C  5.02100 6.39600 24.40900
O  5.24200 6.16500 23.21300
C  4.38000 7.71100 24.63200
N  8.32700 1.93700 25.07900
C  7.82900 2.75200 24.17500
C  8.18700 2.23300 22.76300
C  9.33300 1.15000 23.01600
C  9.14400 0.98200 24.50700
C  6.96200 1.50600 22.07100
C  10.69500 1.73300 22.62000
C  11.81200 0.73800 22.13100
N  9.52000 1.02400 27.56000
C  10.15600 0.14200 26.70500
C  11.22600 -0.53400 27.43100
C  10.98300 -0.11300 28.78500
C  10.00800 0.93100 28.76500
C  12.37900 -1.37800 26.87000
C  11.58700 -0.07000 30.06600
O  12.52300 -0.74000 30.48200
C  10.84300 0.93700 30.94700
C  10.34500 0.13800 32.10700
O  9.37900 -0.53800 32.17500
O  11.20800 0.35800 33.22400
C  10.84000 -0.01500 34.57300
H  5.70100 5.40300 29.65000
H  6.77900 4.37500 23.39000
H  10.72600 -0.36900 24.67400
H  8.31300 2.29700 32.50400
H  7.27600 5.00400 31.68700
H  5.31900 4.23400 32.66600
H  6.21100 2.83100 33.03200
H  5.14200 3.03800 31.53200
H  10.03900 4.66200 31.75800
H  10.43500 3.14500 32.62200
H  8.25000 4.27200 34.06800
H  9.40400 5.53200 33.66800
H  3.35900 6.58900 27.14000
H  4.76600 7.66400 27.44300
H  4.36500 6.54100 28.71200
H  5.07000 8.34800 25.18500
H  3.38200 7.63600 25.06500
H  4.20400 8.18200 23.66500
H  8.52000 3.01300 22.07700
H  9.18500 0.18300 22.53600
H  6.02800 1.88500 22.48500
H  6.96400 0.42500 22.21100
H  6.99700 1.77500 21.01600
H  11.10500 2.13800 23.54500
H  10.56700 2.60400 21.97800
H  12.15900 0.78300 21.09800
H  11.38200 -0.26300 22.17900
H  12.67000 0.83700 22.79700
H  13.10800 -0.77300 26.33200
H  11.99400 -1.90900 26.00000
H  12.78500 -2.15300 27.52200
H  11.56200 1.71500 31.20500
H  10.71900 0.95600 35.05200
H  11.64900 -0.52900 35.09200
H  9.87700 -0.51100 34.69100
Mg 10.38300 48.00400 26.91300
C  8.63200 47.95900 29.96000
C  12.96100 49.48100 28.42800
C  11.92500 47.83300 23.99000
C  7.38400 46.85400 25.35400
N  10.61600 48.81100 28.80600
C  9.90100 48.40500 29.93100
C  10.70000 48.78100 31.26100
C  11.85700 49.61900 30.68300
C  11.76500 49.37300 29.20700
C  11.86500 51.06200 31.00400
C  11.13800 47.44800 32.10600
C  10.81300 47.34400 33.63900
H  10.67600 46.00400 34.34000
N  12.17800 48.54200 26.27900
C  13.18500 49.03700 27.07300
C  14.41100 49.08400 26.35800
C  14.15400 48.63800 25.05300
C  12.65300 48.37700 25.03400
C  15.75200 49.49700 26.95600
C  15.03100 48.54700 23.82900
O  14.57100 48.22200 22.72800
C  16.45100 48.87200 23.91800
N  9.67200 47.75500 24.89900
C  10.49600 47.66900 23.88400
C  9.89100 46.96100 22.63800
C  8.54700 46.49400 23.10800
C  8.45600 47.14300 24.48900
C  9.89000 47.93700 21.41000
C  8.30000 45.02800 23.19300
C  8.97200 44.11000 22.20800
N  8.41700 47.60800 27.39900
C  7.31200 47.16100 26.65900
C  6.13800 47.07500 27.50800
C  6.62200 47.39900 28.86600
C  8.00700 47.65800 28.72800
C  4.70700 46.78800 27.11000
C  6.28200 47.50000 30.26800
O  5.17800 47.43700 30.79700
C  7.55000 47.77900 31.10300
C  7.77800 46.55500 31.93300
O  8.38800 45.59100 31.57400
O  7.05200 46.55900 33.09800
C  7.15300 45.37000 34.01800
H  13.81100 49.93000 28.94600
H  12.50300 47.49600 23.12700
H  6.49500 46.41600 24.89600
H  9.98000 49.31000 31.88500
H  12.80400 49.17700 30.99300
H  10.92300 51.34900 31.47000
H  12.04700 51.67000 30.11800
H  12.59000 51.23700 31.79900
H  12.22100 47.36000 32.02700
H  10.67700 46.66900 31.49800
H  9.90900 47.93200 33.80000
H  11.64800 47.89900 34.06700
H  15.56300 49.86700 27.96300
H  16.16700 50.28000 26.32100
H  16.31200 48.56400 26.89500
H  16.82300 48.22200 24.71000
H  16.54800 49.90600 24.25000
H  16.91000 48.67100 22.95000
H  10.54600 46.09300 22.56700
H  7.83300 46.95800 22.42700
H  10.40700 48.87300 21.62200
H  8.90700 48.28400 21.09000
H  10.35200 47.52300 20.51400
H  7.21900 44.89000 23.20600
H  8.59100 44.67200 24.18200
H  9.78900 43.56100 22.67600
H  9.37100 44.58400 21.31100
H  8.22200 43.39300 21.87300
H  4.38000 46.94600 26.08200
H  4.11300 47.47900 27.70900
H  4.47300 45.75000 27.34800
H  7.33400 48.62000 31.76200
H  6.93900 44.50000 33.39700
H  6.40400 45.50200 34.79900
H  8.10800 45.31200 34.54200

