158

Mg 47.26900 25.21100 28.60900
C  48.34200 27.23600 31.07800
C  46.39100 22.83900 31.04500
C  46.42500 23.07900 26.14800
C  48.34600 27.49600 26.25000
N  47.30300 25.07400 30.74600
C  47.68800 26.08300 31.63200
C  47.38100 25.82600 33.08600
C  46.85500 24.36100 33.06900
C  46.88200 24.00500 31.56800
C  47.65700 23.28900 33.87600
C  46.36200 26.83200 33.67100
C  46.72000 27.61500 34.97800
H  45.95100 27.46300 36.26800
N  46.58300 23.24100 28.54400
C  46.31300 22.42100 29.66600
C  45.95100 21.11900 29.24800
C  45.82000 21.17000 27.77900
C  46.30900 22.53300 27.45300
C  45.64900 19.96300 30.15300
C  45.31200 20.07400 26.77900
O  45.40100 20.16500 25.54300
C  44.69000 18.79800 27.27300
N  47.39000 25.21300 26.45000
C  47.00900 24.24200 25.68900
C  47.05700 24.68400 24.22700
C  47.88500 25.96700 24.27800
C  47.84000 26.30800 25.72300
C  47.73000 23.65200 23.25900
C  47.29100 27.08200 23.33300
C  48.34000 27.69100 22.41200
N  48.09900 27.03400 28.61000
C  48.54100 27.88000 27.60000
C  49.20800 29.03100 28.17400
C  49.15700 28.90400 29.58100
C  48.51200 27.64800 29.77600
C  49.90400 30.03500 27.29200
C  49.41900 29.47100 30.87700
O  50.05700 30.48700 31.16500
C  48.99200 28.35000 31.90600
C  50.05300 27.98400 32.87600
O  50.76300 26.96500 32.79300
O  50.02800 28.94100 33.89600
C  50.92500 28.61600 34.99800
H  46.15400 22.12200 31.83300
H  46.16500 22.54200 25.23300
H  48.67100 28.23100 25.51100
H  48.34300 25.91900 33.58900
H  45.82900 24.28800 33.43000
H  47.97200 22.42200 33.29500
H  47.21500 22.88800 34.78800
H  48.63600 23.74100 34.03100
H  45.43400 26.28600 33.83900
H  46.04300 27.54900 32.91400
H  46.64700 28.67600 34.73800
H  47.74300 27.28000 35.15100
H  44.57400 19.78100 30.15700
H  46.07000 20.08700 31.15000
H  46.16900 19.13400 29.67200
H  44.18600 18.92900 28.23100
H  45.59400 18.20000 27.39000
H  44.11900 18.20100 26.56100
H  46.03800 24.82500 23.86900
H  48.93700 25.84100 24.02100
H  48.31200 22.92100 23.82100
H  48.34700 24.24600 22.58600
H  47.05400 23.29600 22.48200
H  46.73900 27.82700 23.90700
H  46.62800 26.64400 22.58800
H  48.46500 27.38900 21.37200
H  49.33700 27.36600 22.70900
H  48.26000 28.75900 22.61500
H  49.62900 29.88900 26.24800
H  50.98900 29.92600 27.28100
H  49.65900 31.05300 27.59700
H  48.14400 28.76400 32.45200
H  50.96800 27.55900 35.25700
H  50.75500 29.21600 35.89200
H  51.93200 28.89300 34.68600
Mg -4.89400 25.57400 26.29800
C  -4.23900 27.20600 29.34700
C  -6.56300 23.15800 28.07800
C  -5.88300 24.29200 23.42200
C  -3.01100 27.95000 24.69700
N  -5.22900 25.17500 28.51400
C  -5.00800 26.03300 29.54300
C  -5.62500 25.62200 30.83600
C  -6.19600 24.21200 30.43900
C  -5.91000 24.04900 28.93200
C  -5.63400 22.93500 31.20200
C  -6.72200 26.64800 31.38500
C  -6.83600 26.72900 32.92400
H  -6.09400 25.68700 33.77900
N  -5.97000 23.96500 25.86100
C  -6.59700 23.06200 26.69300
C  -7.45000 22.14500 26.00400
C  -7.39200 22.53600 24.62700
C  -6.45100 23.62500 24.52700
C  -8.26500 21.10600 26.70900
C  -8.14000 21.91200 23.57700
O  -8.06500 22.35400 22.45500
C  -8.89700 20.67300 23.72700
N  -4.22300 25.93900 24.34300
C  -4.89900 25.32500 23.31800
C  -4.32600 25.85300 21.97700
C  -3.66600 27.23800 22.37900
C  -3.71100 27.05100 23.91500
C  -3.40000 24.80000 21.35500
C  -4.25600 28.55800 21.77900
C  -3.62700 29.15700 20.52800
N  -3.81800 27.23200 26.85600
C  -3.08300 28.11800 26.08900
C  -2.49400 29.15600 26.90400
C  -2.93500 28.82300 28.14100
C  -3.78200 27.66300 28.09200
C  -1.63800 30.27800 26.56000
C  -2.88000 29.25900 29.60200
O  -2.34600 30.19200 30.17600
C  -3.79300 28.19800 30.41200
C  -2.83900 27.57900 31.39400
O  -2.25700 26.51400 31.26100
O  -2.75600 28.36400 32.46200
C  -1.92600 27.77500 33.51400
H  -7.04900 22.42300 28.72400
H  -6.13700 23.82500 22.46800
H  -2.50900 28.75300 24.15300
H  -4.83600 25.45600 31.57000
H  -7.26400 24.27700 30.64800
H  -6.42300 22.66700 31.90400
H  -4.79200 23.21700 31.83400
H  -5.25300 22.17100 30.52500
H  -7.73100 26.46400 31.01700
H  -6.50700 27.66100 31.04400
H  -7.87400 26.80200 33.24900
H  -6.47800 27.72100 33.19700
H  -7.79100 20.14700 26.49600
H  -9.27100 21.02400 26.29700
H  -8.48900 21.22100 27.76900
H  -9.11500 20.21300 22.76300
H  -9.87400 20.87300 24.16700
H  -8.24300 20.01200 24.29500
H  -5.10000 26.00100 21.22500
H  -2.60800 27.25000 22.12100
H  -2.38100 25.18300 21.41100
H  -3.55600 24.58100 20.29800
H  -3.28800 23.96500 22.04700
H  -4.09000 29.23200 22.62000
H  -5.33400 28.41700 21.70600
H  -3.17500 30.12700 20.73500
H  -4.27000 29.37400 19.67500
H  -2.85500 28.46300 20.19700
H  -1.63300 30.36000 25.47300
H  -0.67300 30.04000 27.00800
H  -2.08700 31.16400 27.00900
H  -4.64600 28.71600 30.84900
H  -1.77000 28.59000 34.22000
H  -0.92300 27.55500 33.15000
H  -2.46000 26.89300 33.86800

