158

Mg 1.66300 -1.76900 44.87900
C  4.88700 -0.97100 44.12200
C  0.51900 0.83600 42.90500
C  -1.44600 -3.09400 44.92000
C  2.95300 -4.79900 46.48100
N  2.62500 -0.43000 43.48500
C  3.93000 -0.10800 43.56000
C  4.23700 1.22200 42.81200
C  2.85300 1.90400 42.78300
C  1.92800 0.69400 43.06200
C  2.61900 3.03700 43.70200
C  4.80200 0.95200 41.38700
C  5.94600 1.83800 40.85200
H  5.65700 2.72800 39.63500
N  -0.19300 -1.12600 44.15800
C  -0.47800 0.00000 43.41500
C  -1.88300 0.09100 43.23700
C  -2.52600 -0.98000 43.91000
C  -1.39800 -1.79800 44.36100
C  -2.52500 1.33200 42.58000
C  -4.06800 -1.22200 44.14300
O  -4.87000 -0.47200 43.67800
C  -4.66100 -2.26000 45.17900
N  0.87600 -3.69900 45.52500
C  -0.46400 -3.95500 45.47400
C  -0.78700 -5.30600 46.05200
C  0.55000 -5.69600 46.69700
C  1.53600 -4.69700 46.20800
C  -2.05300 -5.32400 46.98900
C  0.92700 -7.14400 46.22700
C  1.48600 -7.95300 47.37000
N  3.60200 -2.72300 45.30300
C  3.95300 -3.88000 45.96600
C  5.41200 -3.99600 46.02900
C  5.88700 -2.80200 45.31900
C  4.71100 -2.15700 44.84000
C  6.14200 -5.16000 46.69200
C  7.03700 -2.03100 44.87400
O  8.26100 -2.20200 44.91200
C  6.39600 -0.74000 44.11200
C  6.78400 0.33200 45.06700
O  6.19200 0.73800 46.05600
O  7.70900 1.03600 44.38900
C  8.17200 2.35900 44.96900
H  0.24400 1.75000 42.37500
H  -2.45600 -3.50100 44.82800
H  3.17800 -5.70300 47.05000
H  4.99200 1.80600 43.33700
H  2.53000 2.12400 41.76600
H  3.49100 3.68000 43.82200
H  2.12800 2.67200 44.60400
H  1.83700 3.68900 43.31300
H  3.95600 0.91000 40.70100
H  5.18300 -0.06900 41.40400
H  6.77700 1.18300 40.58900
H  6.22300 2.44000 41.71800
H  -2.90200 1.24500 41.56100
H  -1.86600 2.19200 42.45800
H  -3.38900 1.63800 43.16900
H  -5.06300 -3.12200 44.64600
H  -5.54800 -1.80700 45.62100
H  -3.99900 -2.49000 46.01400
H  -1.06700 -6.03900 45.29600
H  0.36300 -5.49100 47.75100
H  -2.82900 -5.84300 46.42600
H  -2.42500 -4.35300 47.31400
H  -1.78500 -6.01900 47.78500
H  1.76100 -6.95400 45.55100
H  0.08600 -7.67400 45.78100
H  0.86300 -8.83000 47.54100
H  1.57400 -7.35200 48.27600
H  2.46600 -8.33300 47.07900
H  5.48600 -5.64400 47.41500
H  7.09700 -4.83900 47.10900
H  6.32900 -5.94000 45.95500
H  6.83800 -0.59300 43.12700
H  8.94500 2.81900 44.35400
H  8.73000 2.13500 45.87800
H  7.33600 3.04300 45.11900
Mg 30.45600 57.54200 40.28600
C  27.82200 55.44700 39.04100
C  32.57900 55.16600 39.54600
C  32.89900 59.73600 40.76300
C  28.13200 60.11400 40.63500
N  30.21800 55.58500 39.26000
C  29.13100 54.89400 38.96200
C  29.43100 53.48100 38.46300
C  30.92700 53.29100 38.96300
C  31.29500 54.75400 39.30100
C  31.06700 52.26100 40.18000
C  29.23800 53.18300 36.86400
C  29.63200 54.19900 35.78600
H  28.48300 54.58000 34.79400
N  32.49900 57.48300 40.13500
C  33.13200 56.37500 39.81500
C  34.57700 56.71100 39.81500
C  34.68800 57.99500 40.14400
C  33.29300 58.51200 40.32500
C  35.63400 55.63800 39.34500
C  36.02000 58.74800 40.19100
O  37.08200 58.12200 40.03300
C  36.18900 60.13400 40.27800
N  30.47600 59.62800 40.64100
C  31.64100 60.23300 41.04400
C  31.52800 61.70600 41.41200
C  29.94400 61.77000 41.48500
C  29.40700 60.45500 40.92800
C  32.27800 62.21800 42.63000
C  29.29100 63.03300 40.86900
C  28.04000 63.56900 41.55500
N  28.35400 57.78100 39.93200
C  27.60800 58.89300 40.06300
C  26.21500 58.55100 39.85600
C  26.29800 57.21800 39.37300
C  27.61300 56.79600 39.44100
C  24.96800 59.39200 39.82100
C  25.53900 56.13900 38.78000
O  24.37900 56.16600 38.43900
C  26.52000 54.86300 38.58000
C  25.93300 53.79400 39.36800
O  26.15000 53.62000 40.54700
O  24.99400 53.13900 38.70600
C  24.44600 52.01900 39.45400
H  33.35200 54.39500 39.56700
H  33.69200 60.48000 40.86100
H  27.37500 60.84100 40.93600
H  28.70500 52.85500 38.98100
H  31.54800 53.01900 38.11000
H  30.07700 51.91000 40.47100
H  31.59500 52.75900 40.99400
H  31.71300 51.45300 39.83400
H  28.18200 52.99100 36.67500
H  29.75400 52.25800 36.60600
H  30.41600 53.71500 35.20300
H  29.99000 55.09400 36.29500
H  36.36400 56.10500 38.68400
H  35.21900 54.76400 38.84300
H  36.15800 55.23200 40.21000
H  37.21000 60.43100 40.03900
H  35.92500 60.48500 41.27600
H  35.51200 60.65000 39.59800
H  31.88100 62.19300 40.50300
H  29.61300 61.74000 42.52300
H  32.71600 61.34100 43.10700
H  31.54700 62.75500 43.23500
H  33.11600 62.86700 42.37400
H  29.08900 62.89400 39.80700
H  29.95800 63.89500 40.83900
H  27.20700 63.41200 40.86900
H  28.20800 64.58800 41.90400
H  27.67100 62.98200 42.39600
H  24.17900 58.72500 40.16900
H  24.75600 59.70000 38.79800
H  25.03800 60.23600 40.50700
H  26.59600 54.44600 37.57600
H  24.17200 51.30800 38.67500
H  23.61500 52.39100 40.05300
H  25.13300 51.41300 40.04500

