158

Mg 1.60300 -0.92900 44.12800
C  4.89100 0.10900 43.62000
C  0.46500 1.79400 42.52000
C  -1.43900 -2.51500 44.00900
C  3.04300 -4.11300 45.05300
N  2.55700 0.63200 43.10200
C  3.88600 0.96000 43.21400
C  4.11300 2.48200 42.76300
C  2.65500 2.98300 42.47300
C  1.82800 1.71600 42.70200
C  2.22400 4.25200 43.20700
C  4.98500 2.51100 41.45500
C  5.15300 1.32100 40.41600
H  6.45900 1.25200 39.68600
N  -0.28100 -0.37600 43.35400
C  -0.49500 0.82100 42.80000
C  -1.91400 0.82300 42.46500
C  -2.52100 -0.33900 42.93000
C  -1.38200 -1.15500 43.42000
C  -2.46200 1.95100 41.81600
C  -3.97400 -0.75500 42.75800
O  -4.80000 0.00800 42.30800
C  -4.52600 -2.11800 43.01700
N  0.92500 -2.95700 44.50300
C  -0.39700 -3.31300 44.45000
C  -0.60600 -4.76400 44.97300
C  0.80300 -5.25000 45.19200
C  1.64900 -4.04200 44.88100
C  -1.49700 -4.83700 46.24100
C  1.16600 -6.60100 44.55100
C  0.88300 -7.86100 45.43200
N  3.61000 -1.90600 44.28700
C  3.97200 -3.14700 44.72700
C  5.39600 -3.15400 44.83700
C  5.80300 -1.85400 44.47700
C  4.70100 -1.18900 43.95300
C  6.19800 -4.23300 45.31700
C  6.95200 -0.93700 44.40600
O  8.12600 -1.16300 44.82500
C  6.36100 0.41100 43.87200
C  6.40400 1.38700 44.99900
O  5.85200 1.38200 46.07600
O  7.29900 2.45500 44.64300
C  7.65400 3.48300 45.61100
H  0.16400 2.73100 42.04800
H  -2.42000 -2.97700 44.13800
H  3.42800 -5.05800 45.44000
H  4.57500 3.05900 43.56400
H  2.53800 3.23300 41.41800
H  1.45300 4.03500 43.94600
H  1.80200 4.95600 42.49000
H  3.04600 4.65500 43.79900
H  5.89200 2.86400 41.94600
H  4.70900 3.44500 40.96500
H  4.38400 1.54300 39.67700
H  4.86000 0.39700 40.91500
H  -2.08700 1.80500 40.80300
H  -2.27300 2.86900 42.37100
H  -3.52700 1.86100 41.60200
H  -4.07400 -2.93600 42.45600
H  -5.57600 -2.10300 42.72400
H  -4.45000 -2.36900 44.07500
H  -0.98800 -5.29900 44.10300
H  0.95600 -5.39700 46.26100
H  -2.13900 -3.96100 46.32500
H  -0.96900 -4.86100 47.19400
H  -2.29000 -5.58300 46.18800
H  2.22800 -6.64700 44.30800
H  0.70200 -6.74400 43.57500
H  0.48900 -8.74900 44.93700
H  0.13100 -7.61000 46.18000
H  1.81500 -8.13100 45.92800
H  5.67900 -4.53500 46.22600
H  7.17300 -3.80900 45.56000
H  6.26300 -5.12200 44.69100
H  7.05500 0.75900 43.10700
H  6.92500 3.51300 46.42100
H  7.65100 4.39700 45.01800
H  8.64700 3.23300 45.98300
Mg 9.72700 47.45400 26.26500
C  7.70800 48.08000 29.02700
C  12.50200 48.18900 28.07200
C  11.37800 47.13300 23.40000
C  6.67400 46.87700 24.43700
N  10.01000 48.09100 28.33900
C  9.07000 48.11600 29.29400
C  9.83500 48.22600 30.70500
C  11.25700 48.75200 30.26300
C  11.26900 48.23900 28.81000
C  11.44200 50.32800 30.25000
C  9.89900 46.80900 31.41100
C  10.46400 46.88400 32.79600
H  9.72100 46.29100 34.06900
N  11.69100 47.84000 25.77000
C  12.72400 48.09600 26.73000
C  13.98600 47.96100 26.04200
C  13.69800 47.62100 24.67300
C  12.19700 47.51000 24.53200
C  15.31000 48.19500 26.79100
C  14.67600 47.48300 23.53400
O  14.28800 47.14800 22.44300
C  16.14600 47.50600 23.69400
N  9.11400 47.07300 24.26300
C  10.04800 46.85300 23.32700
C  9.49400 46.27200 22.05300
C  7.96200 46.10100 22.39500
C  7.87200 46.77900 23.76800
C  9.73400 47.04000 20.67800
C  7.43300 44.65300 22.44200
C  8.22500 43.67800 23.33700
N  7.59500 47.67100 26.55300
C  6.50500 47.37000 25.74600
C  5.32100 47.48500 26.53700
C  5.71800 47.81300 27.87100
C  7.10100 47.89900 27.76200
C  3.98900 47.31200 26.06300
C  5.26400 48.02400 29.23500
O  4.12000 48.04000 29.70200
C  6.54100 48.20800 30.02300
C  6.45500 47.10600 30.99400
O  6.27200 45.89600 30.72700
O  6.05600 47.68500 32.14200
C  5.42700 46.76800 33.15300
H  13.37600 48.16900 28.72500
H  11.99300 46.81900 22.55500
H  5.77000 46.63400 23.87400
H  9.40900 48.94600 31.40500
H  12.00900 48.23300 30.85700
H  11.42200 50.53300 29.18000
H  12.49900 50.36800 30.51500
H  10.79500 51.02100 30.78600
H  10.52500 46.13700 30.82500
H  8.91200 46.37300 31.25700
H  10.66800 47.94700 32.93000
H  11.34300 46.24000 32.75600
H  15.71000 49.11300 26.36000
H  16.01300 47.39600 26.55700
H  15.20600 48.31600 27.86900
H  16.67800 47.63200 22.75100
H  16.22600 46.45800 23.98000
H  16.52900 48.20000 24.44200
H  9.80000 45.23600 21.90800
H  7.41300 46.70600 21.67300
H  9.48500 48.09200 20.82100
H  9.02500 46.60700 19.97300
H  10.73500 46.83500 20.29900
H  7.54400 44.16600 21.47300
H  6.38600 44.54000 22.72000
H  9.05700 44.10500 23.89800
H  8.61000 42.82400 22.78000
H  7.61900 43.26600 24.14300
H  3.91400 46.43600 25.41900
H  3.73400 48.24900 25.56800
H  3.28100 47.20800 26.88500
H  6.53700 49.21300 30.44400
H  5.93000 45.80100 33.17300
H  4.35900 46.60600 33.01200
H  5.68300 47.40700 33.99800

