158

Mg 0.66000 8.44100 27.63000
C  1.66800 10.73300 30.14700
C  0.68900 5.97000 30.03600
C  -0.02600 6.36100 25.15100
C  0.98100 11.12000 25.32600
N  1.12300 8.46700 29.84200
C  1.49600 9.46500 30.68400
C  1.59300 8.95100 32.14300
C  1.66200 7.41100 31.92400
C  1.03500 7.23800 30.53400
C  3.06300 6.76900 31.94000
C  0.31700 9.31200 33.00000
C  0.48400 9.49300 34.53500
H  -0.31200 8.52600 35.44900
N  0.24100 6.43100 27.61600
C  0.25000 5.59100 28.70900
C  -0.30300 4.32700 28.30900
C  -0.41700 4.40000 26.88700
C  -0.06100 5.74300 26.48500
C  -0.65700 3.19400 29.25000
C  -0.87400 3.28800 25.94700
O  -1.01700 3.45900 24.76500
C  -1.15600 2.04000 26.49500
N  0.77100 8.66700 25.52000
C  0.32000 7.67600 24.73300
C  0.07900 8.14800 23.30100
C  0.05200 9.69800 23.45600
C  0.61200 9.87900 24.89700
C  1.12500 7.44200 22.30900
C  -1.38600 10.24600 23.33200
C  -2.01400 10.38800 21.90100
N  1.26900 10.45800 27.61000
C  1.43300 11.44600 26.61600
C  1.77300 12.69700 27.21100
C  1.85600 12.50800 28.54300
C  1.55300 11.10400 28.77000
C  1.79400 13.81900 26.35100
C  2.06800 13.16500 29.81400
O  2.24000 14.36800 30.09000
C  1.78900 12.04900 30.89500
C  2.88300 12.12400 31.90900
O  4.06800 12.00400 31.68700
O  2.31900 12.39600 33.13200
C  3.24900 12.58200 34.29500
H  0.70300 5.15800 30.76600
H  -0.18100 5.62700 24.35700
H  0.78200 11.94500 24.63900
H  2.47000 9.32300 32.67300
H  1.10900 6.86300 32.68700
H  3.79000 7.53600 32.20800
H  3.33300 6.20600 31.04700
H  3.28600 6.09900 32.77000
H  -0.45200 8.55100 32.86600
H  -0.27600 10.16100 32.65700
H  0.26800 10.54200 34.74100
H  1.51500 9.35300 34.85900
H  -1.71500 2.93200 29.24800
H  -0.46400 3.59400 30.24500
H  0.04600 2.36300 29.18100
H  -2.10900 2.10300 27.02100
H  -0.23500 1.76800 27.01000
H  -1.26200 1.25300 25.74900
H  -0.90600 7.79500 22.99700
H  0.70600 10.02000 22.64600
H  1.94000 8.14500 22.13400
H  0.70300 7.20600 21.33200
H  1.39800 6.49800 22.78000
H  -1.42700 11.22400 23.81300
H  -2.06300 9.51400 23.77300
H  -1.31000 10.13100 21.11000
H  -2.36500 11.41500 21.79400
H  -2.91300 9.77400 21.84000
H  0.76900 14.11000 26.12100
H  2.46100 13.62900 25.51000
H  2.20700 14.68700 26.86500
H  0.82000 12.22600 31.36100
H  3.70200 13.56500 34.16700
H  3.98400 11.78200 34.38200
H  2.65500 12.45900 35.20100
Mg 16.73500 52.04200 25.91900
C  18.49100 50.79400 28.60900
C  14.29800 53.01000 28.08300
C  14.97100 52.97000 23.22600
C  19.36400 50.83800 23.79000
N  16.35900 51.80100 28.18500
C  17.28300 51.41000 29.06700
C  16.90000 51.43100 30.52200
C  15.35500 52.02100 30.28900
C  15.30200 52.33300 28.77000
C  14.19500 51.15300 30.79000
C  17.82900 52.41300 31.30500
C  17.61100 52.67400 32.77500
H  16.55700 51.81700 33.39300
N  14.91700 52.91400 25.68000
C  14.11100 53.25400 26.73500
C  12.94500 54.01400 26.16300
C  13.09700 54.05600 24.71400
C  14.33100 53.30600 24.47200
C  11.94900 54.61500 27.07800
C  12.24200 54.63600 23.66100
O  12.54200 54.66600 22.47300
C  11.04200 55.42900 24.02400
N  17.18400 51.91900 23.77800
C  16.29400 52.37800 22.94700
C  16.85000 52.32600 21.48800
C  18.27300 51.81000 21.66000
C  18.32000 51.48500 23.16800
C  15.92500 51.54100 20.49200
C  19.37100 52.83400 21.34900
C  20.79100 52.30100 20.88600
N  18.42500 50.95500 26.06600
C  19.44000 50.56300 25.11200
C  20.44600 49.78900 25.77700
C  20.07500 49.78200 27.13800
C  18.85100 50.52800 27.24800
C  21.64500 49.37900 25.22000
C  20.58000 49.41700 28.44500
O  21.55900 48.81200 28.76500
C  19.49300 49.98000 29.47000
C  18.99300 48.80000 30.12900
O  18.19400 48.03300 29.67300
O  19.21300 48.92000 31.51500
C  18.45000 47.95600 32.40300
H  13.59400 53.27100 28.87600
H  14.54500 53.19100 22.24500
H  20.13400 50.49700 23.09500
H  16.84900 50.41900 30.92300
H  15.21600 52.98300 30.78200
H  13.53500 51.70300 31.46100
H  14.50800 50.22500 31.27000
H  13.58900 50.80800 29.95300
H  17.72700 53.39100 30.83600
H  18.85800 52.07400 31.18500
H  17.25100 53.68000 32.98800
H  18.59600 52.45700 33.18700
H  10.91300 54.27600 27.07100
H  12.00600 55.62700 26.67600
H  12.33400 54.65000 28.09700
H  11.36600 56.26900 24.63800
H  10.32600 54.85000 24.60800
H  10.56800 55.77300 23.10500
H  16.90100 53.36900 21.17400
H  18.42800 50.88700 21.10100
H  16.56000 51.04900 19.75600
H  15.24500 52.30200 20.11200
H  15.25400 50.85500 21.01000
H  19.64000 53.44000 22.21500
H  18.98900 53.49400 20.57100
H  20.69900 51.23900 20.65700
H  21.47100 52.55800 21.69800
H  20.95500 52.91900 20.00400
H  22.48000 50.05300 25.40900
H  21.67600 49.17400 24.14900
H  21.96900 48.43200 25.65200
H  20.06100 50.54500 30.20900
H  18.32400 46.97700 31.94100
H  17.54600 48.39600 32.82300
H  19.01100 47.76900 33.31900

