158

Mg 3.03600 1.30100 44.22600
C  5.89600 3.30500 44.29900
C  1.63400 3.58100 42.08700
C  0.59400 -0.88200 43.52000
C  5.01500 -1.33400 45.51600
N  3.71200 3.14600 43.23900
C  4.91100 3.81500 43.47100
C  4.99600 5.21600 42.82100
C  3.48900 5.35700 42.40800
C  2.90800 3.93600 42.53800
C  2.69100 6.39900 43.26800
C  5.88300 5.46800 41.48100
C  6.04900 4.26200 40.55700
H  5.43700 4.42200 39.09000
N  1.21100 1.44000 43.22300
C  0.80300 2.43800 42.30800
C  -0.41900 2.12100 41.69900
C  -0.82900 0.83700 42.24000
C  0.34000 0.39600 43.09600
C  -1.24400 3.01800 40.77200
C  -2.18100 0.12000 41.95900
O  -3.05300 0.69000 41.26100
C  -2.55700 -1.32100 42.39600
N  2.80700 -0.81400 44.52400
C  1.71600 -1.45400 44.02900
C  1.90600 -2.93400 44.34500
C  3.22900 -3.12700 45.19900
C  3.74600 -1.65900 45.06500
C  0.59800 -3.55100 44.96000
C  4.16500 -4.22700 44.67800
C  4.29500 -5.40800 45.68400
N  5.01100 0.97800 44.89300
C  5.66500 -0.10200 45.44100
C  7.01900 0.30300 45.81400
C  7.14700 1.61700 45.37900
C  5.88600 1.99300 44.81500
C  8.02400 -0.60700 46.57800
C  8.01300 2.79500 45.46100
O  9.16600 2.89900 45.88000
C  7.20200 3.95400 44.78100
C  7.07000 5.11100 45.78000
O  7.94200 5.91100 46.02000
O  5.83700 5.23800 46.43300
C  5.70200 6.36600 47.36500
H  1.16000 4.40700 41.55200
H  -0.14100 -1.64800 43.26200
H  5.52400 -2.16600 46.00700
H  5.42300 5.94000 43.51600
H  3.41400 5.66400 41.36500
H  3.22700 6.71800 44.16200
H  1.78600 5.94100 43.66600
H  2.53400 7.22600 42.57500
H  6.88700 5.73800 41.80700
H  5.39300 6.30200 40.97900
H  5.58500 3.37200 40.98100
H  7.07800 3.90100 40.54100
H  -1.57300 2.48300 39.88100
H  -0.58900 3.82800 40.45000
H  -2.04900 3.38700 41.40800
H  -2.20800 -1.34600 43.42800
H  -2.03100 -2.09500 41.83700
H  -3.64600 -1.36900 42.39400
H  2.08600 -3.48800 43.42400
H  2.91700 -3.25000 46.23700
H  0.24100 -2.69600 45.53500
H  0.81000 -4.47200 45.50200
H  -0.25100 -3.76800 44.31200
H  5.17000 -3.86100 44.46800
H  3.70900 -4.73600 43.82900
H  4.37900 -4.99400 46.69000
H  5.02900 -6.20800 45.58800
H  3.32600 -5.89000 45.81400
H  8.44800 0.02900 47.35500
H  8.73600 -0.99000 45.84700
H  7.48000 -1.40000 47.09000
H  7.83100 4.35100 43.98500
H  4.62100 6.43300 47.49000
H  6.12100 7.31900 47.04100
H  6.27300 6.16700 48.27200
Mg 33.67100 48.62700 25.03700
C  34.09800 47.19900 28.23700
C  31.97300 51.24800 26.62300
C  33.16400 49.80300 22.09200
C  35.18100 45.69100 23.68200
N  33.31000 49.22200 27.25300
C  33.56700 48.52100 28.33400
C  33.28400 49.36600 29.61100
C  32.46800 50.55700 29.05100
C  32.64900 50.38600 27.54800
C  31.05600 50.63900 29.50700
C  34.50100 49.72000 30.35200
C  34.41400 49.69600 31.85600
H  33.01500 49.56000 32.54200
N  32.70100 50.31500 24.43300
C  32.07000 51.26100 25.17500
C  31.64400 52.35900 24.28200
C  31.90900 51.93800 22.96200
C  32.61600 50.59800 23.16000
C  30.99300 53.59500 24.71700
C  31.56500 52.71300 21.72600
O  31.91700 52.23600 20.65400
C  30.73700 54.00500 21.69000
N  34.12900 47.85500 23.14900
C  33.89100 48.58400 21.99000
C  34.47900 47.97400 20.73800
C  35.06300 46.65400 21.28500
C  34.85900 46.77800 22.78400
C  33.38800 47.84700 19.60300
C  36.56500 46.30100 20.78700
C  37.75900 46.75500 21.70500
N  34.31300 46.69600 25.66800
C  34.96200 45.69300 25.09700
C  35.31600 44.63600 26.02800
C  34.92800 45.22300 27.31100
C  34.42300 46.43800 27.05800
C  35.87300 43.30100 25.66800
C  34.97300 45.01300 28.77200
O  35.35200 44.04100 29.34500
C  34.40400 46.30100 29.38800
C  33.17000 45.79500 30.00400
O  32.08600 45.65900 29.45700
O  33.50800 45.46800 31.32500
C  32.44800 44.77100 32.12000
H  31.50600 52.10300 27.11600
H  32.99800 50.20700 21.09100
H  35.68500 44.81400 23.26900
H  32.63500 48.75700 30.24100
H  32.98000 51.49100 29.28300
H  30.70600 49.72800 29.99200
H  30.45800 50.70200 28.59700
H  30.85600 51.42200 30.23800
H  34.72200 50.75200 30.08200
H  35.35700 49.16200 29.97000
H  34.98500 50.52900 32.26500
H  34.93400 48.77300 32.11600
H  31.54000 54.44200 24.30500
H  31.12500 53.69600 25.79400
H  29.92300 53.68300 24.52500
H  29.80600 54.00500 22.25700
H  30.51000 54.28600 20.66100
H  31.35900 54.80000 22.10000
H  35.27600 48.68000 20.50500
H  34.40600 45.83400 20.99500
H  32.62900 48.62000 19.47900
H  32.82200 46.95400 19.87000
H  33.76700 47.68200 18.59400
H  36.79900 46.77600 19.83400
H  36.62200 45.21500 20.71200
H  37.52900 47.43500 22.52600
H  38.34400 47.38400 21.03500
H  38.34600 45.93500 22.11900
H  36.95600 43.35100 25.55600
H  35.37700 42.86900 24.79900
H  35.75500 42.62400 26.51400
H  35.16900 46.67400 30.07000
H  32.82700 43.75200 32.19800
H  31.47300 44.89500 31.64900
H  32.35600 45.26400 33.08800

