158

Mg 24.54300 -6.53600 46.49500
C  26.75400 -4.23100 44.96500
C  22.32100 -5.78800 43.95000
C  22.86100 -9.32000 47.17500
C  27.28000 -7.72400 48.41100
N  24.55600 -5.05200 44.74300
C  25.51500 -4.27100 44.27000
C  25.21400 -3.59300 42.92300
C  23.76100 -4.14000 42.69000
C  23.48500 -5.04500 43.83000
C  22.80100 -2.91700 42.64600
C  26.18200 -3.88800 41.71200
C  26.55000 -2.70100 40.86500
H  25.91600 -2.58300 39.52400
N  22.68500 -7.31100 45.93200
C  21.95300 -6.88100 44.80500
C  20.73400 -7.63400 44.70200
C  20.83700 -8.62900 45.59600
C  22.18700 -8.46500 46.25100
C  19.60600 -7.28600 43.73100
C  19.73500 -9.70500 45.97800
O  18.69900 -9.64100 45.35000
C  19.95700 -10.84200 46.99300
N  25.03200 -8.23600 47.67800
C  24.13000 -9.16000 47.88100
C  24.71500 -10.31800 48.80500
C  26.04600 -9.69600 49.33300
C  26.14600 -8.54300 48.42200
C  23.77800 -10.84100 49.90900
C  27.21900 -10.71900 49.42700
C  28.05600 -10.96100 48.14500
N  26.56500 -6.03700 46.71800
C  27.48800 -6.57600 47.58100
C  28.77200 -5.83700 47.46600
C  28.49900 -4.97600 46.44900
C  27.15100 -5.10600 46.03900
C  30.08900 -5.95200 48.26300
C  29.08500 -3.87700 45.67300
O  30.17400 -3.30800 45.76700
C  27.96300 -3.44700 44.61400
C  27.80900 -1.98000 44.69700
O  28.05600 -1.22600 43.72500
O  27.29700 -1.61300 45.92400
C  27.06400 -0.19800 46.15300
H  21.69000 -5.55000 43.09200
H  22.40100 -10.26500 47.47100
H  28.13000 -8.00400 49.03700
H  25.21300 -2.53500 43.18300
H  23.54300 -4.58100 41.71700
H  22.80600 -2.42900 41.67200
H  23.03300 -2.24400 43.47200
H  21.73400 -3.11400 42.75700
H  25.65300 -4.56300 41.04000
H  27.07100 -4.42000 42.05200
H  27.63800 -2.64800 40.88300
H  26.22800 -1.85100 41.46800
H  19.88800 -6.82100 42.78700
H  18.92600 -6.60200 44.23900
H  18.96700 -8.15800 43.58800
H  19.94400 -10.34000 47.96000
H  20.82100 -11.37400 46.59500
H  19.26500 -11.68200 46.93200
H  24.98800 -11.03300 48.02900
H  25.90800 -9.27600 50.33000
H  23.97700 -11.91200 49.86600
H  22.72100 -10.62600 49.75600
H  24.09800 -10.55200 50.91100
H  26.84000 -11.73000 49.57200
H  27.85700 -10.50200 50.28500
H  27.53800 -10.56600 47.27100
H  28.22300 -12.02100 47.95400
H  29.05500 -10.53600 48.24100
H  30.90800 -6.33700 47.65600
H  30.08500 -6.59300 49.14400
H  30.27300 -4.93500 48.61100
H  28.41800 -3.71400 43.66000
H  26.15600 0.24000 45.73800
H  27.86800 0.44400 45.79200
H  26.99700 -0.04800 47.23000
Mg 46.86800 24.34300 27.97400
C  47.45700 26.88600 30.33000
C  46.27900 22.17100 30.36500
C  46.67600 22.15300 25.55800
C  47.91000 26.80300 25.51800
N  46.99200 24.51500 30.11000
C  47.09400 25.63400 30.88700
C  46.70700 25.33700 32.35500
C  46.62200 23.75900 32.26500
C  46.63500 23.44900 30.82200
C  47.71400 23.02700 33.13000
C  45.42300 25.98000 32.89300
C  45.03500 25.51500 34.31100
H  44.80900 26.60500 35.40000
N  46.51600 22.36300 27.97100
C  46.12100 21.62400 29.02800
C  45.96200 20.25100 28.60800
C  46.04000 20.24200 27.15700
C  46.49000 21.60500 26.84900
C  45.54800 19.12900 29.55600
C  45.73800 19.06600 26.22800
O  45.71500 19.18400 24.97400
C  45.37900 17.65600 26.78000
N  47.26100 24.45400 25.86900
C  47.08400 23.34500 25.09100
C  47.34700 23.66100 23.62700
C  47.61900 25.16100 23.57700
C  47.52100 25.51000 25.08100
C  48.69500 22.95200 23.15000
C  46.59000 25.99800 22.68400
C  45.35800 26.56200 23.39200
N  47.47900 26.42300 27.86400
C  47.89400 27.23200 26.79100
C  48.28500 28.53100 27.25100
C  48.15800 28.48500 28.63500
C  47.66700 27.21500 28.94200
C  48.84500 29.52900 26.34600
C  48.39300 29.12100 29.94300
O  48.92300 30.19100 30.10200
C  47.69200 28.21800 31.05600
C  48.47200 28.10200 32.32600
O  49.53400 27.45600 32.51200
O  47.75400 28.70900 33.36000
C  48.45200 28.57800 34.63500
H  45.99000 21.40100 31.08400
H  46.47300 21.48800 24.71600
H  48.18800 27.37300 24.62900
H  47.60300 25.67800 32.87400
H  45.61600 23.47100 32.57100
H  47.43900 22.88500 34.17400
H  48.56300 23.70700 33.20400
H  48.10800 22.10300 32.70700
H  44.51500 25.77800 32.32600
H  45.53400 27.06000 32.80100
H  45.78700 24.85300 34.74200
H  44.12200 24.92500 34.23400
H  44.62300 18.70300 29.16600
H  45.49000 19.48300 30.58500
H  46.38400 18.42900 29.54600
H  46.04100 17.39200 27.60500
H  45.51800 16.93700 25.97200
H  44.31400 17.72300 27.00100
H  46.57100 23.21400 23.00600
H  48.60400 25.47800 23.23600
H  48.95900 22.10300 23.78200
H  49.51600 23.66500 23.08300
H  48.51500 22.48200 22.18400
H  46.16700 25.29800 21.96400
H  47.16200 26.80600 22.22800
H  45.42600 26.30500 24.44900
H  44.40500 26.12400 23.09400
H  45.40800 27.64800 23.31100
H  48.69600 30.50400 26.81000
H  48.25500 29.51800 25.43000
H  49.90800 29.37200 26.16100
H  46.69200 28.55100 31.33500
H  48.23700 29.46300 35.23300
H  49.54100 28.61000 34.66800
H  48.11300 27.70600 35.19400

