158

Mg 39.49500 10.31900 29.70400
C  41.45500 11.75200 32.23900
C  37.37800 9.12600 32.04100
C  37.72600 8.81000 27.09900
C  42.19300 10.66700 27.58300
N  39.48500 10.34600 31.96600
C  40.33600 11.05600 32.74600
C  39.78400 11.08500 34.22900
C  38.64300 9.99500 34.15900
C  38.46400 9.77300 32.59500
C  38.85000 8.62300 34.85300
C  39.42400 12.52500 34.78600
C  40.14700 12.96200 36.05000
H  39.33300 13.57300 37.21600
N  37.73900 9.24800 29.57700
C  37.05300 8.75500 30.70700
C  35.77700 8.25600 30.23600
C  35.87200 8.11500 28.79500
C  37.19000 8.68800 28.44600
C  34.74800 7.87800 31.27100
C  34.84900 7.67300 27.78500
O  34.98700 7.61000 26.58000
C  33.58700 7.22500 28.35700
N  39.91000 9.77600 27.64100
C  38.95600 9.39000 26.71500
C  39.50600 9.44800 25.28800
C  40.98300 9.70600 25.57800
C  41.05300 10.11700 27.01500
C  39.27600 8.15600 24.43200
C  41.61200 10.71000 24.54400
C  41.36000 12.19700 24.73400
N  41.43600 11.05600 29.80500
C  42.41800 11.14800 28.87900
C  43.55100 11.81800 29.32100
C  43.25700 12.05200 30.66700
C  41.95300 11.52900 30.94400
C  44.69200 12.12100 28.56300
C  43.73400 12.61800 31.88300
O  44.79200 13.23200 31.98000
C  42.69000 12.35900 32.99700
C  43.20000 11.30400 33.93100
O  43.55900 10.17200 33.64300
O  43.29100 11.73000 35.25300
C  43.72100 10.76900 36.30200
H  36.67300 8.69100 32.75300
H  37.12800 8.39700 26.28400
H  43.03000 10.77500 26.88900
H  40.50300 10.74000 34.97200
H  37.68100 10.27700 34.58800
H  39.77100 8.62600 35.43700
H  38.92400 7.85000 34.08900
H  37.98800 8.30200 35.43700
H  38.35800 12.57600 35.00700
H  39.55900 13.23300 33.96800
H  41.01300 13.55800 35.76200
H  40.45500 12.01000 36.48200
H  34.91000 6.82600 31.50600
H  33.74900 8.04100 30.86600
H  34.75500 8.54200 32.13400
H  32.99400 7.91100 28.96100
H  33.78500 6.38200 29.01900
H  32.88600 6.82100 27.62600
H  39.11100 10.30000 24.73500
H  41.49900 8.74800 25.64900
H  39.15200 8.28800 23.35700
H  38.29300 7.77100 24.70200
H  39.90800 7.28400 24.60500
H  41.21000 10.37200 23.58900
H  42.68300 10.52300 24.46600
H  40.46100 12.46500 25.28900
H  41.26100 12.64400 23.74400
H  42.20600 12.65200 25.24800
H  45.47200 12.45700 29.24600
H  44.49700 12.99000 27.93400
H  44.93500 11.23900 27.97100
H  42.38400 13.24100 33.56100
H  44.73800 10.50200 36.01500
H  43.03200 9.92600 36.23700
H  43.73300 11.17700 37.31200
Mg -11.29200 36.84800 42.54100
C  -8.95400 34.32900 41.79800
C  -9.14400 38.99900 40.87000
C  -13.73700 39.01400 42.37900
C  -13.50000 34.32000 43.46200
N  -9.41700 36.55400 41.17700
C  -8.66900 35.45500 41.08100
C  -7.31400 35.77900 40.31200
C  -7.23800 37.32900 40.51400
C  -8.64900 37.67400 41.01200
C  -6.08900 37.79100 41.41700
C  -7.23100 35.08200 38.93400
C  -6.08000 34.12800 38.57300
H  -5.01800 34.65100 37.58800
N  -11.43600 38.78700 41.72000
C  -10.45300 39.52400 41.09300
C  -10.98200 40.81600 40.72700
C  -12.36500 40.77700 41.01700
C  -12.55200 39.50400 41.81300
C  -10.19300 41.80500 39.95900
C  -13.37800 41.80100 40.62900
O  -13.02700 42.80100 40.00900
C  -14.83400 41.68000 40.95200
N  -13.36600 36.71900 42.73500
C  -14.12500 37.75000 42.82200
C  -15.53400 37.35200 43.24100
C  -15.48100 35.77400 43.36800
C  -13.98700 35.55900 43.16100
C  -15.86800 38.11500 44.57200
C  -16.42500 34.84300 42.40500
C  -17.60700 34.10100 43.00400
N  -11.27500 34.75400 42.76800
C  -12.21800 33.87100 43.17700
C  -11.55800 32.52100 43.13900
C  -10.23000 32.74600 42.80000
C  -10.13900 34.07700 42.43100
C  -12.23100 31.16900 43.46200
C  -8.96400 32.07100 42.59900
O  -8.70000 30.92600 42.67000
C  -8.06200 33.11200 41.97000
C  -6.82800 33.26700 42.75400
O  -6.69600 33.97000 43.81800
O  -5.79900 32.53900 42.25800
C  -4.69500 32.18300 43.20300
H  -8.38700 39.69600 40.50400
H  -14.63200 39.63200 42.47300
H  -14.11400 33.50600 43.85200
H  -6.59600 35.16400 40.85500
H  -7.13700 37.89000 39.58500
H  -5.29500 37.04700 41.46600
H  -6.45500 37.89400 42.43800
H  -5.61200 38.74200 41.17900
H  -6.98500 35.90400 38.26200
H  -8.20900 34.69500 38.64800
H  -6.46400 33.16200 38.24400
H  -5.60200 33.89200 39.52300
H  -10.65100 41.62500 38.98700
H  -9.13600 41.54200 39.96500
H  -10.38100 42.79900 40.36500
H  -15.35000 42.54900 40.54300
H  -14.99400 41.80000 42.02300
H  -15.18400 40.74200 40.52200
H  -16.01500 37.58900 42.29200
H  -15.50900 35.48800 44.42000
H  -16.13000 39.15400 44.37300
H  -14.97300 38.14800 45.19300
H  -16.65700 37.67900 45.18600
H  -15.78400 34.11000 41.91400
H  -16.75300 35.51400 41.61100
H  -17.42700 33.02600 43.00400
H  -18.48000 34.23900 42.36600
H  -17.82400 34.32300 44.04900
H  -11.53400 30.66400 44.13100
H  -12.45800 30.67200 42.51900
H  -13.13000 31.41200 44.02700
H  -7.87000 32.70600 40.97700
H  -3.85000 32.85100 43.03800
H  -4.38400 31.14800 43.06100
H  -5.03200 32.35600 44.22500

