158

Mg -1.42800 7.92500 26.91400
C  -0.37100 9.59000 29.78100
C  -1.82200 5.05700 28.72500
C  -1.87400 6.26700 23.98200
C  -0.64000 10.93100 25.03900
N  -1.08800 7.40300 28.99900
C  -0.81600 8.23300 30.01000
C  -0.88400 7.58200 31.39400
C  -1.03000 6.03800 30.93700
C  -1.39300 6.18900 29.47300
C  0.31100 5.21800 31.02300
C  -2.03000 8.16900 32.21000
C  -2.07600 7.79400 33.72100
H  -0.77300 7.35500 34.41900
N  -1.94600 5.94800 26.45300
C  -2.13400 4.92900 27.37900
C  -2.70200 3.80000 26.65800
C  -2.53100 4.04700 25.23000
C  -2.12700 5.50200 25.16500
C  -3.42400 2.65400 27.41200
C  -2.65100 3.16000 24.04600
O  -2.52700 3.58900 22.91300
C  -3.07100 1.67800 24.26000
N  -1.10500 8.51100 24.83700
C  -1.34400 7.59200 23.85400
C  -1.37000 8.18800 22.47200
C  -1.26000 9.77800 22.86000
C  -1.00500 9.79500 24.29800
C  -0.13500 7.68400 21.67100
C  -2.61800 10.48200 22.55500
C  -2.96400 10.69200 21.04400
N  -0.57200 9.84500 27.25500
C  -0.37700 10.96900 26.41200
C  0.06800 12.06000 27.22500
C  0.13000 11.65000 28.55100
C  -0.31600 10.30500 28.54200
C  0.49800 13.44800 26.76600
C  0.40300 11.96600 29.93200
O  0.90500 12.95400 30.40000
C  0.01900 10.65500 30.76500
C  1.21600 10.31900 31.71500
O  2.18200 9.66500 31.41300
O  1.01900 10.89600 32.88500
C  2.03200 10.88400 33.89700
H  -2.10300 4.18200 29.31500
H  -1.97600 5.75100 23.02500
H  -0.51200 11.84800 24.46000
H  0.04100 7.82600 31.91500
H  -1.79500 5.46300 31.45900
H  1.05600 5.74100 31.62300
H  0.76500 5.04700 30.04700
H  0.15900 4.28200 31.56000
H  -2.94900 7.76700 31.78300
H  -2.07900 9.25200 32.10200
H  -2.91600 7.10500 33.81200
H  -2.28000 8.70200 34.28800
H  -4.41700 2.53700 26.97900
H  -3.61600 2.91900 28.45100
H  -2.86000 1.72800 27.30100
H  -2.38100 1.32500 25.02700
H  -3.11300 1.13800 23.31400
H  -4.10600 1.74500 24.59300
H  -2.35900 7.98300 22.06200
H  -0.43700 10.35900 22.44300
H  0.15200 6.74700 22.14800
H  0.67500 8.39300 21.84500
H  -0.38700 7.57100 20.61700
H  -2.55000 11.50700 22.92000
H  -3.47400 10.00000 23.02800
H  -2.17000 10.41000 20.35300
H  -3.09900 11.76400 20.90200
H  -3.85400 10.27500 20.57300
H  0.71200 13.30300 25.70700
H  1.32700 13.90800 27.30500
H  -0.36500 14.10000 26.90200
H  -0.74400 10.96400 31.48000
H  2.26000 11.87300 34.29600
H  2.96200 10.45500 33.52600
H  1.69400 10.27800 34.73700
Mg 42.96600 41.77200 26.71800
C  42.09100 44.00400 29.18300
C  44.15600 39.62700 29.12100
C  44.17500 39.76100 24.27700
C  42.26600 44.34100 24.39400
N  43.17500 41.86600 28.95200
C  42.47100 42.76200 29.70700
C  42.38300 42.33600 31.21000
C  43.15900 40.95400 31.15500
C  43.60800 40.81000 29.67100
C  44.34000 40.74000 32.16100
C  40.92900 42.41700 31.82700
C  40.60300 41.59000 33.04400
H  40.10700 42.19200 34.38200
N  43.95800 39.91000 26.70000
C  44.37400 39.23300 27.80400
C  45.09800 38.00000 27.41900
C  44.81900 37.87800 26.00100
C  44.26400 39.22400 25.58300
C  45.83700 37.04300 28.40700
C  45.01700 36.81400 24.97400
O  44.68700 36.96600 23.82900
C  45.49800 35.41400 25.48100
N  43.26400 42.02900 24.70100
C  43.70600 41.00700 23.90100
C  43.66000 41.39900 22.48800
C  42.86300 42.72300 22.52000
C  42.73000 43.07900 23.96500
C  45.10200 41.43500 21.90900
C  41.45900 42.75100 21.77100
C  40.50000 41.66700 22.05100
N  42.47000 43.80400 26.73600
C  42.12100 44.70000 25.76900
C  41.57300 45.90700 26.22200
C  41.52900 45.66900 27.60800
C  42.12100 44.40500 27.85900
C  41.19800 47.15400 25.39700
C  41.18900 46.30200 28.86300
O  40.67500 47.37400 29.13000
C  41.60700 45.27800 29.93100
C  42.48000 45.95000 30.93700
O  43.56600 46.48000 30.68000
O  42.02800 45.91200 32.18400
C  42.86700 46.09000 33.38900
H  44.34400 38.86600 29.88100
H  44.51300 39.17400 23.42000
H  42.04800 45.08600 23.62600
H  42.95900 43.10200 31.72900
H  42.46900 40.16300 31.44600
H  45.38000 40.59600 31.86900
H  44.26100 39.91700 32.87100
H  44.40800 41.68500 32.69900
H  40.23300 42.18900 31.01900
H  40.84900 43.46200 32.12700
H  41.38300 40.90300 33.37200
H  39.78400 40.97800 32.66700
H  45.19500 36.17600 28.56600
H  46.12000 37.55000 29.32900
H  46.78600 36.74200 27.96500
H  45.33700 34.62200 24.75000
H  44.96300 35.30400 26.42500
H  46.57800 35.53200 25.57100
H  43.11300 40.67900 21.87900
H  43.43800 43.45300 21.95000
H  45.47800 42.43600 22.12000
H  44.95700 41.19400 20.85500
H  45.77100 40.72500 22.39400
H  41.79800 42.63300 20.74200
H  41.04800 43.75600 21.85800
H  40.93500 40.99800 22.79400
H  40.26800 41.10700 21.14600
H  39.53700 41.99500 22.44400
H  42.01300 47.81400 25.10300
H  40.53200 47.70300 26.06200
H  40.58300 46.87900 24.54000
H  40.75400 45.02700 30.56100
H  43.95600 46.10500 33.36100
H  42.59800 45.29200 34.08100
H  42.52700 47.05300 33.77100

