158

Mg 44.52900 4.70400 48.36600
C  42.22500 7.17200 47.60300
C  42.07400 2.23000 47.87600
C  46.92500 2.40800 48.58300
C  46.90700 7.33400 48.34100
N  42.42700 4.71500 47.76500
C  41.62000 5.86400 47.69700
C  40.11000 5.59900 47.57200
C  40.13200 3.99200 47.66000
C  41.64500 3.56600 47.83700
C  39.30200 3.36000 48.85300
C  39.24700 6.10400 46.40200
C  39.90400 6.33300 44.95700
H  39.20700 7.11100 43.83900
N  44.52500 2.58800 48.19400
C  43.45700 1.79800 47.97700
C  43.83500 0.38100 47.79800
C  45.32700 0.43000 47.93500
C  45.65100 1.87100 48.20800
C  42.92700 -0.78200 47.52200
C  46.32800 -0.77300 47.79300
O  45.88300 -1.90100 47.62900
C  47.76500 -0.54900 47.80200
N  46.58500 4.90100 48.39900
C  47.33200 3.81200 48.68000
C  48.73900 4.15100 49.05900
C  48.75000 5.67800 49.11200
C  47.38000 6.04100 48.55300
C  49.37600 3.39100 50.30700
C  49.97900 6.39600 48.62500
C  50.58000 7.47100 49.58900
N  44.59600 6.82200 48.04200
C  45.60400 7.73800 48.10600
C  45.11200 9.06600 47.86100
C  43.72400 8.89900 47.72000
C  43.50300 7.50400 47.76900
C  45.86400 10.26800 47.97800
C  42.54600 9.62300 47.53600
O  42.36800 10.80500 47.35900
C  41.47100 8.50700 47.44800
C  40.47500 8.70700 48.50100
O  40.61700 8.17200 49.58700
O  39.49600 9.52700 48.10700
C  38.34900 9.18100 48.91400
H  41.28800 1.49300 47.69900
H  47.75500 1.72500 48.77200
H  47.69900 8.07900 48.44400
H  39.73300 5.92900 48.54000
H  39.64200 3.49100 46.82500
H  40.08600 3.17200 49.58700
H  38.89800 2.36100 48.68400
H  38.56600 3.97200 49.37300
H  38.57200 6.82500 46.86300
H  38.55200 5.27200 46.28700
H  40.13800 5.37700 44.49000
H  40.89900 6.76500 45.06600
H  43.24800 -1.48400 46.75200
H  41.88200 -0.56600 47.29800
H  42.73000 -1.28300 48.47000
H  48.19900 0.18700 47.12600
H  48.14000 -1.50600 47.43800
H  47.98200 -0.59600 48.87000
H  49.41800 3.87100 48.25300
H  48.68600 5.85600 50.18500
H  48.64100 2.89400 50.94100
H  49.95500 4.11400 50.88200
H  50.18100 2.69300 50.07900
H  49.80500 6.91100 47.68000
H  50.81300 5.71000 48.47800
H  50.71100 8.39400 49.02500
H  51.56100 7.18200 49.96900
H  49.84800 7.69700 50.36400
H  46.58000 10.14500 48.79100
H  45.26200 11.16700 48.10900
H  46.46900 10.33000 47.07400
H  40.98900 8.70800 46.49100
H  38.26200 8.10300 48.77900
H  37.48100 9.73300 48.55300
H  38.56600 9.39800 49.96000
Mg 0.92300 42.38000 24.38800
C  1.81600 42.44400 27.76900
C  -2.11500 40.91000 25.25800
C  0.25700 41.72900 21.11100
C  4.09800 43.37300 23.48400
N  -0.03000 41.74800 26.45200
C  0.49400 41.91900 27.66700
C  -0.44200 41.45200 28.79100
C  -1.56200 40.78800 27.92300
C  -1.24400 41.09700 26.45800
C  -1.89300 39.26200 28.10200
C  -0.78500 42.68900 29.73100
C  -1.07600 42.36900 31.24500
H  -1.86900 41.07300 31.59200
N  -0.85500 41.74500 23.36600
C  -1.98100 41.21100 23.86900
C  -2.92200 40.87500 22.85700
C  -2.24100 41.14800 21.59700
C  -0.85900 41.59800 21.95300
C  -4.28500 40.27900 23.12200
C  -2.78400 40.75900 20.17900
O  -2.10400 40.87800 19.18400
C  -4.23800 40.26800 19.94700
N  2.08000 42.32200 22.70500
C  1.56300 42.03100 21.46200
C  2.65600 42.13300 20.47100
C  3.70900 43.02100 21.05900
C  3.30100 42.90300 22.47100
C  3.16000 40.67300 20.17100
C  3.62200 44.54400 20.57100
C  2.42000 45.32800 20.98500
N  2.66800 42.90200 25.42900
C  3.91600 43.37000 24.89900
C  4.79700 43.63500 26.05800
C  4.02800 43.29300 27.17800
C  2.71700 42.87800 26.76200
C  6.14400 44.26900 26.01800
C  4.06800 43.10500 28.64800
O  4.90900 43.25100 29.52800
C  2.64400 42.60000 29.01400
C  2.74400 41.32800 29.76800
O  3.32200 40.27400 29.44500
O  2.03500 41.50500 30.89400
C  1.92000 40.30600 31.67000
H  -3.01000 40.34300 25.52400
H  0.06700 41.58100 20.04600
H  5.03100 43.82800 23.14600
H  -0.00400 40.70400 29.45200
H  -2.52400 41.20100 28.22800
H  -1.99200 38.83200 27.10500
H  -2.75700 39.04400 28.72900
H  -1.01300 38.73100 28.46400
H  -1.62000 43.15700 29.20900
H  0.06500 43.36500 29.64000
H  -1.80000 43.10500 31.59300
H  -0.21300 42.55800 31.88400
H  -4.48900 40.15500 24.18500
H  -4.36800 39.30800 22.63300
H  -5.08800 40.91900 22.75700
H  -4.97000 41.00600 20.27700
H  -4.43500 39.28900 20.38500
H  -4.24500 40.27300 18.85700
H  2.17500 42.58600 19.60500
H  4.71600 42.61500 20.96500
H  2.93300 40.08700 21.06100
H  4.23400 40.69800 19.98500
H  2.54400 40.30000 19.35200
H  3.71600 44.60100 19.48700
H  4.54900 44.89700 21.02400
H  1.57900 44.67400 21.21600
H  2.10900 45.82000 20.06300
H  2.52400 46.12100 21.72500
H  6.44000 43.98500 27.02700
H  6.21400 45.34800 25.87900
H  6.92300 43.87900 25.36300
H  2.19000 43.29600 29.71900
H  1.86200 39.32600 31.19700
H  1.11600 40.26000 32.40500
H  2.83600 40.31100 32.26000

