158

Mg 54.80700 24.48400 43.47800
C  52.42200 27.15700 43.27100
C  52.48800 22.31300 42.42400
C  57.31000 22.24900 43.32600
C  57.24000 27.01000 44.17100
N  52.68500 24.83500 42.68900
C  51.92800 25.88800 42.76100
C  50.58900 25.48300 42.16500
C  50.51900 23.97100 42.40800
C  52.01800 23.64700 42.52300
C  49.82800 23.48000 43.70000
C  50.19800 25.96700 40.76500
C  51.37100 26.28400 39.82900
H  51.33300 25.67200 38.36300
N  54.86200 22.62500 42.93900
C  53.84400 21.81800 42.68300
C  54.17400 20.50700 42.67000
C  55.56000 20.43900 42.75300
C  55.95100 21.85600 42.99100
C  53.12700 19.44100 42.47700
C  56.38500 19.15400 42.69100
O  55.82200 18.04100 42.56300
C  57.82100 19.13700 43.04600
N  57.00400 24.64600 43.68600
C  57.81700 23.51200 43.52800
C  59.34200 23.89500 43.58300
C  59.28900 25.43500 43.95600
C  57.75000 25.75800 43.83200
C  60.43700 23.04600 44.37600
C  60.24100 26.44400 43.16200
C  59.58500 27.16800 41.96800
N  54.78400 26.56100 43.78100
C  55.86400 27.36200 44.19200
C  55.30000 28.65600 44.58100
C  53.95400 28.61600 44.20600
C  53.71100 27.36400 43.72600
C  56.01000 29.83700 45.09600
C  52.75900 29.42400 44.15900
O  52.56500 30.54200 44.55900
C  51.63900 28.48900 43.51000
C  51.07100 29.06900 42.23900
O  51.74100 29.42200 41.29000
O  49.69400 29.05400 42.26600
C  48.95100 29.52500 41.09100
H  51.72000 21.60500 42.10600
H  58.17100 21.59800 43.49000
H  58.05800 27.69700 44.39600
H  49.74100 25.83500 42.75200
H  50.29300 23.26500 41.61000
H  50.49000 22.87100 44.31600
H  48.97600 22.84300 43.46300
H  49.46500 24.29400 44.32800
H  49.63500 26.88100 40.95100
H  49.62600 25.16800 40.29400
H  52.34400 25.99000 40.22300
H  51.45700 27.34800 39.60800
H  53.47000 18.89500 41.59800
H  52.09700 19.74500 42.28900
H  53.11400 18.77700 43.34100
H  58.35300 18.19100 42.94700
H  57.83400 19.42500 44.09700
H  58.40800 19.81700 42.42800
H  59.62500 23.71700 42.54500
H  59.40100 25.74900 44.99400
H  60.47500 23.22200 45.45100
H  61.45600 23.24300 44.04500
H  60.28800 21.96800 44.31500
H  60.98200 25.79900 42.69000
H  60.79800 26.96100 43.94300
H  59.58500 28.22600 42.23100
H  58.71600 26.59500 41.64600
H  60.29800 27.12000 41.14500
H  55.28100 30.60900 45.34400
H  56.75600 30.19900 44.38800
H  56.48800 29.53500 46.02700
H  50.82100 28.32400 44.21200
H  49.12000 30.60100 41.05400
H  47.88000 29.32500 41.05200
H  49.36300 28.99600 40.23200
Mg 26.90300 49.74600 26.59600
C  24.91000 50.59400 29.44300
C  29.42400 49.01600 28.78200
C  28.87000 49.35400 24.02900
C  24.28900 50.99400 24.56600
N  27.07200 49.82500 28.80300
C  26.12900 50.04300 29.76300
C  26.60800 49.65300 31.19600
C  28.12900 49.41900 30.95700
C  28.22400 49.40700 29.42000
C  29.00500 50.45100 31.62800
C  25.84700 48.43600 31.76800
C  25.05700 48.85300 33.02600
H  25.81300 49.46600 34.25000
N  28.96300 49.18100 26.41600
C  29.80300 48.82500 27.46200
C  31.02200 48.42300 26.88000
C  30.96400 48.66900 25.47200
C  29.56300 49.09000 25.20900
C  32.19800 47.99000 27.68500
C  31.97500 48.65600 24.42500
O  31.87900 49.15900 23.26800
C  33.32500 48.09400 24.56600
N  26.61800 50.10000 24.61400
C  27.54300 49.73700 23.70300
C  27.04200 50.01500 22.27500
C  25.59800 50.42700 22.43100
C  25.46500 50.52400 23.98200
C  27.86500 51.07500 21.51700
C  24.45800 49.39500 21.93200
C  23.37800 49.95800 21.07300
N  25.08000 50.67700 26.87300
C  24.10100 51.11600 25.97300
C  22.91700 51.63300 26.64900
C  23.18500 51.37900 27.98500
C  24.47800 50.82700 28.12000
C  21.67900 52.25500 26.06300
C  22.63600 51.51600 29.28800
O  21.53500 51.95800 29.63700
C  23.67200 50.93200 30.33100
C  24.07100 52.00100 31.26300
O  24.94200 52.83800 31.05400
O  23.40000 51.91800 32.40500
C  23.67000 53.01100 33.37600
H  30.11800 48.80000 29.59700
H  29.45800 49.11500 23.14000
H  23.38300 51.27500 24.02400
H  26.39000 50.55800 31.76300
H  28.40300 48.39300 31.20200
H  29.64100 49.88700 32.31000
H  28.37300 51.04400 32.28800
H  29.69300 50.87400 30.89600
H  26.53600 47.62400 32.00400
H  25.10400 48.06800 31.06000
H  24.60600 47.91000 33.33400
H  24.21900 49.51800 32.81700
H  31.80100 47.54800 28.59900
H  32.85600 48.83200 27.89900
H  32.68100 47.25700 27.03900
H  33.84800 47.85400 23.64000
H  33.11500 47.11800 25.00300
H  33.97200 48.58900 25.29100
H  27.11700 49.06000 21.75500
H  25.38600 51.40800 22.00500
H  28.79000 51.39100 22.00000
H  27.42300 52.05100 21.32000
H  28.18200 50.75300 20.52500
H  23.96300 48.91400 22.77500
H  24.99500 48.64800 21.34800
H  22.49000 49.36700 21.29700
H  23.73000 50.03300 20.04400
H  23.25800 50.94800 21.51300
H  21.58300 53.33900 26.12100
H  20.87500 51.94200 26.72800
H  21.41400 51.84400 25.08900
H  23.32600 50.04400 30.86000
H  24.63200 53.50800 33.25100
H  23.55400 52.67200 34.40600
H  22.86300 53.73700 33.27600

