158

Mg -1.92500 17.13500 25.59600
C  -2.03900 15.08000 28.45600
C  -2.79200 19.73000 27.53500
C  -1.91700 18.97600 22.81400
C  -1.50500 14.22100 23.65400
N  -2.23200 17.26500 27.75100
C  -2.23700 16.37000 28.73100
C  -2.53300 17.01200 30.19700
C  -2.93300 18.46100 29.74300
C  -2.58700 18.54400 28.23400
C  -4.41700 18.86100 29.97000
C  -1.30400 16.89900 31.12700
C  -1.52000 16.15600 32.45100
H  -2.22500 16.87300 33.58000
N  -2.20400 19.11900 25.26600
C  -2.54600 20.05300 26.23200
C  -2.49000 21.35500 25.55600
C  -2.20800 21.18100 24.17700
C  -1.99700 19.70100 24.06000
C  -2.63800 22.72200 26.32500
C  -1.99600 22.22000 23.06500
O  -2.09200 21.97400 21.87400
C  -1.76200 23.70700 23.45700
N  -1.75700 16.66000 23.54900
C  -1.86000 17.60600 22.55900
C  -1.80700 16.99000 21.12100
C  -1.33900 15.59100 21.41800
C  -1.58800 15.45000 22.94600
C  -3.02300 17.17600 20.25500
C  0.09500 15.39900 20.88900
C  1.16100 16.04400 21.80600
N  -1.78600 15.02000 25.98500
C  -1.62300 13.95100 25.07700
C  -1.53400 12.71300 25.73500
C  -1.76700 13.05300 27.08200
C  -1.86800 14.43300 27.17900
C  -1.38500 11.29800 25.20500
C  -1.92100 12.53700 28.45700
O  -1.94100 11.37000 28.82100
C  -1.97500 13.77600 29.35300
C  -0.65600 13.70700 30.10200
O  0.40800 14.20500 29.72200
O  -0.87600 12.91900 31.22100
C  0.24800 12.65900 32.19100
H  -3.14800 20.55100 28.16100
H  -1.90800 19.50800 21.86100
H  -1.23900 13.37400 23.01700
H  -3.36900 16.54800 30.72100
H  -2.27500 19.19300 30.21100
H  -4.41300 19.87400 30.37400
H  -4.91900 18.23900 30.71100
H  -4.92600 18.87000 29.00600
H  -1.05200 17.89800 31.48300
H  -0.46800 16.43200 30.60700
H  -0.55100 15.80000 32.80100
H  -2.14500 15.28700 32.24500
H  -2.72200 22.53100 27.39500
H  -3.40700 23.37900 25.92000
H  -1.66400 23.18100 26.15700
H  -1.83200 24.23200 22.50400
H  -0.77300 23.91600 23.86600
H  -2.64400 24.09700 23.96400
H  -0.96300 17.53300 20.69500
H  -1.94600 14.80100 20.97700
H  -2.64200 17.56500 19.31000
H  -3.67700 17.90100 20.74000
H  -3.51300 16.21500 20.10000
H  0.29800 15.69300 19.85900
H  0.38900 14.34900 20.86200
H  0.68300 16.85200 22.35900
H  2.04300 16.44700 21.30900
H  1.47800 15.30200 22.53900
H  -0.87500 10.65900 25.92600
H  -0.71000 11.31300 24.34900
H  -2.40300 10.92800 25.08800
H  -2.79100 13.61200 30.05600
H  0.00300 11.71700 32.68100
H  0.22900 13.46800 32.92000
H  1.25500 12.61300 31.77600
Mg 42.94400 2.80400 47.65200
C  40.61900 5.27500 47.19000
C  40.38900 0.43600 47.47100
C  45.16900 0.44600 46.86600
C  45.48100 5.21200 47.04700
N  40.80000 2.84200 47.32300
C  40.06600 3.99800 47.15200
C  38.58000 3.70000 46.83200
C  38.53100 2.17200 47.11500
C  40.00600 1.77600 47.34300
C  37.52700 1.74900 48.20100
C  38.35900 4.11700 45.35100
C  37.20900 5.12700 45.03700
H  37.43200 6.06800 43.80500
N  42.86400 0.72400 47.42700
C  41.71800 -0.04000 47.41900
C  42.05800 -1.51000 47.20300
C  43.48000 -1.51000 46.94800
C  43.92300 -0.08400 47.13500
C  41.02500 -2.59800 47.20400
C  44.28100 -2.78400 46.68300
O  43.77400 -3.90700 46.57900
C  45.74200 -2.76000 46.46600
N  45.01800 2.78300 47.11400
C  45.75000 1.69400 46.83100
C  47.25700 1.94000 46.57000
C  47.35600 3.50800 46.71400
C  45.84600 3.86100 46.93000
C  48.21200 1.11000 47.47600
C  47.96200 4.20900 45.41400
C  48.86200 5.44800 45.69800
N  43.06600 4.88900 47.29200
C  44.14100 5.71100 47.18900
C  43.69700 7.03400 46.93000
C  42.30300 6.97200 47.03100
C  42.00500 5.57700 47.24000
C  44.58100 8.26000 46.88600
C  41.03600 7.68200 46.95300
O  40.75500 8.84300 46.76500
C  39.92100 6.63100 47.09600
C  39.25400 6.83300 48.45200
O  39.75200 6.48900 49.55200
O  37.93900 7.29600 48.32600
C  37.19500 7.54600 49.58500
H  39.60000 -0.30900 47.35100
H  45.83600 -0.32200 46.46700
H  46.20300 6.02500 46.95000
H  37.90600 4.20700 47.52300
H  38.33600 1.56500 46.23100
H  37.06300 2.63300 48.63700
H  38.06600 1.30100 49.03500
H  36.72300 1.13900 47.78800
H  38.06900 3.18900 44.85900
H  39.31900 4.36000 44.89500
H  37.05600 5.79200 45.88600
H  36.34300 4.50300 44.81700
H  41.33800 -3.33700 46.46700
H  40.04900 -2.25500 46.85900
H  40.97400 -3.20800 48.10600
H  46.10400 -2.19000 45.61000
H  46.17900 -3.75600 46.40000
H  46.13300 -2.26100 47.35300
H  47.40600 1.52400 45.57400
H  48.00400 3.86000 47.51700
H  47.60000 0.80000 48.32400
H  48.91800 1.78300 47.96400
H  48.67500 0.31300 46.89600
H  47.16800 4.65500 44.81400
H  48.52100 3.51800 44.78400
H  49.45900 5.75300 44.83900
H  49.50400 5.33700 46.57200
H  48.26800 6.27000 46.09800
H  45.21300 8.22000 45.99900
H  45.22200 8.36100 47.76200
H  43.97800 9.16800 46.87300
H  39.15300 6.82800 46.34800
H  37.49100 6.88900 50.40300
H  36.13800 7.43500 49.34500
H  37.35100 8.58500 49.87500

