158

Mg 47.17300 24.74200 28.39900
C  48.05100 27.05600 31.13700
C  46.64500 22.44700 30.73300
C  47.46400 22.60400 25.95200
C  47.95500 27.50500 26.18200
N  47.49900 24.74300 30.73400
C  47.67200 25.76100 31.63500
C  47.33600 25.27800 33.09300
C  47.16500 23.75200 32.84300
C  47.00000 23.63300 31.32200
C  48.19500 22.86700 33.38600
C  46.07300 26.13000 33.46400
C  46.16800 26.91400 34.74500
H  45.08600 26.64400 35.88300
N  46.98100 22.76100 28.30700
C  46.64000 22.01300 29.40300
C  46.40300 20.67200 28.93400
C  46.86900 20.63000 27.61300
C  47.11200 21.99900 27.18800
C  45.97700 19.57100 29.85100
C  47.05900 19.44700 26.69900
O  47.37400 19.53900 25.50600
C  46.87200 18.03300 27.23700
N  47.68500 25.03600 26.39500
C  47.77300 23.93000 25.59500
C  48.09800 24.29600 24.12300
C  47.79700 25.88400 24.17400
C  47.81800 26.19600 25.66000
C  49.52200 24.02900 23.61200
C  46.52000 26.42400 23.52900
C  45.21000 25.96100 24.10400
N  47.82500 26.82700 28.57600
C  47.98400 27.77400 27.57600
C  48.37300 29.02400 28.17200
C  48.40500 28.80300 29.52800
C  48.03200 27.46400 29.74800
C  48.69300 30.26400 27.43600
C  48.65300 29.38500 30.89000
O  49.04300 30.54100 31.17300
C  48.41200 28.33400 31.90400
C  49.69800 28.12800 32.61400
O  50.60500 27.47000 32.25700
O  49.45700 28.56000 33.92200
C  50.57700 28.27300 34.93400
H  46.28300 21.70900 31.45200
H  47.49800 21.92900 25.09500
H  48.23100 28.31300 25.50100
H  48.12400 25.51000 33.80900
H  46.32000 23.35700 33.40700
H  48.31800 22.01400 32.71900
H  47.88900 22.37500 34.30900
H  49.16800 23.35800 33.40600
H  45.25400 25.41400 33.52700
H  45.68600 26.74100 32.64800
H  46.06900 27.97100 34.49800
H  47.11900 26.85600 35.27400
H  46.84200 19.11400 30.33100
H  45.30000 18.94200 29.27300
H  45.36000 20.06300 30.60300
H  47.09000 17.32900 26.43400
H  45.79200 18.12500 27.34800
H  47.44700 17.81000 28.13600
H  47.37300 23.73300 23.53500
H  48.55800 26.55700 23.78000
H  49.92000 24.87000 23.04200
H  49.62700 23.17200 22.94700
H  50.29400 23.85900 24.36200
H  46.55300 26.30600 22.44600
H  46.44800 27.51100 23.55700
H  45.35500 25.01900 24.63400
H  44.35400 25.88600 23.43300
H  44.85700 26.62100 24.89700
H  48.55300 31.16000 28.04100
H  48.11800 30.36000 26.51500
H  49.74300 30.05900 27.23200
H  47.64100 28.75400 32.55000
H  51.54600 28.15400 34.45100
H  50.23300 27.39500 35.48100
H  50.60500 29.12600 35.61200
Mg -2.19000 34.18100 27.67100
C  -3.50400 32.48500 30.47500
C  -0.72800 36.43200 29.77900
C  -1.62400 36.13400 25.06700
C  -3.83700 31.94500 25.63700
N  -2.09200 34.43600 29.84300
C  -2.70000 33.57300 30.78600
C  -2.35900 34.01300 32.18200
C  -1.44100 35.24100 31.96600
C  -1.39400 35.40600 30.46000
C  -1.75900 36.58900 32.70200
C  -1.80500 32.97100 33.19900
C  -2.46900 32.74600 34.56500
H  -1.52900 32.66500 35.72100
N  -1.29800 36.08800 27.43500
C  -0.65900 36.79700 28.38800
C  -0.12000 38.02900 27.86500
C  -0.52000 38.01800 26.48700
C  -1.11500 36.67400 26.25300
C  0.66800 38.95000 28.69100
C  -0.35300 39.16900 25.49800
O  -0.81200 38.98400 24.36600
C  0.30000 40.53200 25.78000
N  -2.84300 34.10900 25.54100
C  -2.32700 34.95800 24.72000
C  -2.43200 34.49800 23.30000
C  -3.06500 33.05800 23.42200
C  -3.28300 33.01100 24.95000
C  -3.30500 35.39700 22.38200
C  -2.12000 31.85000 22.80500
C  -0.82200 31.57100 23.53800
N  -3.39300 32.50800 27.93800
C  -3.97400 31.67500 27.01400
C  -4.65200 30.61300 27.65800
C  -4.44600 30.86100 29.00200
C  -3.78400 32.08000 29.15600
C  -5.47400 29.56600 27.07900
C  -4.88100 30.46000 30.34400
O  -5.68200 29.57300 30.74100
C  -4.26200 31.50700 31.31100
C  -5.45500 32.14500 31.99800
O  -6.46600 32.52400 31.46700
O  -5.27700 32.10100 33.34100
C  -6.43100 32.54500 34.16400
H  -0.23900 37.15300 30.43800
H  -1.36100 36.73700 24.19500
H  -4.23800 31.16800 24.98300
H  -3.24800 34.33900 32.72200
H  -0.39800 35.04500 32.21600
H  -0.84600 36.84400 33.24000
H  -2.49200 36.33400 33.46800
H  -1.94800 37.48400 32.10900
H  -0.73100 33.12300 33.30500
H  -1.84900 32.00500 32.69600
H  -3.03400 31.81900 34.47700
H  -3.06200 33.62400 34.82100
H  1.60000 38.97000 28.12700
H  0.95700 38.67800 29.70600
H  0.23700 39.94700 28.78000
H  1.33800 40.43800 26.10100
H  -0.28100 40.96400 26.59400
H  0.29800 41.24800 24.95700
H  -1.47000 34.30400 22.82700
H  -4.08600 33.00600 23.04500
H  -3.92800 34.82600 21.69400
H  -2.72100 36.07200 21.75500
H  -3.86600 36.16600 22.91400
H  -1.87600 32.10500 21.77400
H  -2.70400 30.93300 22.73300
H  -0.60300 32.29700 24.32100
H  0.05600 31.64400 22.89700
H  -0.85600 30.56800 23.96400
H  -5.60700 28.78000 27.82200
H  -4.99400 29.21200 26.16700
H  -6.46800 29.97100 26.88600
H  -3.61900 31.00800 32.03600
H  -7.19800 31.77900 34.27100
H  -6.85700 33.47300 33.78200
H  -6.11300 32.78600 35.17900

