158

Mg 35.49800 48.83300 25.92400
C  36.10300 46.90300 28.79600
C  34.55500 51.41100 27.97000
C  34.56000 50.44800 23.41100
C  36.23000 45.83200 24.01600
N  35.25100 49.08700 28.10800
C  35.64500 48.20500 29.05100
C  35.48400 48.75500 30.48800
C  34.87200 50.17600 30.19700
C  34.92100 50.28600 28.65600
C  33.44100 50.44000 30.74800
C  36.92500 48.78400 31.19500
C  36.95900 48.40400 32.70200
H  35.65600 48.57100 33.42800
N  34.66400 50.68000 25.73100
C  34.43000 51.62000 26.64200
C  34.01700 52.86100 25.99900
C  34.07000 52.62200 24.62500
C  34.42200 51.20700 24.55900
C  33.69600 54.16000 26.75900
C  33.88500 53.61300 23.47800
O  34.02300 53.31400 22.24100
C  33.36800 55.00400 23.79800
N  35.32100 48.16400 24.05900
C  34.89200 49.12100 23.13300
C  35.31000 48.63200 21.71200
C  35.91100 47.22900 22.00700
C  35.82200 47.06700 23.43500
C  34.17000 48.66000 20.70900
C  37.36900 47.27700 21.42800
C  38.68000 47.74000 22.13400
N  36.27800 46.76300 26.25000
C  36.49700 45.76300 25.40000
C  37.05700 44.68400 26.20000
C  36.97700 45.05500 27.51600
C  36.42100 46.31400 27.51900
C  37.61500 43.39900 25.68800
C  37.14600 44.67100 28.85500
O  37.48800 43.65700 29.35600
C  36.48000 45.80700 29.73500
C  35.35900 45.14300 30.42300
O  34.33800 44.62900 29.87400
O  35.49700 45.16200 31.77600
C  34.37200 44.70000 32.50400
H  34.26300 52.36200 28.42100
H  34.25500 50.93500 22.48200
H  36.63400 45.10600 23.30800
H  34.80500 48.09500 31.02700
H  35.48600 50.99700 30.56800
H  33.43700 51.36800 31.32000
H  33.05900 49.70600 31.45800
H  32.73300 50.70400 29.96300
H  37.32500 49.78900 31.05300
H  37.68200 48.18900 30.68400
H  37.66800 48.99300 33.28400
H  37.17300 47.34100 32.81300
H  33.52000 54.02800 27.82700
H  32.74000 54.51700 26.37600
H  34.40400 54.98500 26.68200
H  32.40600 54.90800 24.30200
H  33.20900 55.56500 22.87700
H  33.94800 55.59700 24.50500
H  36.09100 49.32700 21.40200
H  35.41000 46.39800 21.50900
H  33.88700 47.66600 20.36300
H  34.63300 49.15600 19.85500
H  33.35200 49.28400 21.06900
H  37.40100 47.71600 20.43100
H  37.52000 46.21900 21.21200
H  38.44300 47.83100 23.19400
H  39.09600 48.66600 21.73700
H  39.45800 46.98800 22.00500
H  37.35400 42.55900 26.33200
H  38.69200 43.43700 25.52500
H  37.18100 43.16800 24.71500
H  37.18100 46.19000 30.47600
H  33.41900 45.06300 32.12200
H  34.40700 45.16500 33.49000
H  34.38700 43.61400 32.59300
Mg 26.64500 50.09700 26.91600
C  24.43100 51.38100 29.17700
C  28.85200 49.30800 29.33200
C  28.58500 48.88300 24.48700
C  24.48100 51.45000 24.39500
N  26.60900 50.33000 29.04600
C  25.51500 50.72700 29.80200
C  25.82600 50.49900 31.30700
C  27.36000 50.06100 31.31000
C  27.68000 50.03600 29.81000
C  28.32600 50.83100 32.22000
C  24.76100 49.51700 31.97200
C  24.24500 49.89300 33.34800
H  24.12000 48.80200 34.38200
N  28.46600 49.10100 26.93500
C  29.27000 48.89300 28.06300
C  30.44900 48.19000 27.65200
C  30.24600 47.92100 26.22500
C  29.07500 48.65700 25.80900
C  31.63100 47.92700 28.66300
C  31.17900 47.10100 25.30800
O  31.02200 47.03100 24.12400
C  32.34500 46.30400 26.02400
N  26.58200 50.26900 24.69700
C  27.53000 49.60200 23.96100
C  27.23900 49.70800 22.40500
C  25.76100 50.36000 22.45800
C  25.54200 50.69500 23.92700
C  28.32800 50.46300 21.55900
C  24.69600 49.46600 21.77900
C  23.69400 48.65900 22.61600
N  24.84100 51.38200 26.76100
C  24.09300 51.85700 25.69400
C  22.83100 52.49500 26.15400
C  22.97200 52.37400 27.55700
C  24.10800 51.64000 27.80400
C  21.75200 53.14600 25.36300
C  22.31800 52.66000 28.83600
O  21.25100 53.29300 29.00000
C  23.31400 52.11100 29.97100
C  23.83000 53.32800 30.69500
O  24.89900 53.86200 30.59400
O  22.94800 53.63200 31.68500
C  23.42100 54.68100 32.66800
H  29.49900 48.87000 30.09600
H  29.10500 48.39600 23.65900
H  23.81000 51.81900 23.61700
H  25.72900 51.46300 31.80500
H  27.36700 49.06900 31.76300
H  29.17100 51.19200 31.63400
H  28.60400 50.22900 33.08400
H  27.97800 51.69800 32.78100
H  25.16500 48.50700 31.90200
H  23.90000 49.61600 31.31200
H  23.27300 50.36800 33.22100
H  24.87900 50.69800 33.71800
H  32.44000 47.23800 28.42100
H  31.20500 47.66400 29.63100
H  32.07700 48.89500 28.88800
H  31.92300 45.73500 26.85300
H  33.02200 47.05400 26.43400
H  32.79100 45.57300 25.35100
H  27.27700 48.69800 21.99600
H  25.81300 51.30100 21.91000
H  29.05200 50.78600 22.30800
H  27.92800 51.33600 21.04300
H  28.93300 49.84900 20.89200
H  25.10000 48.85200 20.97400
H  24.06000 50.22100 21.31700
H  22.81900 49.30000 22.51300
H  24.01200 48.60300 23.65700
H  23.57100 47.66500 22.18700
H  21.20300 52.31200 24.92600
H  22.30200 53.76600 24.65500
H  21.15500 53.72800 26.06500
H  22.66000 51.52000 30.61200
H  23.93800 55.46700 32.11700
H  24.27400 54.39300 33.28300
H  22.64500 55.00100 33.36300

