158

Mg 17.67900 -1.74600 28.05500
C  16.34600 0.23600 30.62800
C  19.45100 -3.43300 30.11000
C  19.03000 -3.21100 25.29600
C  15.89400 0.52300 25.77800
N  17.88400 -1.48200 30.17300
C  17.23900 -0.73300 31.13600
C  17.62600 -1.12500 32.51600
C  18.64900 -2.29000 32.31100
C  18.73400 -2.40400 30.79000
C  20.04200 -2.17000 32.97500
C  16.40700 -1.52600 33.40700
C  16.42200 -1.26800 34.92500
H  17.68100 -0.78300 35.62100
N  19.11200 -3.14900 27.81200
C  19.55800 -3.93400 28.79900
C  20.17900 -5.13300 28.30700
C  20.25700 -4.98200 26.89800
C  19.46900 -3.70700 26.56000
C  20.77200 -6.10500 29.13900
C  20.82100 -5.88000 25.87000
O  20.95600 -5.67100 24.67700
C  21.28400 -7.32900 26.19900
N  17.59500 -1.25800 25.88000
C  18.20100 -2.10700 24.96300
C  17.99500 -1.59000 23.51900
C  16.85100 -0.61100 23.74000
C  16.77200 -0.38400 25.21100
C  19.22700 -1.01700 22.80600
C  15.47100 -1.09500 23.27300
C  14.67200 -0.26600 22.23400
N  16.41200 -0.04300 28.13500
C  15.79200 0.75500 27.16500
C  15.00700 1.79000 27.75600
C  15.21100 1.59200 29.13600
C  16.01200 0.47100 29.26800
C  14.21600 2.81500 27.03200
C  14.88200 2.15800 30.49600
O  14.24600 3.17000 30.80800
C  15.52100 1.18000 31.48900
C  16.34700 2.07300 32.39300
O  17.32300 2.73500 32.03800
O  15.78900 2.02400 33.66900
C  16.30000 3.00800 34.63100
H  19.90600 -4.12100 30.82600
H  19.42300 -3.84700 24.50000
H  15.31700 1.12100 25.07000
H  18.02200 -0.22600 32.99000
H  18.24600 -3.17100 32.81000
H  20.08500 -1.17000 33.40500
H  20.80900 -2.30300 32.21200
H  20.32100 -2.88200 33.75100
H  16.06800 -2.54700 33.23100
H  15.53700 -0.96100 33.07200
H  16.15600 -2.21800 35.38800
H  15.66700 -0.48800 35.03200
H  21.83000 -6.22000 28.90200
H  20.11200 -6.92100 28.84500
H  20.69400 -5.84100 30.19300
H  21.46400 -8.05200 25.40300
H  20.55000 -7.77600 26.86900
H  22.25400 -7.24000 26.68700
H  17.60300 -2.38100 22.88100
H  17.06400 0.40800 23.41900
H  19.92600 -0.80800 23.61600
H  18.92000 -0.07900 22.34200
H  19.57400 -1.72900 22.05700
H  14.90000 -1.45600 24.12900
H  15.63500 -1.99700 22.68400
H  13.68500 -0.04900 22.64400
H  14.55600 -0.79000 21.28500
H  15.22200 0.65200 22.03100
H  14.57700 3.10400 26.04500
H  14.08600 3.64800 27.72300
H  13.34100 2.22400 26.76300
H  14.68700 0.64000 31.93900
H  16.52100 3.93700 34.10600
H  17.07000 2.54800 35.25000
H  15.38000 3.27500 35.15000
Mg -6.08100 25.70600 26.35600
C  -4.14900 27.27300 28.88100
C  -7.07300 23.38200 28.78500
C  -7.55200 24.00800 23.96000
C  -4.48600 27.72900 24.03900
N  -5.56200 25.29700 28.54600
C  -4.95800 26.21900 29.34300
C  -5.45500 25.99200 30.80700
C  -5.99300 24.53100 30.79500
C  -6.28100 24.39100 29.30800
C  -4.97500 23.42500 31.35900
C  -6.42600 27.08400 31.31100
C  -6.63000 27.08400 32.83600
H  -5.81700 26.07000 33.65900
N  -7.16900 23.95600 26.36900
C  -7.47600 23.16600 27.43800
C  -8.29400 22.01400 26.97500
C  -8.53300 22.16200 25.57300
C  -7.77400 23.40400 25.24600
C  -8.90600 20.95500 27.95000
C  -9.31300 21.27700 24.56100
O  -9.44100 21.55700 23.36200
C  -9.99800 20.01200 25.01900
N  -6.16700 25.91800 24.36600
C  -6.87000 25.12000 23.49100
C  -6.86100 25.65900 22.01700
C  -5.60500 26.56800 22.01700
C  -5.33100 26.74000 23.57400
C  -6.90600 24.55900 20.89000
C  -5.84800 27.98700 21.41300
C  -5.25000 28.12500 20.00500
N  -4.60400 27.20500 26.38000
C  -4.08200 27.97900 25.37100
C  -3.12700 28.95800 25.94100
C  -3.17100 28.71100 27.32400
C  -4.06800 27.65000 27.51400
C  -2.18800 29.91900 25.36900
C  -2.60400 29.11900 28.58200
O  -1.86300 29.99800 28.97300
C  -3.14900 28.11900 29.69800
C  -1.92700 27.38800 30.21700
O  -1.34500 26.41400 29.66400
O  -1.78500 27.75300 31.54500
C  -1.03900 26.83400 32.42300
H  -7.47500 22.75100 29.58000
H  -8.12800 23.38600 23.27200
H  -3.90100 28.31800 23.33000
H  -4.53700 26.18400 31.36200
H  -6.91200 24.53400 31.38100
H  -4.69500 22.88800 30.45300
H  -5.56300 22.78700 32.01900
H  -4.06000 23.78800 31.82700
H  -7.35700 26.88900 30.77800
H  -6.15200 27.99200 30.77400
H  -7.70400 27.08000 33.02400
H  -6.39800 28.06600 33.24800
H  -9.98100 20.90000 27.77800
H  -8.66000 21.11400 28.99900
H  -8.52600 19.96200 27.70900
H  -10.72500 20.22500 25.80200
H  -9.32100 19.19600 25.27300
H  -10.58500 19.59400 24.20100
H  -7.77200 26.24000 21.87400
H  -4.81200 26.01500 21.51300
H  -7.93000 24.39400 20.55200
H  -6.60100 23.58300 21.27000
H  -6.19900 24.90400 20.13600
H  -5.50700 28.77600 22.08300
H  -6.91700 28.18100 21.32700
H  -4.87900 27.13500 19.73900
H  -4.35600 28.71500 20.20500
H  -5.91500 28.42300 19.19400
H  -2.62700 30.91500 25.31900
H  -1.71300 29.64100 24.42900
H  -1.34000 30.10100 26.03100
H  -3.68600 28.57700 30.52900
H  -0.00700 27.17700 32.49000
H  -1.03900 25.83000 31.99700
H  -1.59000 26.92600 33.35900

