158

Mg -11.71500 37.82700 42.03900
C  -9.10900 35.32800 41.33200
C  -9.76000 40.13200 40.67900
C  -14.33600 39.69100 42.32200
C  -13.73100 35.03000 43.06400
N  -9.56000 37.71500 41.04600
C  -8.74100 36.61100 40.82700
C  -7.68900 37.07200 39.82900
C  -7.66500 38.67200 39.99800
C  -9.09300 38.86000 40.60800
C  -6.55700 39.17400 41.02000
C  -7.80400 36.57700 38.34000
C  -6.53000 35.99500 37.75200
H  -5.63200 36.69900 36.75900
N  -11.96700 39.66700 41.59800
C  -11.01700 40.48600 41.09200
C  -11.51600 41.82400 41.08500
C  -12.85800 41.72400 41.52900
C  -13.13600 40.28100 41.78900
C  -10.79800 42.96400 40.49600
C  -13.82400 42.91500 41.64900
O  -13.35700 44.02400 41.37700
C  -15.27100 42.76600 42.01500
N  -13.85900 37.38000 42.40300
C  -14.73100 38.41900 42.61800
C  -16.14800 37.92400 42.98100
C  -15.90800 36.37900 43.29600
C  -14.37900 36.25100 42.91500
C  -16.77600 38.68800 44.12000
C  -16.72600 35.39400 42.46600
C  -18.07100 35.06500 42.98300
N  -11.53400 35.63100 42.27800
C  -12.37500 34.72400 42.73600
C  -11.68000 33.46500 42.88700
C  -10.48300 33.66300 42.27500
C  -10.38200 35.01500 41.94700
C  -12.30500 32.21500 43.57700
C  -9.24400 33.04700 41.97600
O  -8.91400 31.89600 42.25900
C  -8.26900 34.11000 41.25500
C  -7.00400 34.17400 42.06600
O  -6.81600 34.67600 43.15700
O  -6.06200 33.35900 41.39000
C  -4.96900 33.07300 42.28900
H  -9.11100 40.94400 40.34400
H  -15.16700 40.39200 42.41700
H  -14.32700 34.21900 43.48900
H  -6.75300 36.81500 40.32500
H  -7.67400 39.14900 39.01800
H  -6.87700 39.16200 42.06200
H  -6.21300 40.15900 40.70500
H  -5.64400 38.59900 41.17500
H  -7.91700 37.43000 37.67000
H  -8.65300 35.90700 38.20000
H  -6.84400 35.07700 37.25400
H  -5.83700 35.80900 38.57300
H  -11.02500 43.16900 39.45000
H  -9.73800 42.87000 40.73200
H  -10.95200 43.87700 41.07200
H  -15.74000 42.37500 41.11200
H  -15.61300 43.79900 42.07000
H  -15.36700 42.24800 42.96900
H  -16.84100 38.06900 42.15200
H  -16.17100 36.09900 44.31600
H  -17.75800 38.94800 43.72500
H  -16.18300 39.55600 44.40700
H  -16.92600 38.17100 45.06800
H  -16.15500 34.49400 42.23800
H  -16.83300 35.85500 41.48400
H  -18.07900 33.97500 42.98400
H  -18.74900 35.46700 42.23000
H  -18.25700 35.43500 43.99100
H  -11.88100 31.30900 43.14300
H  -13.38200 32.28100 43.42400
H  -12.26700 32.20600 44.66600
H  -8.08700 33.63900 40.29000
H  -5.36400 32.37100 43.02300
H  -4.54900 33.94100 42.79500
H  -4.11100 32.60800 41.80200
Mg -10.94300 15.62300 42.67400
C  -7.67400 16.71200 42.89300
C  -11.97300 18.77300 42.10600
C  -13.96100 14.37900 42.58500
C  -9.65500 12.28300 42.72900
N  -9.87300 17.45800 42.47100
C  -8.55400 17.70700 42.65600
C  -8.19900 19.05000 42.25900
C  -9.59700 19.83200 42.35700
C  -10.56300 18.62800 42.31100
C  -9.75300 20.62900 43.66500
C  -7.51400 19.12500 40.85500
C  -6.20000 19.99300 40.66100
H  -5.18000 19.43000 39.73300
N  -12.78700 16.49000 42.38400
C  -13.06600 17.80300 42.23100
C  -14.50500 17.98400 42.11500
C  -15.08400 16.73100 42.23100
C  -13.93500 15.79500 42.41300
C  -15.12100 19.31500 41.91600
C  -16.55600 16.33200 42.14600
O  -17.36900 17.22500 42.18100
C  -17.03900 14.93200 41.70000
N  -11.67900 13.65500 42.58400
C  -12.97500 13.44000 42.69600
C  -13.35900 12.01100 42.97000
C  -12.01000 11.33700 42.70500
C  -11.07100 12.51700 42.55800
C  -13.90500 11.79000 44.40400
C  -12.08500 10.26500 41.58300
C  -12.15500 8.76200 42.02700
N  -9.07400 14.60500 42.86400
C  -8.69800 13.29200 42.83000
C  -7.30600 13.18600 43.17100
C  -6.79400 14.48600 43.10100
C  -7.93500 15.31900 42.98200
C  -6.43200 11.90200 43.28800
C  -5.63600 15.43600 43.15900
O  -4.45200 15.18200 43.36400
C  -6.14800 16.92500 43.09800
C  -5.73400 17.49300 44.37200
O  -6.21800 17.29500 45.48700
O  -4.73700 18.44600 44.27900
C  -4.42100 19.35400 45.38800
H  -12.27000 19.79900 41.88200
H  -14.94000 13.89800 42.64100
H  -9.28700 11.25500 42.72500
H  -7.47800 19.48400 42.95200
H  -9.74200 20.43200 41.45900
H  -10.70100 20.50700 44.18800
H  -9.75400 21.67700 43.36500
H  -8.90300 20.44100 44.32000
H  -8.17100 19.56500 40.10500
H  -7.39800 18.10200 40.49700
H  -5.77600 20.11100 41.65800
H  -6.41600 21.03900 40.44500
H  -15.46000 19.40300 40.88400
H  -14.35200 20.07600 42.04900
H  -15.93400 19.47300 42.62500
H  -18.03000 15.05700 41.26300
H  -17.26100 14.17300 42.45000
H  -16.38200 14.42400 40.99300
H  -14.15100 11.54300 42.38500
H  -11.63100 10.82500 43.58900
H  -14.95100 11.48400 44.38800
H  -13.85600 12.78300 44.85200
H  -13.31300 11.08500 44.98800
H  -11.16900 10.37200 41.00200
H  -12.85500 10.62400 40.90100
H  -11.51200 8.03100 41.53600
H  -13.20200 8.49600 41.87600
H  -12.12200 8.60400 43.10500
H  -5.38400 12.16700 43.42500
H  -6.68000 11.55600 42.28400
H  -6.68200 11.20100 44.08400
H  -5.75300 17.45000 42.22800
H  -5.16100 19.30400 46.18600
H  -4.35000 20.38700 45.04700
H  -3.53900 19.01100 45.92900

