158

Mg 25.69300 0.46600 29.44000
C  27.53300 0.44600 32.43800
C  22.79800 0.96000 31.33200
C  23.96700 0.44300 26.54200
C  28.65900 -0.17000 27.71100
N  25.18700 0.70200 31.68600
C  26.11900 0.64800 32.70100
C  25.47400 0.81600 34.02400
C  23.90700 0.83200 33.64700
C  23.93900 0.79700 32.13100
C  23.09800 -0.34500 34.31600
C  25.82100 2.20000 34.77000
C  26.09200 1.88600 36.23100
H  26.03500 2.99500 37.26400
N  23.63600 0.71100 29.04300
C  22.61400 0.98900 29.93900
C  21.50800 1.33600 29.17300
C  21.79200 1.04500 27.81900
C  23.16700 0.68700 27.72500
C  20.29900 1.91500 29.80000
C  20.87500 1.19900 26.66100
O  21.23200 0.98700 25.50300
C  19.41600 1.59500 26.92000
N  26.18600 0.02200 27.44600
C  25.31000 0.12800 26.44700
C  26.02600 -0.31700 25.11100
C  27.54300 -0.16400 25.44900
C  27.48400 -0.02700 26.91200
C  25.63100 -1.63300 24.47200
C  28.37000 0.97700 24.77900
C  29.79000 0.66000 24.39800
N  27.68100 0.02400 29.93600
C  28.83000 -0.10400 29.13900
C  29.99400 -0.34900 29.95900
C  29.50600 -0.08300 31.19700
C  28.09200 0.17200 31.14600
C  31.42100 -0.62800 29.44200
C  29.94500 0.05800 32.55700
O  31.07800 0.14500 33.03100
C  28.68100 0.37400 33.40300
C  28.50300 -0.61400 34.56200
O  27.84600 -1.62100 34.66400
O  29.25700 -0.16900 35.61200
C  29.07200 -0.80200 36.89100
H  21.90400 1.07300 31.95000
H  23.40600 0.50500 25.60700
H  29.55100 -0.49700 27.17200
H  25.62700 0.00100 34.73100
H  23.38300 1.75100 33.90800
H  22.49700 -0.90100 33.59700
H  22.44900 -0.00900 35.12400
H  23.78300 -1.05800 34.77600
H  25.13500 3.04700 34.74700
H  26.75800 2.59100 34.37300
H  27.12400 1.54100 36.28400
H  25.41500 1.12100 36.61200
H  20.38900 2.21200 30.84500
H  19.42800 1.26200 29.74000
H  20.00600 2.80000 29.23600
H  19.30700 2.63300 27.23400
H  19.23600 0.77900 27.62000
H  18.76100 1.35400 26.08200
H  25.74700 0.43200 24.37000
H  28.06300 -1.10500 25.26600
H  25.13300 -1.48700 23.51400
H  25.06600 -2.18100 25.22700
H  26.53700 -2.21000 24.28900
H  28.37100 1.73000 25.56600
H  27.90300 1.41000 23.89500
H  30.11100 -0.27900 24.84900
H  30.39400 1.41600 24.89900
H  29.91500 0.77600 23.32200
H  31.45200 -0.23500 28.42600
H  31.67300 -1.68100 29.57500
H  32.09600 -0.07900 30.09800
H  28.86100 1.36300 33.82400
H  29.80500 -0.35900 37.56600
H  29.09800 -1.89100 36.89100
H  28.08900 -0.53700 37.28000
Mg -5.02000 25.46600 26.05400
C  -3.96700 26.98600 29.11100
C  -6.87100 23.19300 27.96200
C  -5.96400 24.07100 23.12700
C  -2.95200 27.58900 24.24300
N  -5.48000 25.24700 28.33500
C  -4.85500 25.94200 29.33400
C  -5.45400 25.43700 30.70100
C  -5.98000 24.03900 30.36100
C  -6.20100 24.15200 28.79900
C  -5.18600 22.73100 30.80500
C  -6.50800 26.47800 31.30700
C  -6.36000 26.92700 32.80400
H  -5.65600 25.83600 33.77500
N  -6.19900 23.90600 25.56900
C  -6.87200 23.09700 26.49300
C  -7.67800 22.22800 25.77700
C  -7.38100 22.32900 24.40400
C  -6.47400 23.43000 24.30000
C  -8.74700 21.31000 26.43700
C  -7.78200 21.52900 23.21900
O  -7.50100 21.74500 22.04400
C  -8.57500 20.27700 23.39300
N  -4.41500 25.67900 24.00200
C  -4.98900 25.03700 22.97700
C  -4.51200 25.51800 21.57000
C  -3.91500 26.84700 21.99500
C  -3.65200 26.63900 23.49300
C  -3.50700 24.45400 21.01100
C  -4.88500 28.03700 21.63400
C  -4.39000 29.11800 20.76000
N  -3.77400 26.91400 26.55300
C  -2.99300 27.71400 25.68900
C  -2.41900 28.75100 26.44200
C  -2.65500 28.46600 27.80100
C  -3.57900 27.41400 27.82300
C  -1.56200 29.86000 25.91200
C  -2.45700 28.79800 29.12600
O  -1.75900 29.69700 29.52800
C  -3.23500 27.89900 30.13900
C  -2.22700 27.18500 31.00800
O  -1.22700 26.61700 30.63300
O  -2.67500 27.28300 32.27700
C  -1.68800 26.72300 33.20900
H  -7.39200 22.36600 28.44900
H  -6.30300 23.67100 22.16900
H  -2.65600 28.43200 23.61500
H  -4.67200 25.24400 31.43600
H  -7.05000 23.96500 30.55700
H  -5.13900 21.98500 30.01200
H  -5.58800 22.27200 31.70700
H  -4.15600 22.91800 31.11000
H  -7.54700 26.26900 31.05200
H  -6.14800 27.41400 30.88000
H  -7.36600 27.08200 33.19300
H  -5.88300 27.89700 32.94200
H  -9.54000 21.13600 25.71000
H  -9.12600 21.78600 27.34100
H  -8.20500 20.39200 26.66400
H  -9.62400 20.40900 23.65500
H  -8.11000 19.76300 24.23400
H  -8.32100 19.54900 22.62200
H  -5.38000 25.65400 20.92600
H  -2.96700 27.07800 21.50900
H  -3.66500 24.45400 19.93300
H  -3.69200 23.47800 21.46100
H  -2.47900 24.77400 21.18200
H  -5.19400 28.45900 22.59100
H  -5.84600 27.68100 21.26400
H  -3.30500 29.13000 20.65900
H  -4.53500 30.04400 21.31600
H  -4.76900 29.23200 19.74500
H  -1.57600 29.90400 24.82300
H  -0.58100 29.84600 26.38700
H  -1.93800 30.85300 26.16000
H  -3.93700 28.45300 30.76200
H  -1.47400 25.72500 32.82500
H  -2.25400 26.59800 34.13200
H  -0.84900 27.39600 33.38400

