158

Mg 28.19400 56.02300 41.24500
C  25.88400 53.53100 40.02600
C  30.66100 54.09800 39.95800
C  30.11000 58.67100 41.75300
C  25.40600 57.90000 41.98200
N  28.22900 53.99800 40.20400
C  27.19000 53.21700 39.68900
C  27.69400 52.16800 38.81300
C  29.22800 52.11600 39.10400
C  29.41600 53.39100 39.88000
C  29.86800 50.79400 39.74400
C  27.25900 52.25000 37.28900
C  27.06400 53.53700 36.59800
H  27.16000 53.68500 35.08600
N  30.19300 56.29000 41.03000
C  31.04700 55.36000 40.47600
C  32.33500 56.05800 40.40900
C  32.22300 57.36000 40.98000
C  30.83200 57.47200 41.38600
C  33.42900 55.29700 39.93500
C  33.33700 58.40500 41.00200
O  34.42200 58.22600 40.48200
C  33.17200 59.71100 41.66000
N  27.77800 58.00400 41.77200
C  28.80300 58.87600 42.06200
C  28.28400 60.32400 42.28700
C  26.78900 60.07300 42.52400
C  26.61900 58.58300 42.04200
C  29.05600 61.09400 43.38500
C  25.94800 61.15500 41.73700
C  24.73200 61.60800 42.56900
N  26.05500 55.73200 41.20100
C  25.09800 56.54800 41.65300
C  23.78000 55.88000 41.62100
C  24.02900 54.64700 40.99400
C  25.44000 54.61100 40.80100
C  22.42200 56.39500 42.04200
C  23.50200 53.36900 40.43700
O  22.35600 52.96900 40.43000
C  24.69200 52.69300 39.72300
C  24.70500 51.32500 40.34200
O  25.37500 51.03200 41.31100
O  23.97100 50.38000 39.67200
C  23.98000 49.02500 40.27900
H  31.49200 53.45400 39.66600
H  30.74400 59.55200 41.87800
H  24.53500 58.50000 42.25400
H  27.27500 51.29700 39.31700
H  29.70400 52.23900 38.13100
H  30.56200 51.22200 40.46700
H  30.40900 50.19300 39.01200
H  29.04600 50.22900 40.18400
H  26.26200 51.81900 37.19100
H  27.79600 51.54600 36.65300
H  27.92600 54.16000 36.83800
H  26.10300 53.99700 36.83100
H  33.11200 54.86800 38.98400
H  33.73600 54.46600 40.57000
H  34.35900 55.83800 39.76200
H  32.55300 60.21500 40.91800
H  34.11300 60.26000 41.62900
H  32.72400 59.74100 42.65300
H  28.50200 60.66600 41.27600
H  26.63400 60.05800 43.60300
H  29.70100 60.37200 43.88700
H  28.35700 61.46100 44.13600
H  29.66400 61.86400 42.91100
H  25.55000 60.78500 40.79200
H  26.62300 61.98000 41.51200
H  23.92600 61.65800 41.83700
H  24.92000 62.55300 43.08000
H  24.57500 60.85500 43.34100
H  21.85200 56.42100 41.11300
H  22.50600 57.36900 42.52400
H  22.01900 55.59000 42.65700
H  24.57000 52.47300 38.66200
H  23.36600 48.29500 39.75100
H  23.62800 49.15600 41.30200
H  25.01800 48.71000 40.17600
Mg 35.91400 48.95400 25.24300
C  36.28900 47.14700 28.07300
C  34.48000 51.53000 26.92400
C  35.26900 50.52500 22.23900
C  37.08800 46.30700 23.31200
N  35.46700 49.23300 27.29400
C  35.76000 48.38900 28.36500
C  35.28600 48.94300 29.68500
C  34.56900 50.27100 29.22300
C  34.81900 50.38000 27.70800
C  33.11900 50.43800 29.76400
C  36.48600 49.11600 30.66400
C  36.25000 48.55600 32.08100
H  34.79600 48.43600 32.59100
N  34.96300 50.76900 24.68900
C  34.52500 51.71600 25.54100
C  34.03000 52.85800 24.82300
C  34.21600 52.56100 23.44600
C  34.84300 51.25800 23.41400
C  33.44700 54.17600 25.45000
C  34.02400 53.41800 22.23600
O  34.32000 53.13500 21.07700
C  33.27400 54.74900 22.41900
N  36.10400 48.50600 23.00200
C  35.84900 49.32100 22.06000
C  36.09300 48.73700 20.63400
C  36.67900 47.42700 20.97600
C  36.58300 47.32500 22.50600
C  34.92700 48.63000 19.60100
C  38.19200 47.25800 20.52100
C  39.33000 47.71200 21.36000
N  36.51600 47.09000 25.58600
C  37.05600 46.14500 24.72500
C  37.35200 44.94200 25.53300
C  37.11300 45.32500 26.81600
C  36.59600 46.59200 26.80300
C  37.94500 43.68600 25.14400
C  37.08100 44.84500 28.22300
O  37.31200 43.75800 28.74500
C  36.63700 46.07600 29.07100
C  35.40400 45.65300 29.86700
O  34.19200 45.76800 29.56400
O  35.84100 44.98600 30.94400
C  34.87400 44.34500 31.76600
H  34.08900 52.40300 27.45200
H  35.10300 50.99200 21.26600
H  37.63900 45.53700 22.76800
H  34.51900 48.34500 30.17700
H  35.14000 51.13200 29.57100
H  32.80600 49.46600 30.14700
H  32.48400 50.61300 28.89500
H  33.08900 51.19300 30.55000
H  36.85700 50.14100 30.67400
H  37.27900 48.49800 30.24300
H  36.78500 49.22300 32.75800
H  36.74100 47.58500 32.02200
H  32.40300 53.95500 25.22500
H  33.86700 55.05600 24.96400
H  33.60200 54.33000 26.51800
H  33.93200 55.45000 22.93300
H  32.38100 54.38000 22.92400
H  32.94500 55.28500 21.52900
H  36.96900 49.23300 20.21600
H  36.13600 46.58500 20.54700
H  35.40000 48.66500 18.62000
H  34.21200 49.45300 19.61600
H  34.41300 47.67300 19.68500
H  38.36400 47.76700 19.57300
H  38.28700 46.18300 20.37200
H  39.02600 48.04300 22.35300
H  39.69500 48.54100 20.75400
H  40.14200 46.99000 21.45200
H  37.32700 42.83500 25.43000
H  38.97300 43.51500 25.46300
H  37.98200 43.74000 24.05600
H  37.43500 46.33300 29.76700
H  35.26600 44.30600 32.78200
H  34.77900 43.27400 31.58800
H  33.87700 44.78600 31.79000

