158

Mg 0.77700 -2.51000 44.60700
C  4.04000 -1.59400 43.81600
C  -0.33100 0.30100 42.97600
C  -2.43000 -3.62800 44.97300
C  2.00600 -5.55800 45.95100
N  1.77100 -0.88000 43.49000
C  3.10600 -0.76000 43.25100
C  3.38000 0.44000 42.28200
C  2.02200 1.20900 42.26500
C  1.09500 0.17800 42.97600
C  1.93700 2.60500 42.92800
C  3.98200 0.02200 40.91900
C  5.31500 0.61600 40.44900
H  5.17700 1.56300 39.17200
N  -1.14400 -1.87400 43.99900
C  -1.34800 -0.62500 43.45200
C  -2.73500 -0.35500 43.28400
C  -3.41300 -1.47400 43.89100
C  -2.31700 -2.40300 44.32900
C  -3.27700 0.89800 42.68400
C  -4.92700 -1.73100 43.99400
O  -5.77500 -0.92900 43.53400
C  -5.46300 -2.93500 44.68600
N  -0.12800 -4.33800 45.33800
C  -1.45700 -4.57500 45.34800
C  -1.75600 -5.98300 46.05600
C  -0.34300 -6.52800 46.25900
C  0.58400 -5.41400 45.77500
C  -2.68400 -5.90300 47.27900
C  -0.07500 -7.89600 45.57500
C  0.68900 -8.94200 46.39300
N  2.64300 -3.36200 45.01700
C  2.98900 -4.62800 45.59000
C  4.48300 -4.73200 45.56800
C  4.89600 -3.51800 44.98800
C  3.75600 -2.76000 44.57600
C  5.27100 -5.93500 46.01800
C  6.05100 -2.77600 44.59800
O  7.27300 -3.01600 44.77300
C  5.53500 -1.53900 43.76400
C  6.10200 -0.23700 44.21200
O  6.92100 0.36600 43.52100
O  5.57900 0.24600 45.39600
C  6.07700 1.46500 45.96600
H  -0.74000 1.21300 42.53700
H  -3.35000 -4.13600 45.26800
H  2.27400 -6.58700 46.19700
H  4.11100 1.11700 42.72400
H  1.74800 1.35200 41.22000
H  1.59000 3.37700 42.24000
H  2.94900 2.80900 43.27900
H  1.16300 2.47500 43.68400
H  3.26400 0.23800 40.12800
H  4.08200 -1.06300 40.92400
H  5.99300 -0.15400 40.07800
H  5.76800 1.20500 41.24600
H  -4.34000 0.83400 42.45000
H  -2.73800 1.00800 41.74300
H  -3.03800 1.67300 43.41200
H  -5.00200 -2.85500 45.67000
H  -5.31000 -3.90400 44.21000
H  -6.54700 -2.83500 44.73800
H  -2.28100 -6.54700 45.28500
H  -0.17600 -6.75600 47.31100
H  -2.83700 -4.85800 47.55200
H  -2.18200 -6.24500 48.18400
H  -3.59300 -6.50000 47.20500
H  0.60700 -7.72400 44.74200
H  -0.99000 -8.45400 45.37500
H  1.69100 -9.04900 45.97700
H  0.25400 -9.94100 46.39400
H  0.68600 -8.75400 47.46700
H  4.83500 -6.31900 46.94100
H  6.27200 -5.55600 46.22500
H  5.29300 -6.72200 45.26500
H  5.85400 -1.59800 42.72400
H  6.91900 1.91000 45.43500
H  6.40800 1.16900 46.96200
H  5.22700 2.14700 46.00800
Mg 10.20300 47.11700 26.04400
C  8.09000 47.33700 28.65300
C  12.74400 48.59300 27.85300
C  12.34200 47.10900 23.23700
C  7.57400 46.72400 23.87800
N  10.42300 47.77600 28.04000
C  9.46800 47.67400 29.00000
C  10.00200 48.19600 30.36500
C  11.27900 48.97200 29.86600
C  11.51000 48.44000 28.49300
C  10.90700 50.47800 29.67000
C  10.25000 47.13400 31.44300
C  9.81800 47.35600 32.91100
H  9.76400 46.01100 33.64500
N  12.26800 47.59900 25.66100
C  13.13500 48.04200 26.61700
C  14.47600 48.09400 26.06400
C  14.42500 47.63700 24.71900
C  12.97400 47.40800 24.48500
C  15.69100 48.41900 26.80000
C  15.55700 47.39900 23.68400
O  15.33700 47.10900 22.50900
C  16.97900 47.68700 24.08200
N  10.00200 46.86000 23.90200
C  10.98700 46.80200 23.01500
C  10.48900 46.42700 21.64000
C  8.94900 46.33600 21.78800
C  8.83200 46.61800 23.28100
C  10.91600 47.24500 20.41200
C  8.29200 44.97800 21.23300
C  6.82000 45.07000 20.82100
N  8.14800 46.96300 26.21800
C  7.17700 46.77500 25.23000
C  5.87000 46.70000 25.90100
C  6.14200 46.97100 27.22200
C  7.54700 47.09200 27.37300
C  4.56600 46.32200 25.31700
C  5.61500 46.99800 28.56900
O  4.48900 46.84600 28.92900
C  6.80400 47.25300 29.54000
C  6.92300 46.03800 30.39700
O  7.44000 44.97700 30.05200
O  6.43000 46.32600 31.66700
C  6.54800 45.26600 32.68400
H  13.48600 49.15900 28.42000
H  12.83400 47.17100 22.26500
H  6.61700 46.68400 23.35400
H  9.27700 48.90800 30.75900
H  12.16300 48.71700 30.45100
H  11.32400 51.06200 30.49000
H  9.83400 50.66800 29.64400
H  11.28900 50.83100 28.71100
H  11.32100 46.99600 31.59000
H  9.86000 46.20500 31.02700
H  8.82500 47.80600 32.92600
H  10.55000 47.97500 33.43000
H  15.51100 48.39400 27.87400
H  16.21000 49.33600 26.52000
H  16.42600 47.61700 26.72200
H  17.16900 47.00300 24.91000
H  17.05300 48.70800 24.45600
H  17.59100 47.51300 23.19700
H  10.84100 45.45600 21.29200
H  8.47800 47.17000 21.26800
H  11.07800 48.20000 20.91100
H  10.07800 47.21600 19.71500
H  11.82200 46.95600 19.87800
H  8.42900 44.27500 22.05400
H  8.86200 44.66600 20.35800
H  6.34300 44.36100 21.49800
H  6.51300 44.67700 19.85200
H  6.36400 46.05400 20.93500
H  4.75600 46.06400 24.27500
H  3.94400 47.19300 25.52000
H  4.25700 45.40900 25.82700
H  6.60000 48.19000 30.05900
H  6.89200 45.93300 33.47500
H  7.23800 44.43900 32.51400
H  5.60700 44.77500 32.93200

