158

Mg 35.97000 2.34500 30.40100
C  33.55200 3.42700 32.68300
C  38.32100 2.46700 32.94900
C  38.41300 1.83200 28.02400
C  33.75300 2.85500 27.82300
N  35.89500 2.80200 32.56700
C  34.79500 3.15400 33.30300
C  35.12700 3.17000 34.79200
C  36.78900 3.05800 34.73400
C  36.99200 2.70800 33.32400
C  37.48100 4.40000 35.11200
C  34.40700 2.03100 35.49600
C  34.19900 2.13800 36.99000
H  34.87800 3.24000 37.81400
N  38.05300 2.10600 30.46500
C  38.80800 2.16800 31.61300
C  40.13500 1.63200 31.33200
C  40.21800 1.49600 29.89700
C  38.85400 1.80900 29.37700
C  41.28500 1.45300 32.34900
C  41.46200 1.14300 29.03500
O  41.37200 1.00300 27.82300
C  42.86900 1.03900 29.63300
N  36.04800 2.30400 28.24800
C  37.17000 2.15500 27.52300
C  36.86500 2.11400 26.03300
C  35.35000 2.18400 25.95800
C  35.04600 2.41000 27.48600
C  37.61900 3.19800 25.19300
C  34.56000 0.86200 25.47500
C  33.35800 1.05000 24.53300
N  33.97400 2.88300 30.23600
C  33.21700 3.06000 29.09400
C  31.95600 3.53600 29.52800
C  31.99800 3.56600 30.92900
C  33.24200 3.28500 31.29300
C  30.73600 3.61200 28.66600
C  31.26400 3.87300 32.13100
O  30.12800 4.29100 32.31100
C  32.29100 3.77600 33.36600
C  32.24600 5.00800 34.11400
O  32.37900 6.11500 33.64100
O  32.17300 4.77600 35.41900
C  31.96400 6.08900 36.14200
H  39.13900 2.21900 33.62900
H  39.19700 1.70400 27.27600
H  32.97200 2.93500 27.06400
H  34.74300 4.10100 35.20900
H  37.24800 2.20500 35.23300
H  36.72200 5.18300 35.11900
H  38.10900 4.72700 34.28400
H  38.07200 4.24600 36.01600
H  35.00100 1.11700 35.45000
H  33.50600 1.74500 34.95400
H  34.63900 1.30800 37.54300
H  33.13200 2.24700 37.18500
H  41.80400 0.49800 32.26100
H  40.97300 1.73900 33.35300
H  41.99700 2.20600 32.01200
H  42.84600 0.24900 30.38300
H  43.28700 1.94300 30.07600
H  43.58700 0.77900 28.85500
H  37.32300 1.17200 25.73200
H  34.88600 3.07000 25.52500
H  36.91100 3.87300 24.71300
H  38.21200 2.67900 24.44000
H  38.17100 3.90600 25.81100
H  34.08700 0.42500 26.35500
H  35.29900 0.23300 24.97800
H  33.54800 0.93700 23.46600
H  32.99800 2.07600 24.61000
H  32.51600 0.44000 24.86100
H  30.54700 2.66900 28.15200
H  30.86100 4.39900 27.92200
H  29.85500 3.81700 29.27400
H  31.85800 2.91100 33.86800
H  31.01100 6.59300 35.98400
H  32.85500 6.68600 35.94900
H  32.00700 5.90900 37.21600
Mg -9.87000 17.40000 41.03000
C  -6.43900 17.31500 41.29600
C  -9.79000 20.72900 40.34200
C  -13.16600 17.24500 40.21800
C  -9.83700 13.94900 41.37600
N  -8.25400 18.83800 40.70100
C  -6.95900 18.61300 40.95100
C  -6.19800 19.91700 40.66700
C  -7.25600 21.05500 40.85500
C  -8.55500 20.19700 40.68300
C  -7.18500 21.80100 42.22600
C  -5.56200 19.92600 39.29300
C  -4.08100 19.78900 39.08300
H  -3.42900 18.68100 38.22700
N  -11.26600 18.79900 40.33600
C  -11.06000 20.14000 40.14500
C  -12.26500 20.80900 39.66000
C  -13.28500 19.79700 39.59700
C  -12.61700 18.54300 40.10900
C  -12.26300 22.25300 39.21600
C  -14.76200 20.01400 39.08700
O  -15.10100 21.10500 38.57200
C  -15.81200 18.89500 38.89400
N  -11.30200 15.72900 40.55000
C  -12.57100 15.95300 40.38900
C  -13.41700 14.64400 40.45600
C  -12.31100 13.60800 41.03300
C  -10.99700 14.45100 40.88800
C  -14.75400 14.66800 41.28600
C  -12.28400 12.20900 40.21100
C  -12.51300 10.99700 41.14900
N  -8.42500 15.84300 41.22100
C  -8.57200 14.51300 41.29400
C  -7.34600 13.87400 41.28800
C  -6.47100 14.94300 41.45700
C  -7.16500 16.12600 41.27100
C  -7.02900 12.34700 41.30400
C  -5.10600 15.29000 41.58000
O  -4.06300 14.60000 41.67000
C  -5.00400 16.86400 41.43700
C  -4.39200 17.53200 42.65800
O  -3.45000 18.29300 42.57500
O  -5.17500 17.23300 43.76600
C  -4.57300 17.96300 44.87300
H  -9.75800 21.78600 40.07000
H  -14.24700 17.32200 40.08400
H  -9.75100 12.87000 41.52100
H  -5.45300 20.03300 41.45400
H  -7.31700 21.77800 40.04100
H  -6.96800 21.16100 43.08200
H  -8.05400 22.40400 42.48600
H  -6.47500 22.59200 41.98800
H  -5.91700 20.85500 38.84800
H  -6.08400 19.10000 38.80800
H  -3.68900 19.75500 40.09900
H  -3.72300 20.67600 38.56000
H  -13.30300 22.57900 39.20500
H  -11.76500 22.29200 38.24700
H  -11.73100 22.80700 39.98900
H  -15.36300 18.18600 38.19900
H  -16.72300 19.33300 38.48500
H  -16.07900 18.39000 39.82200
H  -13.75300 14.29100 39.48100
H  -12.46300 13.43700 42.09900
H  -14.77900 13.94500 42.10100
H  -15.55300 14.36200 40.61100
H  -14.94500 15.59400 41.82800
H  -11.34900 12.19600 39.65100
H  -13.07700 12.24000 39.46300
H  -12.13600 10.19500 40.51400
H  -13.59000 10.87300 41.26100
H  -11.96400 11.10200 42.08400
H  -7.25800 11.98400 42.30700
H  -5.99100 12.06100 41.13500
H  -7.73900 11.75100 40.73100
H  -4.32400 17.09500 40.61800
H  -3.76800 17.40400 45.35200
H  -5.30900 17.94500 45.67700
H  -4.38500 19.02600 44.72300

