158

Mg 1.70500 -2.13800 43.76100
C  5.26800 -1.44800 43.92600
C  1.37800 0.77900 42.06100
C  -1.28900 -3.17600 43.08800
C  2.47800 -5.14600 45.42800
N  3.25500 -0.51400 43.05500
C  4.59000 -0.46800 43.19500
C  5.13500 0.73800 42.34700
C  3.83100 1.65000 42.18500
C  2.76500 0.54000 42.28300
C  3.62200 2.79900 43.27800
C  5.92400 0.37700 41.07900
C  5.24000 -0.48200 39.98700
H  4.92800 0.19900 38.70700
N  0.17400 -1.24100 42.88700
C  0.20700 -0.06200 42.23100
C  -1.05800 0.24300 41.76000
C  -1.92600 -0.86000 41.99600
C  -1.00600 -1.82400 42.64400
C  -1.41600 1.64200 41.18100
C  -3.40500 -1.05100 41.75600
O  -4.08600 -0.16800 41.26900
C  -4.22300 -2.20600 42.13800
N  0.77800 -3.90300 44.19100
C  -0.50100 -4.12700 43.79300
C  -1.02200 -5.49000 44.18600
C  0.13700 -6.08600 45.04200
C  1.22400 -5.00400 44.80600
C  -2.36800 -5.49300 44.88300
C  0.50500 -7.55400 44.55200
C  -0.00300 -8.68900 45.48200
N  3.47200 -3.16300 44.44900
C  3.61400 -4.35800 45.21800
C  5.01600 -4.65300 45.51800
C  5.64500 -3.48500 44.99800
C  4.68300 -2.61400 44.43000
C  5.56700 -5.83000 46.30600
C  6.91100 -2.82500 44.92000
O  8.00400 -3.25100 45.36000
C  6.79000 -1.50700 44.25600
C  7.22600 -0.35900 45.12100
O  6.58300 0.33300 45.91400
O  8.43800 0.01100 44.65800
C  8.96800 1.39500 44.79900
H  1.17100 1.75600 41.62100
H  -2.27200 -3.53800 42.78000
H  2.60600 -6.05300 46.02200
H  5.95200 1.17400 42.92200
H  3.90200 2.10600 41.19700
H  3.25000 3.74600 42.88700
H  4.42700 3.00400 43.98400
H  2.85300 2.35900 43.91300
H  6.83500 -0.16100 41.34300
H  6.21700 1.35400 40.69500
H  4.24100 -0.63700 40.39400
H  5.84800 -1.38300 39.90200
H  -0.78200 1.84900 40.31900
H  -1.41900 2.32000 42.03400
H  -2.42400 1.59500 40.77000
H  -5.29500 -2.06900 41.99500
H  -4.13300 -2.46600 43.19200
H  -3.77700 -2.93000 41.45600
H  -1.16600 -6.15600 43.33600
H  -0.02700 -5.98100 46.11400
H  -2.65600 -4.44600 44.97400
H  -2.23500 -6.02200 45.82800
H  -3.15700 -5.89900 44.25000
H  1.57900 -7.71600 44.46300
H  0.17000 -7.95800 43.59700
H  -0.73600 -8.31500 46.19700
H  0.90300 -9.05200 45.96800
H  -0.45000 -9.48700 44.88900
H  5.73500 -6.70100 45.67400
H  4.98400 -6.07500 47.19400
H  6.53100 -5.55400 46.73600
H  7.38300 -1.51600 43.34100
H  8.35800 1.88700 45.55600
H  8.80600 1.87900 43.83600
H  10.03300 1.48200 45.01500
Mg 10.02800 48.35700 26.31100
C  8.05400 47.89100 29.25700
C  12.69000 49.20100 28.44300
C  11.84900 48.75800 23.61800
C  7.14700 47.93000 24.49600
N  10.34000 48.35600 28.56500
C  9.40700 48.20500 29.62900
C  9.99300 48.52700 30.99800
C  11.46600 48.91300 30.68400
C  11.50100 48.87200 29.10700
C  11.92900 50.20300 31.30800
C  9.85800 47.39000 32.03800
C  11.02000 47.17000 33.04900
H  10.62200 46.67000 34.49300
N  11.98000 48.91600 26.08600
C  12.92800 49.06200 27.04000
C  14.23300 49.36600 26.39100
C  14.03100 49.33500 25.01400
C  12.56800 48.96400 24.83800
C  15.55400 49.73200 27.04200
C  14.95100 49.68600 23.85600
O  14.62700 49.67200 22.66200
C  16.40700 49.98900 24.12300
N  9.51900 48.49500 24.29400
C  10.49000 48.44900 23.34200
C  10.00200 48.15400 21.90400
C  8.48100 47.75000 22.32200
C  8.32300 48.23100 23.79100
C  10.09400 49.37800 20.87800
C  8.14600 46.22300 22.05200
C  8.71100 45.20600 23.03600
N  8.01700 47.96400 26.78400
C  6.95000 47.81400 25.86700
C  5.73600 47.51500 26.57600
C  6.09300 47.42400 27.96400
C  7.44800 47.81500 28.00400
C  4.37000 47.40400 25.90300
C  5.62400 47.20400 29.33100
O  4.57200 46.87800 29.73500
C  6.90000 47.42700 30.20200
C  7.28800 46.06800 30.74700
O  7.85100 45.16100 30.11900
O  6.85800 46.09400 32.02000
C  7.27700 44.93400 32.81900
H  13.57400 49.38200 29.05700
H  12.48400 48.87400 22.73700
H  6.23000 47.70700 23.94700
H  9.47100 49.36100 31.46800
H  12.14500 48.10700 30.96200
H  11.14400 50.65500 31.91400
H  12.26200 50.97400 30.61200
H  12.78700 50.01000 31.95200
H  9.79700 46.43300 31.52000
H  8.94300 47.55300 32.60700
H  11.64300 48.05900 33.14700
H  11.69100 46.39400 32.68100
H  16.39300 49.06500 26.84300
H  15.40000 49.74800 28.12000
H  15.72000 50.76700 26.74300
H  16.84900 49.14400 24.65100
H  16.47600 50.86900 24.76300
H  17.00300 50.11900 23.22000
H  10.55400 47.32400 21.46400
H  7.87900 48.36500 21.65400
H  10.48400 49.08200 19.90400
H  10.86600 50.05200 21.25000
H  9.16400 49.90100 20.65600
H  8.58600 45.89400 21.11100
H  7.07300 46.04600 21.98200
H  9.20800 45.54700 23.94400
H  9.43600 44.51500 22.60700
H  7.87700 44.54400 23.27200
H  4.27000 48.22300 25.19100
H  3.74000 47.51700 26.78500
H  4.21800 46.42300 25.45100
H  6.67300 48.18600 30.95100
H  7.72700 45.32200 33.73300
H  7.99300 44.19200 32.46600
H  6.43300 44.31600 33.12600

