158

Mg 35.79800 2.45600 29.76900
C  33.48400 3.40700 32.27100
C  38.24500 2.54300 32.18400
C  38.00900 1.73900 27.44900
C  33.26400 2.87000 27.43500
N  35.80900 2.96500 31.95500
C  34.76800 3.12700 32.80200
C  35.19100 3.13600 34.26500
C  36.71100 3.16800 34.14800
C  36.92900 2.75300 32.66600
C  37.31200 4.47300 34.59600
C  34.52700 1.92100 35.00100
C  33.81300 2.26400 36.37600
H  34.40200 3.30100 37.29600
N  37.89400 2.13800 29.84300
C  38.75600 2.21400 30.92600
C  40.07700 1.79400 30.51800
C  40.02600 1.46400 29.11000
C  38.67200 1.81800 28.71500
C  41.28300 1.80200 31.40500
C  41.19700 0.97900 28.22300
O  41.11500 0.81600 27.01900
C  42.58400 0.61000 28.76400
N  35.65800 2.43200 27.75800
C  36.69100 1.96800 26.96300
C  36.23300 1.62400 25.54200
C  34.77100 2.07300 25.48800
C  34.50700 2.46800 27.00800
C  37.12600 2.36700 24.52100
C  33.85000 1.01200 24.95500
C  32.54400 1.49500 24.22400
N  33.75700 3.05200 29.78100
C  32.87600 3.21100 28.71600
C  31.55800 3.67600 29.27300
C  31.73300 3.68900 30.69200
C  33.15200 3.41600 30.90800
C  30.34900 3.95700 28.42600
C  31.10200 3.88000 31.92300
O  29.93100 4.19500 32.14400
C  32.22200 3.70600 33.00900
C  32.30500 4.99300 33.80700
O  33.10300 5.87600 33.70700
O  31.32200 4.99200 34.80800
C  31.11900 6.01700 35.77900
H  38.98600 2.59700 32.98500
H  38.79600 1.47400 26.73900
H  32.48900 3.09100 26.69800
H  34.74500 4.03900 34.68000
H  37.14600 2.37400 34.75500
H  37.69000 4.35300 35.61100
H  36.54000 5.21000 34.37500
H  38.08200 4.73800 33.87300
H  35.30100 1.15400 35.02800
H  33.73500 1.56900 34.34100
H  33.61100 1.32900 36.89900
H  32.79500 2.48600 36.05600
H  42.22600 2.23200 31.06700
H  41.56400 0.75700 31.53700
H  41.01300 2.17800 32.39200
H  43.18000 0.14700 27.97700
H  42.56500 -0.05100 29.63100
H  43.16200 1.47500 29.08900
H  36.42000 0.58200 25.28500
H  34.70800 3.01000 24.93400
H  37.78900 1.64700 24.04200
H  37.79300 3.12500 24.93300
H  36.51400 2.71400 23.68900
H  33.56100 0.30700 25.73500
H  34.39600 0.36300 24.27000
H  32.44600 2.57700 24.31200
H  31.61100 0.94800 24.36600
H  32.74200 1.22600 23.18700
H  30.74100 4.62200 27.65700
H  29.54500 4.47600 28.94800
H  29.96500 3.11000 27.85800
H  31.95900 2.88000 33.67100
H  30.66400 5.62400 36.68800
H  30.45300 6.80400 35.42200
H  32.00100 6.49600 36.20400
Mg -1.25500 34.37400 27.13600
C  -3.17300 32.74700 29.69800
C  -0.18000 36.63500 29.50400
C  0.00600 36.11200 24.59400
C  -2.81000 32.17900 24.93800
N  -1.59300 34.60200 29.34100
C  -2.34700 33.79900 30.15200
C  -2.24300 34.26900 31.57400
C  -1.56700 35.66400 31.42900
C  -1.02300 35.63500 30.03100
C  -2.49100 36.88000 31.61400
C  -1.38200 33.38000 32.55400
C  -2.14500 32.74700 33.75400
H  -1.50400 33.03300 35.13200
N  -0.08200 36.05600 27.03700
C  0.28500 36.77300 28.12300
C  1.28800 37.73000 27.69100
C  1.39300 37.59600 26.23400
C  0.41400 36.54100 25.89500
C  1.88900 38.66800 28.76400
C  2.11700 38.50100 25.10700
O  2.01200 38.27900 23.90400
C  3.08700 39.56600 25.50800
N  -1.49300 34.29100 25.07800
C  -0.87300 35.12000 24.17200
C  -1.11800 34.70600 22.70400
C  -1.76800 33.29000 22.93800
C  -1.94800 33.14900 24.41800
C  -2.10800 35.66700 22.02100
C  -1.04700 32.05300 22.31400
C  0.21200 31.62700 23.00200
N  -2.64700 32.64300 27.26400
C  -3.17300 31.88700 26.27300
C  -4.13700 30.98000 26.83300
C  -4.08000 31.15400 28.22400
C  -3.29000 32.28000 28.38500
C  -5.09000 30.17600 26.01900
C  -4.53100 30.77100 29.52300
O  -5.21800 29.88400 29.91400
C  -3.94300 31.81400 30.55700
C  -5.16200 32.19000 31.32800
O  -5.91400 33.08600 31.02000
O  -5.31400 31.45200 32.48300
C  -6.38900 31.88300 33.38200
H  0.25200 37.26900 30.28000
H  0.33100 36.75500 23.77300
H  -3.13000 31.42300 24.21800
H  -3.23600 34.46300 31.97900
H  -0.74200 35.83000 32.12100
H  -3.42300 36.68900 32.14700
H  -2.85300 37.25500 30.65700
H  -1.97100 37.64900 32.18500
H  -0.58500 33.94500 33.03800
H  -0.92800 32.59300 31.95100
H  -2.16700 31.65800 33.77200
H  -3.16300 33.12900 33.83500
H  2.44800 39.41600 28.20200
H  2.64100 38.19700 29.39700
H  1.13100 39.21000 29.33000
H  3.66700 39.86600 24.63600
H  3.83700 39.10400 26.15000
H  2.74700 40.45100 26.04600
H  -0.13600 34.78000 22.23700
H  -2.83500 33.21400 22.72700
H  -2.31900 36.47400 22.72300
H  -3.03900 35.24200 21.64600
H  -1.73200 36.17300 21.13200
H  -0.76200 32.28800 21.28800
H  -1.63400 31.13600 22.36700
H  0.06900 30.60500 23.35100
H  0.47700 32.34200 23.78100
H  0.95200 31.53000 22.20800
H  -6.08000 30.55700 26.27000
H  -5.06600 29.12100 26.29000
H  -4.88600 30.20600 24.94800
H  -3.26300 31.37100 31.28500
H  -6.00200 32.49600 34.19600
H  -6.93600 31.06200 33.84500
H  -7.12400 32.57400 32.97100

