158

Mg 41.21800 8.46500 30.04700
C  43.07300 9.86700 32.68900
C  38.89500 7.44900 32.23500
C  39.48200 7.54700 27.49400
C  44.02700 9.26200 27.88500
N  41.05700 8.62900 32.27200
C  41.85400 9.24700 33.13500
C  41.27900 9.24200 34.60000
C  40.03600 8.32800 34.40700
C  39.93900 8.16900 32.85600
C  40.09100 7.04400 35.29000
C  41.02300 10.72000 35.06700
C  40.29500 10.67400 36.44300
H  40.86600 11.60100 37.58200
N  39.46100 7.48500 29.90500
C  38.64100 7.12900 30.94100
C  37.51600 6.37300 30.36100
C  37.53200 6.66000 28.97000
C  38.85200 7.22800 28.71400
C  36.56300 5.76100 31.23500
C  36.37400 6.57700 27.93000
O  36.46000 7.09400 26.82700
C  35.13500 5.88700 28.34400
N  41.79700 8.24500 27.99300
C  40.80400 7.92800 27.13700
C  41.33600 7.93000 25.70300
C  42.81600 8.33500 25.89500
C  42.91800 8.59200 27.35200
C  41.04800 6.62000 24.93500
C  43.12100 9.62700 25.01800
C  42.53500 10.95000 25.41700
N  43.19200 9.39200 30.12700
C  44.19800 9.63700 29.23800
C  45.16200 10.45500 29.84600
C  44.77200 10.55000 31.16300
C  43.57500 9.89200 31.31100
C  46.35400 11.08200 29.19300
C  45.12900 11.19000 32.37300
O  46.04800 11.97600 32.59300
C  44.18300 10.65300 33.43500
C  44.91300 9.89600 34.55000
O  45.67600 8.98100 34.31700
O  44.34500 10.24600 35.78300
C  44.82800 9.51300 36.90900
H  38.14800 7.12800 32.96300
H  38.91800 7.16200 26.64200
H  44.81900 9.60500 27.21600
H  41.98300 8.81000 35.31000
H  39.21300 8.89200 34.84400
H  40.70100 7.22100 36.17600
H  40.48900 6.09700 34.92700
H  39.02900 6.90100 35.49200
H  40.40400 11.29400 34.37700
H  41.98000 11.23200 35.16100
H  40.42100 9.68700 36.88800
H  39.23200 10.87000 36.30000
H  36.99600 5.69600 32.23300
H  36.27600 4.75900 30.91300
H  35.66700 6.36300 31.38500
H  35.35300 4.87500 28.68600
H  34.44700 5.79100 27.50400
H  34.69200 6.36700 29.21700
H  40.74900 8.71400 25.22400
H  43.54700 7.53200 25.80500
H  40.61700 5.86600 25.59400
H  41.88700 6.15100 24.42100
H  40.26200 6.82100 24.20600
H  42.76600 9.48800 23.99700
H  44.19500 9.81000 24.98600
H  42.09500 11.02600 26.41100
H  41.89700 11.39600 24.65500
H  43.39200 11.62400 25.40300
H  45.96200 11.65500 28.35200
H  46.94600 10.29300 28.72900
H  46.91300 11.76300 29.83500
H  43.63900 11.46500 33.91700
H  44.63900 10.27200 37.66700
H  45.91500 9.43500 36.93200
H  44.33600 8.55800 37.09200
Mg 26.70000 49.61900 25.50200
C  24.67000 50.94400 28.22900
C  29.17600 48.92100 27.80800
C  28.41800 48.45300 23.08300
C  24.35000 51.01700 23.30400
N  26.89900 49.88400 27.71300
C  25.93200 50.35300 28.64800
C  26.40500 50.16600 30.13600
C  27.95300 49.82100 29.89900
C  28.03700 49.44000 28.40700
C  28.87600 51.03000 30.23600
C  25.60800 49.13100 31.09000
C  25.27400 49.64400 32.47100
H  26.26100 50.30700 33.37100
N  28.53500 48.72400 25.50000
C  29.42100 48.54600 26.50900
C  30.57800 47.82300 26.03600
C  30.27200 47.44600 24.66300
C  28.99100 48.16700 24.33400
C  31.81900 47.44700 27.03900
C  30.86900 46.42700 23.75400
O  30.37000 46.33800 22.62700
C  31.92300 45.53900 24.11400
N  26.42400 49.78600 23.47000
C  27.31100 49.21600 22.67500
C  27.12600 49.65000 21.17000
C  25.74100 50.41100 21.21300
C  25.41700 50.39900 22.73200
C  28.25400 50.41200 20.37300
C  24.61200 49.74300 20.28900
C  23.85000 48.48000 20.75500
N  25.00400 50.78600 25.68600
C  24.07800 51.21700 24.68300
C  23.00700 51.97300 25.26600
C  23.25900 51.90400 26.63400
C  24.42500 51.17600 26.85400
C  21.81000 52.47800 24.61500
C  22.59000 52.20900 27.88500
O  21.50800 52.68600 28.10100
C  23.60900 51.75000 28.96600
C  24.19700 52.90300 29.75100
O  25.14800 53.55800 29.40300
O  23.59900 53.15100 30.88000
C  24.12900 54.21500 31.73300
H  29.93300 48.62500 28.53800
H  28.94900 48.23600 22.15500
H  23.64700 51.41600 22.57000
H  26.19900 51.11400 30.63300
H  28.18000 49.12300 30.70400
H  29.76000 51.16800 29.61400
H  29.08200 50.78400 31.27800
H  28.30700 51.95900 30.20600
H  26.25100 48.26400 31.24200
H  24.85300 48.65100 30.46700
H  24.97600 48.69300 32.91200
H  24.38000 50.26800 32.48900
H  31.91200 48.19600 27.82500
H  32.74700 47.45100 26.46700
H  31.86600 46.46100 27.50200
H  31.69300 44.62900 23.55900
H  31.85700 45.33800 25.18300
H  32.85600 45.98900 23.77600
H  27.20600 48.69300 20.65600
H  25.84500 51.42800 20.83400
H  27.93400 50.69000 19.36800
H  29.20800 49.88800 20.33700
H  28.52700 51.32100 20.90900
H  25.19100 49.46700 19.40700
H  23.97600 50.59100 20.03300
H  23.99300 47.75300 19.95600
H  22.81100 48.76300 20.92100
H  24.18400 47.95400 21.65000
H  21.88100 53.44000 24.10700
H  20.95700 52.54200 25.29000
H  21.33000 51.80900 23.90100
H  23.12600 51.16800 29.75200
H  24.04200 55.15000 31.18000
H  25.12200 53.89300 32.04900
H  23.53800 54.15700 32.64700

