158

Mg -2.30200 17.74000 27.74000
C  -2.40400 15.73700 30.56100
C  -2.93100 20.48600 29.73700
C  -2.25400 19.49300 24.98100
C  -2.48300 14.74000 25.77500
N  -2.67200 18.04000 29.94200
C  -2.48700 17.09700 30.95900
C  -2.68500 17.76700 32.36200
C  -3.05000 19.23300 32.02000
C  -2.86700 19.28800 30.48600
C  -4.33900 19.87200 32.54900
C  -1.73000 17.39100 33.47600
C  -1.55500 18.36300 34.68600
H  -1.18700 17.74600 36.06000
N  -2.32500 19.69400 27.39000
C  -2.58100 20.67300 28.33900
C  -2.51600 21.91900 27.67800
C  -2.30500 21.73500 26.28400
C  -2.31700 20.25100 26.16700
C  -2.83100 23.25700 28.37900
C  -2.10800 22.69200 25.14400
O  -1.88000 22.26300 23.97100
C  -2.06400 24.12500 25.40500
N  -2.30200 17.17100 25.66000
C  -2.26100 18.09700 24.70500
C  -2.39800 17.49900 23.30700
C  -2.22100 15.99600 23.67100
C  -2.44500 15.94600 25.13600
C  -3.70600 17.75200 22.56500
C  -0.88800 15.38900 23.10900
C  0.39400 15.92600 23.85900
N  -2.40900 15.65000 28.01000
C  -2.47300 14.58300 27.15700
C  -2.55400 13.36700 27.83300
C  -2.50000 13.73100 29.17600
C  -2.41700 15.18000 29.26100
C  -2.83100 12.03700 27.30100
C  -2.45300 13.27000 30.58900
O  -2.43900 12.13900 31.02900
C  -2.33500 14.57700 31.51100
C  -1.04000 14.51900 32.30000
O  -0.02700 15.07900 31.94000
O  -1.23500 14.00800 33.54300
C  -0.06900 14.00300 34.38800
H  -3.20800 21.36700 30.32000
H  -2.04400 20.06200 24.07300
H  -2.51100 13.83100 25.17000
H  -3.65800 17.33600 32.60000
H  -2.23700 19.85100 32.40100
H  -5.11700 20.07100 31.81200
H  -4.03300 20.86200 32.88800
H  -4.67800 19.11300 33.25400
H  -0.80600 17.54900 32.92000
H  -1.85600 16.35100 33.78000
H  -2.44600 18.99100 34.68900
H  -0.73700 19.04700 34.46100
H  -1.87400 23.60500 28.76900
H  -3.46600 23.11600 29.25400
H  -3.31400 23.95200 27.69200
H  -3.07100 24.51300 25.56500
H  -1.64000 24.60500 24.52400
H  -1.38400 24.36500 26.22200
H  -1.58600 17.83600 22.66200
H  -3.03700 15.36300 23.32200
H  -3.49800 18.57500 21.88100
H  -4.53100 18.11500 23.17900
H  -4.05900 16.89900 21.98500
H  -0.73800 15.73400 22.08600
H  -0.94500 14.30200 23.16000
H  1.07400 15.07400 23.86700
H  0.22600 16.21500 24.89600
H  0.78900 16.71200 23.21500
H  -3.59400 12.10100 26.52500
H  -3.27200 11.44500 28.10200
H  -1.96000 11.62600 26.78900
H  -3.20100 14.63600 32.16900
H  0.44500 14.95600 34.51100
H  0.68800 13.32900 33.98800
H  -0.48900 13.46300 35.23600
Mg 55.39900 25.74300 44.62100
C  52.35600 27.35300 43.76900
C  53.98700 22.86300 43.66300
C  58.38700 24.48800 44.59300
C  56.62200 28.96900 45.72900
N  53.41500 25.20700 43.38000
C  52.28600 25.98300 43.43100
C  51.12000 25.14200 42.96700
C  51.60300 23.72600 43.50500
C  53.14400 23.93600 43.46300
C  51.15000 23.40200 45.00300
C  50.57700 25.17000 41.51700
C  49.11100 24.73600 41.39400
H  48.72000 23.73300 40.25600
N  56.12700 23.83300 44.16900
C  55.33700 22.82000 43.77800
C  56.17100 21.66800 43.78100
C  57.48500 22.08100 44.12200
C  57.43500 23.53900 44.31300
C  55.61200 20.26400 43.46300
C  58.62000 21.12700 44.07000
O  58.43000 19.90800 43.73400
C  60.05700 21.65500 44.22900
N  57.14900 26.59600 45.11300
C  58.28100 25.80700 45.03500
C  59.58400 26.72400 45.33500
C  58.97400 28.05200 45.85800
C  57.49700 27.85200 45.52600
C  60.58400 26.12800 46.38600
C  59.69600 29.35000 45.32000
C  59.09800 30.06200 44.08100
N  54.69100 27.75800 44.80300
C  55.23500 28.87200 45.42600
C  54.19600 29.90700 45.49100
C  53.09000 29.38200 44.84700
C  53.40000 28.00600 44.47400
C  54.30300 31.24700 46.04400
C  51.77600 29.67800 44.37000
O  51.21200 30.70600 44.51000
C  51.24500 28.42300 43.63100
C  51.06800 28.75500 42.19900
O  51.94600 29.17900 41.47100
O  49.79400 28.50900 41.86100
C  49.47500 29.09500 40.55600
H  53.56700 21.85700 43.60600
H  59.38600 24.04700 44.59700
H  57.07300 29.90200 46.07200
H  50.25800 25.46200 43.55200
H  51.24100 22.91000 42.87900
H  52.03200 23.29700 45.63400
H  50.67400 22.43500 44.84200
H  50.39100 24.12100 45.31200
H  51.15300 24.47900 40.90100
H  50.71500 26.20900 41.21900
H  48.59300 25.66600 41.15800
H  48.71700 24.34100 42.33000
H  55.63100 20.13600 42.38100
H  54.55800 20.20200 43.73500
H  56.09000 19.43500 43.98500
H  60.37300 22.38500 43.48400
H  60.80300 20.86000 44.21500
H  60.16100 22.15400 45.19200
H  59.98100 26.83200 44.32500
H  59.09300 27.99500 46.94000
H  60.86200 26.76900 47.22200
H  61.46500 25.70700 45.90200
H  60.01800 25.34400 46.88700
H  60.73000 29.05400 45.14600
H  59.69200 30.10200 46.11000
H  59.99600 30.22100 43.48300
H  58.55700 30.94800 44.41100
H  58.35200 29.42300 43.61000
H  53.68000 31.29700 46.93700
H  53.96600 31.99200 45.32400
H  55.32000 31.50200 46.34100
H  50.39800 28.03500 44.19600
H  50.15400 29.84600 40.15200
H  48.42400 29.38200 40.61200
H  49.45300 28.33600 39.77400

