158

Mg 47.57400 25.53700 28.28400
C  48.49100 27.87100 30.74900
C  46.78000 23.33200 30.78600
C  46.98600 23.17600 25.91800
C  48.88700 27.80600 25.77600
N  47.75600 25.53600 30.47700
C  48.09000 26.60600 31.30600
C  47.71200 26.45500 32.75300
C  47.41000 24.91300 32.75200
C  47.24700 24.56400 31.26400
C  48.52000 24.05700 33.36800
C  46.38100 27.24400 33.08500
C  46.47600 28.14700 34.34400
H  45.56000 27.71700 35.45700
N  47.08700 23.48800 28.33300
C  46.72600 22.83600 29.51200
C  46.27300 21.49600 29.16100
C  46.24000 21.44300 27.72100
C  46.86000 22.72500 27.24700
C  45.87500 20.50200 30.22500
C  45.67800 20.30900 26.80400
O  45.73100 20.39100 25.61900
C  45.13000 19.04900 27.40300
N  48.06300 25.44400 26.13000
C  47.60500 24.35000 25.40400
C  47.94100 24.51400 23.91000
C  48.43000 26.03300 23.92000
C  48.48200 26.51800 25.36800
C  49.01600 23.57600 23.39200
C  47.47600 26.95900 23.05700
C  48.17600 27.80800 22.02800
N  48.40400 27.38400 28.19100
C  48.96800 28.13000 27.13300
C  49.56300 29.35000 27.65500
C  49.37600 29.25200 29.12700
C  48.64200 28.06100 29.36400
C  50.36200 30.44700 26.86000
C  49.66500 29.99500 30.34000
O  50.24000 31.06400 30.40300
C  49.06100 29.12500 31.49100
C  50.15000 28.78900 32.43600
O  51.13600 28.09500 32.18300
O  49.78200 29.31700 33.67900
C  50.64600 29.04700 34.79000
H  46.33300 22.75900 31.60100
H  46.80600 22.48100 25.09600
H  49.29300 28.55400 25.09300
H  48.60100 26.64100 33.35600
H  46.49200 24.60700 33.25500
H  48.05000 23.16000 33.77100
H  49.10100 24.58200 34.12500
H  49.30300 23.71100 32.69300
H  45.64200 26.45000 33.19000
H  46.06700 27.75900 32.17700
H  46.28200 29.15900 33.99000
H  47.48500 28.21000 34.75200
H  46.38200 19.58000 29.93900
H  44.84400 20.17300 30.09100
H  46.03200 20.75200 31.27400
H  44.39800 19.19700 28.19600
H  46.02800 18.58800 27.81300
H  44.71100 18.46900 26.58000
H  46.97200 24.25200 23.48400
H  49.44000 26.03800 23.51000
H  48.49200 22.85900 22.76100
H  49.36800 23.03200 24.26900
H  49.81700 24.13500 22.90700
H  46.97700 27.62000 23.76600
H  46.69400 26.40700 22.53500
H  49.25800 27.76100 22.15000
H  47.75800 28.81400 22.06400
H  47.92700 27.37800 21.05800
H  49.84900 30.85200 25.98800
H  51.39500 30.17500 26.64500
H  50.37500 31.20700 27.64200
H  48.29600 29.78200 31.90400
H  50.24300 28.14400 35.25000
H  50.54100 29.81700 35.55400
H  51.68400 28.78000 34.59400
Mg 36.45500 49.08200 24.61200
C  36.50700 47.40300 27.68600
C  35.27100 51.91300 26.12900
C  36.06300 50.60500 21.54500
C  37.69800 46.18100 23.11600
N  36.00200 49.64200 26.68300
C  36.06800 48.75300 27.82700
C  35.74500 49.57600 29.07200
C  35.40900 51.00100 28.49100
C  35.56300 50.82700 26.99200
C  34.11600 51.64700 29.08600
C  36.67700 49.50400 30.28800
C  35.98200 49.10500 31.63100
H  34.53200 49.31300 31.83700
N  35.88400 50.99800 23.90200
C  35.39000 52.00800 24.76200
C  35.09100 53.16100 23.98400
C  35.20400 52.74100 22.57100
C  35.74400 51.45400 22.62900
C  34.24300 54.30400 24.49600
C  34.78800 53.40600 21.26300
O  34.76900 52.90100 20.15700
C  34.41400 54.92800 21.30900
N  36.89600 48.46300 22.62400
C  36.56300 49.25100 21.53200
C  36.81800 48.50800 20.23100
C  37.53000 47.22100 20.74000
C  37.44100 47.24100 22.22600
C  35.49700 48.33200 19.28800
C  38.83400 46.82500 20.05600
C  40.05700 46.96000 20.90000
N  36.81500 47.02900 25.22200
C  37.40400 46.02300 24.47300
C  37.56700 44.87200 25.37600
C  37.24100 45.41000 26.65600
C  36.81700 46.76800 26.48100
C  38.04600 43.49800 25.04500
C  37.08500 45.07600 28.00300
O  37.32000 43.99500 28.56700
C  36.68100 46.30700 28.77500
C  35.37200 46.00200 29.51500
O  34.27100 46.37500 29.14100
O  35.57700 45.12500 30.55000
C  34.44500 44.48400 31.10300
H  35.02000 52.80200 26.71100
H  36.02200 50.99300 20.52500
H  38.14000 45.32600 22.60000
H  34.78600 49.12100 29.32000
H  36.22500 51.66300 28.78000
H  33.67500 51.07000 29.89900
H  33.35500 51.67000 28.30600
H  34.37100 52.66300 29.38700
H  37.06000 50.52400 30.29500
H  37.39600 48.69900 30.13800
H  36.47100 49.74100 32.36900
H  36.07200 48.02500 31.74200
H  34.09800 55.17400 23.85600
H  34.65700 54.73800 25.40600
H  33.34900 53.80900 24.87300
H  35.04500 55.47300 22.01200
H  33.36800 54.87400 21.60900
H  34.35600 55.30300 20.28800
H  37.48900 49.17200 19.68500
H  36.98500 46.30900 20.49600
H  35.22000 47.30400 19.05200
H  35.94300 48.60500 18.33200
H  34.59800 48.89300 19.54200
H  38.88800 47.45700 19.16900
H  38.78900 45.86500 19.54200
H  40.95800 47.07200 20.29700
H  40.21500 46.08400 21.52900
H  39.98400 47.86800 21.49900
H  38.91700 43.39000 24.39900
H  37.16700 42.97600 24.66700
H  38.24400 42.97400 25.98000
H  37.36400 46.56500 29.58400
H  33.98700 45.10500 31.87200
H  34.79600 43.57000 31.58300
H  33.66100 44.12600 30.43500

