158

Mg 0.05700 7.45100 26.21100
C  0.64000 9.78400 28.90800
C  -0.42700 5.07300 28.49500
C  -0.14100 5.28000 23.72700
C  0.82200 10.03700 23.90200
N  -0.01300 7.46800 28.46800
C  0.20600 8.51300 29.37400
C  0.03900 7.96900 30.84400
C  0.10100 6.45600 30.56800
C  -0.15300 6.29700 29.12100
C  1.48000 5.82100 31.00700
C  -1.23500 8.50400 31.35200
C  -1.11500 8.93400 32.75300
H  -0.24100 8.04300 33.72100
N  -0.34500 5.47500 26.14200
C  -0.56400 4.63300 27.19600
C  -0.91500 3.33700 26.65700
C  -0.97100 3.44300 25.21400
C  -0.40200 4.76300 24.99100
C  -1.09300 2.10600 27.61200
C  -1.49300 2.46500 24.10500
O  -1.49100 2.63500 22.87200
C  -1.96100 1.05600 24.62300
N  0.21300 7.71400 24.09100
C  0.07700 6.65600 23.26000
C  0.04400 7.02200 21.84300
C  0.37300 8.53500 21.88700
C  0.37700 8.85200 23.40500
C  0.88600 6.26700 20.72700
C  -0.59800 9.41900 21.14400
C  -0.11400 10.28900 19.98000
N  0.71200 9.47700 26.34100
C  1.06500 10.37800 25.30200
C  1.50000 11.62200 25.97400
C  1.25500 11.45400 27.37300
C  0.78500 10.13000 27.53500
C  2.02400 12.84600 25.35300
C  1.29800 12.14500 28.66100
O  1.58500 13.31000 28.89000
C  0.86400 11.03600 29.71900
C  1.92000 10.93100 30.80000
O  2.94100 10.28100 30.71800
O  1.59000 11.72200 31.83400
C  2.62600 11.93200 32.88700
H  -0.52400 4.32000 29.27900
H  -0.21200 4.63500 22.84800
H  1.11500 10.79200 23.17000
H  0.89000 8.30200 31.43900
H  -0.64800 5.91000 31.14000
H  1.11700 5.08600 31.72400
H  2.09300 6.62500 31.41500
H  1.89800 5.37800 30.10300
H  -1.91200 7.65000 31.31800
H  -1.57100 9.26900 30.65300
H  -2.07800 8.72100 33.21700
H  -0.93900 10.00900 32.76000
H  -2.00700 1.65000 27.23100
H  -1.20400 2.57000 28.59200
H  -0.26300 1.40400 27.53600
H  -2.48400 0.61000 23.77700
H  -2.77700 1.22400 25.32600
H  -1.08800 0.55100 25.03700
H  -1.00500 6.82600 21.62500
H  1.42300 8.65600 21.62000
H  0.18300 5.68500 20.13100
H  1.58700 5.58400 21.20700
H  1.47900 6.95500 20.12600
H  -0.92900 10.15600 21.87500
H  -1.52000 8.93900 20.81700
H  -0.89300 10.37600 19.22300
H  0.90000 10.07400 19.64300
H  -0.02700 11.30500 20.36600
H  2.79700 12.55700 24.64100
H  2.37000 13.58400 26.07600
H  1.23400 13.32700 24.77700
H  -0.03700 11.28500 30.28000
H  2.57700 11.11900 33.61100
H  2.36500 12.84300 33.42400
H  3.66600 12.05200 32.58500
Mg 48.33000 34.74500 27.58400
C  46.42300 33.39000 30.34500
C  49.07200 37.52900 29.77100
C  49.29800 36.52600 24.98100
C  47.22800 32.16100 25.74900
N  47.72000 35.35600 29.78000
C  47.10600 34.55900 30.69600
C  47.24000 35.07500 32.11400
C  47.82700 36.48900 31.85600
C  48.27400 36.48400 30.37400
C  46.88900 37.66100 32.16400
C  48.18800 34.04200 32.84400
C  47.99900 33.91300 34.31600
H  47.60900 35.12300 35.20900
N  49.23600 36.71100 27.49300
C  49.46900 37.68000 28.40200
C  50.23300 38.79300 27.78700
C  50.22800 38.49800 26.41700
C  49.62900 37.23200 26.24200
C  50.77100 39.97700 28.52500
C  50.75800 39.39000 25.24800
O  50.65000 39.04700 24.07400
C  51.45400 40.74700 25.49500
N  48.42400 34.33900 25.61700
C  48.83100 35.21200 24.66100
C  48.56500 34.66000 23.29600
C  48.20200 33.20600 23.61500
C  47.94900 33.20900 25.11700
C  47.57500 35.48300 22.44300
C  49.23300 32.20800 23.07800
C  50.53200 31.99400 23.88300
N  47.14900 33.06500 27.90100
C  46.76600 32.05900 27.08800
C  45.97400 31.05400 27.70000
C  45.73500 31.62100 28.97500
C  46.55300 32.73900 29.07100
C  45.51900 29.81300 27.01900
C  44.93400 31.39200 30.20200
O  44.20200 30.50000 30.53700
C  45.21800 32.65200 31.05300
C  45.59100 32.26000 32.47900
O  46.34400 31.36100 32.88900
O  44.75600 32.95100 33.28000
C  44.51100 32.45100 34.69700
H  49.42300 38.34700 30.40400
H  49.36900 37.08200 24.04400
H  46.92400 31.35800 25.07400
H  46.29900 35.07900 32.66500
H  48.73200 36.63300 32.44700
H  45.94400 37.31800 32.58500
H  46.62800 38.06900 31.18800
H  47.34200 38.47400 32.73100
H  49.21200 34.40500 32.76100
H  48.09600 33.07800 32.34300
H  48.91300 33.49600 34.73900
H  47.25400 33.12200 34.40000
H  51.82700 39.81300 28.74200
H  50.29100 39.93500 29.50200
H  50.58700 41.00300 28.20500
H  50.71200 41.42700 25.91300
H  51.83600 41.15500 24.55900
H  52.29600 40.68800 26.18500
H  49.45600 34.69800 22.66800
H  47.20600 32.99900 23.22400
H  47.01400 36.11700 23.12900
H  46.92700 34.84900 21.83700
H  48.17000 36.07700 21.74800
H  49.52000 32.42800 22.05000
H  48.67400 31.27300 23.04600
H  51.40100 32.06700 23.22900
H  50.49300 31.03200 24.39500
H  50.71700 32.78000 24.61500
H  46.34000 29.44100 26.40700
H  44.63300 30.02600 26.42100
H  45.25100 29.05400 27.75500
H  44.38300 33.34800 30.97100
H  43.43700 32.27000 34.73600
H  44.79100 33.22000 35.41700
H  44.91600 31.46800 34.93700

