158

Mg 9.07100 4.00100 27.93400
C  10.04200 2.26800 30.88900
C  7.48100 6.37800 29.99500
C  7.48900 5.20700 25.17900
C  10.28300 1.20700 25.99600
N  8.81000 4.29000 30.19500
C  9.34400 3.44900 31.16400
C  9.07200 4.04000 32.59500
C  8.05300 5.15800 32.29800
C  8.17000 5.30700 30.69300
C  6.65900 4.98200 32.88600
C  10.35900 4.44800 33.42000
C  10.08100 4.66900 34.87100
H  10.61100 3.65200 35.93800
N  7.87000 5.72800 27.58900
C  7.36100 6.55300 28.55800
C  6.54900 7.57800 27.86900
C  6.48900 7.24500 26.50300
C  7.30900 5.98600 26.36200
C  5.86700 8.72600 28.57100
C  5.85400 8.06400 25.35500
O  5.91400 7.65100 24.20100
C  5.16200 9.35200 25.65600
N  8.91400 3.27400 25.84800
C  8.25700 4.01100 24.97600
C  8.41500 3.42000 23.56500
C  9.49500 2.33300 23.76500
C  9.51200 2.19800 25.30300
C  7.04900 2.85100 23.01100
C  10.95000 2.70400 23.22200
C  11.62200 1.58000 22.49400
N  10.10300 2.24000 28.27400
C  10.52500 1.26100 27.40000
C  11.31000 0.30800 28.24000
C  11.11400 0.63300 29.58600
C  10.36900 1.83300 29.55800
C  12.15800 -0.84300 27.76300
C  11.50300 0.31100 30.98600
O  12.16300 -0.59700 31.46300
C  10.77700 1.32000 31.85100
C  10.07100 0.49500 32.77900
O  8.95100 0.07000 32.58300
O  10.76200 0.49800 34.01200
C  9.94200 -0.11400 35.12600
H  6.92400 7.04000 30.66200
H  6.88700 5.58100 24.34800
H  10.74400 0.32200 25.55100
H  8.46800 3.23000 33.00500
H  8.36600 6.08000 32.78600
H  6.50300 5.89500 33.46100
H  6.46200 4.13500 33.54200
H  5.84900 4.89400 32.16200
H  10.64500 5.40900 32.99100
H  11.20400 3.76000 33.43700
H  9.01100 4.74300 35.06600
H  10.52600 5.61600 35.17600
H  6.33700 9.70500 28.66500
H  5.91700 8.58400 29.65100
H  4.84900 8.70900 28.18100
H  5.77800 10.00600 26.27300
H  4.34600 8.94300 26.25100
H  4.80700 9.93600 24.80700
H  8.84900 4.17600 22.91100
H  9.06700 1.38400 23.44200
H  7.14500 1.79900 22.74100
H  6.75000 3.41900 22.13000
H  6.24700 2.97800 23.73800
H  11.50500 3.09800 24.07400
H  10.80600 3.50300 22.49400
H  11.58800 1.74200 21.41600
H  11.21500 0.59600 22.72800
H  12.67800 1.41300 22.70900
H  12.71300 -0.61500 26.85300
H  11.46800 -1.68000 27.65500
H  12.82900 -1.14000 28.56900
H  11.56900 1.84400 32.38600
H  9.85300 -1.17400 34.88800
H  8.90200 0.20400 35.19100
H  10.48400 -0.04600 36.06900
Mg 24.45900 -7.57800 46.11500
C  26.63500 -5.12700 44.66500
C  21.95100 -6.27400 44.24500
C  22.76300 -10.36600 46.68000
C  27.42300 -9.02400 47.45400
N  24.38600 -5.88600 44.61200
C  25.36200 -5.01700 44.22400
C  24.82600 -4.06200 43.12400
C  23.24800 -4.34100 43.27600
C  23.13000 -5.51500 44.18900
C  22.49400 -3.08800 43.84500
C  25.46300 -4.24800 41.72900
C  26.04500 -3.01800 40.95900
H  25.57800 -2.98800 39.43900
N  22.54500 -8.19300 45.67800
C  21.66200 -7.48200 44.83100
C  20.46700 -8.26000 44.77000
C  20.61900 -9.44500 45.50500
C  22.00400 -9.35800 45.96500
C  19.27600 -7.85800 43.91500
C  19.49600 -10.47400 45.77900
O  18.33800 -10.35300 45.33400
C  19.77600 -11.64900 46.67800
N  24.96900 -9.40200 47.08500
C  24.07100 -10.43700 47.08300
C  24.73500 -11.70600 47.59100
C  26.24000 -11.30800 47.90800
C  26.28700 -9.76500 47.56300
C  24.04900 -12.34900 48.84200
C  27.33700 -12.12100 47.07000
C  28.61700 -12.44600 47.81700
N  26.57300 -7.03000 46.36400
C  27.62400 -7.77700 46.82900
C  28.84900 -7.01400 46.72200
C  28.52200 -5.91500 45.93300
C  27.15400 -6.04300 45.62100
C  30.15300 -7.45000 47.27700
C  28.98200 -4.74200 45.24500
O  30.07300 -4.14200 45.19200
C  27.75500 -4.19700 44.34900
C  27.41400 -2.71300 44.54700
O  27.41500 -1.86300 43.69100
O  27.15200 -2.46100 45.88200
C  26.63300 -1.14200 46.16100
H  21.15300 -5.78500 43.68300
H  22.30500 -11.35600 46.73900
H  28.27700 -9.54600 47.89000
H  25.06000 -3.05000 43.45300
H  22.78300 -4.58500 42.32100
H  21.77000 -3.50400 44.54600
H  21.91300 -2.67600 43.02000
H  23.15500 -2.35700 44.30900
H  24.79800 -4.87800 41.13800
H  26.30500 -4.91400 41.91900
H  27.12600 -3.03100 41.09600
H  25.71500 -2.09500 41.43500
H  18.39400 -8.06900 44.52000
H  19.23800 -8.55700 43.08000
H  19.38500 -6.84700 43.52400
H  20.37300 -11.37700 47.54800
H  20.35500 -12.42500 46.17800
H  18.79500 -11.99600 47.00100
H  24.70200 -12.39600 46.74800
H  26.53700 -11.46300 48.94500
H  22.98600 -12.11200 48.88800
H  24.43600 -11.88100 49.74800
H  24.34800 -13.39400 48.76800
H  27.68400 -11.54300 46.21300
H  26.88200 -13.00500 46.62200
H  29.38700 -11.79600 47.40100
H  28.97000 -13.46500 47.66200
H  28.36700 -12.23500 48.85700
H  30.67300 -8.18600 46.66300
H  29.95700 -7.86000 48.26800
H  30.81200 -6.59000 47.40200
H  27.89500 -4.20000 43.26800
H  25.81800 -0.87400 45.48800
H  27.38800 -0.36300 46.05500
H  26.25000 -1.22000 47.17800

