158

Mg 0.81100 7.56800 25.45000
C  1.15200 9.64900 28.31800
C  1.07200 4.98800 27.45900
C  0.72200 5.65500 22.65500
C  1.11900 10.49300 23.43800
N  1.16700 7.42200 27.73600
C  1.03700 8.30500 28.71600
C  1.04100 7.67500 30.09900
C  1.45200 6.20400 29.80000
C  1.20300 6.15100 28.20200
C  2.91900 5.85000 30.20900
C  -0.25000 7.83500 30.88100
C  -0.42700 7.83200 32.43900
H  0.76200 7.65300 33.39900
N  1.01000 5.59500 25.06900
C  0.99200 4.70400 26.07700
C  0.93900 3.39800 25.54800
C  0.73500 3.48000 24.14100
C  0.78200 4.98600 23.86700
C  1.31000 2.20400 26.34300
C  0.62600 2.37100 23.09000
O  0.47400 2.53100 21.87100
C  0.44800 0.95900 23.61000
N  0.90500 8.02900 23.39500
C  0.87400 7.03900 22.46100
C  0.72400 7.59200 21.07800
C  0.86600 9.18100 21.27400
C  1.02800 9.24000 22.78700
C  1.82700 7.05700 20.11800
C  -0.19100 10.03000 20.67200
C  -1.49600 10.05600 21.46300
N  1.03200 9.68700 25.77700
C  1.09300 10.69500 24.82500
C  1.16300 11.93500 25.52900
C  1.23600 11.61200 26.91000
C  1.06800 10.21200 27.02700
C  1.15600 13.26700 24.96300
C  1.39600 12.11500 28.27200
O  1.59200 13.27200 28.57100
C  1.16200 10.90400 29.24000
C  2.18800 10.67600 30.34100
O  3.24200 10.02500 30.20900
O  1.71400 11.27400 31.45700
C  2.53000 11.26800 32.76800
H  0.86400 4.08600 28.03800
H  0.67100 4.92400 21.84500
H  1.23100 11.35600 22.77800
H  1.78900 8.18800 30.70300
H  0.74200 5.56800 30.33000
H  3.59300 6.70600 30.21600
H  3.30400 5.15500 29.46300
H  3.02500 5.41900 31.20500
H  -0.96400 7.14200 30.43600
H  -0.53100 8.83300 30.54500
H  -1.14500 7.07800 32.76200
H  -0.87300 8.80100 32.66100
H  1.78000 1.43800 25.72600
H  0.50900 1.81600 26.97200
H  2.08000 2.41600 27.08500
H  1.38200 0.42600 23.79100
H  -0.16100 0.39600 22.90300
H  -0.18800 0.97100 24.49400
H  -0.19400 7.34100 20.54700
H  1.80000 9.54400 20.84400
H  2.26500 7.82500 19.48100
H  1.46900 6.30900 19.40900
H  2.62900 6.59300 20.69300
H  -0.34300 9.68700 19.64800
H  0.27000 11.00500 20.52100
H  -1.64500 9.31700 22.25000
H  -2.34300 9.97900 20.78100
H  -1.65600 11.04100 21.90300
H  0.32400 13.36500 24.26600
H  2.13600 13.46000 24.52700
H  0.79200 13.94900 25.73100
H  0.11700 10.95900 29.54400
H  3.45600 10.70400 32.65100
H  1.93700 10.92400 33.61500
H  2.82300 12.29900 32.96500
Mg 7.40600 53.98900 42.29400
C  6.68200 50.52400 41.97500
C  10.38600 53.40200 40.60100
C  7.53600 57.22400 41.83900
C  4.31400 54.28400 43.94100
N  8.39000 52.23800 41.54600
C  7.90200 50.92600 41.38100
C  8.98300 50.00700 40.71300
C  10.25300 50.88200 40.73900
C  9.68100 52.28400 41.03200
C  11.31800 50.45300 41.78600
C  8.43100 49.54900 39.30300
C  8.39900 50.49800 38.13400
H  7.40500 50.20900 37.01200
N  8.75800 55.18700 41.26200
C  9.93600 54.77500 40.65100
C  10.58400 55.93200 40.11900
C  9.79400 57.08300 40.43900
C  8.63800 56.58000 41.18300
C  11.86500 55.78100 39.24300
C  9.99800 58.55900 39.92800
O  10.93000 58.81100 39.16900
C  8.98700 59.53700 40.21900
N  6.06800 55.56300 42.80300
C  6.42400 56.85500 42.58500
C  5.33400 57.76300 43.09700
C  4.31000 56.85100 43.83300
C  4.94300 55.48100 43.58900
C  5.85100 58.95400 43.97500
C  2.82500 57.00400 43.33200
C  2.34200 56.48700 41.97000
N  5.83400 52.68800 42.94000
C  4.68200 52.95800 43.62600
C  4.03700 51.68600 43.87300
C  4.79400 50.68700 43.36200
C  5.82100 51.38400 42.69300
C  2.78900 51.44700 44.79200
C  5.01100 49.24200 43.26100
O  4.40800 48.31300 43.78100
C  6.18900 49.06100 42.28100
C  5.62700 48.47200 41.04400
O  4.99500 49.04900 40.21100
O  5.98100 47.07900 41.07300
C  5.61600 46.30700 39.80300
H  11.33100 53.11900 40.13200
H  7.52800 58.31000 41.73000
H  3.30900 54.37600 44.35900
H  9.09400 49.11000 41.32300
H  10.72600 50.89500 39.75700
H  12.27500 50.55500 41.27600
H  11.21400 49.39300 42.01900
H  11.29900 50.93800 42.76200
H  7.42800 49.13700 39.41900
H  9.01400 48.71500 38.91200
H  9.40500 50.51000 37.71600
H  8.09300 51.49100 38.46200
H  11.65700 55.89700 38.17900
H  12.35800 54.83100 39.44900
H  12.45500 56.59800 39.65800
H  8.04600 59.18300 39.79600
H  9.23900 60.33300 39.51800
H  8.92300 60.06100 41.17200
H  4.90800 58.23300 42.21100
H  4.30900 57.11300 44.89100
H  6.93200 58.92200 44.11100
H  5.30100 58.98500 44.91500
H  5.64600 59.92700 43.52800
H  2.53300 58.04700 43.45000
H  2.25300 56.49000 44.10500
H  2.04500 57.27500 41.27700
H  1.52600 55.77500 42.08600
H  3.04000 55.95400 41.32400
H  3.06900 51.58600 45.83600
H  2.34400 50.47000 44.60500
H  2.05400 52.24800 44.70200
H  6.90000 48.43600 42.82100
H  5.71700 46.92700 38.91300
H  4.61700 45.87700 39.86400
H  6.36200 45.52600 39.65100

