158

Mg 9.28000 4.57200 26.97000
C  10.21300 3.17500 30.13500
C  6.73400 6.19300 28.69000
C  8.07800 5.59800 24.07500
C  11.36700 2.30000 25.44200
N  8.56200 4.58900 29.22300
C  9.06300 4.03500 30.32400
C  8.44400 4.65400 31.61000
C  7.10900 5.25800 31.11900
C  7.49400 5.40300 29.62800
C  5.84200 4.29800 31.09700
C  9.36000 5.66500 32.39200
C  9.36100 5.46700 33.90200
H  10.64700 5.55200 34.72200
N  7.75000 5.90200 26.47200
C  6.86000 6.43900 27.29600
C  5.99100 7.36600 26.54900
C  6.52800 7.34600 25.22500
C  7.51500 6.27600 25.20300
C  4.90000 8.22300 27.21700
C  6.17600 8.20100 24.11400
O  6.83500 8.22900 23.08100
C  5.08400 9.24500 24.18700
N  9.62400 3.94200 24.98400
C  9.01700 4.58700 23.99200
C  9.58600 4.09300 22.58900
C  10.69700 3.07100 23.04900
C  10.57400 3.04200 24.61200
C  8.46400 3.55500 21.63300
C  12.14900 3.40000 22.49000
C  12.77000 2.71800 21.20100
N  10.62500 3.14900 27.62000
C  11.38400 2.32200 26.83800
C  12.11500 1.41500 27.76000
C  11.83500 1.90700 28.98800
C  10.79100 2.85800 28.91900
C  13.04300 0.27200 27.37800
C  12.14000 1.70000 30.40100
O  12.89200 0.88800 30.93900
C  11.20600 2.59400 31.21700
C  10.45000 1.70600 32.15300
O  9.57700 0.97300 31.79700
O  10.79300 1.96400 33.47400
C  9.81800 1.49600 34.47600
H  5.92900 6.71100 29.21600
H  7.71100 5.91300 23.09600
H  12.12500 1.62300 25.04300
H  8.20600 3.75900 32.18400
H  6.76600 6.12000 31.69200
H  5.46800 4.03200 30.10800
H  5.01700 4.84900 31.54900
H  6.19700 3.36800 31.54100
H  9.07200 6.61800 31.94800
H  10.38500 5.44300 32.09600
H  8.75700 4.58600 34.12300
H  8.92700 6.40500 34.24900
H  4.74100 8.03100 28.27800
H  3.94700 7.96900 26.75400
H  4.95400 9.29900 27.04900
H  5.44700 10.11100 24.74100
H  4.30100 8.84600 24.83100
H  4.78400 9.54100 23.18200
H  10.10400 4.99700 22.27000
H  10.35600 2.07200 22.77700
H  8.68500 2.57500 21.20900
H  8.39200 4.22900 20.77900
H  7.51300 3.51400 22.16300
H  12.89100 3.51400 23.28000
H  12.15600 4.43200 22.14000
H  12.03700 2.13800 20.64000
H  13.53200 1.98600 21.47100
H  13.12200 3.50100 20.53100
H  13.12800 0.12100 26.30200
H  12.73400 -0.68400 27.80300
H  14.05200 0.45300 27.74800
H  11.61800 3.35700 31.87800
H  9.28700 2.31200 34.96500
H  10.26600 0.88600 35.26100
H  9.08500 0.83200 34.01800
Mg 16.38500 51.79100 26.15600
C  17.92800 49.99000 28.74500
C  14.02000 52.93100 28.36800
C  14.77200 53.08600 23.51500
C  18.63600 50.18900 23.94900
N  16.10300 51.63400 28.35300
C  16.91500 50.89300 29.20400
C  16.62700 51.26100 30.69500
C  15.24700 52.00100 30.51800
C  15.05900 52.14500 29.02400
C  14.10300 51.26200 31.21200
C  17.78900 52.19800 31.28700
C  17.90600 52.43500 32.78800
H  16.97900 51.63400 33.76600
N  14.58400 52.83300 25.96200
C  13.80100 53.27200 27.00700
C  12.80300 54.16500 26.45900
C  12.92500 54.02700 25.01000
C  14.14700 53.33700 24.76600
C  11.77300 54.88400 27.36600
C  12.03500 54.62100 23.97100
O  12.28000 54.54500 22.78300
C  10.83500 55.37800 24.38800
N  16.45800 51.37800 23.81800
C  15.84600 52.28600 23.09700
C  16.70700 52.59700 21.82700
C  17.93600 51.60500 21.94800
C  17.66400 51.01400 23.29200
C  16.04700 52.47200 20.46200
C  19.31800 52.40300 21.84900
C  20.44100 51.74000 20.95500
N  17.86500 50.30700 26.24500
C  18.71000 49.74100 25.28800
C  19.69400 48.83200 25.82600
C  19.39300 48.88200 27.22900
C  18.31400 49.74300 27.38400
C  20.80600 48.16800 25.08000
C  19.82500 48.51000 28.55500
O  20.88400 48.03900 28.93000
C  18.82700 49.16800 29.60400
C  18.19300 48.08800 30.41100
O  17.55500 47.16700 29.94500
O  18.70400 48.13100 31.75100
C  18.41000 46.95500 32.59400
H  13.45600 53.37900 29.18900
H  14.51900 53.86200 22.79000
H  19.45300 49.92800 23.27400
H  16.50400 50.32000 31.23100
H  15.21800 52.98700 30.98200
H  14.39200 50.32200 31.68100
H  13.42900 50.92700 30.42300
H  13.64400 51.93400 31.93700
H  17.54900 53.22800 31.02200
H  18.78100 51.93200 30.92100
H  17.85600 53.50000 33.01500
H  18.89100 52.09400 33.10500
H  10.73800 54.76500 27.04700
H  12.07400 55.92600 27.47900
H  11.78900 54.50700 28.38800
H  10.21500 54.74600 25.02400
H  10.29100 55.75400 23.52100
H  11.24200 56.26800 24.86800
H  17.05000 53.62700 21.92800
H  17.82900 50.79700 21.22500
H  15.00600 52.15200 20.50100
H  16.47700 51.79900 19.71900
H  16.05800 53.47500 20.03700
H  19.70000 52.48300 22.86700
H  19.23400 53.46400 21.61400
H  20.89600 52.43400 20.24900
H  20.16100 50.86400 20.36900
H  21.13500 51.26800 21.65000
H  21.36600 48.81900 24.40800
H  20.47300 47.26600 24.56800
H  21.53400 47.91600 25.85100
H  19.52000 49.72400 30.23600
H  17.34200 46.73800 32.56700
H  18.90600 47.02100 33.56200
H  18.96200 46.13700 32.13300

