158

Mg 41.54800 41.20100 26.75000
C  40.79400 43.38800 29.47400
C  42.61800 38.90400 29.05000
C  42.65600 39.28800 24.21800
C  40.77300 43.82600 24.55600
N  41.70500 41.13900 29.06700
C  41.16800 42.13900 29.89700
C  41.36900 41.57500 31.37300
C  42.11300 40.15100 31.29700
C  42.17500 40.04100 29.73100
C  43.37900 39.99300 32.03700
C  40.06500 41.59900 32.13000
C  40.20400 41.40400 33.63600
H  39.54600 42.50600 34.52300
N  42.45900 39.31800 26.61400
C  42.81900 38.52900 27.67100
C  43.43400 37.27600 27.14600
C  43.45700 37.34100 25.72400
C  42.80300 38.70900 25.45000
C  43.96100 36.18600 28.07500
C  44.04600 36.32300 24.75000
O  44.04600 36.55300 23.50100
C  44.89100 35.14000 25.17200
N  41.80300 41.58900 24.71700
C  42.14900 40.55900 23.87900
C  41.97400 40.99900 22.46100
C  41.11700 42.31500 22.50000
C  41.23000 42.58300 24.01900
C  43.32000 41.37100 21.61900
C  39.63700 42.27400 22.02000
C  38.81700 41.06400 22.45600
N  40.95000 43.19500 26.93000
C  40.74300 44.21100 25.89000
C  40.44600 45.45800 26.49900
C  40.28500 45.13200 27.91000
C  40.72700 43.76900 28.11600
C  40.13100 46.72900 25.84100
C  39.84100 45.73200 29.22300
O  39.44100 46.86800 29.53000
C  40.14000 44.54600 30.24500
C  41.16200 45.22200 31.13900
O  42.20000 45.65700 30.70200
O  40.80000 45.31700 32.46300
C  41.85400 45.97200 33.38600
H  42.97000 38.19800 29.80600
H  43.08800 38.73900 23.37900
H  40.37700 44.63500 23.93800
H  42.09300 42.27100 31.79600
H  41.43500 39.33200 31.54100
H  43.87500 40.94400 32.23200
H  43.99900 39.36200 31.39900
H  43.28000 39.44900 32.97700
H  39.48500 40.74400 31.78300
H  39.59300 42.58000 32.08400
H  41.27000 41.25000 33.80900
H  39.75000 40.45600 33.92300
H  44.97600 35.90900 27.78900
H  43.35600 35.30400 27.86100
H  43.95300 36.36800 29.14900
H  44.97400 34.39200 24.38400
H  44.33100 34.70400 25.99900
H  45.86700 35.58800 25.35900
H  41.57200 40.18500 21.85600
H  41.56200 43.14600 21.95100
H  44.15400 40.93100 22.16700
H  43.46600 42.44500 21.50400
H  43.35100 41.04500 20.57900
H  39.65300 42.26500 20.93000
H  39.05800 43.15900 22.28300
H  38.63400 40.51200 21.53400
H  37.87600 41.31000 22.94700
H  39.43600 40.40100 23.06200
H  40.31100 46.70600 24.76600
H  40.74200 47.53400 26.24900
H  39.08800 46.96000 26.05700
H  39.22300 44.45000 30.82500
H  42.02100 45.30200 34.22900
H  41.52400 46.94900 33.73900
H  42.81500 46.06300 32.88000
Mg -12.65700 39.02900 41.64800
C  -11.02900 36.09700 40.77500
C  -10.13700 40.80500 40.02000
C  -14.54300 41.73600 42.02300
C  -15.25800 37.06200 43.06200
N  -10.87700 38.52200 40.48500
C  -10.40700 37.22900 40.25500
C  -9.11800 37.22800 39.46000
C  -8.74200 38.77000 39.33600
C  -9.96200 39.43600 39.99200
C  -7.44000 39.19800 39.93900
C  -9.30600 36.59400 38.05700
C  -8.37400 35.45900 37.58400
H  -7.12400 35.76700 36.57500
N  -12.32200 41.05200 41.24300
C  -11.27700 41.55600 40.48100
C  -11.45400 43.00600 40.45400
C  -12.70100 43.34400 41.14700
C  -13.28200 42.04800 41.48100
C  -10.38400 43.87600 39.74900
C  -13.16800 44.70800 41.44000
O  -12.42600 45.67000 41.38500
C  -14.55300 44.96400 42.08000
N  -14.67700 39.36500 42.42600
C  -15.11200 40.58500 42.51200
C  -16.53400 40.59100 43.32600
C  -16.61700 39.11000 43.82300
C  -15.45000 38.46300 43.10900
C  -16.62400 41.63200 44.50300
C  -17.99800 38.48300 43.52000
C  -18.61000 37.85300 44.81600
N  -13.07800 37.09500 41.90300
C  -14.08400 36.37900 42.48300
C  -13.91600 34.91400 42.50400
C  -12.69600 34.81400 41.82500
C  -12.18000 36.12100 41.52300
C  -14.87100 33.94800 43.08200
C  -11.72100 33.84200 41.43700
O  -11.67400 32.63100 41.62000
C  -10.60500 34.59400 40.70400
C  -9.26500 34.31200 41.35300
O  -8.79600 34.53000 42.48900
O  -8.61000 33.61200 40.36100
C  -7.28500 33.15900 40.77500
H  -9.33300 41.36400 39.53700
H  -15.27800 42.53900 42.10800
H  -15.97700 36.55500 43.70900
H  -8.25000 36.70200 39.85900
H  -8.73500 39.03900 38.28000
H  -6.82200 38.40300 40.35700
H  -7.58400 39.96000 40.70600
H  -6.80900 39.53700 39.11800
H  -9.25500 37.33600 37.26000
H  -10.32800 36.21500 38.05000
H  -9.02800 34.78200 37.03600
H  -8.03500 35.04200 38.53200
H  -10.43300 44.91000 40.09300
H  -10.72200 43.88800 38.71200
H  -9.37000 43.47800 39.75900
H  -15.26700 44.53900 41.37500
H  -14.75200 46.02900 42.19300
H  -14.57500 44.46400 43.04900
H  -17.28700 40.84900 42.58100
H  -16.31500 38.98900 44.86400
H  -17.62900 42.04500 44.42200
H  -15.83000 42.37600 44.45300
H  -16.51200 41.14400 45.47100
H  -17.77300 37.64100 42.86600
H  -18.72500 39.09600 42.98700
H  -18.29100 36.81100 44.83600
H  -19.68000 38.01400 44.94500
H  -18.17100 38.26300 45.72600
H  -15.50400 34.23700 43.92200
H  -14.36700 33.08500 43.51700
H  -15.51500 33.69600 42.24000
H  -10.61000 34.26000 39.66600
H  -7.48400 32.58300 41.67900
H  -6.58100 33.97000 40.96500
H  -6.98800 32.53400 39.93300

