158

Mg 47.27600 15.81100 28.08300
C  45.20700 15.75800 31.04400
C  49.53500 17.73700 29.71800
C  48.78700 16.34700 25.14100
C  44.57300 14.38800 26.38500
N  47.29100 16.66800 30.15800
C  46.47600 16.43100 31.18600
C  47.11200 16.97100 32.55400
C  48.43300 17.65300 32.04400
C  48.46900 17.27000 30.55800
C  48.54100 19.18400 32.22200
C  47.28100 15.79900 33.54500
C  46.95900 16.06200 35.01100
H  47.17300 17.52200 35.47300
N  49.03700 16.76100 27.51800
C  49.79700 17.55100 28.33000
C  50.94500 18.03000 27.61800
C  50.78200 17.63000 26.23800
C  49.47600 16.88900 26.27900
C  52.06800 18.78200 28.27400
C  51.62700 17.88300 25.01800
O  51.32500 17.41300 23.99700
C  52.90800 18.65200 25.12500
N  46.64600 15.67100 26.04900
C  47.54200 15.75900 25.04000
C  46.97600 15.23400 23.74600
C  45.79400 14.27000 24.24400
C  45.65100 14.85100 25.65400
C  46.52100 16.30100 22.66200
C  46.16300 12.74500 24.21100
C  45.79600 11.99700 22.90300
N  45.28500 15.30700 28.56300
C  44.34600 14.65100 27.73600
C  43.10500 14.40200 28.56200
C  43.45700 14.78500 29.89700
C  44.70400 15.40200 29.81500
C  41.82200 13.83800 28.04600
C  42.90400 14.90800 31.25500
O  41.76800 14.64300 31.63800
C  44.10900 15.43700 32.10100
C  43.66700 16.70700 32.74100
O  43.70500 17.82200 32.23900
O  43.33600 16.44200 34.05400
C  42.87600 17.57700 34.85700
H  50.10200 18.44500 30.32600
H  49.26500 16.37000 24.15900
H  43.86800 13.74400 25.85600
H  46.36000 17.69500 32.86800
H  49.33500 17.22500 32.48300
H  47.63600 19.42500 32.78000
H  48.47200 19.59800 31.21600
H  49.45500 19.49100 32.73200
H  48.34600 15.57600 33.60200
H  46.68500 14.95400 33.19900
H  47.59200 15.36500 35.56000
H  45.91200 15.76100 34.99800
H  51.95800 18.93800 29.34700
H  52.19500 19.75200 27.79200
H  52.98500 18.22600 28.07900
H  52.80900 19.39700 25.91400
H  53.05200 19.17800 24.18100
H  53.67800 17.94900 25.44100
H  47.69400 14.59000 23.23800
H  44.85300 14.42400 23.71700
H  46.62800 17.30500 23.07200
H  45.51500 16.17500 22.26200
H  47.23400 16.11900 21.85800
H  45.68500 12.31700 25.09300
H  47.24600 12.62800 24.22300
H  45.22700 11.15100 23.28900
H  46.59200 11.65900 22.24000
H  45.16900 12.57300 22.22200
H  41.47400 13.00800 28.66100
H  41.85800 13.47600 27.01800
H  41.05900 14.61200 28.13200
H  44.37800 14.63400 32.78800
H  41.82200 17.83000 34.75100
H  43.40400 18.52200 34.73000
H  43.10700 17.40700 35.90900
Mg 42.12300 41.31300 26.76600
C  41.48800 43.76400 28.95300
C  43.28800 39.27000 29.41900
C  42.72500 38.86800 24.60100
C  41.24500 43.48300 24.06400
N  42.27300 41.57300 28.90900
C  41.90800 42.62200 29.58300
C  41.86900 42.31900 31.09400
C  42.72200 40.99000 31.19000
C  42.90500 40.58700 29.75500
C  44.16500 41.08900 31.79000
C  40.37900 42.09000 31.56000
C  40.01900 42.76400 32.86600
H  39.96000 41.70700 34.05800
N  42.87900 39.33600 27.01500
C  43.28700 38.66100 28.15500
C  43.67100 37.30300 27.81700
C  43.58400 37.21100 26.40700
C  43.04000 38.51900 25.94100
C  44.10700 36.25600 28.83300
C  43.94100 36.06000 25.46100
O  43.76400 35.99700 24.22200
C  44.69200 34.88600 26.00000
N  42.11500 41.21500 24.63500
C  42.37200 40.08500 24.00500
C  42.21400 40.27700 22.45900
C  41.57300 41.71200 22.34800
C  41.58400 42.15900 23.80600
C  43.43500 39.89600 21.52300
C  40.27300 41.72800 21.53400
C  38.96800 41.40500 22.35400
N  41.54200 43.21200 26.41400
C  41.17500 44.04100 25.36100
C  40.85900 45.41500 25.87100
C  40.95900 45.27300 27.22500
C  41.35800 43.96200 27.50800
C  40.23000 46.51600 24.95500
C  40.71100 46.00900 28.43900
O  40.18500 47.11500 28.63000
C  41.03000 45.01800 29.61600
C  42.01600 45.75500 30.48100
O  43.14100 46.05900 30.09200
O  41.54200 45.85100 31.74200
C  42.23300 46.68700 32.67200
H  43.71500 38.69300 30.24200
H  42.92800 38.00900 23.95800
H  40.89600 44.17900 23.29800
H  42.30200 43.14200 31.66400
H  42.25100 40.12500 31.65900
H  44.21500 41.90500 32.51000
H  44.75700 41.15000 30.87700
H  44.37500 40.13100 32.26700
H  40.27000 41.02100 31.74400
H  39.79300 42.27800 30.66100
H  39.05400 43.26600 32.80100
H  40.79100 43.47100 33.16800
H  45.16200 36.04600 28.65700
H  43.52500 35.33500 28.84600
H  44.08400 36.65500 29.84700
H  44.16200 34.21500 26.67600
H  45.66000 35.24200 26.35400
H  44.90800 34.20700 25.17500
H  41.40100 39.55000 22.46400
H  42.40100 42.29200 21.94100
H  44.16400 39.28900 22.06000
H  43.92500 40.77500 21.10500
H  43.13000 39.18000 20.76000
H  40.22400 41.17400 20.59600
H  40.17500 42.74200 21.14800
H  39.09800 40.59400 23.07100
H  38.23200 40.95100 21.69000
H  38.65300 42.35500 22.78600
H  39.53900 46.11000 24.21600
H  40.97900 47.22500 24.60100
H  39.57300 47.11100 25.59000
H  40.16600 44.66700 30.18100
H  43.08400 47.26000 32.30500
H  42.35900 46.05500 33.55100
H  41.51200 47.48600 32.84100

