158

Mg 8.05100 3.42000 27.81200
C  9.53000 2.06900 30.60500
C  5.93000 5.33900 29.97800
C  6.26200 4.57800 25.05600
C  9.57000 1.12100 25.82100
N  7.78400 3.67600 30.07600
C  8.64000 3.07900 30.97100
C  8.44200 3.73100 32.34100
C  7.26300 4.73100 32.07100
C  6.93800 4.57300 30.62100
C  5.94000 4.47700 32.92300
C  9.73100 4.35200 32.89400
C  9.49800 5.18300 34.14700
H  10.36500 4.92600 35.35100
N  6.34500 4.73600 27.56000
C  5.69300 5.46200 28.58500
C  4.64400 6.20900 27.96600
C  4.68300 5.93400 26.56300
C  5.78100 5.04600 26.32600
C  3.71400 7.02900 28.74300
C  3.86500 6.52800 25.42400
O  3.87100 6.16400 24.25500
C  2.89400 7.66400 25.74200
N  7.96300 2.90900 25.72700
C  7.20300 3.58100 24.77200
C  7.58400 3.20000 23.34400
C  8.57600 2.04800 23.61800
C  8.77300 2.05500 25.12000
C  6.27000 2.82700 22.47600
C  9.80500 1.85800 22.80700
C  9.91300 0.57000 21.93900
N  9.21900 1.95800 28.03400
C  9.81400 1.10000 27.20400
C  10.65900 0.17700 27.86000
C  10.63500 0.58000 29.18000
C  9.70300 1.61600 29.26300
C  11.30600 -0.99800 27.15400
C  11.21200 0.33000 30.55300
O  12.00000 -0.52000 30.94400
C  10.59300 1.43300 31.51700
C  9.88400 0.83300 32.71100
O  8.86100 0.19500 32.75300
O  10.48400 1.24000 33.83900
C  9.84400 0.89800 35.09800
H  5.38900 5.94400 30.70900
H  5.78200 5.03200 24.18600
H  10.16200 0.48600 25.15900
H  8.12900 2.93900 33.02200
H  7.64000 5.75100 32.00700
H  5.58900 5.39600 33.39200
H  6.23100 3.80100 33.72700
H  5.17500 3.95000 32.35300
H  10.19100 5.03800 32.18200
H  10.53100 3.64500 33.11200
H  8.46400 5.04800 34.46300
H  9.57300 6.24300 33.90500
H  3.95700 8.07300 28.54600
H  3.83300 7.03400 29.82600
H  2.66100 6.85800 28.52200
H  2.06100 7.20200 26.27200
H  2.66700 8.19900 24.82000
H  3.43300 8.32800 26.41700
H  8.19000 3.95900 22.85000
H  7.95200 1.18600 23.38500
H  6.32600 1.90400 21.90000
H  6.12300 3.62800 21.75200
H  5.44800 2.90800 23.18800
H  10.68100 1.93300 23.45100
H  10.02200 2.68400 22.13000
H  10.77100 0.03600 22.34700
H  10.09600 0.89300 20.91400
H  9.01300 -0.04200 21.89800
H  12.06900 -0.53400 26.52900
H  10.54600 -1.56100 26.61200
H  11.80600 -1.58500 27.92500
H  11.43400 2.09600 31.72000
H  10.44200 1.42800 35.83900
H  9.96300 -0.18500 35.06000
H  8.80100 1.21000 35.04800
Mg 49.30900 35.61600 27.13900
C  47.14000 34.01300 29.43300
C  49.46400 38.25000 29.43000
C  50.60700 37.59600 24.69600
C  48.87000 33.01600 24.82000
N  48.56100 35.90000 29.24200
C  47.79200 35.11300 30.01200
C  47.70900 35.59400 31.45000
C  48.17800 37.10700 31.33100
C  48.80100 37.06900 29.92400
C  47.06400 38.20300 31.67200
C  48.64000 34.74100 32.36100
C  48.35700 34.76900 33.90800
H  47.35400 35.68500 34.43800
N  50.01200 37.55400 27.09600
C  49.95300 38.49500 28.11800
C  50.57500 39.81400 27.66300
C  50.93900 39.61200 26.28900
C  50.53100 38.19700 25.98800
C  50.61900 40.99200 28.52800
C  51.62300 40.55800 25.29100
O  52.14500 40.15200 24.22300
C  51.90200 42.04500 25.61300
N  49.67700 35.25000 24.98500
C  50.28900 36.28300 24.26300
C  50.74100 35.67300 22.90100
C  50.35800 34.13300 23.04700
C  49.63800 34.08600 24.33500
C  50.18200 36.51000 21.67700
C  51.62700 33.16000 23.08000
C  51.31900 31.76000 22.59800
N  48.18300 33.91400 27.07500
C  48.09200 32.95200 26.03900
C  47.19800 31.90600 26.55400
C  46.78800 32.27700 27.78900
C  47.45000 33.47500 28.14600
C  46.87500 30.59100 25.88000
C  45.90000 31.89400 28.81200
O  45.17700 30.93900 29.03600
C  46.01900 33.12700 29.89800
C  46.16500 32.60000 31.30700
O  46.92500 31.69800 31.60000
O  45.25800 33.16300 32.16900
C  45.19800 32.58600 33.55600
H  49.28100 39.10200 30.08700
H  51.12600 38.26100 24.00200
H  48.83900 32.12600 24.18800
H  46.67200 35.46000 31.75800
H  49.00100 37.27300 32.02600
H  46.93800 38.89300 30.83800
H  47.45000 38.71500 32.55300
H  46.08100 37.78000 31.87900
H  49.64200 35.14100 32.21000
H  48.67300 33.69500 32.05500
H  49.32400 34.87500 34.39900
H  48.01200 33.75700 34.11700
H  50.16100 40.94100 29.51600
H  50.03500 41.67700 27.91300
H  51.68100 41.23100 28.57200
H  52.40300 42.47900 24.74800
H  52.45300 42.16800 26.54600
H  50.89600 42.46200 25.60000
H  51.82800 35.62600 22.85000
H  49.65700 33.84300 22.26400
H  49.36500 35.88800 21.31200
H  50.96300 36.65800 20.93200
H  49.82400 37.48800 22.00000
H  51.98200 33.02700 24.10200
H  52.52600 33.58400 22.63300
H  52.12700 31.68000 21.87100
H  50.30800 31.75000 22.19000
H  51.57600 30.95100 23.28200
H  46.02600 30.74600 25.21300
H  46.86500 29.78100 26.60900
H  47.63500 30.32000 25.14600
H  45.06300 33.64900 29.85700
H  44.18500 32.91600 33.78400
H  45.94900 33.15100 34.10900
H  45.42700 31.52500 33.45600

