158

Mg 35.64300 1.87300 29.89500
C  33.46500 3.17500 32.34500
C  38.21700 2.11600 32.19600
C  37.85800 1.60600 27.36500
C  33.17100 2.54500 27.41900
N  35.83700 2.75000 31.91400
C  34.81500 2.90100 32.77600
C  35.16400 2.84200 34.22200
C  36.76400 2.85400 34.16000
C  36.98900 2.62000 32.60700
C  37.45900 4.15700 34.63000
C  34.54000 1.71900 35.10400
C  34.43900 2.08300 36.60100
H  35.15200 3.25800 37.19400
N  37.69900 1.55600 29.80500
C  38.49600 1.60700 30.87300
C  39.78400 1.09900 30.43600
C  39.78700 1.14400 28.98600
C  38.42000 1.44100 28.66000
C  40.94300 0.86500 31.36100
C  40.90000 0.86100 27.99500
O  40.78900 0.90600 26.79400
C  42.31000 0.46500 28.45200
N  35.51300 1.94600 27.70500
C  36.54900 1.78900 26.95300
C  36.17500 1.74000 25.45000
C  34.61400 1.74800 25.48600
C  34.37000 1.99300 26.98400
C  36.80400 2.97200 24.58000
C  33.93500 0.44900 24.97000
C  33.36600 0.59200 23.51900
N  33.65400 2.61800 29.91900
C  32.80600 2.87900 28.78000
C  31.56500 3.34500 29.29600
C  31.74100 3.41800 30.72500
C  33.05500 3.03700 31.02500
C  30.42300 3.73400 28.40800
C  31.09200 3.82800 31.94700
O  30.01300 4.32700 32.18900
C  32.17400 3.62200 33.09200
C  32.30500 4.88800 33.87700
O  33.29300 5.65000 33.86400
O  31.25100 4.97500 34.72300
C  31.08400 6.13600 35.59700
H  38.98900 2.17000 32.96600
H  38.46300 1.40800 26.47800
H  32.53400 2.73700 26.55200
H  34.80400 3.80400 34.58600
H  37.27200 2.06600 34.71700
H  38.08000 3.94300 35.50000
H  36.78100 4.89200 35.06300
H  37.97200 4.68100 33.82400
H  35.22600 0.88600 34.95300
H  33.52600 1.58800 34.72500
H  34.85500 1.17100 37.03000
H  33.37400 2.30400 36.67600
H  41.29700 -0.16400 31.29500
H  40.58700 0.90200 32.39100
H  41.73100 1.58700 31.14300
H  42.36500 -0.26400 29.26000
H  42.61700 1.39300 28.93400
H  42.88800 0.14400 27.58500
H  36.69400 0.87400 25.04000
H  34.28700 2.63500 24.94300
H  36.99100 2.64000 23.55900
H  37.81300 3.14100 24.95400
H  36.16800 3.85800 24.56300
H  33.18600 0.18200 25.71500
H  34.64400 -0.36700 24.82800
H  32.31100 0.57400 23.79400
H  33.57000 -0.25100 22.85800
H  33.55600 1.54200 23.02000
H  30.11100 2.96700 27.69900
H  30.76400 4.67900 27.98500
H  29.52900 3.82300 29.02600
H  31.87200 2.80700 33.74900
H  30.24900 5.74500 36.17800
H  30.78200 7.09000 35.16400
H  31.86600 6.32000 36.33200
Mg 9.68100 47.75800 25.78900
C  7.71500 48.11500 28.48100
C  12.40000 49.09600 27.69000
C  11.84800 47.51000 23.20100
C  6.99800 47.54500 23.62500
N  10.01000 48.67500 27.80400
C  9.04500 48.51900 28.78100
C  9.50800 49.06400 30.16500
C  10.97400 49.58700 29.81200
C  11.13600 49.13500 28.32800
C  11.15100 51.13800 29.97800
C  9.21500 48.15300 31.44600
C  9.77800 48.58200 32.72800
H  8.96600 48.29400 33.98100
N  11.82900 48.13000 25.57000
C  12.72400 48.62900 26.42300
C  14.09600 48.36400 26.00000
C  13.94300 47.78900 24.69900
C  12.51100 47.78500 24.39600
C  15.35000 48.61500 26.79100
C  14.97300 47.30900 23.77000
O  14.69400 46.91300 22.69200
C  16.37700 47.44200 24.13200
N  9.49500 47.46500 23.75500
C  10.56600 47.50800 22.90900
C  10.06100 47.30000 21.45200
C  8.49200 47.22400 21.64300
C  8.27700 47.45100 23.09500
C  10.48800 48.36000 20.42600
C  7.86000 45.82200 21.12400
C  7.45900 45.74000 19.63500
N  7.70900 47.78500 25.96900
C  6.70300 47.62500 25.06400
C  5.43700 47.57800 25.77900
C  5.77500 47.61600 27.11000
C  7.17100 47.89100 27.17400
C  4.11600 47.26800 25.16800
C  5.22900 47.54400 28.51400
O  4.15400 47.44000 29.02800
C  6.54700 47.86300 29.40100
C  6.72200 46.65900 30.30900
O  7.59900 45.76700 30.12400
O  5.89800 46.71400 31.37500
C  6.08100 45.64200 32.41200
H  13.10400 49.59500 28.36000
H  12.43200 47.49300 22.27800
H  6.23400 47.38300 22.86100
H  8.90100 49.95800 30.31000
H  11.60800 49.00500 30.48100
H  11.90000 51.36900 30.73600
H  10.28300 51.75100 30.22000
H  11.53000 51.42200 28.99600
H  9.26200 47.08300 31.24600
H  8.18900 48.44200 31.67300
H  9.87600 49.66200 32.61600
H  10.74900 48.09200 32.79800
H  15.38400 48.97800 27.81800
H  15.90400 49.35100 26.20900
H  15.89500 47.67100 26.80900
H  16.51300 46.81800 25.01600
H  16.58100 48.47400 24.41900
H  17.07300 47.13500 23.35200
H  10.45100 46.30400 21.24300
H  8.09800 48.10800 21.14000
H  9.70000 48.59600 19.71100
H  11.41000 48.03900 19.94100
H  10.77600 49.30800 20.88000
H  7.01300 45.60100 21.77300
H  8.61100 45.05700 21.32200
H  7.79800 46.69100 19.22300
H  6.37500 45.62100 19.62100
H  7.97900 44.87100 19.23200
H  3.72300 48.10700 24.59400
H  3.46200 47.15500 26.03300
H  4.23400 46.35300 24.58700
H  6.30800 48.70800 30.04500
H  6.49300 46.11200 33.30500
H  6.73700 44.81200 32.15000
H  5.11400 45.14500 32.48400

