158

Mg 25.41100 1.40700 30.20700
C  27.71800 0.94300 32.92200
C  22.87600 1.72300 32.51300
C  23.27600 1.53700 27.65700
C  28.02600 0.55400 28.07100
N  25.33500 1.28700 32.51100
C  26.40400 1.26300 33.37500
C  25.92900 1.57300 34.84900
C  24.39700 1.70500 34.68100
C  24.14500 1.59000 33.14300
C  23.79600 0.48500 35.41100
C  26.68300 2.87100 35.49000
C  27.10300 2.85700 36.98700
H  26.39500 3.93300 37.88300
N  23.37200 1.59900 30.11500
C  22.52400 1.76600 31.18700
C  21.15200 1.93900 30.65000
C  21.23400 1.69000 29.27900
C  22.65900 1.54700 28.95500
C  19.86700 2.27600 31.37800
C  20.20000 1.66000 28.23900
O  20.45700 1.28900 27.13800
C  18.77100 1.91900 28.62600
N  25.49000 0.85800 28.12200
C  24.55600 1.30700 27.24400
C  25.11200 1.20600 25.77200
C  26.67000 1.06100 25.93900
C  26.78300 0.86400 27.47700
C  24.50200 0.22600 24.72900
C  27.52400 2.14600 25.31300
C  27.59400 3.59100 26.02700
N  27.43100 0.88300 30.38200
C  28.41700 0.56000 29.40900
C  29.72600 0.35100 29.99200
C  29.44500 0.51100 31.37400
C  28.11600 0.80800 31.52700
C  31.07400 -0.00200 29.31200
C  30.12600 0.46500 32.63600
O  31.29700 0.34800 32.92800
C  29.03800 0.91400 33.68200
C  28.89100 -0.14600 34.88100
O  28.10300 -1.06300 34.90500
O  29.64000 0.22800 35.96300
C  29.22300 -0.49900 37.18300
H  21.97900 1.88400 33.11400
H  22.61500 1.83000 26.83800
H  28.90100 0.49600 27.42000
H  26.14700 0.69000 35.45000
H  23.84300 2.51200 35.16200
H  24.36400 0.36900 36.33400
H  23.80900 -0.30700 34.66200
H  22.77100 0.67100 35.73400
H  25.98800 3.71000 35.51100
H  27.60300 3.21900 35.02000
H  28.14200 3.17800 37.05000
H  26.95600 1.89800 37.48500
H  19.29600 1.35100 31.29200
H  19.40000 3.17100 30.96800
H  19.93000 2.38200 32.46100
H  18.22300 1.85800 27.68500
H  18.74300 2.90400 29.09100
H  18.35600 1.14900 29.27600
H  24.94600 2.20800 25.37600
H  27.21700 0.21400 25.52300
H  24.00800 0.67800 23.86900
H  23.73700 -0.44800 25.11400
H  25.22000 -0.51200 24.37100
H  27.26800 2.32000 24.26700
H  28.57500 1.85600 25.32300
H  26.94800 3.55400 26.90400
H  27.19100 4.25400 25.26100
H  28.61900 3.86100 26.27900
H  31.00400 -0.46700 28.32800
H  31.50700 -0.71200 30.01700
H  31.74600 0.84300 29.16300
H  29.32400 1.90100 34.04300
H  29.68300 -1.47900 37.31400
H  28.14900 -0.63700 37.30400
H  29.56200 0.09400 38.03200
Mg 10.24100 46.59300 25.67900
C  8.06400 46.87500 28.39900
C  12.60000 48.38100 27.35100
C  12.17200 46.80700 22.88200
C  7.49800 45.98300 23.71400
N  10.26900 47.59900 27.53600
C  9.38400 47.36200 28.61500
C  10.04800 47.80700 29.87300
C  11.23600 48.73200 29.39300
C  11.38800 48.19700 28.00300
C  10.96800 50.26800 29.45600
C  10.56400 46.64400 30.76100
C  10.46900 46.97200 32.26700
H  10.09900 45.73800 33.12700
N  12.21400 47.21300 25.30800
C  12.98000 47.94500 26.11000
C  14.30300 48.02800 25.58300
C  14.23700 47.46600 24.24000
C  12.80300 47.17500 24.07800
C  15.46700 48.62300 26.38400
C  15.40200 47.35200 23.23300
O  15.17000 47.02400 22.09100
C  16.81800 47.56900 23.70500
N  9.85900 46.36700 23.65900
C  10.82500 46.47900 22.65600
C  10.26600 46.21800 21.24000
C  8.74100 46.07400 21.51900
C  8.68800 46.06700 23.07100
C  10.62600 47.19200 20.10000
C  8.10400 44.91700 20.67600
C  6.91400 45.26700 19.75400
N  8.18900 46.28900 25.99500
C  7.22500 45.98800 25.13300
C  5.92000 45.90300 25.73600
C  6.20200 46.11400 27.08000
C  7.54200 46.43600 27.15400
C  4.55800 45.52700 25.16000
C  5.61400 46.16200 28.40300
O  4.51400 45.97900 28.81500
C  6.84000 46.70100 29.30000
C  7.01400 45.66500 30.35800
O  7.51800 44.56600 30.10600
O  6.44100 46.12900 31.55500
C  6.25500 45.08400 32.63900
H  13.31900 49.05300 27.82300
H  12.73400 46.86200 21.94800
H  6.57600 45.94100 23.13100
H  9.22600 48.25700 30.43000
H  12.03100 48.56800 30.12100
H  10.07600 50.49000 30.04200
H  10.81200 50.68300 28.46000
H  11.76700 50.81700 29.95400
H  11.62900 46.52300 30.56200
H  10.08600 45.69900 30.50400
H  9.79800 47.82300 32.38200
H  11.46500 47.24500 32.61500
H  15.15600 48.65400 27.42900
H  15.53400 49.66700 26.07800
H  16.40700 48.09500 26.22500
H  17.47500 47.54000 22.83600
H  17.08600 46.87300 24.50100
H  16.98100 48.50500 24.24000
H  10.75100 45.31400 20.87200
H  8.32600 47.01600 21.16100
H  11.05800 48.10500 20.51000
H  9.71500 47.41300 19.54400
H  11.26200 46.68700 19.37300
H  7.54800 44.29700 21.37900
H  8.79700 44.22000 20.20400
H  7.11400 44.94200 18.73300
H  6.74700 46.34300 19.69900
H  5.97500 44.83900 20.10300
H  3.94400 45.24500 26.01500
H  4.60300 44.80200 24.34700
H  4.15100 46.44200 24.73100
H  6.64300 47.64300 29.81200
H  5.18000 44.91000 32.67300
H  6.76400 45.45000 33.53000
H  6.69600 44.15600 32.27400

