158

Mg 44.16700 4.90500 46.78200
C  42.25200 7.93900 46.44600
C  41.13800 3.29300 45.96000
C  45.92400 2.24200 46.19400
C  47.01800 6.95700 46.48200
N  41.93300 5.56100 46.35900
C  41.45600 6.87000 46.36200
C  39.98100 6.91700 46.01700
C  39.55300 5.40800 45.89100
C  40.91300 4.69500 46.06800
C  38.51600 4.87900 46.91400
C  39.68600 7.73400 44.75600
C  40.59000 7.48700 43.52100
H  39.91900 7.79600 42.17500
N  43.56200 3.01300 46.33700
C  42.27900 2.48800 45.99300
C  42.44200 1.04700 45.63200
C  43.87200 0.78600 45.61500
C  44.54800 2.04100 46.13400
C  41.31900 0.13800 45.28100
C  44.49200 -0.54900 45.24500
O  43.84200 -1.55200 44.95800
C  45.96800 -0.74800 45.22000
N  46.16700 4.59000 46.38700
C  46.67000 3.37300 46.44500
C  48.18900 3.39700 46.28300
C  48.53100 4.86500 46.43800
C  47.16400 5.57400 46.47500
C  48.97200 2.37600 47.09300
C  49.56600 5.48500 45.42300
C  50.93200 5.78400 46.09600
N  44.58600 6.98500 46.70100
C  45.82200 7.70800 46.61100
C  45.61300 9.14800 46.55600
C  44.22100 9.27800 46.57500
C  43.67100 8.00100 46.57000
C  46.66300 10.24500 46.51500
C  43.10700 10.26500 46.54600
O  43.07600 11.46700 46.44600
C  41.85100 9.41600 46.40300
C  40.94700 9.69600 47.53400
O  41.14800 9.43700 48.69100
O  39.78600 10.32100 47.06200
C  38.66200 10.47300 48.06100
H  40.25700 2.73200 45.64200
H  46.53300 1.33700 46.13800
H  47.94400 7.53400 46.45700
H  39.43000 7.41100 46.81800
H  39.10400 5.07400 44.95500
H  38.25100 5.70700 47.57200
H  38.89100 4.06800 47.53900
H  37.64400 4.46000 46.41100
H  39.65100 8.78700 45.03500
H  38.71600 7.33800 44.45500
H  40.97300 6.46700 43.49600
H  41.46700 8.12400 43.63800
H  41.48900 -0.13300 44.23900
H  40.39300 0.71200 45.31700
H  41.25700 -0.69100 45.98600
H  46.15000 -1.75900 44.85500
H  46.37700 -0.77300 46.23000
H  46.48200 -0.02800 44.58400
H  48.36200 3.12100 45.24300
H  48.75000 4.91700 47.50400
H  48.33900 1.60700 47.53600
H  49.47000 2.94700 47.87600
H  49.73300 1.79000 46.57800
H  49.20900 6.42400 44.99900
H  49.75100 4.92000 44.51000
H  51.10800 5.53400 47.14200
H  51.46400 6.73500 46.06400
H  51.67200 5.23800 45.51200
H  47.57800 9.71400 46.25200
H  46.75300 10.70800 47.49700
H  46.40800 10.98200 45.75300
H  41.28900 9.82200 45.56200
H  38.04200 11.23300 47.58500
H  38.86700 10.65100 49.11700
H  38.04900 9.57800 47.95400
Mg 47.43500 25.45900 28.07400
C  48.53300 27.81200 30.53900
C  46.07300 23.63800 30.48500
C  47.07300 22.96300 25.77600
C  49.35100 27.29700 25.71500
N  47.48400 25.70800 30.31100
C  47.73000 26.79800 31.06400
C  47.16600 26.58700 32.52200
C  46.40800 25.27100 32.41200
C  46.65000 24.83400 30.99100
C  46.86000 24.15800 33.46500
C  46.36700 27.79900 33.05300
C  47.00500 28.38900 34.41900
H  45.88200 28.72000 35.43800
N  46.56900 23.62700 28.06900
C  46.06600 23.05800 29.20300
C  45.48000 21.77900 28.84000
C  45.62900 21.64200 27.45200
C  46.44400 22.77200 27.02500
C  44.84800 20.83000 29.81900
C  45.02700 20.61100 26.42700
O  45.32100 20.57300 25.23700
C  44.02800 19.72200 27.00700
N  47.93000 25.31200 25.95300
C  47.74600 24.11700 25.32300
C  48.28500 24.21400 23.88100
C  48.88600 25.68800 23.79700
C  48.68300 26.16300 25.25300
C  49.46300 23.17900 23.55600
C  48.04800 26.56700 22.73800
C  48.70300 26.98800 21.37200
N  48.58100 27.18200 28.03600
C  49.29600 27.79200 27.02800
C  49.91000 29.02900 27.51600
C  49.53800 29.10900 28.83700
C  48.84400 27.90300 29.16900
C  50.80800 29.94800 26.78700
C  49.73600 29.83800 30.04300
O  50.46800 30.81600 30.15000
C  49.04400 29.09500 31.17200
C  49.96600 28.85600 32.33800
O  50.76200 27.98900 32.30000
O  49.87800 29.84400 33.36500
C  50.67600 29.80800 34.62900
H  45.42100 23.10500 31.18000
H  47.03700 22.21700 24.97900
H  50.03600 27.90700 25.12200
H  48.06200 26.44500 33.12700
H  45.33800 25.34400 32.60900
H  47.17300 24.60800 34.40800
H  47.65300 23.50300 33.10400
H  45.97200 23.57500 33.70700
H  45.37100 27.42400 33.28700
H  46.36300 28.60300 32.31700
H  47.46000 29.35100 34.18500
H  47.68900 27.74000 34.96600
H  45.30100 20.94900 30.80300
H  45.07200 19.80900 29.51000
H  43.76200 20.91300 29.77600
H  44.54900 18.96500 27.59300
H  43.54900 19.15000 26.21300
H  43.29100 20.26500 27.59900
H  47.41900 24.01100 23.25200
H  49.94600 25.80100 23.57000
H  50.31100 23.59700 23.01400
H  49.05500 22.37400 22.94500
H  49.82600 22.63300 24.42600
H  47.73300 27.54800 23.09500
H  47.14400 25.99900 22.52200
H  49.77500 26.78900 21.38300
H  48.65000 28.03500 21.07400
H  48.29000 26.35700 20.58500
H  51.74500 29.40300 26.67400
H  50.95200 30.90400 27.29100
H  50.28500 30.03800 25.83500
H  48.22500 29.65600 31.62300
H  51.69800 29.62600 34.29500
H  50.30600 28.95400 35.19600
H  50.58200 30.76800 35.13500

