158

Mg 48.43200 34.76800 26.42600
C  46.53400 33.32100 28.92500
C  48.86100 37.59200 28.23400
C  49.28200 36.45500 23.57000
C  47.49000 31.96100 24.21800
N  47.67800 35.39100 28.24600
C  47.08600 34.60400 29.18300
C  47.27300 35.27100 30.52300
C  47.44000 36.76600 30.18700
C  48.07600 36.61500 28.75500
C  46.15900 37.62500 30.18600
C  48.55500 34.68600 31.28300
C  48.44900 34.44500 32.78600
H  47.49000 35.26300 33.66700
N  49.16000 36.65700 25.97700
C  49.34100 37.65700 26.90300
C  50.11500 38.72200 26.30000
C  50.15600 38.45000 24.89800
C  49.55000 37.13100 24.75400
C  50.70600 39.84200 27.20400
C  50.92100 39.16700 23.78800
O  50.85600 38.82900 22.60300
C  51.66700 40.38500 24.11800
N  48.48900 34.24600 24.23700
C  48.76700 35.21300 23.28900
C  48.68100 34.60600 21.85700
C  48.34700 33.10300 22.20800
C  48.13500 33.07400 23.70300
C  47.68600 35.38200 20.90000
C  49.49100 32.23100 21.69900
C  49.29100 31.83300 20.28200
N  47.29400 32.89400 26.54400
C  46.97800 31.93400 25.62000
C  46.17600 30.90300 26.34800
C  46.01700 31.41100 27.63600
C  46.62000 32.62300 27.69400
C  45.65000 29.67400 25.78300
C  45.43800 31.22300 28.94200
O  44.76400 30.26700 29.33700
C  45.60400 32.46000 29.82600
C  46.15300 32.04300 31.12300
O  47.24700 31.63200 31.38500
O  45.20800 32.11700 32.14400
C  45.58600 31.53200 33.49100
H  48.94100 38.51200 28.81600
H  49.72900 36.96900 22.71600
H  47.28300 31.20900 23.45500
H  46.47900 35.17200 31.26400
H  48.09000 37.26300 30.90700
H  45.91300 37.97100 29.18200
H  46.37200 38.53400 30.74800
H  45.36300 37.07100 30.68500
H  49.42700 35.31000 31.08500
H  48.71400 33.70300 30.83900
H  49.45300 34.55900 33.19400
H  48.10900 33.42000 32.93400
H  51.78400 39.93600 27.07500
H  50.51900 39.60000 28.25000
H  50.29500 40.78800 26.85300
H  50.97000 41.22100 24.18200
H  52.26300 40.64400 23.24300
H  52.41900 40.23400 24.89200
H  49.59700 34.57000 21.26800
H  47.37400 32.86100 21.77900
H  46.78500 34.81400 20.66900
H  48.26000 35.56200 19.99100
H  47.28700 36.24100 21.43900
H  49.67600 31.40100 22.38100
H  50.45700 32.73000 21.77300
H  49.89300 32.49300 19.65800
H  48.25000 31.88400 19.96200
H  49.68100 30.82300 20.16200
H  46.43600 29.19600 25.19700
H  44.80100 29.77300 25.10700
H  45.29600 29.10600 26.64400
H  44.66700 32.95600 30.07900
H  46.64900 31.37800 33.67800
H  44.95900 30.67900 33.75000
H  45.35800 32.21600 34.30800
Mg 41.61200 40.64700 26.49300
C  40.97800 43.12100 28.93000
C  42.94800 38.55800 28.77200
C  42.52200 38.57300 23.89100
C  40.71300 43.04500 24.02600
N  42.15900 40.95900 28.63600
C  41.59900 41.96100 29.44700
C  41.73400 41.44600 30.93900
C  42.68200 40.18600 30.79200
C  42.55500 39.83200 29.34600
C  44.14300 40.36200 31.21600
C  40.34300 41.14600 31.52800
C  39.76600 42.06700 32.62800
H  39.32900 41.33000 33.88700
N  42.53500 38.76900 26.35600
C  42.92600 38.09900 27.41000
C  43.33200 36.74900 26.98900
C  43.35000 36.79800 25.52200
C  42.73800 38.07800 25.17300
C  43.77300 35.73600 27.91700
C  43.96000 35.80200 24.53800
O  43.95600 35.94500 23.30500
C  44.69200 34.59700 25.03900
N  41.57600 40.78000 24.28400
C  42.01600 39.77000 23.45200
C  41.74600 40.15200 21.98100
C  40.89200 41.41200 22.06400
C  41.06100 41.78700 23.55600
C  43.09500 40.30300 21.13200
C  39.40500 41.25500 21.63500
C  38.45700 40.29400 22.41800
N  41.08400 42.63800 26.39600
C  40.76300 43.43500 25.32100
C  40.25000 44.77000 25.75300
C  40.34600 44.66100 27.19500
C  40.83700 43.36900 27.50400
C  39.81100 45.88200 25.01400
C  40.04700 45.38400 28.43400
O  39.55700 46.48800 28.53400
C  40.27800 44.31900 29.61000
C  41.09500 45.00800 30.68600
O  42.21800 44.68900 31.06800
O  40.26200 45.64100 31.51400
C  40.80000 45.90400 32.81200
H  43.37400 37.84500 29.48100
H  42.68900 37.86200 23.07900
H  40.37200 43.77600 23.29100
H  42.23900 42.12600 31.62400
H  42.37500 39.39400 31.47500
H  44.12800 40.68100 32.25900
H  44.70000 41.01800 30.54700
H  44.44500 39.31500 31.18300
H  40.33400 40.10800 31.86300
H  39.59900 41.29800 30.74500
H  38.84900 42.51900 32.25000
H  40.62200 42.66100 32.94700
H  44.79500 35.83500 28.28300
H  43.54100 34.74100 27.53700
H  43.06200 35.82500 28.73800
H  45.49700 34.84200 25.73100
H  45.14200 34.15300 24.15200
H  43.90400 33.95700 25.43700
H  41.15100 39.33000 21.58100
H  41.31700 42.15000 21.38400
H  43.40600 41.33700 20.97900
H  43.01200 39.86500 20.13700
H  43.95000 39.87900 21.65700
H  39.42700 40.65900 20.72300
H  38.94500 42.20400 21.35900
H  39.08300 40.03500 23.27200
H  38.24100 39.37000 21.88100
H  37.53500 40.78400 22.73000
H  40.63800 46.40200 24.53000
H  39.36500 46.66400 25.62900
H  39.07000 45.53200 24.29600
H  39.32500 44.05800 30.07000
H  41.74700 46.44300 32.77600
H  40.83100 44.92800 33.29700
H  40.06600 46.48600 33.36900

