158

Mg 41.10100 8.82700 29.67600
C  42.81500 10.61600 32.08500
C  38.88600 7.79400 32.01600
C  39.85000 7.05300 27.23500
C  43.81600 9.64400 27.41000
N  40.94700 9.22500 31.83700
C  41.64400 10.08700 32.59700
C  41.12800 10.24600 34.01300
C  39.91900 9.21600 33.91500
C  39.82100 8.72900 32.45900
C  39.99400 8.00800 34.86500
C  40.74900 11.70600 34.46300
C  41.53200 12.18500 35.72600
H  40.76000 12.77400 36.84300
N  39.55400 7.66900 29.62300
C  38.75400 7.37900 30.70000
C  37.68900 6.56500 30.22500
C  37.83100 6.39800 28.79500
C  39.13800 7.02900 28.47400
C  36.56100 5.93200 31.13600
C  36.93600 5.71600 27.80200
O  37.25000 5.73500 26.57800
C  35.63800 5.01900 28.17800
N  41.81900 8.35900 27.62900
C  41.02300 7.61400 26.80400
C  41.40400 7.79000 25.35000
C  42.84100 8.42300 25.46900
C  42.86100 8.84100 26.94200
C  41.28000 6.55300 24.33300
C  43.09600 9.66400 24.60100
C  42.61700 11.07200 24.97700
N  42.89900 9.86000 29.70600
C  43.87700 10.09200 28.73500
C  44.90000 10.99000 29.35900
C  44.57900 11.17600 30.66200
C  43.34500 10.46400 30.82900
C  46.02700 11.45800 28.62000
C  44.98300 11.78800 31.89700
O  45.93800 12.54300 32.20700
C  43.86400 11.48800 32.86300
C  44.34400 10.69400 34.03000
O  44.57900 9.49200 33.97300
O  44.69500 11.52200 35.09200
C  45.31300 10.85900 36.23300
H  37.98000 7.66900 32.61300
H  39.28500 6.68500 26.37600
H  44.72400 9.78900 26.82100
H  41.97400 9.87300 34.59100
H  39.02700 9.75500 34.23700
H  40.93200 8.04900 35.41900
H  39.75300 7.00800 34.50500
H  39.29800 8.05600 35.70300
H  39.71000 11.76800 34.78700
H  40.92500 12.27900 33.55300
H  42.23800 12.97100 35.45800
H  42.00300 11.28600 36.12400
H  36.79300 5.96600 32.20000
H  36.51500 4.87900 30.85600
H  35.62000 6.46400 30.99500
H  35.16000 4.54100 27.32300
H  34.97000 5.76900 28.60000
H  35.74600 4.20900 28.90000
H  40.81200 8.57100 24.87300
H  43.65000 7.70000 25.36400
H  40.34500 6.67600 23.78700
H  41.10100 5.63400 24.89200
H  42.20800 6.45400 23.77000
H  42.65600 9.40300 23.63800
H  44.16900 9.75800 24.43700
H  43.38500 11.69200 25.43900
H  41.79100 10.92100 25.67200
H  42.23900 11.57300 24.08500
H  45.66200 12.24200 27.95600
H  46.44300 10.59200 28.10600
H  46.72200 11.84000 29.36800
H  43.45300 12.46300 33.12700
H  45.97500 10.07500 35.86500
H  44.59800 10.43300 36.93700
H  45.96700 11.57700 36.72900
Mg 48.20700 34.70300 27.37100
C  45.99200 33.38100 29.76900
C  48.35600 37.40400 29.27200
C  49.44500 36.29900 24.78700
C  47.24900 31.89700 25.21500
N  47.46800 35.17800 29.44600
C  46.60500 34.53000 30.16100
C  46.69000 35.08800 31.59700
C  46.96300 36.55900 31.27400
C  47.57800 36.44400 29.84100
C  45.78000 37.65100 31.36100
C  47.83600 34.49700 32.40600
C  48.39500 35.10100 33.71100
H  47.38500 35.65900 34.68300
N  49.05700 36.55400 27.14200
C  49.10100 37.53400 28.07000
C  49.96400 38.63100 27.59500
C  50.09300 38.41600 26.22400
C  49.55100 37.05100 25.98700
C  50.33500 39.87700 28.43500
C  50.72700 39.29000 25.13600
O  50.84900 38.81900 23.98500
C  51.34300 40.67900 25.49400
N  48.10400 34.22800 25.26300
C  48.89200 35.08100 24.46800
C  49.27400 34.36100 23.11600
C  48.58400 32.93800 23.29300
C  47.99700 32.94300 24.67600
C  48.95000 35.11900 21.78400
C  49.44000 31.67400 23.01800
C  50.74900 31.59500 23.86600
N  46.97500 32.91800 27.45900
C  46.63500 31.91700 26.52800
C  45.84300 30.93000 27.14500
C  45.43600 31.50400 28.37100
C  46.20500 32.73500 28.51800
C  45.27600 29.71100 26.39100
C  44.72600 31.25900 29.61700
O  44.01700 30.31800 29.99000
C  44.95900 32.56100 30.53900
C  45.04600 32.06400 31.92200
O  45.80700 31.18700 32.39500
O  43.90000 32.49500 32.60000
C  43.78800 31.98300 34.03000
H  48.37100 38.32300 29.86100
H  49.90200 36.77800 23.91800
H  47.19300 31.00800 24.58400
H  45.78200 34.90900 32.17200
H  47.78800 37.04600 31.79400
H  44.86600 37.14500 31.67100
H  45.69700 38.16400 30.40300
H  46.01200 38.41000 32.10900
H  48.64400 34.18000 31.74700
H  47.44000 33.53300 32.72500
H  49.19300 35.82400 33.54600
H  48.83700 34.27400 34.26700
H  51.41100 40.04400 28.47300
H  50.03200 39.69000 29.46500
H  49.79000 40.72600 28.02300
H  51.59200 41.18100 24.55900
H  52.23200 40.49300 26.09700
H  50.54200 41.22700 25.98900
H  50.35800 34.25300 23.06900
H  47.73300 32.89600 22.61400
H  48.44500 36.02500 22.12100
H  48.31200 34.60000 21.06900
H  49.90400 35.38800 21.32900
H  49.62900 31.55500 21.95100
H  48.85600 30.81300 23.33900
H  50.56000 30.73700 24.51100
H  50.76500 32.48700 24.49200
H  51.73000 31.31800 23.48100
H  46.02400 28.94400 26.19000
H  44.95200 30.02900 25.40000
H  44.43500 29.31400 26.95900
H  44.02700 33.12000 30.62100
H  42.99700 31.31300 34.36700
H  43.73800 32.85200 34.68500
H  44.65000 31.38200 34.32100

