158

Mg -1.42800 7.92500 26.91400
C  -0.37100 9.59000 29.78100
C  -1.82200 5.05700 28.72500
C  -1.87400 6.26700 23.98200
C  -0.64000 10.93100 25.03900
N  -1.08800 7.40300 28.99900
C  -0.81600 8.23300 30.01000
C  -0.88400 7.58200 31.39400
C  -1.03000 6.03800 30.93700
C  -1.39300 6.18900 29.47300
C  0.31100 5.21800 31.02300
C  -2.03000 8.16900 32.21000
C  -2.07600 7.79400 33.72100
H  -0.77300 7.35500 34.41900
N  -1.94600 5.94800 26.45300
C  -2.13400 4.92900 27.37900
C  -2.70200 3.80000 26.65800
C  -2.53100 4.04700 25.23000
C  -2.12700 5.50200 25.16500
C  -3.42400 2.65400 27.41200
C  -2.65100 3.16000 24.04600
O  -2.52700 3.58900 22.91300
C  -3.07100 1.67800 24.26000
N  -1.10500 8.51100 24.83700
C  -1.34400 7.59200 23.85400
C  -1.37000 8.18800 22.47200
C  -1.26000 9.77800 22.86000
C  -1.00500 9.79500 24.29800
C  -0.13500 7.68400 21.67100
C  -2.61800 10.48200 22.55500
C  -2.96400 10.69200 21.04400
N  -0.57200 9.84500 27.25500
C  -0.37700 10.96900 26.41200
C  0.06800 12.06000 27.22500
C  0.13000 11.65000 28.55100
C  -0.31600 10.30500 28.54200
C  0.49800 13.44800 26.76600
C  0.40300 11.96600 29.93200
O  0.90500 12.95400 30.40000
C  0.01900 10.65500 30.76500
C  1.21600 10.31900 31.71500
O  2.18200 9.66500 31.41300
O  1.01900 10.89600 32.88500
C  2.03200 10.88400 33.89700
H  -2.10300 4.18200 29.31500
H  -1.97600 5.75100 23.02500
H  -0.51200 11.84800 24.46000
H  0.04100 7.82600 31.91500
H  -1.79500 5.46300 31.45900
H  1.05600 5.74100 31.62300
H  0.76500 5.04700 30.04700
H  0.15900 4.28200 31.56000
H  -2.94900 7.76700 31.78300
H  -2.07900 9.25200 32.10200
H  -2.91600 7.10500 33.81200
H  -2.28000 8.70200 34.28800
H  -4.41700 2.53700 26.97900
H  -3.61600 2.91900 28.45100
H  -2.86000 1.72800 27.30100
H  -2.38100 1.32500 25.02700
H  -3.11300 1.13800 23.31400
H  -4.10600 1.74500 24.59300
H  -2.35900 7.98300 22.06200
H  -0.43700 10.35900 22.44300
H  0.15200 6.74700 22.14800
H  0.67500 8.39300 21.84500
H  -0.38700 7.57100 20.61700
H  -2.55000 11.50700 22.92000
H  -3.47400 10.00000 23.02800
H  -2.17000 10.41000 20.35300
H  -3.09900 11.76400 20.90200
H  -3.85400 10.27500 20.57300
H  0.71200 13.30300 25.70700
H  1.32700 13.90800 27.30500
H  -0.36500 14.10000 26.90200
H  -0.74400 10.96400 31.48000
H  2.26000 11.87300 34.29600
H  2.96200 10.45500 33.52600
H  1.69400 10.27800 34.73700
Mg 5.89900 55.27100 39.96200
C  4.83300 52.02700 39.98000
C  9.19100 54.20300 39.15300
C  6.97000 58.54900 39.35500
C  2.75500 56.38100 40.17900
N  6.88900 53.39000 39.60300
C  6.23200 52.13700 39.71600
C  7.20600 51.07300 39.03700
C  8.61200 51.70900 39.36100
C  8.19300 53.19600 39.37200
C  9.31900 51.13400 40.62300
C  6.95400 50.90500 37.51400
C  7.04500 49.41100 37.05700
H  6.70200 49.00300 35.63600
N  7.89200 56.26900 39.56100
C  9.03100 55.63300 39.22900
C  10.07300 56.68400 39.04000
C  9.45200 57.94900 39.21800
C  8.03600 57.59200 39.44100
C  11.50700 56.41100 38.70900
C  10.10300 59.34300 39.20900
O  11.32300 59.40500 39.25800
C  9.28900 60.72000 39.28500
N  4.92900 57.19000 39.71100
C  5.56900 58.44000 39.53300
C  4.67400 59.63400 39.78900
C  3.33600 58.90600 39.98900
C  3.64000 57.40200 39.89800
C  5.02400 60.45200 41.07200
C  2.13500 59.31000 39.06800
C  0.79600 59.79100 39.65900
N  4.04700 54.43700 40.17800
C  2.84300 55.04500 40.33500
C  1.83400 54.04300 40.50600
C  2.57600 52.78900 40.46400
C  3.90400 53.12200 40.17900
C  0.35000 54.20000 40.67400
C  2.46500 51.39000 40.54200
O  1.47800 50.75400 40.93200
C  3.86800 50.82500 40.11200
C  3.61300 50.07800 38.86000
O  3.57100 50.57200 37.75800
O  3.33800 48.75800 39.25200
C  3.22000 47.98300 38.05000
H  10.16000 53.82500 38.82100
H  7.17400 59.60500 39.16600
H  1.71000 56.67500 40.30000
H  7.14600 50.09200 39.50900
H  9.30500 51.39700 38.58000
H  8.80900 50.29900 41.10300
H  9.09900 51.99800 41.25000
H  10.39900 51.01300 40.54500
H  7.65600 51.39900 36.84200
H  5.98700 51.29800 37.19800
H  6.39500 48.75700 37.63900
H  8.03400 49.06300 37.35400
H  11.61700 55.41700 38.27500
H  12.22300 56.36700 39.53000
H  11.93700 57.21400 38.11100
H  8.76100 60.86100 38.34200
H  10.12600 61.36600 39.54900
H  8.58800 60.84300 40.11000
H  4.68200 60.34700 38.96400
H  2.96700 59.01700 41.00800
H  4.33500 60.23000 41.88600
H  4.91100 61.51900 40.87900
H  5.99200 60.21400 41.51300
H  1.91300 58.44700 38.44000
H  2.46500 60.12200 38.42100
H  0.75000 59.54400 40.72000
H  0.07000 59.15500 39.15200
H  0.53600 60.83800 39.50500
H  -0.13400 54.76800 39.87900
H  0.16100 54.70300 41.62200
H  -0.02100 53.17600 40.62500
H  4.18000 50.19900 40.94900
H  2.28700 48.25400 37.55500
H  3.18000 46.90200 38.17600
H  4.06100 48.18400 37.38600

