158

Mg 46.55000 25.39000 28.89500
C  47.49300 27.66300 31.50700
C  45.91900 23.07400 31.31300
C  46.28200 22.99000 26.38000
C  47.92700 27.61000 26.64900
N  46.53800 25.42400 31.15600
C  46.76200 26.52600 31.99000
C  46.39300 26.25300 33.41900
C  45.95600 24.70800 33.36500
C  46.09500 24.36900 31.87900
C  46.93300 23.80100 34.18600
C  45.19900 27.19800 33.90200
C  45.40400 27.87800 35.20900
H  46.23100 27.16400 36.31000
N  46.02700 23.31000 28.81300
C  45.87800 22.52800 30.00900
C  45.48200 21.17900 29.53800
C  45.52600 21.14500 28.09100
C  45.96400 22.51300 27.70100
C  45.07600 20.09200 30.54700
C  45.12200 20.00800 27.20500
O  45.26400 19.98200 25.97800
C  44.56400 18.77600 27.92600
N  46.86000 25.36700 26.83200
C  46.61400 24.29900 25.95600
C  46.97100 24.66800 24.51300
C  47.31200 26.15100 24.64500
C  47.41500 26.41500 26.13000
C  48.19300 23.90800 23.94700
C  46.30300 27.13800 23.96700
C  46.91100 28.41000 23.32000
N  47.50700 27.24500 28.94300
C  47.94900 28.01800 27.97100
C  48.56400 29.20700 28.53700
C  48.35100 29.12900 29.87900
C  47.74400 27.91600 30.11600
C  49.16700 30.22700 27.78800
C  48.59800 29.82900 31.16700
O  49.01300 30.95400 31.47500
C  48.02400 28.82100 32.26900
C  49.00300 28.49500 33.24400
O  49.56800 27.38500 33.26900
O  49.26600 29.46400 34.12300
C  50.17400 29.13500 35.25100
H  45.78100 22.35600 32.12400
H  45.92200 22.40800 25.52900
H  48.29000 28.27300 25.86000
H  47.24000 26.30700 34.10400
H  44.94600 24.39500 33.63000
H  47.41200 24.37700 34.97800
H  47.74400 23.51700 33.51500
H  46.34300 23.00900 34.64700
H  44.20300 26.76000 33.84100
H  45.13000 27.99300 33.15900
H  44.43400 28.04300 35.67700
H  45.78000 28.88700 35.04100
H  43.99400 19.97700 30.47100
H  45.29300 20.45500 31.55100
H  45.66000 19.18100 30.41400
H  43.80300 19.05600 28.65400
H  45.38500 18.13300 28.24200
H  44.13900 18.25400 27.06800
H  46.09000 24.39300 23.93300
H  48.30200 26.45500 24.30500
H  47.92300 23.25800 23.11400
H  48.51000 23.28600 24.78400
H  49.03300 24.57500 23.75300
H  45.68900 27.46100 24.80700
H  45.61600 26.56700 23.34200
H  46.60400 28.55200 22.28400
H  47.99500 28.36600 23.20900
H  46.68000 29.33100 23.85600
H  49.58200 29.98000 26.81100
H  50.05200 30.54900 28.33600
H  48.48100 31.06300 27.65300
H  47.22600 29.38000 32.75800
H  51.01900 28.53200 34.91900
H  49.55300 28.66400 36.01300
H  50.44500 30.08700 35.70700
Mg 0.91600 43.03900 26.42000
C  2.97300 43.22800 29.11700
C  -1.77600 42.57400 28.82700
C  -1.38000 42.42600 23.95800
C  3.47600 43.35300 24.20500
N  0.65500 42.70800 28.70800
C  1.70900 42.91000 29.61300
C  1.26500 42.71700 31.00500
C  -0.20900 42.24500 30.78400
C  -0.51000 42.52200 29.30900
C  -0.51600 40.75900 31.21900
C  1.33100 44.10000 31.71200
C  1.14200 44.25300 33.19700
H  0.91900 42.93600 34.01200
N  -1.33000 42.61300 26.37400
C  -2.19100 42.57500 27.45800
C  -3.55300 42.27800 26.99700
C  -3.42000 42.17900 25.54900
C  -1.97500 42.44000 25.21600
C  -4.75600 42.12400 27.94000
C  -4.44800 41.69700 24.61500
O  -4.19700 41.39900 23.46800
C  -5.84400 41.59000 25.14200
N  1.06500 42.67700 24.48400
C  -0.00500 42.46700 23.64800
C  0.44200 42.50800 22.16600
C  1.89800 43.03100 22.21000
C  2.18300 43.07100 23.70300
C  0.30700 41.13100 21.44700
C  2.03100 44.41900 21.52500
C  1.94800 45.68800 22.39900
N  2.81700 43.29600 26.54200
C  3.82500 43.48300 25.61600
C  5.13600 43.71000 26.27500
C  4.82000 43.63900 27.60000
C  3.41300 43.36900 27.74700
C  6.58100 43.77600 25.69700
C  5.33500 43.79600 28.96300
O  6.43900 44.12300 29.33300
C  4.23900 43.45000 29.90900
C  4.64100 42.18600 30.54600
O  4.63700 41.10200 30.11100
O  5.00300 42.52000 31.81700
C  5.71800 41.54900 32.68300
H  -2.63500 42.36600 29.46900
H  -2.05800 42.37500 23.10300
H  4.39600 43.61400 23.67900
H  1.89900 41.95600 31.46000
H  -0.87400 42.86100 31.38900
H  -1.10700 40.28900 30.43300
H  -0.96700 40.75000 32.21100
H  0.36100 40.18000 31.50800
H  0.50700 44.71600 31.34900
H  2.28200 44.55600 31.43900
H  0.33900 44.92000 33.51000
H  2.11100 44.58200 33.57300
H  -5.45000 42.91000 27.63900
H  -4.48000 42.26500 28.98500
H  -5.18500 41.12800 27.82900
H  -5.98000 40.65500 25.68500
H  -6.46300 41.55000 24.24600
H  -6.16000 42.48200 25.68300
H  -0.34300 43.15100 21.76800
H  2.52400 42.27400 21.73800
H  1.24700 40.62000 21.23800
H  -0.27200 41.13800 20.52300
H  -0.29300 40.40400 21.99400
H  1.25400 44.45600 20.76100
H  2.95200 44.33400 20.94900
H  1.27100 46.37200 21.88700
H  2.95700 46.08800 22.49400
H  1.67000 45.63200 23.45100
H  7.18000 43.16400 26.37100
H  6.89800 44.81800 25.75100
H  6.58100 43.37100 24.68600
H  4.10700 44.31300 30.56200
H  6.60400 42.02300 33.10500
H  6.11300 40.71500 32.10300
H  5.11300 41.05000 33.44100

