158

Mg 30.20400 60.20900 41.03100
C  27.18300 58.66900 39.92300
C  31.82700 57.38800 40.30600
C  33.07300 62.02700 41.22700
C  28.38600 63.27200 41.24700
N  29.60700 58.35300 39.91700
C  28.31000 57.88200 39.66500
C  28.32200 56.46700 39.23600
C  29.80000 55.97600 39.56100
C  30.48200 57.29000 39.99700
C  30.01200 54.79600 40.55900
C  27.90200 56.44700 37.75500
C  26.94600 55.32500 37.31200
H  27.02500 54.70200 35.90800
N  32.20200 59.70300 40.76000
C  32.71000 58.51300 40.51100
C  34.14300 58.51900 40.63900
C  34.52100 59.91500 40.92400
C  33.24400 60.62500 40.98300
C  34.98500 57.37600 40.59300
C  36.01300 60.37900 41.03900
O  36.96200 59.63000 40.86900
C  36.32600 61.79000 41.47900
N  30.68100 62.33000 41.14300
C  31.91800 62.77900 41.37600
C  31.93600 64.30600 41.67800
C  30.45300 64.70300 41.69700
C  29.77700 63.35200 41.26700
C  32.71700 64.57700 43.05400
C  30.06300 65.95300 40.84600
C  29.58600 67.18200 41.61700
N  28.22900 60.81100 40.87800
C  27.66500 62.05600 41.00100
C  26.21700 62.00400 40.77600
C  26.00500 60.61500 40.48800
C  27.24200 59.98500 40.45000
C  25.13600 63.11100 40.78100
C  24.96700 59.64500 40.12900
O  23.68300 59.66800 40.05300
C  25.72300 58.32300 39.69600
C  25.21100 57.26100 40.65300
O  25.37100 57.25900 41.87500
O  24.33700 56.44800 39.94900
C  23.41200 55.68600 40.79300
H  32.33100 56.42000 40.25700
H  33.97600 62.63100 41.34100
H  27.86000 64.19300 41.50300
H  27.60000 55.86000 39.78400
H  30.27800 55.65500 38.63500
H  29.26100 54.01900 40.69800
H  30.23800 55.27000 41.51500
H  30.85300 54.15100 40.30400
H  28.76000 56.36600 37.08700
H  27.33600 57.33700 37.47900
H  25.89700 55.57500 37.46800
H  27.17200 54.53500 38.02800
H  35.45500 57.44300 39.61200
H  34.42600 56.44000 40.60600
H  35.64400 57.46700 41.45600
H  36.20600 62.38900 40.57700
H  37.32400 61.84000 41.91300
H  35.69600 62.09600 42.31500
H  32.47400 64.71700 40.82400
H  30.09300 64.86800 42.71200
H  33.42700 65.37000 42.81900
H  33.21600 63.72300 43.51100
H  32.10900 65.03200 43.83600
H  29.32000 65.79900 40.06400
H  30.92700 66.27400 40.26500
H  28.56900 67.43300 41.31600
H  30.11000 68.13800 41.58000
H  29.84800 66.96000 42.65200
H  24.98300 63.50100 41.78700
H  24.27300 62.58300 40.37300
H  25.43500 63.91000 40.10300
H  25.55400 57.96700 38.67900
H  22.61200 56.32200 41.17200
H  23.90000 55.16000 41.61300
H  22.89200 54.89200 40.25700
Mg 25.86600 50.93200 26.85300
C  23.43800 51.72100 29.36900
C  28.09900 50.12300 29.33800
C  27.97900 50.49100 24.47100
C  23.58800 52.16300 24.46500
N  25.76700 51.07000 29.13200
C  24.63700 51.24800 29.89600
C  24.95000 51.02900 31.33900
C  26.52500 50.69100 31.35400
C  26.83100 50.51000 29.83000
C  27.39400 51.80400 31.96400
C  24.00900 49.97800 31.94400
C  23.65800 49.95100 33.46700
H  24.16300 51.02900 34.41900
N  27.80400 50.35500 26.89700
C  28.58200 50.08500 28.01100
C  29.88700 49.70400 27.51300
C  29.83900 49.78700 26.12200
C  28.52000 50.29000 25.78500
C  31.05500 49.37400 28.35600
C  31.03600 49.59600 25.05800
O  30.91000 49.70700 23.84300
C  32.36200 49.19000 25.50600
N  25.82600 51.40100 24.75900
C  26.83000 51.01800 23.99100
C  26.62000 51.24900 22.44900
C  25.16800 51.77900 22.44200
C  24.84500 51.86700 23.97100
C  27.71000 52.14600 21.78900
C  24.17800 50.86200 21.62400
C  23.91700 49.43100 22.18700
N  23.93400 51.73900 26.88300
C  23.15100 52.17000 25.81300
C  21.82600 52.45300 26.26300
C  21.93200 52.46200 27.66600
C  23.20200 51.87200 27.99100
C  20.56900 52.96000 25.46400
C  21.17500 52.74700 28.91800
O  20.06900 53.26700 29.13700
C  22.20400 52.31500 30.04000
C  22.56000 53.52700 30.79500
O  22.92500 54.59600 30.36300
O  22.56800 53.19200 32.10700
C  23.15700 54.21300 33.03200
H  28.70200 49.82400 30.19700
H  28.63400 50.09100 23.69400
H  22.83400 52.50100 23.75200
H  24.71900 52.00100 31.77500
H  26.73900 49.72100 31.80200
H  26.71700 52.65100 32.07400
H  28.14500 52.20100 31.28100
H  27.87800 51.51300 32.89700
H  24.54100 49.02800 31.88200
H  23.17900 49.85300 31.24900
H  23.90400 48.96000 33.84800
H  22.57400 50.06400 33.47500
H  31.70500 50.24700 28.42600
H  31.58100 48.54500 27.88200
H  30.66500 49.07300 29.32800
H  32.44500 48.26000 26.06900
H  32.64800 49.99400 26.18400
H  33.01600 49.02500 24.65000
H  26.75300 50.31700 21.90000
H  25.15900 52.78300 22.01800
H  27.27600 53.14400 21.73000
H  27.91200 51.80800 20.77300
H  28.57600 52.40400 22.40000
H  24.51000 50.90600 20.58700
H  23.23300 51.39400 21.73600
H  24.05500 48.64600 21.44300
H  22.91200 49.28200 22.58200
H  24.68600 49.09000 22.88100
H  19.70900 52.82600 26.12000
H  20.34300 52.43300 24.53700
H  20.81400 53.98700 25.19300
H  21.75800 51.54700 30.67200
H  22.60300 55.12600 32.81100
H  24.22100 54.28500 32.80600
H  22.97000 53.98800 34.08200

