158

Mg 1.39300 -1.36400 44.07900
C  4.71400 -0.62900 43.45300
C  0.58900 1.32100 42.11500
C  -1.81300 -2.47300 44.29800
C  2.43200 -4.52500 45.47700
N  2.55400 0.23200 42.93800
C  3.88500 0.34900 42.89600
C  4.37600 1.73800 42.46400
C  2.98800 2.39300 42.05300
C  1.95900 1.28700 42.36300
C  2.53500 3.75800 42.59300
C  5.38300 1.86900 41.25900
C  5.75800 0.84000 40.20800
H  5.43900 1.08600 38.69800
N  -0.28500 -0.74200 43.30600
C  -0.44500 0.36900 42.45600
C  -1.84700 0.46600 42.10300
C  -2.57600 -0.39800 42.94300
C  -1.53400 -1.24300 43.57900
C  -2.36300 1.61700 41.28900
C  -4.04100 -0.37500 43.08300
O  -4.69400 0.56500 42.60900
C  -4.83900 -1.39900 43.75500
N  0.35800 -3.22000 44.89900
C  -0.97400 -3.38500 44.94200
C  -1.34200 -4.82200 45.41700
C  0.05300 -5.41900 45.84500
C  1.01400 -4.31900 45.35300
C  -2.52600 -4.92600 46.37800
C  0.34400 -6.76400 45.19000
C  1.12300 -7.72700 46.15900
N  3.20400 -2.37300 44.48900
C  3.43600 -3.63300 45.04700
C  4.87800 -3.76200 45.15700
C  5.45100 -2.68200 44.54100
C  4.38000 -1.84100 44.09900
C  5.58900 -5.00300 45.78000
C  6.68300 -2.08000 44.12400
O  7.84300 -2.41300 44.20100
C  6.24000 -0.66200 43.50300
C  6.85900 0.38900 44.31500
O  6.37300 0.90700 45.31600
O  8.06000 0.79100 43.78800
C  8.62800 2.00200 44.30000
H  0.23600 2.26100 41.68500
H  -2.85300 -2.78800 44.19100
H  2.75300 -5.53300 45.74600
H  4.78900 2.26300 43.32500
H  2.93600 2.53000 40.97300
H  3.11900 4.11100 43.44300
H  1.47300 3.81500 42.82900
H  2.55900 4.45000 41.75200
H  6.31700 2.35200 41.54700
H  4.83100 2.66100 40.75300
H  5.20300 -0.07300 40.42200
H  6.81400 0.57400 40.24400
H  -1.62200 2.15700 40.70000
H  -2.89400 2.26400 41.98600
H  -3.12800 1.27900 40.58900
H  -5.90200 -1.16400 43.69000
H  -4.55300 -1.42000 44.80700
H  -4.63800 -2.30100 43.17700
H  -1.73600 -5.33300 44.53800
H  0.08200 -5.57100 46.92400
H  -3.41700 -5.33900 45.90700
H  -2.74700 -3.88500 46.61100
H  -2.19400 -5.37100 47.31700
H  0.97300 -6.62700 44.31100
H  -0.58500 -7.28700 44.96100
H  0.47200 -8.57900 46.35900
H  1.54400 -7.32600 47.08100
H  1.98900 -8.11400 45.62300
H  5.20300 -5.10800 46.79300
H  6.65800 -4.81000 45.86900
H  5.40900 -5.91900 45.21700
H  6.68300 -0.64000 42.50700
H  9.22500 1.68100 45.15400
H  7.78900 2.57900 44.68800
H  9.22000 2.51500 43.54200
Mg -4.73400 25.77200 26.23100
C  -3.34100 27.39800 28.80200
C  -6.70200 23.88100 28.38400
C  -5.62700 23.73100 23.64700
C  -2.74600 27.52000 23.94300
N  -4.93200 25.55200 28.38100
C  -4.33900 26.48500 29.25700
C  -4.69600 26.06000 30.71600
C  -5.59600 24.80800 30.47900
C  -5.80200 24.79900 28.96600
C  -4.91800 23.44100 30.94900
C  -5.36700 27.15900 31.50900
C  -4.99200 27.22900 33.01100
H  -4.70800 25.95400 33.70600
N  -5.98800 24.01600 26.05600
C  -6.80200 23.49600 27.01200
C  -7.65900 22.45000 26.48100
C  -7.31100 22.31000 25.11800
C  -6.29900 23.37000 24.88600
C  -8.80000 21.81000 27.31200
C  -7.92000 21.35600 24.18800
O  -7.56500 21.38200 22.99000
C  -8.90000 20.34500 24.55900
N  -4.20900 25.62600 24.14500
C  -4.71600 24.73800 23.32300
C  -4.37600 25.02000 21.80200
C  -3.53900 26.32300 21.95600
C  -3.53200 26.51600 23.42400
C  -3.64200 23.79900 21.24000
C  -4.05100 27.55000 21.17000
C  -3.02000 28.06200 20.17900
N  -3.37200 27.25200 26.29500
C  -2.65400 27.91300 25.27700
C  -1.68900 28.76300 25.99600
C  -1.91100 28.55300 27.33500
C  -2.96600 27.64600 27.46200
C  -0.63000 29.65700 25.22800
C  -1.47700 28.95600 28.58100
O  -0.55200 29.67900 28.89500
C  -2.38200 28.25100 29.62700
C  -1.57000 27.41900 30.51100
O  -0.84400 26.57100 30.11600
O  -1.80500 27.66900 31.83600
C  -1.09400 26.73900 32.79900
H  -7.24700 23.28200 29.11700
H  -5.93700 23.11700 22.79900
H  -1.92000 27.94200 23.36700
H  -3.73300 25.71800 31.09300
H  -6.53700 24.90600 31.02000
H  -3.88100 23.64500 31.21400
H  -5.02900 22.66800 30.18800
H  -5.42900 23.08700 31.84400
H  -6.45300 27.07500 31.45700
H  -5.17400 28.11400 31.02000
H  -5.88900 27.67700 33.43800
H  -4.18300 27.93400 33.20100
H  -8.75400 20.72700 27.19000
H  -9.76800 22.23200 27.04600
H  -8.68400 21.87600 28.39400
H  -9.38200 19.88500 23.69600
H  -9.75700 20.86600 24.98600
H  -8.59100 19.59000 25.28200
H  -5.32500 25.21000 21.30000
H  -2.51400 26.12900 21.64000
H  -4.41200 23.12900 20.85500
H  -2.98800 23.46800 22.04600
H  -3.08000 24.06000 20.34300
H  -4.36200 28.34100 21.85200
H  -4.98900 27.29700 20.67500
H  -3.39800 28.80300 19.47400
H  -2.40100 27.32900 19.66000
H  -2.31500 28.56400 20.84200
H  -1.15400 30.54900 24.88400
H  -0.29200 29.15900 24.31900
H  0.13800 29.86500 25.97300
H  -2.99900 29.03600 30.06400
H  -0.91600 27.18100 33.78000
H  -0.09400 26.51700 32.42800
H  -1.78700 25.89800 32.78400

