158

Mg 34.96400 49.04700 25.41800
C  34.89000 47.37400 28.47000
C  33.81800 51.88500 27.00800
C  34.53700 50.35100 22.40000
C  36.08800 46.11500 23.88200
N  34.61200 49.56600 27.54800
C  34.65400 48.78100 28.60900
C  34.50600 49.51200 29.98800
C  33.98000 50.89200 29.41200
C  34.13800 50.78100 27.84600
C  32.56400 51.34400 29.90500
C  35.81700 49.63500 30.82800
C  35.66600 49.90700 32.32400
H  34.32200 49.95900 33.01300
N  34.35500 50.88800 24.81900
C  33.94200 51.93400 25.60100
C  33.48500 53.04500 24.80300
C  33.72100 52.67800 23.43700
C  34.26000 51.22700 23.49100
C  32.88500 54.35000 25.33000
C  33.63700 53.53800 22.15500
O  34.05100 53.06300 21.07300
C  33.12000 54.93400 22.07800
N  35.08200 48.22200 23.48300
C  35.01400 49.04100 22.39700
C  35.18500 48.32300 21.02900
C  35.86700 47.05900 21.52700
C  35.74500 47.13700 23.05600
C  33.86000 48.06800 20.15200
C  37.29000 46.79300 20.93700
C  38.47300 47.34600 21.78800
N  35.48800 47.16000 26.01700
C  35.96200 46.01300 25.26000
C  36.18900 44.93000 26.14500
C  35.77600 45.42200 27.41900
C  35.32000 46.73800 27.30300
C  36.64600 43.50700 25.78600
C  35.52900 44.96600 28.78600
O  35.77300 43.95700 29.48000
C  34.97300 46.27700 29.51900
C  33.74600 45.87500 30.27100
O  32.64000 45.80200 29.78400
O  34.03000 45.59800 31.63100
C  32.92800 45.04700 32.44800
H  33.46800 52.76600 27.55000
H  34.35100 50.85100 21.44700
H  36.45700 45.25800 23.31500
H  33.71700 49.06700 30.59400
H  34.59200 51.73600 29.73200
H  32.23500 50.51900 30.53700
H  31.89600 51.52500 29.06300
H  32.58700 52.24000 30.52600
H  36.54100 50.36200 30.46200
H  36.40800 48.72700 30.70800
H  36.21800 50.82600 32.52200
H  36.24000 49.16300 32.87700
H  32.67700 54.52700 26.38500
H  31.96900 54.44400 24.74600
H  33.53600 55.15900 24.99700
H  33.73200 55.59400 22.69500
H  32.05800 54.89400 22.31900
H  33.10200 55.36400 21.07700
H  35.79300 48.86100 20.30100
H  35.22400 46.21100 21.29200
H  33.48500 47.04900 20.05600
H  34.02700 48.37300 19.11900
H  33.03000 48.51100 20.70300
H  37.38600 47.32900 19.99200
H  37.44700 45.73000 20.75500
H  39.07900 46.50500 22.12600
H  38.30100 47.92200 22.69700
H  39.06900 47.91200 21.07200
H  37.30600 43.52000 24.91900
H  35.78600 42.87500 25.56700
H  37.27100 43.13500 26.59800
H  35.69200 46.59600 30.27300
H  32.18900 44.47600 31.88700
H  32.41300 45.95100 32.77300
H  33.23100 44.38300 33.25800
Mg -0.62700 43.86900 26.27500
C  1.85500 43.32200 28.58000
C  -2.91400 43.59000 28.75900
C  -3.07100 43.79600 24.01500
C  1.75300 43.42900 23.74400
N  -0.52500 43.40700 28.32700
C  0.59000 43.30500 29.13200
C  0.25800 43.39000 30.63000
C  -1.18500 42.78300 30.51800
C  -1.59500 43.20700 29.11000
C  -1.22800 41.19300 30.75600
C  0.34400 44.85000 31.21500
C  0.41000 44.93100 32.75000
H  0.13600 43.62900 33.63000
N  -2.74100 44.02300 26.40800
C  -3.50800 43.94600 27.58500
C  -4.86100 44.19000 27.28500
C  -4.95700 44.25600 25.84300
C  -3.57100 44.03200 25.30000
C  -5.79200 44.50900 28.40200
C  -6.14900 44.41700 24.99200
O  -6.03200 44.55000 23.77900
C  -7.61200 44.35100 25.53700
N  -0.72800 43.54300 24.24400
C  -1.85500 43.57500 23.52700
C  -1.60700 43.46000 21.98400
C  -0.05800 43.62500 21.92000
C  0.37700 43.49400 23.36800
C  -2.16800 42.04900 21.35600
C  0.52400 44.94000 21.37800
C  0.08600 46.16000 22.24400
N  1.45000 43.42500 26.11700
C  2.27800 43.37600 25.01700
C  3.61000 43.38100 25.47800
C  3.47800 43.30200 26.91100
C  2.13400 43.35500 27.22400
C  4.84500 43.50400 24.64600
C  4.24700 43.23600 28.11600
O  5.44700 43.09800 28.34600
C  3.25900 43.34400 29.24000
C  3.50800 42.27000 30.20500
O  3.77300 41.12200 29.91400
O  3.30800 42.67100 31.46500
C  3.70600 41.71300 32.51000
H  -3.57800 43.51900 29.62300
H  -3.80500 43.87000 23.20900
H  2.47600 43.44700 22.92600
H  0.88400 42.68400 31.17700
H  -1.78500 43.31500 31.25600
H  -1.64200 40.56100 29.97000
H  -1.66100 41.09500 31.75100
H  -0.22300 40.77200 30.75400
H  -0.55700 45.43700 31.03700
H  1.17200 45.38000 30.74300
H  -0.47600 45.47500 33.07800
H  1.32700 45.38100 33.12800
H  -5.27600 45.17000 29.09800
H  -6.13900 43.65900 28.98900
H  -6.71600 45.00000 28.09700
H  -8.29500 44.16900 24.70700
H  -7.80600 45.18100 26.21700
H  -7.81200 43.43300 26.09000
H  -2.18400 44.22800 21.46900
H  0.29200 42.73600 21.39600
H  -3.10300 42.08400 20.79500
H  -2.15700 41.29900 22.14600
H  -1.43500 41.87100 20.56900
H  0.13500 45.05900 20.36700
H  1.59600 44.86500 21.19500
H  0.92300 46.45700 22.87600
H  -0.79900 45.94600 22.84400
H  -0.23400 46.88900 21.49900
H  4.96200 42.64200 23.98900
H  5.69600 43.64100 25.31200
H  4.85600 44.38800 24.00800
H  3.40400 44.32100 29.70100
H  4.79600 41.70000 32.50800
H  3.29300 40.71800 32.34300
H  3.58400 42.10100 33.52100

