158

Mg 16.48300 -1.21000 27.90800
C  15.55500 1.14000 30.53900
C  18.23100 -2.95000 30.17500
C  17.64100 -3.03800 25.34300
C  15.12400 1.07900 25.60500
N  16.96500 -0.85400 30.02800
C  16.42100 0.08000 30.93300
C  16.89100 -0.18800 32.34900
C  17.76000 -1.45700 32.18100
C  17.73800 -1.75500 30.65200
C  19.27900 -1.12700 32.59000
C  15.67700 -0.37700 33.36900
C  15.83100 0.33600 34.74100
H  17.30300 0.65700 35.24100
N  17.82500 -2.79900 27.78700
C  18.40100 -3.48400 28.81600
C  19.05200 -4.65300 28.28100
C  18.85400 -4.67400 26.90200
C  18.05600 -3.48900 26.63100
C  19.97800 -5.57200 29.11200
C  19.12400 -5.72300 25.82900
O  18.88500 -5.61900 24.61500
C  19.83300 -6.92900 26.28500
N  16.58300 -0.92800 25.72500
C  16.99100 -1.90800 24.90400
C  17.01100 -1.50000 23.47400
C  15.93000 -0.31400 23.52900
C  15.79100 -0.05000 25.05400
C  18.42200 -1.09800 22.97200
C  14.54300 -0.61300 22.82900
C  14.01000 0.57600 21.92600
N  15.44500 0.65800 27.96100
C  15.01000 1.47500 26.97300
C  14.30700 2.67300 27.54500
C  14.47700 2.51600 28.93700
C  15.23600 1.33800 29.15800
C  13.50200 3.70100 26.83100
C  14.07800 3.12200 30.21600
O  13.41300 4.10800 30.53200
C  14.74800 2.23200 31.31700
C  15.52100 2.99600 32.22300
O  16.71100 3.27000 32.09100
O  14.79200 3.47400 33.33200
C  15.59900 4.35600 34.20100
H  18.68200 -3.51300 30.99500
H  18.04400 -3.59100 24.49200
H  14.68700 1.74700 24.86000
H  17.51800 0.65800 32.63000
H  17.33300 -2.28700 32.74300
H  19.32900 -0.14100 33.05100
H  19.89900 -1.10200 31.69400
H  19.62900 -1.83600 33.34000
H  15.53400 -1.42700 33.62400
H  14.72600 -0.11300 32.90700
H  15.39700 -0.31600 35.50000
H  15.32400 1.29900 34.66900
H  20.77500 -5.91000 28.44900
H  19.42600 -6.48600 29.33100
H  20.43800 -5.08100 29.96900
H  19.35900 -7.44100 27.12300
H  20.84900 -6.54600 26.38300
H  19.93600 -7.68100 25.50300
H  16.62200 -2.41300 23.02300
H  16.41000 0.55900 23.08700
H  18.35000 -0.10800 22.52200
H  18.64000 -1.80700 22.17300
H  19.18400 -0.96800 23.74000
H  13.82200 -0.76900 23.63100
H  14.70500 -1.48500 22.19600
H  14.62600 1.47300 21.98700
H  13.04700 0.89300 22.32700
H  13.81300 0.10300 20.96400
H  14.08400 4.62300 26.86500
H  12.52100 3.75600 27.30100
H  13.11300 3.54800 25.82400
H  14.01300 1.67500 31.89900
H  14.95900 4.60500 35.04700
H  15.89700 5.27400 33.69300
H  16.45800 3.92500 34.71700
Mg 41.27600 9.75200 29.14100
C  43.38100 10.47800 31.83900
C  39.06700 8.40300 31.22800
C  39.71100 8.40200 26.42200
C  44.03700 10.45700 26.95200
N  41.26600 9.47700 31.30900
C  42.10800 9.96100 32.26000
C  41.52700 9.84700 33.68000
C  40.20200 9.14700 33.41100
C  40.12800 9.05900 31.86900
C  40.09200 7.71800 34.07400
C  41.33400 11.19700 34.42700
C  40.89700 11.18200 35.92100
H  41.99900 11.44100 36.93800
N  39.65700 8.52200 28.83600
C  38.78500 8.11300 29.84200
C  37.65800 7.38000 29.30200
C  37.77500 7.64000 27.87000
C  39.13900 8.17500 27.66100
C  36.57100 6.72900 30.14500
C  36.77100 7.40800 26.76500
O  36.97200 7.65900 25.57200
C  35.43400 6.87500 27.05900
N  41.88000 9.37200 26.95900
C  40.95600 8.94600 26.04400
C  41.42000 9.17400 24.58000
C  42.72600 9.88700 24.82800
C  42.92300 9.93400 26.33400
C  41.57200 7.81900 23.79400
C  42.57600 11.28600 24.21600
C  42.09000 12.47500 25.14600
N  43.27700 10.36200 29.30400
C  44.23100 10.66900 28.34700
C  45.42500 11.12800 28.95900
C  45.13500 11.10200 30.33300
C  43.82300 10.65800 30.50400
C  46.69400 11.38200 28.23700
C  45.70700 11.30200 31.63500
O  46.84600 11.63300 32.02900
C  44.55100 10.89700 32.69700
C  44.92800 9.93100 33.69600
O  44.99100 8.74300 33.46600
O  45.24600 10.54300 34.85200
C  45.66400 9.63700 35.92700
H  38.41600 7.91200 31.95400
H  39.27800 7.84900 25.58600
H  44.75200 10.87400 26.23900
H  42.16400 9.16800 34.24800
H  39.31900 9.77100 33.54100
H  40.97500 7.41800 34.63800
H  39.92300 6.88800 33.38700
H  39.18300 7.94800 34.63000
H  40.68100 11.92500 33.94400
H  42.32700 11.63700 34.34100
H  40.43200 10.24400 36.22400
H  40.08500 11.90000 36.03600
H  36.79200 6.83500 31.20700
H  36.36700 5.68000 29.92600
H  35.64700 7.28700 29.99400
H  34.85100 6.88200 26.13800
H  34.93400 7.62100 27.67600
H  35.50800 5.89400 27.52800
H  40.71600 9.68500 23.92400
H  43.55400 9.43000 24.28600
H  41.44300 6.96500 24.46000
H  42.55300 7.67000 23.34200
H  40.78500 7.92500 23.04900
H  42.03600 11.40000 23.27600
H  43.59600 11.55100 23.93700
H  42.96700 13.06100 25.41900
H  41.56600 12.12700 26.03700
H  41.41300 13.08300 24.54500
H  47.52400 11.23400 28.92700
H  46.91100 12.36000 27.80700
H  46.75900 10.73000 27.36600
H  44.34200 11.81400 33.24900
H  44.73600 9.31300 36.39900
H  46.32300 10.16500 36.61600
H  46.29800 8.82900 35.56400

