158

Mg 16.55000 -2.37900 28.78000
C  15.32400 -0.00500 31.09800
C  18.76700 -3.59000 31.18400
C  18.07600 -3.91500 26.39000
C  14.67700 -0.62200 26.38000
N  16.95800 -1.77900 30.91700
C  16.32200 -0.89400 31.66500
C  16.71600 -1.04400 33.18900
C  18.08000 -1.74300 33.05300
C  17.95100 -2.44500 31.60500
C  19.32200 -0.82400 33.06400
C  15.68100 -1.87600 34.13600
C  15.34100 -1.36400 35.60800
H  16.36400 -0.51600 36.32200
N  17.98700 -3.81600 28.82300
C  18.81500 -4.13500 29.84900
C  19.68100 -5.27400 29.36400
C  19.55000 -5.35000 27.93000
C  18.48100 -4.33900 27.66300
C  20.60000 -6.07700 30.35800
C  20.25200 -6.28100 26.93600
O  19.96600 -6.28400 25.73100
C  21.33000 -7.29900 27.28800
N  16.52700 -2.11900 26.67000
C  17.20900 -2.90900 25.88500
C  17.06000 -2.54900 24.39900
C  15.74700 -1.77000 24.50000
C  15.61600 -1.47200 25.90700
C  18.35600 -1.75000 23.87400
C  14.48200 -2.36300 23.76800
C  13.84100 -1.47300 22.69500
N  15.27500 -0.65600 28.69500
C  14.54200 -0.10500 27.63400
C  13.65900 0.94500 28.14400
C  13.95800 1.07600 29.50700
C  14.99300 0.10500 29.74900
C  12.69800 1.74900 27.23800
C  13.57800 1.74100 30.72100
O  12.77200 2.67700 30.85500
C  14.52900 1.02200 31.78700
C  15.27700 2.14600 32.38800
O  15.87500 2.94500 31.69300
O  15.07600 2.35800 33.71400
C  15.70800 3.48100 34.43800
H  19.47000 -3.99100 31.91600
H  18.43500 -4.42800 25.49500
H  14.00300 -0.31000 25.58000
H  16.88600 -0.04700 33.59400
H  18.06800 -2.45600 33.87700
H  19.89000 -0.83000 32.13400
H  19.98500 -1.12700 33.87500
H  19.06400 0.21100 33.28800
H  15.95300 -2.93000 34.19500
H  14.72900 -1.94200 33.60800
H  15.09900 -2.19600 36.27000
H  14.42100 -0.78100 35.56300
H  21.27900 -6.77100 29.86300
H  19.86300 -6.73000 30.82600
H  21.02100 -5.36500 31.06700
H  22.11200 -6.78900 27.85000
H  21.77700 -7.65800 26.36000
H  20.90600 -8.12400 27.85900
H  16.91400 -3.48400 23.85700
H  15.83500 -0.80400 24.00300
H  18.85700 -1.29700 24.72900
H  18.07100 -0.91100 23.23800
H  19.07700 -2.37100 23.34100
H  13.80500 -2.73900 24.53500
H  14.80200 -3.30600 23.32500
H  13.08500 -2.10800 22.23300
H  14.66500 -1.07500 22.10300
H  13.15000 -0.80300 23.20700
H  12.27800 0.93800 26.64300
H  13.30900 2.38500 26.59700
H  11.91200 2.24000 27.81200
H  13.72000 0.59100 32.37800
H  15.94000 4.31500 33.77600
H  16.64300 3.12400 34.87000
H  14.97900 3.89300 35.13500
Mg 44.09600 5.27200 47.05300
C  42.07500 8.17200 46.73900
C  41.33600 3.31400 46.45600
C  45.99400 2.57300 46.54000
C  46.83600 7.34400 46.95100
N  41.91600 5.73400 46.75600
C  41.34700 6.91400 46.51300
C  39.90900 6.74700 45.98500
C  39.62200 5.19300 46.34200
C  41.00900 4.67900 46.49900
C  38.60100 4.86900 47.56100
C  39.71200 7.04500 44.41200
C  39.08500 8.40300 44.00300
H  39.70500 9.19800 42.87300
N  43.69200 3.19300 46.60400
C  42.50000 2.57000 46.43700
C  42.63400 1.19800 46.16900
C  44.02200 0.91100 46.20000
C  44.67400 2.23100 46.45400
C  41.48300 0.29400 45.87000
C  44.65800 -0.53400 46.01300
O  43.93000 -1.53000 45.77400
C  46.10500 -0.71800 45.77400
N  46.09400 4.98200 46.95500
C  46.65800 3.79400 46.79000
C  48.17500 3.84200 46.71100
C  48.53100 5.34200 46.66000
C  47.09200 5.95400 46.92200
C  48.80400 2.96300 47.84200
C  49.03200 5.92100 45.28100
C  50.29400 5.31900 44.66100
N  44.45800 7.35000 46.99000
C  45.63800 8.01300 46.97500
C  45.36100 9.42400 46.95300
C  43.96200 9.54900 46.91000
C  43.45100 8.24400 46.92800
C  46.36400 10.57600 46.88800
C  42.84200 10.49000 46.84300
O  42.80700 11.71100 46.81000
C  41.58800 9.60900 46.66400
C  40.61500 9.94400 47.72800
O  40.65500 9.46600 48.86000
O  39.67000 10.86300 47.30700
C  38.58600 11.17500 48.13900
H  40.44400 2.69000 46.37500
H  46.68200 1.82200 46.14600
H  47.66400 8.05600 46.97600
H  39.24600 7.45200 46.48600
H  39.20100 4.74300 45.44300
H  38.16900 3.91800 47.25200
H  37.76800 5.51400 47.84200
H  39.21800 4.86700 48.46000
H  39.15500 6.18700 44.03600
H  40.67900 6.95500 43.91700
H  39.04900 8.99200 44.92000
H  38.01600 8.22400 43.89200
H  40.48300 0.70200 46.01900
H  41.63800 -0.56500 46.52200
H  41.73200 -0.13900 44.90100
H  46.38000 0.08100 45.08600
H  46.30000 -1.73500 45.43400
H  46.65600 -0.69700 46.71400
H  48.49600 3.36500 45.78600
H  49.11400 5.56200 47.55400
H  49.54300 3.53700 48.40200
H  49.23600 2.00100 47.56600
H  48.10200 2.78500 48.65600
H  49.37300 6.93700 45.48100
H  48.16700 5.86600 44.62000
H  50.28400 4.91700 43.64800
H  50.64600 4.57400 45.37500
H  51.16100 5.98000 44.66200
H  46.38800 11.05800 45.91000
H  47.33600 10.22800 47.23800
H  45.90700 11.24200 47.61900
H  41.20000 9.72000 45.65200
H  37.67100 10.91700 47.60600
H  38.46500 12.23400 48.36900
H  38.43100 10.47800 48.96200

