158

Mg 35.34300 2.14400 29.70800
C  33.05100 3.26900 32.18700
C  37.83200 2.32000 32.12200
C  37.63600 1.67500 27.28600
C  32.78900 2.39300 27.29000
N  35.41700 2.66000 31.90600
C  34.37900 3.07300 32.71400
C  34.82300 3.29000 34.15800
C  36.32500 2.97200 34.10800
C  36.58000 2.63600 32.59900
C  37.22700 4.13700 34.69900
C  33.98700 2.41900 35.15900
C  34.49800 2.06800 36.58500
H  35.05300 3.19100 37.40000
N  37.40400 1.88700 29.73900
C  38.27900 1.94400 30.79500
C  39.61100 1.62300 30.40200
C  39.60900 1.35100 29.01600
C  38.18500 1.68900 28.59100
C  40.75200 1.58100 31.32900
C  40.78500 1.01200 28.16300
O  40.68500 0.86300 26.96400
C  42.15900 0.81000 28.74300
N  35.23500 1.92200 27.70300
C  36.29000 1.77800 26.86400
C  35.90900 1.86500 25.31900
C  34.39100 1.82600 25.44900
C  34.10300 2.03500 26.95200
C  36.42000 3.19600 24.73900
C  33.66600 0.49200 24.96900
C  32.58900 0.56300 23.87300
N  33.28700 2.68700 29.65900
C  32.37300 2.86100 28.60000
C  31.11000 3.38000 29.11600
C  31.37200 3.49000 30.54800
C  32.67900 3.06800 30.80200
C  29.90000 3.72100 28.30500
C  30.74600 3.96200 31.79800
O  29.61500 4.49700 31.98700
C  31.77200 3.62600 32.98500
C  31.96800 4.85900 33.85100
O  32.76400 5.83500 33.66200
O  31.18000 4.67500 35.03200
C  31.15100 5.81600 35.91200
H  38.70800 2.38000 32.77100
H  38.36200 1.53500 26.48200
H  32.03100 2.35600 26.50400
H  34.68400 4.34700 34.38600
H  36.60300 2.02100 34.56300
H  36.67000 4.88800 35.26000
H  37.66500 4.72900 33.89500
H  38.00100 3.80500 35.39100
H  33.78400 1.43800 34.73000
H  33.07700 3.01500 35.22400
H  35.22000 1.26900 36.41800
H  33.60900 1.70500 37.10100
H  41.69500 1.95400 30.92800
H  40.92700 0.54100 31.60400
H  40.56700 2.20600 32.20200
H  42.54300 1.78200 29.05300
H  42.77200 0.34200 27.97300
H  42.22400 0.08600 29.55500
H  36.42300 1.02400 24.85400
H  33.95900 2.69800 24.95900
H  35.70300 3.99500 24.54700
H  36.95200 2.98500 23.81100
H  37.17000 3.68900 25.35700
H  33.26200 -0.12300 25.77300
H  34.35700 -0.20200 24.48900
H  33.22600 0.43200 22.99900
H  32.15200 1.56100 23.91200
H  31.92700 -0.29700 23.97300
H  29.46700 4.43900 29.00100
H  29.19000 2.89600 28.23400
H  30.12600 4.24500 27.37700
H  31.29300 2.79900 33.51100
H  30.80900 5.55300 36.91300
H  30.64500 6.65400 35.43100
H  32.12900 6.26600 36.08500
Mg 35.60800 49.40600 24.01000
C  35.46000 47.62900 27.16000
C  34.31800 52.21700 25.76100
C  35.33600 50.79700 21.19200
C  36.57400 46.35800 22.50500
N  34.88300 49.85900 26.21400
C  35.16200 49.00600 27.27500
C  34.81900 49.81700 28.57300
C  34.40400 51.21500 28.12600
C  34.53100 51.13800 26.61800
C  33.09400 51.78600 28.57700
C  36.12600 49.84800 29.51900
C  35.82000 49.69700 30.99300
H  34.49200 50.15400 31.50400
N  35.09600 51.33200 23.52400
C  34.49800 52.31800 24.35600
C  34.21500 53.44000 23.50500
C  34.61700 53.18900 22.13100
C  35.07000 51.76600 22.21500
C  33.85400 54.74700 24.10300
C  34.61500 53.96400 20.94500
O  35.13000 53.54900 19.94000
C  34.04200 55.28200 20.99900
N  35.50300 48.54000 22.02400
C  35.62700 49.48500 21.08100
C  36.02000 48.86600 19.73000
C  36.71900 47.55200 20.27200
C  36.24400 47.45400 21.70900
C  34.81700 48.58000 18.64800
C  38.29900 47.61400 20.21500
C  39.02100 46.27200 19.85500
N  35.77700 47.32100 24.63100
C  36.26900 46.27100 23.86900
C  36.29300 45.10300 24.74400
C  35.93000 45.59200 26.01900
C  35.66600 46.95200 25.90900
C  36.74700 43.72400 24.32500
C  35.95900 45.23300 27.45800
O  36.19600 44.16400 28.01900
C  35.45200 46.55300 28.25600
C  34.14200 46.27600 28.76500
O  33.22000 45.82600 28.13700
O  34.21900 46.42600 30.12500
C  33.07300 46.08000 30.93600
H  33.94000 53.07900 26.31400
H  35.29200 51.18500 20.17200
H  36.94300 45.42400 22.07700
H  33.95800 49.35700 29.05600
H  35.04300 51.92800 28.64700
H  33.37700 52.74800 29.00400
H  32.46700 51.16800 29.22000
H  32.34900 52.01600 27.81600
H  36.74100 50.73400 29.36600
H  36.77800 49.02400 29.23000
H  36.54600 50.30000 31.53800
H  35.83800 48.64000 31.25700
H  34.56600 55.51000 23.78800
H  33.73000 54.75300 25.18600
H  32.82400 54.84000 23.75900
H  33.05000 55.08700 21.40700
H  34.09600 55.74700 20.01500
H  34.74100 55.96200 21.48700
H  36.70400 49.59200 19.29000
H  36.29500 46.78200 19.62800
H  33.82600 48.65600 19.09400
H  34.86100 47.58200 18.21200
H  34.93400 49.18400 17.74800
H  38.61000 47.98800 21.19100
H  38.65900 48.33500 19.48000
H  38.42700 45.35900 19.85900
H  39.80300 46.00600 20.56700
H  39.58000 46.44400 18.93600
H  37.76200 43.88200 23.95800
H  36.26300 43.13300 23.54900
H  36.78800 43.10200 25.21900
H  36.12000 46.63100 29.11400
H  32.58300 46.98000 31.30800
H  33.31700 45.32100 31.67900
H  32.30600 45.54900 30.37300

