158

Mg 0.31400 7.26500 25.78800
C  1.16800 9.41200 28.73000
C  0.90000 4.62100 27.93900
C  0.08200 5.48900 23.20500
C  0.48000 10.25400 23.89000
N  1.03600 7.10300 28.05500
C  1.11500 8.02500 29.04400
C  1.23100 7.47000 30.44000
C  1.38600 5.95000 30.08400
C  1.12900 5.85900 28.56200
C  2.78800 5.30900 30.44400
C  -0.07900 7.84800 31.27000
C  -0.09600 7.53800 32.73600
H  1.29700 7.39900 33.43100
N  0.46600 5.30900 25.63400
C  0.60200 4.34700 26.60200
C  0.46600 3.07600 25.98800
C  0.05900 3.31900 24.65600
C  0.19500 4.74500 24.41900
C  0.92500 1.80400 26.71500
C  -0.18800 2.20700 23.63100
O  -0.19900 2.49900 22.47500
C  -0.36100 0.74400 23.87000
N  0.47600 7.83700 23.84800
C  0.15500 6.84300 22.93800
C  -0.26000 7.46300 21.57600
C  -0.23200 8.99500 21.83000
C  0.23300 9.07700 23.26000
C  0.53900 6.93500 20.33200
C  -1.56800 9.80000 21.59400
C  -1.34000 11.09700 20.74800
N  0.69100 9.45900 26.19700
C  0.77300 10.48400 25.24000
C  1.08400 11.73200 25.93800
C  1.16500 11.30200 27.24400
C  1.03100 9.93900 27.40700
C  1.20300 13.09400 25.25100
C  1.47700 11.81800 28.56300
O  1.81400 12.92400 28.86400
C  1.40500 10.59900 29.63800
C  2.71200 10.57900 30.32400
O  3.79700 10.49700 29.75700
O  2.48100 10.77400 31.66900
C  3.64000 10.87700 32.50900
H  0.95600 3.76700 28.61700
H  -0.19400 4.78800 22.41400
H  0.35700 11.13200 23.25200
H  2.08600 7.88400 30.97500
H  0.67800 5.37900 30.68600
H  2.70200 4.45700 31.11800
H  3.25700 5.98300 31.16000
H  3.45100 5.07100 29.61200
H  -0.86000 7.31000 30.73400
H  -0.26100 8.92200 31.23900
H  -0.68200 6.61900 32.73300
H  -0.71700 8.28100 33.23600
H  1.39600 1.05200 26.08300
H  0.06400 1.46900 27.29500
H  1.80100 2.08300 27.30100
H  -0.69500 0.68400 24.90600
H  0.59100 0.25900 23.65300
H  -1.18300 0.47300 23.20800
H  -1.26200 7.06700 21.41100
H  0.51900 9.46100 21.19300
H  1.17300 7.71400 19.90900
H  -0.09300 6.57900 19.51900
H  1.20200 6.09100 20.52100
H  -2.04200 10.04700 22.54300
H  -2.19300 9.23700 20.90000
H  -1.44700 10.86700 19.68800
H  -0.34900 11.53800 20.85700
H  -2.15600 11.71400 21.12300
H  0.58400 13.02100 24.35600
H  2.23100 13.34200 24.98900
H  0.77600 13.86900 25.88700
H  0.54300 10.68400 30.29900
H  4.30000 10.05200 32.24400
H  3.44300 10.82700 33.58000
H  4.28600 11.73400 32.31700
Mg 41.70500 42.28800 27.51100
C  40.67900 44.73500 29.87900
C  42.05500 39.96000 29.93700
C  42.90800 40.32500 25.27800
C  41.63800 45.00600 25.17400
N  41.52200 42.39900 29.66900
C  40.93800 43.44700 30.36400
C  40.70900 42.93100 31.80600
C  41.23700 41.49800 31.86400
C  41.69900 41.28000 30.39800
C  42.29800 41.18200 32.89300
C  39.19800 43.07700 32.39800
C  38.78200 42.29600 33.66800
H  38.20000 43.05100 34.81600
N  42.38000 40.36400 27.60300
C  42.50100 39.48200 28.74500
C  42.93400 38.21600 28.29400
C  43.18100 38.29700 26.88700
C  42.86500 39.68100 26.52600
C  43.15600 37.09300 29.18500
C  43.77800 37.31600 25.91400
O  44.30000 37.60300 24.81500
C  43.89900 35.91000 26.26200
N  42.39000 42.71200 25.65100
C  42.60600 41.56600 24.91400
C  42.84200 42.00500 23.44200
C  42.23200 43.35700 23.37900
C  41.99400 43.70300 24.80900
C  44.26700 41.84000 22.94800
C  40.90000 43.48200 22.45700
C  39.83100 42.45800 22.66400
N  41.25800 44.48600 27.46900
C  41.24400 45.36100 26.47900
C  40.68600 46.62500 26.93300
C  40.47200 46.42500 28.23300
C  40.86800 45.11200 28.53800
C  40.21700 47.67000 25.97900
C  40.02400 47.13700 29.41400
O  39.62000 48.30000 29.51100
C  40.08100 46.01600 30.59900
C  40.88500 46.51100 31.64400
O  41.96500 46.99100 31.40700
O  40.25400 46.47600 32.91800
C  40.97600 46.72800 34.10900
H  42.03200 39.34900 30.84100
H  43.43000 39.82600 24.45800
H  41.53500 45.78700 24.41800
H  41.19800 43.58900 32.52500
H  40.38200 40.83500 31.99800
H  43.20600 40.68900 32.54400
H  42.12500 40.43100 33.66400
H  42.66000 42.09100 33.37400
H  38.50400 42.86200 31.58600
H  39.11200 44.10400 32.75400
H  39.61500 41.72700 34.08100
H  38.03700 41.55400 33.37700
H  43.21000 37.37300 30.23700
H  44.17800 36.75200 29.01900
H  42.36700 36.38100 28.94100
H  42.84600 35.63100 26.27100
H  44.45600 35.89400 27.19900
H  44.42900 35.27800 25.55000
H  42.33100 41.30200 22.78400
H  43.00800 44.02400 23.00200
H  44.21800 41.41600 21.94500
H  44.95000 41.26000 23.56800
H  44.66200 42.82400 22.69400
H  41.10600 43.45500 21.38700
H  40.27800 44.36500 22.60600
H  39.12900 42.89800 23.37200
H  40.19000 41.50500 23.05200
H  39.27200 42.31000 21.74000
H  39.59800 48.38700 26.51900
H  39.61700 47.21000 25.19300
H  41.10800 48.12700 25.54900
H  39.08600 45.97800 31.04200
H  41.49500 45.80900 34.37900
H  40.29900 47.17200 34.83800
H  41.71500 47.49900 33.89000

