158

Mg 0.84600 42.87400 25.12400
C  2.10400 43.09800 28.45000
C  -2.03100 41.69700 26.54600
C  -0.05400 42.14700 22.02200
C  4.09900 43.73800 23.92900
N  0.17100 42.44000 27.24300
C  0.81000 42.73400 28.45100
C  -0.08300 42.59400 29.69300
C  -1.29900 41.91100 29.02500
C  -1.08800 42.05000 27.50000
C  -1.48300 40.44000 29.43300
C  -0.37100 43.93600 30.42400
C  -1.56100 44.05400 31.45500
H  -2.18600 42.67400 31.80200
N  -0.97200 42.16100 24.33200
C  -2.03000 41.66600 25.06100
C  -2.91900 40.94700 24.13000
C  -2.44500 41.20600 22.79900
C  -1.12100 41.90900 23.00700
C  -4.21800 40.27200 24.53600
C  -3.03900 40.99100 21.45900
O  -2.49800 41.33100 20.43100
C  -4.36200 40.32200 21.34300
N  1.93500 42.82700 23.23900
C  1.28900 42.55200 22.14700
C  2.17700 42.53400 20.95300
C  3.34800 43.48200 21.47700
C  3.17500 43.27900 22.99400
C  2.57200 41.04600 20.51900
C  3.28800 44.89700 20.94500
C  3.03500 46.13600 21.85700
N  2.71300 43.31400 25.92500
C  3.86700 43.78800 25.30700
C  4.84700 44.08100 26.36600
C  4.23100 43.76000 27.53300
C  2.92000 43.31800 27.27800
C  6.21200 44.66900 26.14400
C  4.48000 43.72200 28.94100
O  5.47600 43.96600 29.59800
C  3.08300 43.38300 29.63600
C  3.25500 42.15200 30.42400
O  3.88000 41.14600 30.03900
O  2.60900 42.27800 31.65400
C  2.23700 41.00100 32.44900
H  -2.90000 41.30400 27.07700
H  -0.40500 41.80500 21.04600
H  5.00900 44.04400 23.40900
H  0.34400 41.80000 30.30700
H  -2.23500 42.40200 29.29000
H  -1.03900 39.89800 28.59800
H  -2.54700 40.22800 29.53400
H  -1.00900 40.16100 30.37400
H  -0.46600 44.76600 29.72400
H  0.55800 44.20200 30.92800
H  -2.41400 44.58600 31.03400
H  -1.31500 44.58400 32.37600
H  -4.83300 41.07500 24.12800
H  -4.31700 40.24400 25.62100
H  -4.43200 39.30600 24.07800
H  -5.15500 41.03500 21.56800
H  -4.42600 39.40100 21.92300
H  -4.43900 39.99200 20.30600
H  1.52200 42.82000 20.13000
H  4.33800 43.13500 21.18100
H  2.07100 40.37700 21.21900
H  3.61500 40.81100 20.73600
H  2.30800 40.86300 19.47800
H  2.49000 44.97700 20.20700
H  4.25500 45.06600 20.47200
H  2.43000 46.74700 21.18800
H  3.98800 46.64500 21.99900
H  2.65500 45.89500 22.85000
H  6.91500 43.91200 26.48900
H  6.30000 45.58300 26.73100
H  6.40000 44.82200 25.08100
H  2.82400 44.29200 30.17800
H  1.19000 41.11700 32.73000
H  2.91500 40.85300 33.29000
H  2.30600 40.11400 31.81800
Mg -1.48900 34.84800 26.73800
C  -3.37300 33.16500 29.39800
C  0.02100 36.69200 29.04300
C  -0.37500 36.65200 24.17000
C  -3.30300 32.80800 24.45500
N  -1.70000 34.86800 28.96900
C  -2.43500 34.13700 29.81300
C  -2.17200 34.47100 31.32400
C  -1.11000 35.69700 31.13100
C  -0.86500 35.70900 29.58500
C  -1.39600 37.04800 31.84600
C  -1.52900 33.25100 32.15400
C  -2.41900 32.82300 33.35400
H  -1.64400 32.37900 34.57200
N  -0.37000 36.37200 26.62500
C  0.23000 37.02100 27.69400
C  1.05400 38.12000 27.18300
C  0.88500 38.17300 25.77500
C  -0.00900 37.06400 25.48000
C  1.78300 39.10700 28.08500
C  1.44400 39.19600 24.77800
O  1.02000 39.20300 23.62500
C  2.61700 39.94500 25.12400
N  -1.88200 34.77300 24.53500
C  -1.22600 35.60600 23.74000
C  -1.39600 35.15600 22.29200
C  -2.22300 33.81900 22.32500
C  -2.43000 33.72200 23.85400
C  -1.93600 36.23900 21.27800
C  -1.48000 32.57300 21.67400
C  -0.37800 31.94500 22.41600
N  -3.03800 33.37600 26.82600
C  -3.59600 32.63000 25.81500
C  -4.41500 31.53800 26.42200
C  -4.27900 31.79100 27.77900
C  -3.48500 32.88700 27.98700
C  -4.95300 30.40600 25.57400
C  -4.71800 31.16500 29.00100
O  -5.35800 30.12900 29.13800
C  -4.18900 32.06900 30.16900
C  -5.36300 32.60400 30.88800
O  -6.23800 33.27500 30.42200
O  -5.33800 32.24800 32.19700
C  -6.49500 32.47300 33.08300
H  0.42400 37.18800 29.92900
H  0.02000 37.20000 23.31200
H  -3.71000 32.13600 23.69600
H  -3.09200 34.90800 31.71100
H  -0.17200 35.38200 31.58800
H  -0.50400 37.42300 32.34800
H  -2.20700 36.94900 32.56900
H  -1.69900 37.71600 31.04000
H  -0.51400 33.51100 32.45500
H  -1.39900 32.39400 31.49300
H  -2.88700 31.84900 33.20500
H  -3.13500 33.61400 33.57700
H  1.35800 40.08000 27.83700
H  2.85600 38.98900 27.93900
H  1.53400 38.89400 29.12500
H  2.33700 40.68800 25.87100
H  3.04700 40.41100 24.23800
H  3.32900 39.22000 25.51700
H  -0.32800 35.04200 22.10800
H  -3.21800 33.98700 21.91200
H  -1.38400 36.25000 20.33800
H  -1.90100 37.20300 21.78400
H  -2.98400 35.98700 21.11600
H  -1.19100 32.90600 20.67700
H  -2.26000 31.83000 21.50600
H  -0.13900 32.56300 23.28100
H  0.36500 31.71900 21.65100
H  -0.70000 30.99600 22.84300
H  -4.35700 30.18400 24.68900
H  -5.84900 30.70800 25.03100
H  -4.95100 29.54900 26.24700
H  -3.57700 31.39400 30.76700
H  -7.24900 33.16800 32.71300
H  -6.07200 32.66300 34.06900
H  -7.00800 31.52200 33.22400

