158

Mg -1.92000 35.04300 26.80500
C  -3.73800 33.24900 29.44900
C  -0.22100 36.80000 29.18800
C  -0.81200 37.12900 24.43800
C  -3.93000 33.41100 24.55600
N  -2.04100 35.08100 29.03900
C  -2.74900 34.27800 29.90600
C  -2.34300 34.59500 31.32000
C  -1.42700 35.81500 31.22300
C  -1.21000 35.94500 29.72500
C  -1.91100 37.07500 31.96800
C  -1.60900 33.33700 31.99600
C  -2.36700 32.71900 33.19300
H  -1.53100 32.28000 34.44400
N  -0.58600 36.63100 26.77900
C  0.02000 37.19100 27.85900
C  0.95500 38.21600 27.43200
C  0.82700 38.29500 26.07800
C  -0.26800 37.41700 25.71800
C  1.80300 38.98600 28.43100
C  1.50500 39.18700 25.16000
O  1.33400 39.34300 23.96800
C  2.59400 40.04800 25.78700
N  -2.31500 35.27100 24.78200
C  -1.74200 36.22400 23.98500
C  -2.21300 36.15100 22.55500
C  -3.10700 34.88700 22.51100
C  -3.18700 34.49600 24.05500
C  -2.94400 37.42300 22.07200
C  -2.61400 33.71300 21.66900
C  -1.18200 33.32200 21.96500
N  -3.50100 33.60000 26.88800
C  -4.13100 32.98700 25.90800
C  -4.97200 31.91700 26.45000
C  -4.87100 32.00400 27.85000
C  -3.98800 33.01000 28.08700
C  -5.67700 30.95900 25.55500
C  -5.34300 31.46300 29.16900
O  -6.16100 30.59900 29.42300
C  -4.65000 32.36400 30.29000
C  -5.72200 33.08300 30.95600
O  -6.25900 34.07200 30.58600
O  -6.12200 32.40900 32.07200
C  -7.13600 33.12400 32.84800
H  0.33400 37.30500 29.98200
H  -0.37700 37.65700 23.58600
H  -4.43200 32.71400 23.88300
H  -3.21200 34.87100 31.91700
H  -0.40200 35.56400 31.49500
H  -2.62800 36.78100 32.73400
H  -2.53600 37.63000 31.26800
H  -1.17600 37.77100 32.37300
H  -0.55100 33.39900 32.25100
H  -1.53200 32.63000 31.17000
H  -2.81900 31.79700 32.82800
H  -3.21100 33.32900 33.51300
H  2.86800 38.97200 28.19900
H  1.89800 38.41800 29.35700
H  1.51200 40.02600 28.57600
H  2.20800 40.63700 26.61800
H  3.06100 40.69700 25.04700
H  3.46300 39.52100 26.18300
H  -1.31400 36.08100 21.94300
H  -4.15800 35.04000 22.26500
H  -2.87200 38.12800 22.90000
H  -4.00500 37.25800 21.88100
H  -2.41300 37.79700 21.19700
H  -2.68300 33.97600 20.61400
H  -3.28500 32.88000 21.88000
H  -1.00300 32.29800 22.29200
H  -0.87300 34.00300 22.75800
H  -0.62600 33.55600 21.05700
H  -5.94100 30.02500 26.05200
H  -4.99000 30.81500 24.72100
H  -6.56000 31.48000 25.18500
H  -4.05000 31.70300 30.91600
H  -6.77300 33.89400 33.52900
H  -7.64500 32.35900 33.43600
H  -7.93200 33.49600 32.20500
Mg -6.12300 26.05300 26.66000
C  -4.30700 27.57300 29.22000
C  -7.71600 24.14300 28.83500
C  -7.59100 24.57800 24.03700
C  -3.90100 27.69900 24.36200
N  -5.96400 25.88900 28.74300
C  -5.22100 26.60900 29.68300
C  -5.77700 26.37100 31.10500
C  -6.44000 24.99100 30.96700
C  -6.78800 25.07600 29.44900
C  -5.53100 23.78200 31.37500
C  -6.65500 27.63000 31.51500
C  -6.97800 27.83600 33.02100
H  -6.51500 26.73800 33.98500
N  -7.50800 24.53800 26.45900
C  -8.09800 23.87400 27.49000
C  -9.15200 23.04700 26.98600
C  -9.12800 23.12700 25.56700
C  -8.02800 24.09500 25.26500
C  -10.06300 22.25600 27.96800
C  -9.83700 22.33200 24.55900
O  -9.73700 22.52600 23.38600
C  -10.73100 21.21800 25.00300
N  -5.75900 26.09900 24.49300
C  -6.54200 25.40500 23.67200
C  -6.05500 25.47700 22.16200
C  -4.95000 26.59600 22.27000
C  -4.82400 26.88000 23.74500
C  -5.61600 24.11300 21.54000
C  -5.35700 27.84700 21.45000
C  -4.27200 28.39200 20.34000
N  -4.47600 27.46700 26.73300
C  -3.72400 28.04200 25.73800
C  -2.78600 28.95700 26.30700
C  -2.98200 28.79100 27.72900
C  -4.00700 27.91400 27.88800
C  -2.09000 29.89000 25.46500
C  -2.58900 29.23000 29.06200
O  -1.83600 30.08800 29.41400
C  -3.49100 28.43600 30.07000
C  -2.69300 27.73900 31.08200
O  -2.01000 26.69700 30.88300
O  -2.83600 28.40800 32.25300
C  -1.98300 27.90100 33.35500
H  -8.34900 23.65900 29.58100
H  -8.09100 24.25500 23.12200
H  -3.27300 28.21700 23.63400
H  -4.90100 26.27300 31.74800
H  -7.39400 24.98800 31.49400
H  -5.33400 23.13100 30.52300
H  -6.00400 23.30900 32.23500
H  -4.60900 24.21200 31.76700
H  -7.57300 27.61700 30.92600
H  -6.06600 28.47000 31.14900
H  -8.05600 27.94300 33.14200
H  -6.51600 28.76200 33.36500
H  -11.06200 22.21800 27.53300
H  -10.10200 22.58300 29.00700
H  -9.66300 21.25100 28.10400
H  -10.10600 20.46000 25.47700
H  -11.14900 20.68900 24.14600
H  -11.56500 21.55300 25.61900
H  -6.90400 25.93300 21.65400
H  -3.98700 26.18200 21.97300
H  -6.55900 23.56800 21.57700
H  -4.88100 23.69900 22.23000
H  -5.30000 24.23700 20.50400
H  -5.36800 28.73800 22.07700
H  -6.38000 27.81400 21.07500
H  -3.51500 27.69100 19.98900
H  -3.69900 29.04500 20.99800
H  -4.70800 29.03600 19.57600
H  -1.68600 30.80000 25.90800
H  -2.75900 30.30500 24.71200
H  -1.32200 29.34900 24.91100
H  -4.16300 29.20500 30.45100
H  -2.22500 26.85300 33.53300
H  -2.08800 28.41400 34.31100
H  -0.92500 28.02500 33.12300

