158

Mg 29.98600 58.61200 39.88100
C  27.24700 56.42000 39.20100
C  32.16400 55.98500 39.23400
C  32.46000 60.81200 39.94700
C  27.59300 61.21400 40.09200
N  29.71000 56.56000 38.98800
C  28.52800 55.82400 38.93000
C  28.78900 54.38700 38.56400
C  30.21000 54.25000 39.09600
C  30.76600 55.67400 39.07800
C  30.34700 53.56100 40.45800
C  28.80900 54.22200 36.97700
C  27.63200 53.41300 36.32800
H  26.76000 54.28300 35.38300
N  32.04300 58.49100 39.63300
C  32.76000 57.29400 39.48500
C  34.22100 57.64000 39.54200
C  34.32600 59.05900 39.66300
C  32.87300 59.54500 39.75700
C  35.31800 56.63600 39.39900
C  35.62000 59.83000 39.65300
O  36.70700 59.30000 39.55900
C  35.68400 61.36700 39.75500
N  29.97100 60.79500 39.87400
C  31.11900 61.44800 40.04500
C  30.86000 63.00900 40.09500
C  29.38600 63.14100 40.07200
C  28.91500 61.65000 40.04100
C  31.55900 63.76000 41.21700
C  28.72000 64.00500 38.85300
C  29.42600 65.16000 38.24800
N  27.81900 58.75100 39.96500
C  26.99600 59.92000 40.00400
C  25.65100 59.55800 40.00700
C  25.70200 58.16800 39.71700
C  26.99300 57.74500 39.65900
C  24.50500 60.37800 40.08600
C  24.84600 57.03000 39.39100
O  23.63800 56.88200 39.40700
C  25.84200 55.84000 39.08900
C  25.60100 54.69300 40.02600
O  25.98500 54.61400 41.14500
O  24.69300 53.84300 39.43700
C  24.03900 52.91300 40.38800
H  32.74900 55.06300 39.25300
H  33.15900 61.65100 39.96000
H  26.97800 62.08100 40.34200
H  28.14300 53.60300 38.95900
H  30.83700 53.66200 38.42500
H  29.36500 53.53400 40.92900
H  31.10400 54.07400 41.05100
H  30.64700 52.51500 40.39100
H  29.70700 53.87000 36.47100
H  28.62600 55.25200 36.67100
H  26.94000 52.98400 37.05200
H  28.03800 52.57300 35.76400
H  35.82900 56.80100 38.45100
H  34.99700 55.60400 39.25600
H  35.97800 56.67100 40.26500
H  35.15100 61.81000 38.91300
H  36.72700 61.65500 39.62600
H  35.28400 61.70300 40.71200
H  31.30700 63.30800 39.14700
H  29.09000 63.58500 41.02300
H  32.40400 63.31300 41.74000
H  30.89500 64.20100 41.96000
H  32.14000 64.56100 40.75900
H  27.89500 64.43600 39.42100
H  28.29300 63.46800 38.00500
H  28.97200 65.55100 37.33700
H  30.49500 65.03900 38.07100
H  29.37800 65.91300 39.03400
H  24.44700 60.92800 39.14700
H  24.40900 61.11600 40.88300
H  23.63400 59.72200 40.10100
H  25.70200 55.50700 38.06100
H  24.80000 52.23400 40.77400
H  23.33800 52.37700 39.74900
H  23.47200 53.38700 41.18900
Mg 0.32000 43.38300 26.70000
C  2.90000 43.04600 29.18700
C  -1.81800 42.32500 29.06100
C  -1.90200 43.01100 24.28900
C  2.95400 43.74100 24.38700
N  0.54600 42.93200 28.83800
C  1.64900 42.87300 29.70900
C  1.22300 42.95500 31.15300
C  -0.20900 42.36900 31.08800
C  -0.58100 42.62600 29.59400
C  -0.38300 40.96700 31.75000
C  1.36300 44.38900 31.78800
C  1.19900 44.42400 33.30600
H  1.00600 43.13600 34.11300
N  -1.65400 42.96900 26.72200
C  -2.37000 42.49600 27.76800
C  -3.74800 42.21100 27.33600
C  -3.76100 42.50500 25.95100
C  -2.38400 42.78800 25.61800
C  -4.80000 41.80700 28.32500
C  -4.96700 42.39500 24.93700
O  -4.91000 42.64700 23.75600
C  -6.25600 41.84900 25.48100
N  0.54000 43.37400 24.60200
C  -0.57300 43.22800 23.86900
C  -0.20800 43.33300 22.34500
C  1.24100 43.88400 22.40200
C  1.60400 43.66100 23.89600
C  -0.33100 41.86200 21.70600
C  1.22900 45.41000 22.07900
C  1.87700 45.81300 20.70700
N  2.55000 43.39200 26.70200
C  3.42900 43.45000 25.67500
C  4.76200 43.53200 26.21200
C  4.61100 43.35900 27.59900
C  3.25300 43.23600 27.81700
C  5.99900 43.90300 25.43000
C  5.35100 43.33100 28.78200
O  6.56300 43.52300 28.94900
C  4.24700 43.15200 29.92700
C  4.55800 41.87300 30.69600
O  4.90000 40.87400 30.08600
O  4.35600 42.04700 32.03800
C  4.84600 41.10700 33.00200
H  -2.49600 41.98900 29.84900
H  -2.54200 42.93800 23.40700
H  3.62400 43.97200 23.55600
H  1.91700 42.26700 31.63500
H  -0.87400 43.09200 31.56200
H  -0.69000 40.28400 30.95800
H  -1.22800 40.98900 32.43800
H  0.45800 40.53900 32.29500
H  0.65400 45.07400 31.32300
H  2.28600 44.85100 31.44000
H  0.43000 45.10500 33.67000
H  2.19000 44.76400 33.60600
H  -5.61000 42.50100 28.10400
H  -4.57200 42.05500 29.36200
H  -4.98400 40.73900 28.21000
H  -6.17000 40.77800 25.66600
H  -6.90300 41.99300 24.61600
H  -6.72900 42.31700 26.34500
H  -0.80200 43.97200 21.69200
H  1.87500 43.27500 21.75800
H  0.63900 41.40800 21.91300
H  -0.47700 41.98500 20.63200
H  -1.17600 41.34400 22.16000
H  1.84600 45.86100 22.85600
H  0.22200 45.81100 22.19600
H  1.39400 46.68700 20.26900
H  1.98400 45.04600 19.94000
H  2.86500 46.21700 20.93000
H  6.18500 43.09700 24.72000
H  6.86000 43.90300 26.09900
H  5.80600 44.79400 24.83400
H  4.35600 43.89200 30.72000
H  5.02300 41.62400 33.94500
H  5.78100 40.62700 32.71500
H  4.17000 40.25600 33.08500

