158

Mg 30.12000 58.38000 40.80200
C  27.41800 56.55700 39.64700
C  32.27100 56.02500 39.32500
C  32.73800 60.51400 41.36800
C  27.84100 61.06400 41.51800
N  29.89000 56.52600 39.71000
C  28.67300 55.99700 39.29000
C  28.88700 54.80900 38.43900
C  30.39700 54.46700 38.51000
C  30.91800 55.73600 39.28700
C  30.87200 53.18000 39.16600
C  28.41000 55.14900 37.01400
C  27.35500 54.17800 36.36400
H  26.51300 54.84200 35.30000
N  32.26900 58.29200 40.40900
C  32.97100 57.18000 39.87300
C  34.36500 57.47400 39.88500
C  34.47500 58.79900 40.50500
C  33.18400 59.25700 40.80700
C  35.42300 56.67200 39.28300
C  35.80700 59.47400 41.00000
O  36.83400 58.90200 40.70000
C  35.89500 60.75100 41.86300
N  30.27100 60.46900 41.25100
C  31.50900 61.07400 41.53500
C  31.35500 62.58600 41.76100
C  29.75900 62.74500 41.82600
C  29.22600 61.32400 41.62900
C  32.19600 63.09300 42.98800
C  29.16300 63.84500 40.88700
C  27.92800 64.57900 41.41800
N  28.00500 58.72200 40.87900
C  27.24800 59.87600 41.09100
C  25.88800 59.54700 40.87300
C  25.91500 58.24000 40.36600
C  27.22900 57.77600 40.28300
C  24.63700 60.30400 41.07300
C  25.01200 57.13600 39.94600
O  23.82000 56.98500 39.95200
C  26.01000 56.05700 39.32300
C  25.69400 54.74200 39.98400
O  26.18500 54.44600 41.05500
O  24.78700 54.10200 39.28900
C  24.35300 52.80800 39.89500
H  32.85500 55.18700 38.93800
H  33.44700 61.33400 41.50400
H  27.22100 61.92000 41.79200
H  28.31000 53.96100 38.80900
H  30.76700 54.41900 37.48600
H  31.44800 53.29200 40.08400
H  31.46700 52.69300 38.39300
H  30.14000 52.41500 39.42200
H  29.19900 55.03600 36.27000
H  27.97200 56.14200 36.91900
H  26.82200 53.42000 36.93900
H  27.88200 53.48900 35.70400
H  36.15000 56.35000 40.02900
H  35.92200 57.27900 38.52900
H  35.02000 55.82200 38.73200
H  35.26200 60.56000 42.72900
H  35.56300 61.65400 41.35000
H  36.93600 60.81700 42.18100
H  31.67900 63.09200 40.85200
H  29.45500 62.95600 42.85100
H  32.39400 62.20300 43.58500
H  31.67600 63.86300 43.55700
H  33.13700 63.59600 42.76500
H  28.88200 63.39900 39.93300
H  29.91300 64.60900 40.68200
H  28.14400 65.64600 41.47000
H  27.63400 64.23700 42.41000
H  27.02800 64.49100 40.81000
H  24.67100 61.29100 41.53500
H  23.87600 59.74200 41.61400
H  24.14100 60.41400 40.10900
H  25.72000 56.00400 38.27400
H  25.25500 52.20300 39.98300
H  23.67400 52.33600 39.18600
H  23.93400 52.86500 40.89900
Mg 16.52500 52.07000 26.31400
C  18.52000 50.60200 28.85400
C  14.24700 52.93700 28.69300
C  14.77000 53.39000 23.82200
C  18.96900 50.98900 24.00400
N  16.44800 51.84200 28.52300
C  17.33600 51.11800 29.34700
C  16.88000 51.31500 30.88500
C  15.42700 51.88900 30.72300
C  15.43700 52.31300 29.23800
C  14.24000 50.87400 31.00600
C  17.81100 52.42700 31.53500
C  18.19600 52.06900 32.95400
H  17.37500 52.65000 34.09200
N  14.73800 52.97400 26.24900
C  13.94200 53.31300 27.36300
C  12.77800 54.06500 26.87000
C  12.93200 54.17200 25.46400
C  14.11800 53.40900 25.14400
C  11.69200 54.52300 27.89600
C  12.07100 54.97200 24.43100
O  12.19000 54.82100 23.22700
C  11.06500 55.86400 24.82900
N  16.76500 52.16300 24.26300
C  16.00100 52.93600 23.45100
C  16.40800 52.82100 21.98500
C  17.78000 52.12600 22.07800
C  17.91600 51.83100 23.52500
C  15.37000 52.23900 20.91200
C  18.95900 52.92600 21.42200
C  18.86800 52.79900 19.83300
N  18.33800 50.91200 26.35600
C  19.23100 50.70400 25.40100
C  20.39100 50.06800 25.88800
C  20.13700 50.00600 27.25400
C  18.90700 50.54400 27.52900
C  21.62400 49.57400 25.16300
C  20.65500 49.49900 28.55800
O  21.65300 48.83400 28.69600
C  19.62000 49.99900 29.68800
C  19.08800 48.91100 30.53600
O  18.38700 47.94500 30.19900
O  19.63300 49.15900 31.72900
C  19.45100 48.08200 32.73300
H  13.44200 53.23600 29.36800
H  14.24800 53.76300 22.93900
H  19.72900 50.76000 23.25400
H  16.93200 50.36000 31.40900
H  15.34100 52.77600 31.35000
H  14.60800 49.86600 31.20000
H  13.58800 50.78000 30.13700
H  13.57200 51.17600 31.81200
H  17.35600 53.40500 31.69100
H  18.64000 52.61800 30.85300
H  19.23000 52.32200 33.18500
H  18.20300 50.98000 32.96400
H  11.63500 53.96900 28.83300
H  10.70100 54.47400 27.44400
H  11.76600 55.57900 28.15700
H  11.54500 56.63600 25.43000
H  10.45000 55.20100 25.43600
H  10.58500 56.30800 23.95700
H  16.57000 53.85300 21.67200
H  17.74600 51.13500 21.62500
H  14.46400 51.97300 21.45700
H  15.82300 51.40900 20.36900
H  15.08100 53.04300 20.23600
H  19.90900 52.49100 21.73100
H  18.84400 53.98400 21.65800
H  18.71200 53.78600 19.39700
H  17.93500 52.24200 19.74300
H  19.67400 52.24900 19.34600
H  21.34100 49.23600 24.16600
H  21.91800 48.76400 25.83100
H  22.30800 50.41700 25.06100
H  20.01100 50.79400 30.32300
H  19.86900 47.11900 32.44000
H  18.44700 47.87600 33.10400
H  20.02000 48.32900 33.63000

