158

Mg 48.60500 44.93600 42.96200
C  45.16300 45.04400 42.10600
C  48.61100 41.59800 42.12700
C  51.98900 45.01400 43.36800
C  48.45400 48.40900 43.51200
N  47.10700 43.52100 41.95100
C  45.74600 43.81000 41.89900
C  44.94600 42.54500 41.58700
C  46.02400 41.47000 41.50300
C  47.34200 42.15700 42.00700
C  45.68800 40.20200 42.33200
C  44.11900 42.71300 40.22800
C  44.92700 43.42900 39.16700
H  44.87500 42.72400 37.72800
N  50.10300 43.53700 42.55000
C  49.86700 42.27200 42.30700
C  51.10100 41.52500 42.39400
C  52.15100 42.42200 42.67600
C  51.43700 43.73400 42.87500
C  51.23300 40.03000 42.11900
C  53.66800 42.17500 42.73700
O  53.96800 40.99300 42.54300
C  54.65100 43.20600 42.99800
N  50.12500 46.62100 42.96800
C  51.38400 46.31200 43.37200
C  52.08400 47.62100 43.82400
C  51.03200 48.65900 43.86800
C  49.77200 47.87100 43.45800
C  52.87400 47.44500 45.19200
C  51.18100 49.89500 42.84000
C  52.00600 51.09800 43.24200
N  47.18300 46.47600 42.89700
C  47.24500 47.78600 43.25900
C  45.95400 48.45400 43.15300
C  45.12700 47.42000 42.71400
C  45.85900 46.20800 42.63800
C  45.79200 49.94100 43.30100
C  43.77100 47.13400 42.22800
O  42.77500 47.85300 42.14700
C  43.70700 45.55500 41.85800
C  42.60600 44.87400 42.65600
O  41.71100 44.17700 42.27200
O  42.78500 45.24900 43.98500
C  41.80000 44.74100 44.91200
H  48.56900 40.51300 42.00900
H  53.02000 44.97900 43.72600
H  48.28400 49.48600 43.57000
H  44.21400 42.37100 42.37600
H  46.16800 41.09600 40.48900
H  44.61600 40.26500 42.51700
H  46.32000 40.19400 43.22000
H  45.92600 39.30600 41.75800
H  43.20000 43.24500 40.47200
H  43.83500 41.72200 39.87300
H  45.92800 43.67300 39.52400
H  44.47500 44.41600 39.06900
H  51.96300 39.79100 41.34600
H  50.32100 39.53600 41.78300
H  51.53200 39.56100 43.05600
H  54.59200 44.13100 42.42500
H  55.59900 42.71400 42.78300
H  54.82200 43.31300 44.06900
H  52.80300 47.79700 43.02400
H  50.96000 48.95700 44.91400
H  53.89600 47.66000 44.87800
H  52.65900 46.40100 45.41600
H  52.67200 48.21000 45.94200
H  50.17600 50.16300 42.51500
H  51.72000 49.45500 42.00000
H  52.89700 51.19500 42.62100
H  52.19300 51.01100 44.31200
H  51.31800 51.92500 43.06700
H  46.30400 50.43400 42.47400
H  46.16900 50.27300 44.26800
H  44.71300 50.06600 43.21100
H  43.40500 45.56000 40.81100
H  41.66100 43.66900 44.77600
H  40.83400 45.24700 44.89900
H  42.13300 44.93700 45.93100
Mg -5.94200 24.92600 25.91200
C  -4.46600 26.37200 28.59500
C  -7.15900 22.52700 27.93000
C  -7.38000 23.51400 23.25400
C  -3.98100 26.93200 23.86000
N  -5.70800 24.49200 28.02300
C  -5.25500 25.34200 28.99400
C  -5.52600 24.88200 30.38200
C  -6.16100 23.48200 30.15100
C  -6.36100 23.44500 28.65100
C  -5.44000 22.24100 30.67500
C  -6.52200 25.80000 31.17800
C  -6.65500 25.54000 32.74300
H  -5.81000 24.41500 33.34400
N  -7.14900 23.24600 25.62600
C  -7.56500 22.44700 26.62600
C  -8.60700 21.55400 26.09900
C  -8.70700 21.80700 24.68000
C  -7.73700 22.88000 24.43900
C  -9.25100 20.51200 27.04900
C  -9.37700 21.05100 23.55500
O  -9.16900 21.27000 22.37900
C  -10.37300 19.99400 23.95700
N  -5.75200 25.20700 23.86000
C  -6.47800 24.50000 22.91900
C  -6.20500 24.96700 21.48900
C  -5.09900 25.99800 21.71200
C  -4.82600 26.04700 23.20200
C  -5.94800 23.93700 20.40000
C  -5.32900 27.37600 20.98100
C  -4.18500 27.92300 20.11200
N  -4.58100 26.38200 26.12600
C  -3.96100 27.19100 25.25500
C  -2.97900 28.04200 25.92300
C  -3.27600 27.89500 27.28400
C  -4.14300 26.78500 27.30300
C  -1.97600 28.97700 25.29000
C  -2.82800 28.20000 28.61500
O  -1.97100 28.94100 28.99900
C  -3.72500 27.28300 29.59000
C  -2.77800 26.43100 30.42000
O  -2.10900 25.51500 30.00500
O  -2.58800 27.04100 31.67400
C  -1.51600 26.39800 32.50900
H  -7.58500 21.75200 28.57100
H  -7.77000 22.97200 22.39000
H  -3.45000 27.59000 23.16900
H  -4.62400 24.92000 30.99300
H  -7.16100 23.38300 30.57200
H  -4.99600 21.73300 29.81900
H  -6.14200 21.61200 31.22300
H  -4.61400 22.48500 31.34400
H  -7.50600 25.77100 30.71100
H  -6.23100 26.84700 31.10100
H  -7.70300 25.29300 32.91400
H  -6.36400 26.46200 33.24800
H  -9.79400 20.94900 27.88700
H  -8.50200 19.79700 27.38600
H  -9.96400 19.91700 26.47900
H  -9.87700 19.22700 24.55000
H  -10.79000 19.50500 23.07700
H  -11.08700 20.42400 24.66000
H  -7.14000 25.44300 21.19600
H  -4.12700 25.59200 21.43200
H  -6.92600 23.47900 20.24800
H  -5.43400 23.09700 20.86700
H  -5.61200 24.34200 19.44600
H  -5.43000 28.10800 21.78200
H  -6.26600 27.35400 20.42400
H  -4.55700 27.72300 19.10700
H  -3.27700 27.32900 20.21000
H  -4.11600 28.99300 20.30900
H  -2.56400 29.57100 24.59000
H  -1.14500 28.47400 24.79500
H  -1.55400 29.68800 26.00000
H  -4.38800 27.90400 30.19200
H  -1.69500 25.33000 32.63500
H  -1.26100 26.89800 33.44300
H  -0.63400 26.49000 31.87400

