158

Mg 48.22500 25.00100 28.17200
C  49.23300 27.13900 30.79900
C  47.54300 22.66000 30.69200
C  47.61100 22.74200 25.78000
C  49.58300 27.11300 25.80200
N  48.39900 24.90100 30.53800
C  48.77100 25.92300 31.36200
C  48.42500 25.59300 32.81700
C  48.02700 24.11400 32.71300
C  48.05800 23.86200 31.20900
C  48.93300 23.08200 33.40200
C  47.28300 26.58400 33.37400
C  46.56400 26.05200 34.63400
H  46.46900 26.91600 35.89500
N  47.50000 23.04900 28.20200
C  47.30900 22.25200 29.34700
C  46.82200 20.99300 28.89100
C  46.79600 20.98200 27.50600
C  47.36500 22.30400 27.07900
C  46.51800 19.86500 29.89100
C  46.31100 19.85400 26.55200
O  46.57700 19.90000 25.34900
C  45.68500 18.62900 27.14700
N  48.74100 24.79400 26.05600
C  48.13300 23.89700 25.25200
C  48.33000 24.23800 23.75100
C  48.66200 25.74700 23.87800
C  48.97900 25.90600 25.33800
C  49.43000 23.34900 23.12500
C  47.51800 26.69200 23.44600
C  47.78000 27.83200 22.48300
N  49.28500 26.71900 28.22600
C  49.86400 27.45400 27.18000
C  50.55200 28.63100 27.73000
C  50.17500 28.57700 29.21400
C  49.47600 27.43300 29.43100
C  51.30500 29.69800 27.06200
C  50.40700 29.35000 30.47700
O  51.02100 30.33000 30.73200
C  49.52200 28.47000 31.54400
C  50.30800 28.22300 32.76000
O  51.28300 27.52500 32.74900
O  49.87500 28.97500 33.80300
C  50.66000 28.96500 35.06900
H  47.21300 21.96400 31.46600
H  47.20600 21.99700 25.09100
H  49.91200 27.87400 25.09100
H  49.26800 25.68800 33.50100
H  46.98700 23.99400 33.01700
H  49.39700 23.55900 34.26500
H  49.66500 22.62600 32.73500
H  48.24300 22.32300 33.77000
H  46.52000 26.52700 32.59800
H  47.71500 27.58100 33.46300
H  47.10400 25.18500 35.01300
H  45.54700 25.71300 34.43800
H  45.44100 19.77100 30.03200
H  46.92900 20.01500 30.88900
H  46.84100 18.92200 29.44900
H  46.38100 18.07000 27.77300
H  45.30600 17.91700 26.41400
H  44.86300 19.13800 27.65000
H  47.43100 24.02900 23.17000
H  49.55600 26.03600 23.32400
H  50.28100 23.93400 22.77500
H  49.09600 22.85200 22.21400
H  49.77300 22.57300 23.80900
H  47.04100 27.08600 24.34300
H  46.70000 26.07400 23.07600
H  47.91000 28.75400 23.05100
H  46.91700 27.98900 21.83600
H  48.59800 27.62000 21.79500
H  51.34300 29.37300 26.02200
H  52.34200 29.76500 27.39200
H  50.75800 30.64000 27.06900
H  48.62100 29.06300 31.69700
H  51.71200 28.72100 34.92000
H  50.32000 28.24600 35.81500
H  50.43900 29.94600 35.48900
Mg -10.87900 38.56900 40.84500
C  -9.34500 35.59200 39.93600
C  -8.49500 40.36300 39.28100
C  -12.83500 41.35000 41.12300
C  -13.64000 36.60500 42.08500
N  -9.12700 38.03900 39.76000
C  -8.64700 36.79500 39.48000
C  -7.44000 36.74100 38.49700
C  -7.07000 38.33900 38.55100
C  -8.37200 38.98500 39.19300
C  -5.87500 38.73500 39.56400
C  -7.77700 36.19900 37.04200
C  -6.75700 35.29000 36.20500
H  -6.43100 35.57600 34.70500
N  -10.66600 40.59000 40.33700
C  -9.54300 41.11900 39.76300
C  -9.55300 42.56100 39.73800
C  -10.80700 42.94900 40.23400
C  -11.49000 41.63400 40.66200
C  -8.42800 43.37700 39.11900
C  -11.35800 44.33600 40.36000
O  -10.63500 45.24200 40.03800
C  -12.76700 44.70000 40.77000
N  -12.97900 38.87600 41.43200
C  -13.52100 40.14400 41.43900
C  -15.07300 40.03600 41.71400
C  -15.32100 38.48800 41.87500
C  -13.87000 37.95200 41.83100
C  -15.51600 41.06700 42.83600
C  -16.32900 37.91800 40.80700
C  -15.81100 37.42700 39.46200
N  -11.35100 36.51600 41.05900
C  -12.43700 35.90200 41.65500
C  -12.12400 34.45600 41.77100
C  -10.91800 34.26400 41.08200
C  -10.53700 35.57100 40.69200
C  -12.98700 33.47700 42.54000
C  -9.80900 33.36600 40.71600
O  -9.64400 32.18600 41.08200
C  -8.91300 34.09400 39.77700
C  -7.44600 33.81900 40.11800
O  -6.70000 34.57800 40.81300
O  -7.02500 32.78000 39.37500
C  -5.65500 32.35300 39.65800
H  -7.64800 40.85300 38.79600
H  -13.44600 42.25500 41.08900
H  -14.42800 35.98400 42.51700
H  -6.55800 36.23500 38.88900
H  -6.68300 38.73500 37.61300
H  -5.90000 37.96100 40.33100
H  -5.96900 39.66500 40.12500
H  -4.93700 38.60600 39.02500
H  -8.02600 37.02300 36.37300
H  -8.74400 35.69700 37.04900
H  -7.06800 34.25500 36.34900
H  -5.84400 35.30200 36.80000
H  -8.75900 44.24900 38.55500
H  -7.82000 42.88100 38.36300
H  -7.75700 43.73500 39.90100
H  -12.84900 44.37200 41.80600
H  -13.54200 44.15500 40.23100
H  -12.86000 45.78600 40.73900
H  -15.57500 40.40600 40.82000
H  -15.71000 38.34100 42.88200
H  -16.19100 41.87900 42.56500
H  -14.56600 41.51000 43.13200
H  -15.92700 40.61600 43.74000
H  -17.06400 38.67000 40.52100
H  -16.82200 37.02900 41.20300
H  -14.72700 37.38800 39.56800
H  -15.99200 38.23900 38.75700
H  -16.22900 36.49300 39.08700
H  -12.68500 32.44100 42.38600
H  -14.05300 33.64200 42.38700
H  -12.62900 33.52300 43.56900
H  -9.01300 33.87700 38.71400
H  -5.58700 31.26900 39.55900
H  -5.32600 32.61900 40.66300
H  -4.91500 32.68500 38.92900

