158

Mg -2.33500 17.42800 27.08800
C  -2.45800 15.27300 29.84300
C  -2.82100 20.07800 29.14300
C  -2.45900 19.43500 24.31600
C  -2.26200 14.73300 24.91400
N  -2.74600 17.65900 29.30700
C  -2.50700 16.63100 30.23400
C  -2.51500 17.17200 31.72700
C  -2.89500 18.65900 31.40100
C  -2.81800 18.79500 29.87900
C  -4.07800 19.36100 32.11200
C  -1.16200 16.98200 32.53700
C  -0.99300 17.80100 33.82800
H  -0.89700 17.08600 35.18500
N  -2.43400 19.44400 26.81500
C  -2.64500 20.42000 27.79800
C  -2.60100 21.73300 27.26100
C  -2.43200 21.54100 25.81600
C  -2.38300 20.08900 25.60100
C  -2.65500 22.93000 28.07800
C  -2.33200 22.64900 24.79400
O  -2.04100 22.40500 23.62700
C  -2.31500 24.18200 25.21500
N  -2.53700 17.10500 24.97000
C  -2.49000 18.11300 24.03800
C  -2.55300 17.51500 22.62500
C  -2.09900 16.02900 22.79900
C  -2.43900 15.94500 24.28600
C  -4.00200 17.68300 21.98700
C  -0.61200 15.87200 22.34700
C  0.51500 15.32400 23.30900
N  -2.52500 15.36200 27.25200
C  -2.40800 14.36500 26.27900
C  -2.42300 13.07700 26.91800
C  -2.54800 13.37200 28.32700
C  -2.48500 14.74000 28.44400
C  -2.45100 11.88200 26.28900
C  -2.63600 12.81600 29.59800
O  -2.68700 11.64200 30.00800
C  -2.66900 14.00300 30.69200
C  -1.73300 13.65100 31.74200
O  -0.50400 13.70300 31.69500
O  -2.45800 13.19500 32.87000
C  -1.62800 12.33300 33.75800
H  -2.83600 20.86400 29.90100
H  -2.52000 20.09300 23.44700
H  -2.01800 13.91300 24.23600
H  -3.39000 16.74200 32.21400
H  -2.00800 19.22400 31.68800
H  -3.70300 20.19700 32.70300
H  -4.61400 18.62200 32.70800
H  -4.86100 19.66100 31.41400
H  -0.41400 17.38600 31.85500
H  -0.91300 15.96700 32.84700
H  -1.92000 18.36800 33.91300
H  -0.19200 18.52400 33.66900
H  -2.04300 23.76700 27.74000
H  -2.21600 22.71400 29.05200
H  -3.67600 23.30900 28.12400
H  -3.18300 24.39200 25.84000
H  -2.26300 24.72700 24.27300
H  -1.35400 24.29000 25.71900
H  -1.77300 18.00200 22.04000
H  -2.71700 15.32900 22.23600
H  -4.65600 18.25500 22.64500
H  -4.39800 16.74000 21.61200
H  -3.79800 18.22800 21.06500
H  -0.20000 16.78100 21.90900
H  -0.70700 15.10000 21.58400
H  0.07000 15.24700 24.30100
H  1.34900 16.02500 23.33400
H  0.92000 14.35900 23.00600
H  -2.25100 11.05600 26.97300
H  -1.70600 11.67700 25.52100
H  -3.36900 11.78800 25.70900
H  -3.65400 14.02000 31.16000
H  -1.11100 12.99800 34.44900
H  -0.91000 11.69600 33.24200
H  -2.34200 11.74400 34.33400
Mg 47.80200 24.69100 27.92100
C  48.17800 27.19900 30.48800
C  46.24400 22.76700 30.30700
C  47.63800 22.22500 25.64300
C  49.55700 26.68400 25.71500
N  47.42500 24.98700 30.14000
C  47.59100 26.06300 30.95900
C  46.82900 25.89500 32.28900
C  46.47200 24.38100 32.29700
C  46.79700 23.94600 30.83400
C  47.22800 23.56000 33.34000
C  45.75400 26.87300 32.59800
C  45.75800 27.48900 34.01100
H  46.51500 26.87400 35.24500
N  46.92200 22.80400 27.92800
C  46.20600 22.24000 28.98500
C  45.82000 20.86100 28.53100
C  45.99600 20.81500 27.10900
C  46.85800 21.97000 26.83100
C  45.18900 19.87300 29.43400
C  45.53200 19.79400 26.02300
O  45.93800 19.85400 24.90500
C  44.74700 18.64800 26.51000
N  48.65500 24.38600 26.07700
C  48.43200 23.30600 25.30500
C  49.19500 23.38500 24.00200
C  49.58300 24.90300 23.98500
C  49.22500 25.37800 25.33900
C  50.39800 22.40700 24.01900
C  48.89700 25.63400 22.85300
C  49.72500 26.71400 22.20900
N  48.72600 26.54600 27.97700
C  49.35800 27.23800 26.99200
C  49.60200 28.61500 27.43000
C  49.14500 28.62400 28.75300
C  48.65900 27.31500 29.09400
C  50.19500 29.74400 26.63100
C  48.93000 29.48100 29.91700
O  49.19000 30.65200 30.05500
C  48.51500 28.55300 31.14100
C  49.73800 28.25800 31.98100
O  50.74600 27.81800 31.50800
O  49.58400 28.64100 33.26400
C  50.85200 28.49700 34.07200
H  45.75400 22.19700 31.10000
H  47.52300 21.43800 24.89400
H  50.16300 27.24800 25.00300
H  47.55600 26.06400 33.08300
H  45.43300 24.18500 32.56100
H  47.86100 24.17100 33.98400
H  47.86300 22.82100 32.85100
H  46.55200 23.00700 33.99200
H  44.77100 26.42900 32.44100
H  45.84200 27.70500 31.90000
H  44.68400 27.47800 34.19700
H  46.06600 28.53100 33.91900
H  45.27000 20.19000 30.47400
H  45.57800 18.86300 29.30500
H  44.16300 19.83500 29.06900
H  43.74800 18.93400 26.83800
H  45.25700 18.19700 27.36200
H  44.65300 17.93400 25.69100
H  48.51300 23.03900 23.22500
H  50.66100 24.92600 23.82600
H  50.28900 21.63900 23.25300
H  50.52300 21.89400 24.97200
H  51.34800 22.90800 23.83100
H  47.94600 26.09500 23.11900
H  48.63000 24.94200 22.05500
H  50.17200 26.29700 21.30600
H  50.56800 27.05900 22.80700
H  49.15400 27.63400 22.08400
H  51.04500 29.32700 26.09300
H  50.50600 30.40700 27.43900
H  49.58800 30.26200 25.88900
H  47.63100 28.81100 31.72400
H  50.77000 27.64500 34.74700
H  50.99400 29.36200 34.72000
H  51.79600 28.49500 33.52700

