158

Mg -2.03200 16.98700 26.40100
C  -2.46200 14.91800 29.36700
C  -2.40300 19.74500 28.46400
C  -2.23300 18.81300 23.72300
C  -2.14400 14.13200 24.51800
N  -2.38500 17.24800 28.65400
C  -2.46700 16.25700 29.66100
C  -2.57000 16.91400 31.06500
C  -2.59600 18.47800 30.69600
C  -2.50600 18.50800 29.17500
C  -3.88400 19.20500 31.22400
C  -1.39000 16.59800 32.11700
C  -0.90200 17.55100 33.16900
H  -0.29200 17.08700 34.50500
N  -2.17800 19.02000 26.16400
C  -2.28900 19.98400 27.09200
C  -2.36100 21.20900 26.44600
C  -2.18800 21.03400 25.03400
C  -2.23100 19.53500 24.90600
C  -2.40200 22.47400 27.19300
C  -1.98000 22.05100 23.91300
O  -1.87200 21.75400 22.72600
C  -1.87600 23.47900 24.34100
N  -2.41600 16.49900 24.39300
C  -2.21500 17.41300 23.39600
C  -2.22200 16.83100 22.01100
C  -1.79000 15.34300 22.40300
C  -2.11700 15.29200 23.85400
C  -3.59600 16.99700 21.26600
C  -0.39200 14.76200 21.97200
C  -0.32200 13.61800 20.94000
N  -2.22900 14.96700 26.81300
C  -2.21300 13.93000 25.90100
C  -2.32400 12.66300 26.57600
C  -2.31300 13.05000 27.94700
C  -2.33500 14.43600 28.03600
C  -2.25200 11.35800 25.99400
C  -2.33500 12.60200 29.32300
O  -2.43400 11.45100 29.75200
C  -2.43400 13.77700 30.27500
C  -1.36300 13.70500 31.26100
O  -0.19100 14.01200 31.04500
O  -1.86100 13.39300 32.51500
C  -0.96700 13.40200 33.70400
H  -2.43500 20.59500 29.14800
H  -2.04300 19.46700 22.86900
H  -2.06700 13.25400 23.87300
H  -3.49600 16.57500 31.52900
H  -1.70300 19.00300 31.03600
H  -4.03400 18.73200 32.19500
H  -4.69400 19.05100 30.51000
H  -3.74400 20.28000 31.32800
H  -0.47500 16.25300 31.63600
H  -1.84400 15.83600 32.75000
H  -1.57300 18.38500 33.37600
H  -0.12500 18.10900 32.64700
H  -1.44600 22.97400 27.34600
H  -2.98100 22.49800 28.11700
H  -3.08700 23.12000 26.64300
H  -2.80400 24.01000 24.55200
H  -1.34100 24.08000 23.60600
H  -1.20100 23.48000 25.19800
H  -1.43600 17.22000 21.36400
H  -2.48400 14.66900 21.90100
H  -4.20800 17.74300 21.77200
H  -4.20100 16.09000 21.29400
H  -3.46700 17.14100 20.19300
H  0.11400 14.51400 22.90500
H  0.03200 15.63400 21.47400
H  0.15500 12.75300 21.40100
H  0.41000 13.90100 20.18400
H  -1.29200 13.35600 20.51700
H  -1.50500 11.28600 25.20300
H  -3.16300 11.10300 25.45100
H  -2.06300 10.52900 26.67600
H  -3.35400 13.67800 30.85100
H  -1.03800 12.39000 34.10300
H  -1.44700 14.11100 34.37900
H  0.09000 13.63100 33.57000
Mg 37.18200 50.38700 25.50000
C  37.27900 48.23300 28.53500
C  36.12600 52.83400 27.63700
C  36.53300 52.14200 22.82600
C  37.88800 47.43200 23.68700
N  36.65400 50.48200 27.79500
C  36.94500 49.55000 28.79500
C  36.85900 50.13400 30.15600
C  36.04000 51.47300 29.89500
C  36.27800 51.61300 28.34900
C  34.57300 51.35300 30.29800
C  38.11100 50.08500 30.98200
C  38.04700 49.47500 32.36100
H  36.72900 49.48000 33.22500
N  36.55800 52.27800 25.24500
C  36.12600 53.14500 26.21500
C  35.77200 54.40800 25.49900
C  35.90500 54.20700 24.12800
C  36.29300 52.88200 24.02600
C  35.40500 55.63700 26.24300
C  35.48400 55.17300 22.95800
O  35.45700 54.73500 21.77300
C  35.13000 56.60600 23.18800
N  37.06000 49.83000 23.56600
C  36.90500 50.83100 22.59200
C  37.14400 50.22100 21.23000
C  37.75100 48.82100 21.53100
C  37.58200 48.65400 22.99700
C  35.83300 50.08800 20.43800
C  39.18500 48.58900 21.05000
C  39.42800 47.22500 20.35700
N  37.56600 48.27400 25.95800
C  37.93700 47.24400 25.01600
C  38.44200 46.12400 25.81400
C  38.12600 46.41600 27.15400
C  37.63400 47.74000 27.22000
C  38.95100 44.78500 25.38300
C  38.10400 45.91600 28.55200
O  38.44900 44.83200 28.91700
C  37.57100 47.07400 29.43600
C  36.40500 46.51700 30.15700
O  35.24300 46.51400 29.74200
O  36.75000 46.07400 31.43400
C  35.60700 45.71200 32.25700
H  35.78900 53.67800 28.24400
H  36.55000 52.57700 21.82400
H  38.25800 46.61600 23.06300
H  36.15000 49.46800 30.64800
H  36.59200 52.20400 30.48600
H  34.38300 52.17500 30.98800
H  34.37200 50.39400 30.77600
H  33.90000 51.52200 29.45700
H  38.34500 51.14100 31.12000
H  38.94200 49.74300 30.36500
H  38.79700 50.03000 32.92400
H  38.36600 48.43300 32.32900
H  36.34800 56.11600 26.50600
H  34.90300 55.38000 27.17600
H  34.73800 56.34200 25.74700
H  34.17200 56.53500 23.70300
H  34.96000 56.91700 22.15800
H  35.96400 57.17600 23.59800
H  37.89800 50.82000 20.72000
H  37.15700 48.02200 21.08800
H  34.99000 50.61200 20.88700
H  35.58000 49.05200 20.21400
H  35.92500 50.57400 19.46700
H  39.74800 48.46900 21.97600
H  39.55300 49.47900 20.54000
H  40.01500 46.58600 21.01700
H  40.00100 47.37200 19.44200
H  38.49000 46.77100 20.04000
H  38.51700 43.91800 25.88100
H  40.00900 44.91600 25.61100
H  38.89500 44.47700 24.33900
H  38.35600 47.28600 30.16200
H  35.10800 44.75100 32.13400
H  34.78400 46.42600 32.21400
H  35.78400 45.54000 33.31800

