158

Mg 47.32600 16.59900 28.07700
C  45.19900 16.29500 30.97000
C  49.55100 18.37700 30.09900
C  49.04700 17.31000 25.24800
C  44.75400 15.25800 26.27300
N  47.37900 17.15500 30.31600
C  46.45900 16.83900 31.28200
C  46.90300 17.36100 32.61400
C  48.16600 18.26300 32.29200
C  48.44600 17.97800 30.80400
C  48.06200 19.82300 32.54400
C  47.22700 16.14200 33.56600
C  47.13400 16.37700 35.06100
H  47.31700 17.78000 35.58100
N  49.13300 17.59200 27.71000
C  49.86900 18.24100 28.71900
C  50.96900 18.89400 28.04800
C  50.99500 18.43000 26.66300
C  49.67400 17.73900 26.44500
C  51.94800 19.70200 28.87200
C  52.00600 18.73000 25.62700
O  51.90400 18.43200 24.43700
C  53.20800 19.58800 25.92500
N  46.91400 16.52900 26.12200
C  47.76600 16.83000 25.11400
C  47.21800 16.59000 23.77500
C  45.85500 15.80100 24.03000
C  45.81400 15.82000 25.62600
C  46.98500 17.93300 22.99400
C  45.98600 14.24600 23.69100
C  45.05300 13.71200 22.59000
N  45.34000 15.95900 28.50100
C  44.41700 15.39100 27.66900
C  43.18100 15.05300 28.40500
C  43.48400 15.46500 29.68600
C  44.79000 15.95100 29.71300
C  41.92000 14.47700 27.88300
C  42.87800 15.54700 31.02700
O  41.84000 15.09700 31.48200
C  44.02100 16.07800 31.90500
C  43.50200 17.27700 32.63200
O  43.47500 18.39400 32.12200
O  42.98000 16.93200 33.82600
C  42.53500 17.95600 34.76800
H  50.28100 18.95500 30.67000
H  49.52500 17.55900 24.29800
H  43.91500 14.90000 25.67200
H  46.17600 18.03900 33.06100
H  49.01300 17.85100 32.84100
H  47.07300 19.97900 32.97500
H  47.97100 20.40600 31.62800
H  48.86700 20.12700 33.21300
H  48.23700 15.78800 33.36200
H  46.54600 15.32300 33.33600
H  47.91800 15.76300 35.50300
H  46.20800 15.97000 35.46700
H  52.44600 18.89400 29.40700
H  51.38100 20.34900 29.54200
H  52.61800 20.23200 28.19500
H  53.79900 19.76300 25.02700
H  53.76700 19.28500 26.81000
H  52.92800 20.57800 26.28400
H  48.04400 15.95300 23.45700
H  44.99600 16.39100 23.70900
H  45.96100 18.10700 22.66400
H  47.72700 17.96600 22.19600
H  47.21500 18.78300 23.63600
H  45.80200 13.63900 24.57800
H  46.97900 14.04600 23.28800
H  45.50500 13.98400 21.63600
H  44.02700 14.08100 22.61700
H  44.95900 12.62700 22.63900
H  41.90800 13.43900 28.21400
H  41.80400 14.62300 26.80900
H  41.10000 14.94200 28.43000
H  44.29200 15.26700 32.58100
H  41.45700 18.03400 34.62300
H  43.00500 18.91000 34.53000
H  42.55900 17.64500 35.81200
Mg 42.46800 41.20900 26.80600
C  41.35100 43.67400 29.06400
C  43.46600 39.41500 29.41300
C  43.26700 38.81900 24.52900
C  41.61900 43.35600 24.17400
N  42.44900 41.55400 28.92500
C  41.91200 42.57800 29.71200
C  42.01100 42.38300 31.20100
C  42.93400 41.10600 31.23100
C  43.05900 40.71400 29.70600
C  44.37700 41.45000 31.77600
C  40.62300 42.24900 31.91500
C  40.45500 42.99900 33.23900
H  39.91200 42.10800 34.46300
N  43.39200 39.46200 26.98000
C  43.67800 38.81500 28.12400
C  44.11900 37.48000 27.79400
C  44.14500 37.32600 26.40300
C  43.55700 38.56800 25.90000
C  44.51400 36.47600 28.86300
C  44.59700 36.16500 25.56000
O  44.36600 36.11100 24.37200
C  45.37600 35.12900 26.22000
N  42.52900 41.19700 24.62200
C  42.82200 40.05500 23.93000
C  42.52900 40.16900 22.44000
C  41.98200 41.70800 22.28800
C  42.03100 42.12000 23.76400
C  43.72300 40.02900 21.46800
C  40.55000 41.77600 21.57800
C  39.35100 41.39700 22.38900
N  41.70100 43.19100 26.63200
C  41.44600 43.90200 25.51800
C  40.94000 45.18200 25.86500
C  40.79400 45.17500 27.25600
C  41.31300 43.91500 27.70300
C  40.46100 46.28300 24.89700
C  40.40300 45.89500 28.45400
O  39.87600 47.01400 28.56500
C  40.72400 44.95600 29.61400
C  41.58500 45.70300 30.53300
O  42.76400 45.87500 30.28600
O  40.80100 46.17500 31.52900
C  41.47700 46.98500 32.54300
H  43.82000 38.76100 30.21200
H  43.41300 38.05500 23.76200
H  41.36400 43.87500 23.24800
H  42.44500 43.23400 31.72600
H  42.63700 40.25200 31.83900
H  44.35100 42.52900 31.92900
H  45.17800 41.14700 31.10200
H  44.56700 40.96100 32.73200
H  40.49300 41.22600 32.26800
H  39.79100 42.62900 31.32200
H  39.66500 43.71700 33.02300
H  41.34700 43.60200 33.41000
H  44.13200 36.75400 29.84500
H  45.59400 36.37000 28.95900
H  44.02300 35.51700 28.69600
H  44.77700 34.48200 26.86000
H  46.17500 35.64100 26.75600
H  45.82800 34.47100 25.47700
H  41.82700 39.35200 22.27100
H  42.62000 42.40300 21.74100
H  43.79000 40.92100 20.84400
H  43.70900 39.12000 20.86600
H  44.64100 39.92800 22.04600
H  40.53100 41.10100 20.72200
H  40.30900 42.79600 21.28100
H  38.79200 40.69800 21.76700
H  38.65500 42.23300 22.46300
H  39.52900 41.06200 23.41100
H  39.79700 47.00600 25.37100
H  39.99200 45.80300 24.03900
H  41.38600 46.77900 24.60100
H  39.83900 44.69200 30.19200
H  42.54300 46.84000 32.71800
H  40.85200 46.81200 33.41800
H  41.54500 48.06200 32.39200

