158

Mg -2.17200 17.50900 26.78400
C  -2.29000 15.37400 29.49600
C  -2.76200 20.13900 28.89100
C  -1.95000 19.33300 24.04900
C  -1.89600 14.58000 24.62900
N  -2.57400 17.68300 28.97600
C  -2.58000 16.68900 29.91100
C  -2.81400 17.31400 31.34200
C  -2.93400 18.81500 31.07200
C  -2.84400 18.92700 29.53100
C  -4.28800 19.41100 31.51000
C  -1.77200 16.98100 32.54700
C  -1.90800 17.75500 33.85200
H  -2.03200 17.05500 35.19400
N  -2.32600 19.53000 26.53100
C  -2.57200 20.44200 27.50100
C  -2.53300 21.74100 26.87400
C  -2.50300 21.49200 25.47100
C  -2.25300 20.11600 25.24700
C  -2.87500 23.06000 27.61400
C  -2.55000 22.51600 24.28300
O  -2.75500 22.16000 23.14100
C  -2.69800 23.99700 24.58900
N  -1.71700 16.98500 24.68400
C  -1.79200 17.96100 23.81500
C  -1.73700 17.45000 22.34700
C  -1.43800 15.92200 22.52500
C  -1.71100 15.79700 23.99900
C  -3.03600 17.80700 21.51500
C  0.00800 15.65800 22.29100
C  1.18000 16.57500 22.83900
N  -2.15100 15.43300 26.95400
C  -1.98700 14.38200 26.00500
C  -2.02700 13.09900 26.70400
C  -2.07400 13.45000 28.04400
C  -2.23900 14.87000 28.18300
C  -2.07000 11.76900 26.17700
C  -2.14900 12.89000 29.39700
O  -2.16500 11.73500 29.73700
C  -2.23200 14.09200 30.32600
C  -1.07400 14.03700 31.29700
O  0.04300 14.52800 31.08700
O  -1.49700 13.33500 32.43500
C  -0.50100 13.40000 33.51100
H  -2.91800 20.99400 29.55100
H  -1.81400 19.91200 23.13300
H  -1.87200 13.67500 24.01900
H  -3.81300 16.92800 31.54800
H  -2.19600 19.46200 31.54600
H  -4.98300 19.57600 30.68800
H  -4.05300 20.34800 32.01500
H  -4.76700 18.85100 32.31400
H  -0.74300 17.23900 32.29600
H  -1.80700 15.90400 32.71500
H  -2.86300 18.27300 33.76400
H  -1.04900 18.35700 34.15200
H  -3.91400 23.22800 27.33100
H  -2.18100 23.88800 27.46600
H  -2.91900 22.86300 28.68500
H  -1.80800 24.54700 24.89500
H  -3.53900 24.14700 25.26600
H  -3.17800 24.41400 23.70300
H  -0.89800 17.95700 21.87100
H  -2.04800 15.20800 21.97200
H  -3.61500 18.50700 22.11700
H  -3.64800 16.96500 21.19200
H  -2.74800 18.37200 20.62900
H  0.15300 15.50500 21.22200
H  0.26200 14.73400 22.81000
H  0.91500 17.46400 23.41200
H  1.77500 17.01000 22.03600
H  1.89400 16.06800 23.48800
H  -1.48100 11.04300 26.73800
H  -2.07000 11.65800 25.09300
H  -3.08300 11.42600 26.39000
H  -3.16800 14.02600 30.88000
H  0.48600 13.02800 33.23900
H  -0.70100 12.75800 34.36900
H  -0.38100 14.43700 33.82500
Mg 2.30500 -2.44200 43.38800
C  5.46000 -1.05400 42.68200
C  0.85900 0.18200 41.69600
C  -0.62800 -4.06500 43.74500
C  3.96500 -5.18200 44.73600
N  3.13600 -0.73500 42.15800
C  4.41900 -0.31200 42.13800
C  4.63800 0.99700 41.40400
C  3.17600 1.42400 41.25300
C  2.26200 0.26200 41.79600
C  2.71500 2.81100 41.86200
C  5.42700 0.97900 40.06700
C  5.94000 2.38900 39.58700
H  5.87600 2.82800 38.14100
N  0.43200 -2.05100 42.69700
C  -0.00500 -0.85200 42.13800
C  -1.40100 -0.87000 41.86100
C  -1.86000 -2.14300 42.41400
C  -0.70300 -2.81700 43.01500
C  -2.13800 0.27200 41.15400
C  -3.33800 -2.57000 42.52200
O  -4.29400 -1.93400 42.05400
C  -3.69200 -3.83300 43.19400
N  1.77000 -4.52000 43.94000
C  0.46100 -4.85600 44.13700
C  0.33100 -6.17600 44.89300
C  1.81400 -6.53400 45.22000
C  2.56900 -5.32700 44.59000
C  -0.69900 -6.09600 46.09100
C  2.36500 -7.87800 44.78200
C  2.70400 -7.98100 43.32100
N  4.26300 -3.03600 43.67900
C  4.75600 -4.09400 44.35600
C  6.16000 -3.95900 44.52700
C  6.45800 -2.75700 43.92200
C  5.25700 -2.25000 43.38300
C  7.04900 -4.95800 45.26300
C  7.57400 -1.90800 43.63300
O  8.75900 -2.01600 43.92700
C  6.92700 -0.77300 42.89600
C  7.16700 0.38400 43.74900
O  6.57800 0.74400 44.74300
O  8.19300 1.11500 43.19000
C  8.47600 2.45000 43.81600
H  0.42800 1.06900 41.22600
H  -1.47700 -4.73800 43.88600
H  4.52600 -5.93500 45.29300
H  5.15100 1.65200 42.10800
H  3.06400 1.42100 40.16800
H  2.00700 3.32400 41.21200
H  3.57700 3.46100 42.01200
H  2.21200 2.64900 42.81500
H  4.81900 0.60100 39.24600
H  6.39700 0.51300 40.24400
H  7.00900 2.47200 39.78000
H  5.37400 3.08000 40.21100
H  -1.86400 0.28300 40.09900
H  -1.86700 1.26700 41.50800
H  -3.21800 0.24300 41.30200
H  -3.40900 -4.76500 42.70700
H  -4.77600 -3.88000 43.29800
H  -3.37600 -3.80800 44.23700
H  -0.10200 -6.79600 44.10800
H  1.92400 -6.57500 46.30400
H  -0.23500 -6.15600 47.07500
H  -1.17200 -7.07100 45.97700
H  -1.41200 -5.27100 46.06500
H  1.61800 -8.64700 44.97900
H  3.25300 -8.11200 45.36900
H  2.39600 -7.18400 42.64400
H  2.25200 -8.90400 42.95900
H  3.77300 -8.11300 43.15200
H  6.49100 -5.63100 45.91500
H  7.90800 -4.40300 45.64000
H  7.50900 -5.69200 44.60100
H  7.44900 -0.55300 41.96500
H  7.54300 2.99600 43.96000
H  9.03000 2.94900 43.02100
H  9.05400 2.29200 44.72700

