158

Mg 40.77800 9.26300 30.30300
C  42.63800 10.23100 33.10400
C  38.16600 8.54400 32.53300
C  39.03600 8.04000 27.64000
C  43.53200 9.79300 28.29500
N  40.53500 9.33900 32.59800
C  41.32700 9.93900 33.55800
C  40.63900 10.09600 34.89000
C  39.32000 9.35000 34.66300
C  39.35600 9.06700 33.17900
C  39.18400 7.94500 35.28800
C  40.42700 11.63200 35.18500
C  39.94400 11.94200 36.63200
H  40.93100 12.71500 37.55600
N  38.88400 8.46600 30.06700
C  38.01700 8.17300 31.11300
C  36.85100 7.52000 30.54500
C  37.06200 7.44400 29.13400
C  38.40900 7.98000 28.86800
C  35.56600 7.14400 31.39600
C  36.13100 6.91200 28.03400
O  36.42300 6.82300 26.86500
C  34.68700 6.44600 28.33800
N  41.28000 8.75900 28.28500
C  40.35100 8.48800 27.39400
C  40.86200 8.77000 25.94600
C  42.31800 9.23300 26.15300
C  42.33200 9.27900 27.69400
C  40.68000 7.62400 24.87800
C  42.78300 10.65900 25.52900
C  42.14200 11.16600 24.25600
N  42.73200 9.83000 30.56200
C  43.77100 10.08000 29.64700
C  44.99200 10.44700 30.34600
C  44.55700 10.58000 31.65900
C  43.17900 10.22600 31.78900
C  46.35600 10.56700 29.84800
C  44.99200 10.91300 33.01700
O  46.06300 11.33800 33.37000
C  43.81100 10.80500 33.95700
C  44.09500 9.93300 35.15400
O  44.80200 8.93200 35.19000
O  43.73600 10.60300 36.32700
C  44.07400 9.97200 37.60200
H  37.30900 8.57600 33.20900
H  38.41900 7.87900 26.75300
H  44.36300 9.91200 27.59600
H  41.33300 9.48200 35.46400
H  38.46400 9.97100 34.92800
H  39.89300 7.72100 36.08500
H  39.25600 7.13600 34.56100
H  38.21400 7.92400 35.78300
H  39.79300 12.07400 34.41600
H  41.39700 12.11100 35.04700
H  39.64100 11.03500 37.15600
H  39.01900 12.46200 36.38200
H  35.71000 7.26400 32.46900
H  35.31700 6.10000 31.20400
H  34.65500 7.65200 31.08200
H  34.17000 7.38900 28.51000
H  34.63000 5.96700 29.31500
H  34.24100 5.83500 27.55300
H  40.30600 9.66200 25.65900
H  42.94300 8.36600 25.94400
H  40.07500 8.13400 24.12900
H  40.13300 6.72700 25.16700
H  41.64500 7.28900 24.49900
H  43.86900 10.69000 25.45000
H  42.45700 11.45200 26.20300
H  41.50500 10.40000 23.81300
H  42.93400 11.48700 23.57900
H  41.52900 12.03800 24.48300
H  46.85300 9.59700 29.82100
H  46.91900 11.34500 30.36300
H  46.27200 10.94500 28.82900
H  43.62800 11.82700 34.28900
H  43.80100 10.51100 38.51000
H  45.13700 9.73400 37.62100
H  43.47900 9.06000 37.65000
Mg 42.35300 41.06300 26.18400
C  41.48600 43.37300 28.69100
C  43.62200 39.04600 28.71600
C  43.46200 38.95800 23.91500
C  41.30600 43.27100 23.85200
N  42.55100 41.34000 28.50900
C  42.10100 42.27700 29.31900
C  42.31700 41.94800 30.87200
C  43.05500 40.57300 30.75500
C  43.02700 40.23100 29.28400
C  44.54000 40.51000 31.31900
C  40.88500 41.82400 31.64200
C  40.59300 42.71900 32.85100
H  39.95800 41.98900 34.06200
N  43.51500 39.28400 26.26900
C  43.89200 38.62500 27.39600
C  44.54900 37.40800 27.02000
C  44.52600 37.34100 25.59900
C  43.86100 38.58100 25.19800
C  44.97800 36.44600 28.15700
C  45.09800 36.20600 24.71900
O  44.86800 36.11900 23.52100
C  45.74500 34.92900 25.29600
N  42.49100 41.16700 24.10300
C  42.84500 40.10500 23.35300
C  42.35700 40.28600 21.88100
C  41.82400 41.78500 21.84200
C  41.83500 42.05700 23.36000
C  43.42500 39.97200 20.75300
C  40.43000 41.81800 21.21300
C  40.17500 43.10200 20.38700
N  41.58000 43.01700 26.17700
C  41.19400 43.81800 25.10100
C  40.69400 45.04800 25.59600
C  40.83900 44.96100 26.92400
C  41.36100 43.63000 27.30700
C  40.14700 46.11800 24.66000
C  40.59200 45.62000 28.17900
O  40.10200 46.71600 28.36800
C  41.01700 44.64200 29.35500
C  42.06400 45.40100 30.14200
O  43.23500 45.55800 29.84200
O  41.46900 45.80100 31.23700
C  42.45600 46.34800 32.21800
H  44.00100 38.46200 29.55800
H  43.47700 38.22900 23.10200
H  40.85700 43.78100 22.99700
H  42.83600 42.82900 31.25000
H  42.47700 39.80300 31.26600
H  44.66200 41.41900 31.91000
H  45.28000 40.60100 30.52400
H  44.89300 39.66200 31.90600
H  40.79000 40.80400 32.01300
H  40.10500 41.98800 30.89800
H  39.91200 43.51100 32.53800
H  41.54300 43.15900 33.15400
H  45.58500 37.14800 28.72800
H  45.56200 35.56000 27.90500
H  44.05100 36.17200 28.66000
H  46.05800 34.27500 24.48200
H  44.94300 34.55800 25.93500
H  46.58800 35.32600 25.86100
H  41.54400 39.56800 21.76500
H  42.49600 42.53700 21.42900
H  44.40300 39.95900 21.23400
H  43.47200 40.65700 19.90600
H  43.18200 39.02200 20.27600
H  39.70500 41.68700 22.01700
H  40.31700 40.98000 20.52600
H  39.16100 43.47400 20.53100
H  40.30900 42.82500 19.34100
H  40.88700 43.88800 20.64000
H  39.39000 45.68700 24.00400
H  40.99300 46.44100 24.05300
H  39.73000 46.92100 25.26800
H  40.10300 44.56500 29.94300
H  42.86100 45.64700 32.94800
H  41.91700 47.10500 32.78800
H  43.26500 46.88800 31.72600

