158

Mg 8.28900 2.93400 28.30600
C  9.93500 1.52800 31.06800
C  6.38400 4.81100 30.57600
C  6.61700 4.47500 25.73700
C  9.89600 0.82600 26.18600
N  7.93100 2.87800 30.52000
C  8.88500 2.39000 31.42200
C  8.59100 2.86800 32.83000
C  7.34100 3.71400 32.68500
C  7.22600 3.80700 31.11400
C  6.00700 3.29200 33.40700
C  9.85400 3.53800 33.44000
C  9.60000 4.27200 34.74500
H  10.33700 3.73100 36.01300
N  6.70500 4.47900 28.18500
C  6.09600 5.10100 29.19900
C  5.15300 6.03200 28.71600
C  5.12200 5.93400 27.28200
C  6.21700 4.95500 27.00500
C  4.22600 6.76400 29.63700
C  4.19100 6.65900 26.37500
O  4.25500 6.43800 25.16600
C  3.19100 7.66300 26.87000
N  8.38800 2.81800 26.28200
C  7.49500 3.43900 25.38800
C  7.64200 2.88400 24.00100
C  8.88000 1.88200 24.07600
C  9.02700 1.75700 25.60500
C  6.38400 2.25700 23.38100
C  10.15000 2.28900 23.33400
C  10.25700 2.02400 21.81600
N  9.67400 1.44300 28.52900
C  10.24600 0.65700 27.53600
C  11.14200 -0.21500 28.16800
C  11.14100 0.12500 29.53000
C  10.22900 1.14100 29.70400
C  11.90800 -1.28100 27.51700
C  11.75100 -0.22200 30.87200
O  12.58600 -1.04600 31.14600
C  11.04100 0.78800 31.92000
C  10.50100 0.01400 33.09900
O  9.34800 -0.45500 33.13700
O  11.39700 0.13400 34.04900
C  10.91500 -0.38700 35.33600
H  5.96000 5.53500 31.27500
H  6.09200 4.82300 24.84500
H  10.41500 0.07700 25.58400
H  8.30800 1.99000 33.40900
H  7.41900 4.76100 32.97700
H  5.97300 2.22100 33.60700
H  5.13000 3.70500 32.90900
H  6.06800 3.83500 34.35100
H  10.46200 4.03900 32.68600
H  10.50600 2.72800 33.76700
H  8.55100 4.25200 35.04000
H  10.05700 5.25400 34.62300
H  4.06200 7.80600 29.36300
H  4.74700 6.78700 30.59400
H  3.30600 6.21200 29.83100
H  2.65800 8.06400 26.00800
H  3.75400 8.46500 27.34600
H  2.46800 7.08100 27.44200
H  7.99400 3.75700 23.45200
H  8.50800 0.88100 23.85200
H  5.84600 3.08500 22.92000
H  5.71400 1.81500 24.11900
H  6.73200 1.58700 22.59500
H  11.08300 1.92300 23.76400
H  10.27400 3.37100 23.39200
H  9.26000 1.73400 21.48400
H  10.91300 1.17300 21.63100
H  10.74800 2.82400 21.26300
H  11.46400 -2.27100 27.61600
H  12.89600 -1.23800 27.97600
H  12.14900 -1.00700 26.49000
H  11.61600 1.56400 32.42400
H  10.31800 0.31400 35.91900
H  11.72900 -0.58300 36.03500
H  10.33100 -1.30700 35.28900
Mg 43.13400 41.55300 26.34500
C  41.97800 43.87100 28.54200
C  44.29100 39.50600 28.82000
C  44.68000 39.72100 23.93000
C  42.42400 43.93100 23.78500
N  43.24000 41.79900 28.46100
C  42.47000 42.69400 29.12800
C  42.36200 42.41900 30.66100
C  43.16500 41.01100 30.69700
C  43.62700 40.74500 29.24500
C  44.47200 41.01200 31.51200
C  40.85200 42.25400 31.27500
C  40.72400 41.47300 32.57100
H  39.91900 42.05000 33.71100
N  44.18300 39.78200 26.37000
C  44.49600 39.07400 27.47300
C  45.09000 37.81800 27.06600
C  45.19300 37.81600 25.68300
C  44.70300 39.16600 25.26300
C  45.53600 36.83800 28.08500
C  45.64200 36.77500 24.67300
O  45.71900 37.00300 23.45300
C  46.04700 35.42800 25.11000
N  43.73200 41.88700 24.13200
C  44.23900 40.89900 23.40700
C  44.25200 41.25900 21.86700
C  43.47000 42.63200 21.80300
C  43.21300 42.90000 23.32400
C  45.64000 41.27200 21.24700
C  42.19300 42.54300 20.98300
C  42.01100 43.61000 19.88700
N  42.33500 43.50100 26.14200
C  42.08500 44.25800 25.06000
C  41.46100 45.50800 25.48200
C  41.30800 45.43100 26.89100
C  41.86300 44.19500 27.19200
C  41.01400 46.61200 24.59700
C  40.83100 46.02300 28.12000
O  40.28400 47.11000 28.23500
C  41.20100 45.01200 29.28100
C  42.17400 45.71800 30.13000
O  43.38400 45.82300 30.03600
O  41.55000 46.11300 31.29600
C  42.44400 46.56200 32.46700
H  44.38500 38.78500 29.63500
H  45.14200 39.13300 23.13400
H  42.04800 44.61000 23.01700
H  42.90900 43.19400 31.19700
H  42.51200 40.22200 31.07000
H  44.24700 41.81400 32.21400
H  45.31500 41.32500 30.89500
H  44.72600 40.09700 32.04700
H  40.20100 41.92800 30.46400
H  40.59800 43.25000 31.63700
H  41.66300 41.07200 32.95400
H  40.20600 40.53200 32.38800
H  44.99300 35.90200 27.95300
H  45.46900 37.13100 29.13300
H  46.55100 36.57500 27.78800
H  45.31700 34.99200 25.79300
H  46.99600 35.55400 25.63100
H  46.28500 34.78600 24.26200
H  43.78900 40.42300 21.34300
H  44.13000 43.43900 21.48400
H  46.33300 40.95100 22.02500
H  45.88100 42.23600 20.80100
H  45.71400 40.46700 20.51600
H  41.33700 42.68300 21.64300
H  42.05900 41.58300 20.48500
H  41.89800 43.09300 18.93400
H  42.91400 44.13500 19.57500
H  41.19600 44.33400 19.92900
H  40.51800 47.37000 25.20400
H  40.43200 46.17800 23.78400
H  41.87100 47.18000 24.23500
H  40.31700 44.49500 29.65300
H  43.51000 46.68400 32.27200
H  42.27900 45.74500 33.17000
H  42.03700 47.48100 32.88700

