158

Mg -1.72400 17.30500 26.77000
C  -2.62600 14.99600 29.31600
C  -2.17300 19.75500 29.03200
C  -1.55700 19.49500 24.15700
C  -1.84300 14.68300 24.53600
N  -2.25400 17.29200 28.96200
C  -2.54900 16.27700 29.78900
C  -2.67100 16.83500 31.27500
C  -2.88200 18.34000 30.99100
C  -2.32400 18.49900 29.58100
C  -4.25500 19.09000 31.22300
C  -1.48500 16.46500 32.13600
C  -1.17700 17.27000 33.46800
H  -0.66200 16.58200 34.76300
N  -1.65400 19.34200 26.62100
C  -1.82400 20.16900 27.70400
C  -1.63700 21.52800 27.25400
C  -1.36000 21.51600 25.86300
C  -1.56100 20.02800 25.47800
C  -1.65600 22.70800 28.14600
C  -0.95500 22.54800 24.80500
O  -0.90700 22.32700 23.56000
C  -0.57200 23.96800 25.19600
N  -2.06500 17.12100 24.64700
C  -1.80700 18.15800 23.80400
C  -1.75400 17.79500 22.36900
C  -1.55600 16.17900 22.49000
C  -1.80000 15.96100 23.99600
C  -3.03300 18.19800 21.53200
C  -0.13600 15.71300 22.01700
C  1.03100 16.57000 22.55400
N  -2.22500 15.20600 26.79300
C  -2.19700 14.28700 25.86200
C  -2.64900 13.02700 26.39500
C  -2.76500 13.20900 27.77100
C  -2.56400 14.59600 27.97800
C  -2.75800 11.71100 25.59000
C  -2.93300 12.56100 29.04000
O  -3.06600 11.36000 29.23500
C  -2.88800 13.73000 30.07200
C  -1.81900 13.46300 31.14600
O  -0.59100 13.64900 30.95000
O  -2.37200 13.01900 32.36000
C  -1.42200 12.50000 33.38900
H  -2.39200 20.53900 29.76000
H  -1.50200 20.11500 23.26000
H  -1.73800 13.85000 23.83800
H  -3.53800 16.35000 31.72300
H  -2.33400 18.89200 31.75500
H  -4.86400 18.20400 31.40100
H  -4.41700 19.64900 30.30100
H  -4.35000 19.78400 32.05900
H  -0.59700 16.38100 31.50900
H  -1.67900 15.52100 32.64500
H  -1.97200 17.98300 33.68500
H  -0.27700 17.85700 33.28000
H  -0.75000 23.28300 28.33700
H  -2.23700 22.47200 29.03800
H  -2.26400 23.44100 27.61500
H  0.43800 23.99700 25.60500
H  -1.33800 24.35300 25.87000
H  -0.66800 24.54900 24.27800
H  -0.83900 18.21000 21.94600
H  -2.35100 15.60100 22.01900
H  -3.91000 18.54900 22.07600
H  -3.38100 17.30100 21.01900
H  -2.78900 19.00400 20.84000
H  -0.17600 15.85800 20.93700
H  0.08200 14.64500 22.05500
H  1.29900 17.22400 21.72400
H  1.85700 15.91300 22.82600
H  0.76100 17.21500 23.38900
H  -1.73800 11.34600 25.47000
H  -3.26600 11.77500 24.62700
H  -3.30200 11.02100 26.23500
H  -3.86300 13.70100 30.56000
H  -1.85200 11.61600 33.85900
H  -1.17100 13.20700 34.18100
H  -0.49100 12.09200 32.99400
Mg 9.65500 48.39300 25.54400
C  7.74700 48.59200 28.51300
C  12.27000 49.68900 27.37300
C  11.47200 48.22000 22.79200
C  6.75200 47.35600 23.83500
N  9.94100 49.01100 27.68200
C  9.02200 48.99000 28.73100
C  9.67900 49.33000 30.06500
C  10.98500 50.02400 29.59500
C  11.14200 49.56100 28.14900
C  11.00000 51.59900 29.66700
C  9.80700 48.03800 30.98600
C  10.98900 47.98700 31.96300
H  10.77100 46.94100 33.06600
N  11.64200 49.00600 25.17400
C  12.59000 49.39800 26.03700
C  13.85900 49.58500 25.42100
C  13.67100 49.11300 24.09500
C  12.22100 48.76800 23.91800
C  15.07200 50.09200 26.17100
C  14.67700 48.96000 22.88800
O  14.37300 48.54400 21.77600
C  16.11500 49.43200 22.96900
N  9.12100 48.04600 23.57100
C  10.11300 47.93700 22.59100
C  9.49800 47.41100 21.33900
C  7.96100 47.14300 21.65000
C  7.93100 47.55800 23.14900
C  9.86200 48.39600 20.10700
C  7.49500 45.69100 21.23900
C  7.31200 44.66900 22.39400
N  7.64300 47.94200 26.02300
C  6.58500 47.57000 25.25400
C  5.36900 47.49700 26.08000
C  5.80500 47.83900 27.39100
C  7.18700 48.07200 27.30800
C  4.05800 47.06100 25.47300
C  5.38000 47.85600 28.77700
O  4.33800 47.47100 29.32700
C  6.62900 48.30700 29.57100
C  6.98900 47.06900 30.33900
O  7.56300 46.00600 29.98400
O  6.57800 47.22500 31.61000
C  6.72600 46.03500 32.51100
H  13.10300 50.10300 27.94400
H  12.04600 47.88600 21.92600
H  5.79400 47.15600 23.35100
H  8.86600 49.96200 30.42300
H  11.85300 49.68900 30.16300
H  11.17200 51.96100 28.65300
H  11.88900 51.84400 30.24900
H  10.09600 51.99500 30.12900
H  9.88600 47.14900 30.36000
H  8.97500 47.93500 31.68200
H  11.15600 49.00500 32.31500
H  11.87500 47.69100 31.40100
H  15.14200 49.74700 27.20300
H  15.03600 51.18100 26.13800
H  15.99300 49.76400 25.69000
H  16.71800 48.74900 23.56800
H  16.10400 50.40200 23.46600
H  16.71900 49.52900 22.06600
H  10.00300 46.45300 21.21700
H  7.34500 47.88800 21.14800
H  10.25300 49.33200 20.50600
H  8.99700 48.63000 19.48800
H  10.62900 47.84000 19.56800
H  8.27500 45.44100 20.51900
H  6.59900 45.84100 20.63600
H  7.99200 44.95300 23.19700
H  7.55300 43.63500 22.14700
H  6.32900 44.77900 22.85100
H  3.43700 47.93300 25.26400
H  3.54300 46.36800 26.13700
H  4.24200 46.51900 24.54500
H  6.46800 49.12900 30.26800
H  6.12800 46.30300 33.38200
H  7.75000 45.94300 32.87200
H  6.39400 45.06800 32.13300

