158

Mg 47.20100 24.37900 27.59900
C  47.49600 26.56400 30.20100
C  46.59300 21.89000 29.95600
C  46.86200 22.22600 25.11800
C  48.13900 26.79900 25.40200
N  46.94400 24.26400 29.84100
C  47.11000 25.28600 30.66400
C  46.76500 24.84300 32.07100
C  46.51900 23.30000 32.01100
C  46.79300 23.14200 30.52800
C  47.30100 22.24200 32.89900
C  45.66900 25.67300 32.70100
C  45.20000 25.23600 34.05100
H  45.16800 26.30900 35.17200
N  46.65400 22.27800 27.54400
C  46.48100 21.46500 28.61300
C  46.04800 20.15400 28.15700
C  46.18000 20.19300 26.69800
C  46.60900 21.58900 26.37000
C  45.51900 19.11500 29.03100
C  45.89500 19.10100 25.70600
O  46.09100 19.24500 24.49200
C  45.21500 17.74000 26.20300
N  47.37700 24.49900 25.54900
C  47.14800 23.49200 24.71900
C  47.37200 23.92700 23.21200
C  47.51300 25.48600 23.30400
C  47.65800 25.64200 24.84500
C  48.54900 23.31100 22.43000
C  46.21300 26.12700 22.82700
C  44.92300 26.03800 23.63300
N  47.79000 26.28200 27.71300
C  48.20200 27.14700 26.74700
C  48.68400 28.39600 27.38800
C  48.30000 28.23300 28.73700
C  47.83200 26.93500 28.86400
C  49.27700 29.57300 26.76400
C  48.33400 28.85400 29.95200
O  48.70400 29.96900 30.27200
C  47.69800 27.86200 30.93400
C  48.51900 27.64500 32.23400
O  49.61400 27.08400 32.40100
O  47.82400 28.26000 33.18600
C  48.37300 28.31400 34.53200
H  46.21900 21.09800 30.60800
H  46.71600 21.56500 24.26100
H  48.28800 27.58600 24.65900
H  47.60600 24.95300 32.75600
H  45.46300 23.16300 32.24100
H  46.65600 21.45200 33.28200
H  47.69300 22.71800 33.79800
H  48.09100 21.74200 32.33900
H  44.77100 25.45400 32.12400
H  45.79200 26.75600 32.73000
H  45.73500 24.32100 34.30500
H  44.16900 24.92000 33.88600
H  46.38800 18.53300 29.33700
H  44.69200 18.52200 28.64100
H  45.11300 19.44400 29.98700
H  45.82900 17.24900 26.95800
H  45.24800 17.14100 25.29300
H  44.18000 17.83000 26.53100
H  46.39600 23.64300 22.81800
H  48.42900 25.91200 22.89500
H  49.24600 24.11200 22.18400
H  48.33900 22.86500 21.45800
H  49.01500 22.53500 23.03800
H  46.11000 25.79000 21.79600
H  46.38200 27.17300 22.56800
H  44.17200 25.88300 22.85800
H  44.78100 26.96500 24.18900
H  45.02900 25.18500 24.30300
H  48.88300 29.64200 25.75100
H  50.33600 29.32100 26.80700
H  48.94400 30.46700 27.29100
H  46.73800 28.34000 31.12900
H  47.46500 28.31100 35.13500
H  48.86000 29.27100 34.71900
H  48.99000 27.42900 34.68900
Mg -0.58000 43.62000 25.88300
C  1.82000 43.25500 28.59100
C  -3.03200 42.79700 28.20500
C  -2.66800 43.73100 23.39700
C  2.20600 43.72900 23.73600
N  -0.55400 42.96800 28.11600
C  0.47300 42.93200 28.99600
C  -0.10500 42.81000 30.44300
C  -1.58000 42.28800 30.21100
C  -1.72400 42.58900 28.70400
C  -1.81900 40.79600 30.65200
C  0.01200 44.14300 31.23600
C  0.50800 43.93800 32.69500
H  0.04800 42.68700 33.53700
N  -2.59400 43.47100 25.82400
C  -3.45900 43.15300 26.86400
C  -4.84400 43.28600 26.45900
C  -4.78500 43.57700 25.04800
C  -3.31800 43.60500 24.66500
C  -6.02800 42.85900 27.31200
C  -5.90000 43.75800 23.98500
O  -5.66200 43.99400 22.81800
C  -7.27600 43.54200 24.44000
N  -0.27900 43.76900 23.85700
C  -1.32300 43.72700 22.99000
C  -0.82400 43.85300 21.55100
C  0.68400 44.11800 21.67700
C  0.92300 43.82700 23.16700
C  -1.07000 42.56800 20.76800
C  1.27800 45.53700 21.23100
C  1.05800 46.70800 22.17600
N  1.50600 43.61400 26.07000
C  2.44000 43.64100 25.11300
C  3.79100 43.63300 25.73900
C  3.58000 43.49600 27.06400
C  2.20900 43.47500 27.24200
C  5.14300 43.64400 25.00600
C  4.31700 43.32500 28.37200
O  5.49300 43.20900 28.63300
C  3.11100 43.31500 29.41400
C  3.31600 42.08600 30.28700
O  2.84300 40.92200 30.12300
O  3.85400 42.44900 31.51100
C  3.98000 41.31300 32.34900
H  -3.78300 42.59000 28.97000
H  -3.36200 43.99900 22.59800
H  3.06700 43.63200 23.07200
H  0.48300 42.09600 31.02100
H  -2.14000 42.95400 30.86800
H  -2.47300 40.81800 31.52400
H  -0.85500 40.35000 30.89700
H  -2.22000 40.14700 29.87400
H  -0.93600 44.66400 31.10000
H  0.83300 44.70800 30.79400
H  0.26200 44.81400 33.29500
H  1.59600 44.00400 32.70000
H  -5.75300 42.43700 28.27800
H  -6.51800 42.04700 26.77300
H  -6.77800 43.64900 27.32800
H  -8.04500 43.68800 23.68000
H  -7.58100 44.22800 25.23000
H  -7.36100 42.50500 24.76300
H  -1.21300 44.76300 21.09300
H  1.25900 43.31600 21.21400
H  -0.29400 41.82000 20.92900
H  -1.19600 42.85500 19.72400
H  -1.96000 42.00400 21.05000
H  0.86300 45.82000 20.26400
H  2.36000 45.41100 21.22200
H  0.41800 46.26900 22.94100
H  0.45900 47.51300 21.75200
H  1.96900 47.15200 22.57700
H  5.04200 43.85700 23.94100
H  5.47700 42.61900 25.16400
H  5.83900 44.30700 25.52000
H  3.15700 44.23800 29.99300
H  4.70200 40.63400 31.89700
H  3.08600 40.78100 32.67500
H  4.47400 41.53200 33.29600

