158

Mg 44.31200 3.79700 48.26000
C  42.07200 6.43000 47.27300
C  41.84400 1.47400 47.53900
C  46.64000 1.42900 48.12600
C  46.93100 6.27700 48.03200
N  42.26200 3.98600 47.28000
C  41.45800 5.10200 47.17200
C  40.00700 4.76300 46.87500
C  40.00800 3.26000 47.19800
C  41.48200 2.85700 47.35400
C  39.04900 2.71800 48.36100
C  39.47900 5.18200 45.43600
C  38.01300 5.66700 45.34900
H  37.32900 5.34400 43.94900
N  44.23700 1.69800 48.08900
C  43.11000 0.95100 47.88400
C  43.46400 -0.46400 48.14000
C  44.85000 -0.49500 48.37300
C  45.33200 0.91200 48.20600
C  42.49900 -1.62300 47.94800
C  45.63500 -1.67900 48.76400
O  45.14100 -2.80600 48.87300
C  47.15000 -1.53900 49.08500
N  46.51000 3.88300 48.05500
C  47.18300 2.73000 48.15800
C  48.71000 2.99400 48.07600
C  48.77000 4.43300 47.53700
C  47.36000 4.93600 47.84300
C  49.47400 2.69300 49.42900
C  49.09100 4.57200 46.05200
C  50.44300 5.22400 45.66200
N  44.48000 5.93900 47.88600
C  45.60800 6.75900 47.84700
C  45.10400 8.10100 47.64800
C  43.75700 7.97000 47.46800
C  43.41000 6.67100 47.64500
C  45.95800 9.32000 47.61200
C  42.54500 8.78700 47.30200
O  42.42500 10.01300 47.17600
C  41.39500 7.74300 47.10100
C  40.28300 7.95500 48.06800
O  40.21600 7.50700 49.22200
O  39.37200 8.87300 47.52600
C  38.06900 9.10200 48.34200
H  40.96300 0.82900 47.53300
H  47.48000 0.73300 48.08100
H  47.60000 7.10300 47.78000
H  39.27400 5.20000 47.55300
H  39.70000 2.64400 46.35200
H  38.63100 3.55400 48.92200
H  39.63000 2.12700 49.06800
H  38.30300 2.16000 47.79500
H  39.60700 4.31800 44.78300
H  40.15300 5.93900 45.03600
H  38.19600 6.73700 45.44800
H  37.40800 5.23500 46.14600
H  41.53000 -1.40400 47.50000
H  42.34100 -2.18500 48.86800
H  42.86800 -2.34500 47.22000
H  47.51700 -0.76100 49.75400
H  47.59200 -1.39000 48.10000
H  47.52900 -2.44200 49.56400
H  49.18300 2.39000 47.30200
H  49.41100 5.04100 48.17700
H  50.19100 3.44000 49.76900
H  50.13000 1.86600 49.15900
H  48.82100 2.24200 50.17600
H  48.35800 5.15100 45.49000
H  49.23200 3.59500 45.59000
H  50.86900 5.89400 46.40800
H  50.21600 5.79300 44.76000
H  51.14500 4.45100 45.35100
H  45.46700 10.04000 48.26700
H  45.90300 9.69900 46.59200
H  47.03200 9.24400 47.78500
H  40.80800 7.85100 46.18800
H  37.98500 8.32300 49.10000
H  37.24200 9.14300 47.63200
H  38.30600 10.02800 48.86500
Mg 35.68700 49.15100 24.85100
C  35.68200 47.26500 27.72200
C  34.19600 51.78100 26.79000
C  35.40100 51.04200 22.04200
C  36.70200 46.47900 23.08000
N  34.95100 49.41100 27.00300
C  35.23500 48.55100 28.00500
C  35.00700 49.15500 29.40100
C  34.27300 50.50800 29.02900
C  34.49700 50.54800 27.49900
C  32.77000 50.66000 29.44700
C  36.30300 49.16700 30.22700
C  36.10100 48.75900 31.70600
H  34.79900 49.07200 32.37500
N  34.76300 51.10000 24.41100
C  34.35500 52.00700 25.34900
C  33.91000 53.14100 24.65200
C  34.25100 53.00500 23.30100
C  34.86600 51.71100 23.20400
C  33.48700 54.47300 25.34700
C  34.11000 54.06300 22.16200
O  34.71500 53.94700 21.09900
C  33.19900 55.18600 22.32800
N  35.94900 48.74400 22.77800
C  35.83100 49.74500 21.82700
C  36.18300 49.14500 20.48200
C  36.90800 47.80800 20.88400
C  36.50300 47.65700 22.35000
C  35.01700 48.83000 19.42600
C  38.40600 47.69600 20.56800
C  38.91200 46.30000 20.06700
N  36.20500 47.30900 25.23700
C  36.56100 46.29400 24.44000
C  36.77800 45.03600 25.26500
C  36.47000 45.45100 26.56000
C  36.09000 46.82200 26.45700
C  37.14200 43.60600 24.86700
C  36.32900 44.88100 27.84100
O  36.62100 43.78400 28.25800
C  35.81300 46.04800 28.69600
C  34.55400 45.49400 29.28100
O  33.63100 44.96200 28.69500
O  34.69300 45.61500 30.59700
C  33.67300 45.17900 31.52700
H  33.69300 52.51400 27.42400
H  35.43500 51.54500 21.07400
H  37.13500 45.66800 22.49100
H  34.21300 48.60800 29.90800
H  34.82800 51.35800 29.42700
H  32.53000 50.27100 30.43600
H  32.19200 50.33000 28.58300
H  32.71900 51.74100 29.31900
H  36.74100 50.15700 30.10500
H  36.94400 48.45500 29.70700
H  36.91500 49.26100 32.22800
H  36.28200 47.69800 31.87400
H  33.46100 54.40500 26.43500
H  32.56600 54.93700 24.99400
H  34.23700 55.24400 25.16900
H  33.39600 55.89600 23.13200
H  32.19700 54.80400 22.52300
H  33.08900 55.72400 21.38700
H  36.94700 49.73500 19.97700
H  36.40700 46.97700 20.38700
H  35.15900 49.47200 18.55700
H  34.09000 49.17900 19.88300
H  34.91500 47.75900 19.25100
H  38.82000 47.89000 21.55700
H  38.74300 48.44600 19.85300
H  39.71600 45.97600 20.72800
H  39.41900 46.35200 19.10400
H  38.19800 45.48300 20.17300
H  37.12000 43.51900 23.78100
H  36.41200 42.94300 25.33200
H  38.06500 43.34400 25.38400
H  36.55900 46.22000 29.47200
H  33.86600 44.19700 31.95900
H  32.72600 45.07300 30.99700
H  33.60100 45.84000 32.39100

