158

Mg 35.16800 2.81700 30.41200
C  32.73400 3.81200 32.74700
C  37.51700 3.29100 32.91400
C  37.63800 2.48400 28.12600
C  32.87900 3.10000 27.88800
N  35.13200 3.49900 32.53900
C  33.99200 3.62600 33.30600
C  34.34900 3.78100 34.77000
C  35.94800 3.98200 34.85700
C  36.22600 3.51000 33.35500
C  36.56900 5.39900 35.20500
C  33.79600 2.69000 35.66100
C  33.88600 2.79700 37.19600
H  34.19300 4.10700 37.92600
N  37.27300 2.78400 30.54800
C  38.02200 2.95000 31.68300
C  39.43600 2.77900 31.30700
C  39.49800 2.39500 29.95700
C  38.07100 2.56100 29.46000
C  40.52400 2.89900 32.38500
C  40.65000 1.91800 29.08400
O  40.46700 1.42300 28.00800
C  42.05400 2.09400 29.60500
N  35.27000 2.74200 28.26900
C  36.35500 2.62700 27.56800
C  36.08200 2.38800 26.05700
C  34.54400 2.50400 26.04400
C  34.22100 2.87500 27.46700
C  36.76600 3.39000 25.08200
C  33.93600 1.14900 25.59500
C  32.58500 1.30600 24.88600
N  33.16300 3.30100 30.34200
C  32.41000 3.40600 29.17000
C  31.07500 3.81700 29.56900
C  31.09300 4.02100 30.96100
C  32.44000 3.77100 31.36900
C  29.84700 3.91300 28.71200
C  30.33400 4.37500 32.23100
O  29.26400 4.90200 32.37700
C  31.34100 4.13000 33.43000
C  31.40700 5.38200 34.13500
O  32.13000 6.34900 33.84000
O  30.60500 5.37300 35.24600
C  30.61200 6.46600 36.13600
H  38.28000 3.44500 33.68000
H  38.37900 2.35900 27.33400
H  32.06700 3.16700 27.16100
H  33.91900 4.72800 35.09500
H  36.38400 3.30500 35.59100
H  35.89700 5.85400 35.93200
H  36.53000 6.07700 34.35200
H  37.58700 5.27600 35.57500
H  34.32300 1.74900 35.50300
H  32.77000 2.54700 35.32100
H  34.51400 2.02500 37.64000
H  32.85700 2.55400 37.46100
H  40.31900 2.50500 33.38100
H  40.55400 3.97300 32.56900
H  41.58100 2.78600 32.14200
H  42.65300 1.96700 28.70400
H  42.32000 1.30000 30.30200
H  42.18700 3.06600 30.08000
H  36.46400 1.42300 25.72300
H  34.12500 3.29800 25.42500
H  36.80100 4.42700 25.41800
H  36.46900 3.40100 24.03300
H  37.80700 3.06700 25.09800
H  33.80200 0.49000 26.45300
H  34.55200 0.65900 24.84100
H  32.36800 2.31700 24.54200
H  31.74900 0.99100 25.51100
H  32.55700 0.56200 24.08900
H  29.05300 3.52800 29.35200
H  29.98700 3.23600 27.86900
H  29.64600 4.89400 28.28300
H  30.94600 3.32700 34.05200
H  30.24000 7.35900 35.63300
H  31.59500 6.64700 36.57200
H  29.99500 6.10000 36.95600
Mg 48.79500 35.80400 27.81600
C  46.63100 34.07100 30.08600
C  48.72600 38.50300 29.99300
C  50.41000 37.55200 25.55000
C  48.09600 33.29800 25.50300
N  47.62500 36.28400 29.74300
C  47.13400 35.28200 30.56700
C  47.15900 35.81100 31.98500
C  47.45200 37.32700 31.81400
C  47.87700 37.45700 30.37000
C  46.23400 38.27400 32.08900
C  48.40100 35.18500 32.74000
C  48.19000 34.71500 34.19000
H  49.00000 35.49200 35.18700
N  49.64800 37.66800 27.92000
C  49.52900 38.61000 28.87200
C  50.53000 39.63000 28.59000
C  50.98600 39.40500 27.24500
C  50.32900 38.17200 26.81800
C  50.73800 40.75200 29.63500
C  52.09900 40.07100 26.47400
O  52.59500 39.55200 25.48000
C  52.70000 41.45600 27.03100
N  49.06100 35.50400 25.77600
C  49.85600 36.33700 25.08400
C  50.12400 35.78500 23.65200
C  49.43700 34.39300 23.74100
C  48.87100 34.37200 25.10000
C  49.59400 36.65200 22.37700
C  50.27000 33.14700 23.40500
C  51.18000 32.43900 24.37800
N  47.71300 33.96600 27.79500
C  47.46500 33.13000 26.73800
C  46.51600 32.07600 27.15800
C  46.11300 32.48500 28.40500
C  46.86300 33.59300 28.77800
C  46.02400 30.90900 26.26000
C  45.21300 32.16600 29.55400
O  44.45000 31.27100 29.74700
C  45.48000 33.29400 30.65100
C  45.80700 32.62300 31.92900
O  46.77800 31.96400 32.18900
O  44.89300 33.00800 32.84900
C  45.27300 32.78000 34.30700
H  48.95900 39.25800 30.74700
H  50.97600 38.01200 24.73800
H  47.80000 32.45100 24.88000
H  46.23000 35.52400 32.47800
H  48.27100 37.70200 32.42700
H  45.68200 37.97900 32.98100
H  45.67600 38.13900 31.16200
H  46.59000 39.30400 32.08700
H  49.23400 35.86700 32.57500
H  48.65700 34.27800 32.19300
H  48.35600 33.63800 34.19400
H  47.13400 34.87100 34.40700
H  50.83500 40.45600 30.67900
H  49.89000 41.43500 29.59500
H  51.63100 41.34000 29.42500
H  53.23800 42.07800 26.31500
H  53.42300 41.35200 27.84000
H  51.85200 41.95900 27.49600
H  51.18900 35.57100 23.56700
H  48.63400 34.42200 23.00400
H  50.40300 36.78400 21.65900
H  49.29700 37.65100 22.69400
H  48.67300 36.29400 21.91600
H  50.97600 33.43900 22.62800
H  49.59600 32.38700 23.01200
H  50.84000 31.40400 24.36000
H  51.11900 32.99900 25.31200
H  52.21600 32.28600 24.07600
H  45.46000 31.18900 25.37000
H  45.40500 30.23700 26.85400
H  46.79800 30.20900 25.94700
H  44.61000 33.95000 30.65000
H  46.27200 32.38200 34.48700
H  44.46100 32.13500 34.64400
H  45.16100 33.76800 34.75300

