158

Mg 45.34600 3.57700 47.66300
C  43.43100 6.42200 47.17300
C  42.33800 1.65600 47.54200
C  47.19300 0.82600 47.47500
C  48.18400 5.60100 47.64400
N  43.20900 4.02200 47.32300
C  42.63100 5.24600 47.11400
C  41.13800 5.08000 46.76000
C  40.71200 3.58500 47.03000
C  42.16900 3.05300 47.29200
C  39.69900 3.36100 48.14100
C  40.83500 5.65600 45.29300
C  39.67000 6.59700 45.22300
H  38.76300 6.56700 43.98700
N  44.86800 1.56100 47.50600
C  43.60300 0.93900 47.53400
C  43.79900 -0.50400 47.38000
C  45.21300 -0.70400 47.40100
C  45.80600 0.57200 47.45600
C  42.66800 -1.46600 47.16000
C  45.86000 -2.19800 47.23900
O  45.20700 -3.20100 47.14900
C  47.35700 -2.39200 47.27400
N  47.43100 3.23200 47.62000
C  47.98800 2.01200 47.63100
C  49.51700 1.98000 47.84400
C  49.81100 3.53700 47.84300
C  48.37600 4.21000 47.77200
C  49.93600 1.19500 49.00700
C  50.88300 4.03100 46.78900
C  52.17400 4.36200 47.33600
N  45.77800 5.62400 47.46400
C  46.97300 6.30300 47.51800
C  46.66800 7.68200 47.37600
C  45.31900 7.79700 47.21000
C  44.80200 6.47900 47.33700
C  47.72000 8.74200 47.12700
C  44.24700 8.69300 46.98700
O  44.31000 9.86100 46.83000
C  42.91500 7.86300 46.88900
C  41.92600 8.41500 47.85600
O  41.55000 7.85500 48.88200
O  41.35800 9.55600 47.36500
C  39.95900 9.88900 47.90300
H  41.42100 1.06300 47.52400
H  47.88900 -0.01400 47.52800
H  49.10500 6.17700 47.76100
H  40.58000 5.74300 47.42100
H  40.42400 3.06700 46.11500
H  39.78100 4.23400 48.78800
H  39.93100 2.47800 48.73700
H  38.66100 3.36900 47.81100
H  40.58900 4.80800 44.65300
H  41.73800 6.15700 44.94500
H  40.04700 7.61700 45.30300
H  39.01500 6.55000 46.09300
H  42.47700 -2.03300 48.07000
H  42.89700 -2.13400 46.32900
H  41.80300 -0.93600 46.76100
H  47.89100 -1.75700 46.56800
H  47.56300 -3.42500 46.99400
H  47.63600 -2.34700 48.32700
H  49.99200 1.49700 46.99000
H  50.27800 3.74200 48.80600
H  49.15000 1.09900 49.75500
H  50.84600 1.52600 49.50800
H  50.13100 0.21400 48.57400
H  50.43800 4.73500 46.08600
H  50.93500 3.18200 46.10700
H  52.51000 5.03100 46.54400
H  52.87600 3.54800 47.51800
H  52.04600 5.01800 48.19700
H  47.26300 9.59900 46.63500
H  48.51900 8.33800 46.50500
H  48.02500 8.93700 48.15500
H  42.73700 8.09000 45.83700
H  39.29400 9.13700 47.48100
H  39.63000 10.88300 47.59800
H  40.00600 9.74300 48.98200
Mg 54.75200 23.56200 45.09700
C  52.12000 25.78200 43.87500
C  52.50900 21.11900 44.31200
C  57.31700 21.44800 45.35000
C  56.69200 26.20000 45.71600
N  52.52100 23.52200 44.08200
C  51.68600 24.51500 43.73300
C  50.34700 23.99500 43.31800
C  50.36300 22.51100 43.86800
C  51.89800 22.32700 44.05100
C  49.59300 22.27200 45.09600
C  50.18300 24.01400 41.81900
C  48.84000 24.41900 41.31100
H  48.48500 24.10800 39.85800
N  54.90500 21.52900 44.97600
C  53.86200 20.71700 44.62700
C  54.30200 19.36800 44.63500
C  55.69300 19.32100 44.94200
C  56.04900 20.80500 45.09300
C  53.41600 18.21100 44.19100
C  56.56700 18.06500 44.95700
O  56.10300 16.93800 44.81400
C  58.05200 18.14300 45.33200
N  56.72000 23.78500 45.41900
C  57.58000 22.77800 45.58500
C  58.89100 23.29700 46.13200
C  58.63800 24.81600 46.39800
C  57.24800 24.96300 45.86000
C  59.36600 22.45500 47.37300
C  59.67600 25.73200 45.67900
C  60.45100 26.67700 46.62700
N  54.58000 25.63700 44.78600
C  55.41500 26.58400 45.20800
C  54.72300 27.86800 45.16100
C  53.54500 27.57300 44.51000
C  53.41000 26.21000 44.36500
C  55.34600 29.13500 45.63200
C  52.31400 28.23300 44.08000
O  51.94100 29.38900 44.15400
C  51.32800 27.07700 43.58200
C  51.27300 27.28300 42.06500
O  52.16300 27.12400 41.27200
O  50.00100 27.74700 41.78100
C  49.83300 28.23000 40.39900
H  51.83800 20.26900 44.17800
H  58.13700 20.78500 45.63300
H  57.40600 26.99400 45.94400
H  49.59800 24.54500 43.88800
H  50.23900 21.68600 43.16700
H  49.13000 21.28500 45.07000
H  48.79700 23.00900 45.20000
H  50.24900 22.37200 45.96100
H  50.46300 23.01900 41.47300
H  50.88400 24.76000 41.44600
H  48.68700 25.49200 41.42800
H  48.17700 23.83000 41.94500
H  53.57000 18.06600 43.12200
H  52.34900 18.36100 44.35400
H  53.73100 17.24600 44.58700
H  58.77300 18.55600 44.62800
H  58.37400 17.13900 45.61100
H  58.15200 18.67800 46.27700
H  59.60000 23.17600 45.31300
H  58.55700 24.95500 47.47600
H  58.66200 21.62500 47.44400
H  59.47200 23.15000 48.20600
H  60.30200 21.97500 47.08700
H  59.22600 26.22700 44.81800
H  60.47800 25.04500 45.41000
H  60.20600 27.65900 46.22200
H  61.53800 26.59500 46.64500
H  60.18500 26.55800 47.67700
H  54.60300 29.88600 45.89700
H  56.11200 29.52500 44.96100
H  55.79400 28.93400 46.60500
H  50.38000 27.10200 44.12000
H  48.97800 28.90500 40.44100
H  49.63300 27.40000 39.72300
H  50.60600 28.83000 39.92000

