158

Mg 40.23500 9.84500 29.07600
C  42.23800 11.05100 31.78400
C  38.07800 8.58700 31.38200
C  38.45100 8.75600 26.42200
C  42.84200 10.63700 26.88800
N  40.23000 9.74200 31.35600
C  41.06900 10.42600 32.24500
C  40.51800 10.28000 33.67100
C  39.17000 9.50900 33.52700
C  39.18600 9.25100 32.03100
C  39.00600 8.17800 34.34900
C  40.45000 11.67100 34.42300
C  39.49400 11.85100 35.66400
H  40.30600 12.42800 36.94700
N  38.47500 8.89200 28.92900
C  37.76900 8.36300 29.99600
C  36.56400 7.66000 29.49800
C  36.50400 7.82900 28.06300
C  37.81900 8.54000 27.73700
C  35.56600 7.00600 30.35800
C  35.55700 7.27800 27.02100
O  35.67000 7.52800 25.82800
C  34.40100 6.45900 27.60100
N  40.65000 9.54400 26.95300
C  39.71400 9.21000 26.08300
C  40.19700 9.39000 24.58700
C  41.61000 9.99300 24.84000
C  41.70900 10.09800 26.32500
C  40.07300 8.15200 23.72400
C  42.00500 11.34700 24.06400
C  41.52800 12.66500 24.62900
N  42.14600 10.54600 29.24200
C  43.06500 10.93700 28.25300
C  44.09700 11.77000 28.84900
C  43.76800 11.81200 30.14100
C  42.61200 11.04900 30.38000
C  45.30800 12.32300 28.27100
C  44.30500 12.31200 31.42600
O  45.38900 12.75400 31.68900
C  43.25400 11.93200 32.52200
C  43.92900 11.19600 33.58100
O  44.40100 10.08500 33.51100
O  44.02800 12.01700 34.66700
C  44.55900 11.39500 35.86800
H  37.25600 8.30900 32.04400
H  37.73400 8.62700 25.60900
H  43.59000 10.82700 26.11500
H  41.23900 9.59800 34.12100
H  38.33100 10.17500 33.72900
H  38.23600 8.27100 35.11500
H  39.95600 8.00900 34.85700
H  38.98500 7.26600 33.75200
H  40.06900 12.45000 33.76300
H  41.47000 12.02600 34.57400
H  39.03100 10.89400 35.90100
H  38.64200 12.49400 35.44100
H  34.54500 7.38700 30.37400
H  35.78600 7.08400 31.42200
H  35.55500 5.94300 30.11600
H  33.70500 6.97600 28.26200
H  34.85200 5.61300 28.12100
H  33.76900 6.10100 26.78900
H  39.49900 10.13200 24.20000
H  42.37800 9.27100 24.56200
H  41.06400 7.89000 23.35200
H  39.50300 8.34600 22.81600
H  39.72100 7.33400 24.35200
H  41.58200 11.26100 23.06300
H  43.09500 11.32500 24.08600
H  40.95300 12.51700 25.54300
H  40.96400 13.24700 23.90000
H  42.43800 13.23900 24.80400
H  45.52700 13.28700 28.73000
H  45.35000 12.38100 27.18400
H  46.10800 11.67700 28.63100
H  42.90600 12.92800 32.79700
H  44.32800 10.33900 36.00500
H  44.29900 11.99700 36.73900
H  45.64300 11.48600 35.79600
Mg 9.40800 48.71800 26.02400
C  7.28500 48.61500 28.73900
C  11.93500 49.68100 27.98900
C  11.27300 48.68800 23.22500
C  6.60000 47.57100 24.09500
N  9.58700 49.14100 28.14700
C  8.59100 49.03100 29.12700
C  9.08900 49.40300 30.54100
C  10.64500 49.76900 30.21800
C  10.79900 49.41700 28.71900
C  10.93000 51.23700 30.53900
C  8.97400 48.21600 31.55900
C  9.61100 48.41000 32.94100
H  8.65400 48.56300 34.14300
N  11.33300 49.22600 25.62000
C  12.23400 49.45300 26.59800
C  13.53700 49.49100 25.99400
C  13.42100 49.19800 24.57700
C  11.96600 49.06600 24.38900
C  14.78400 49.82300 26.79500
C  14.50000 49.09700 23.53700
O  14.16100 48.92400 22.36800
C  15.94200 49.02200 23.82800
N  8.93700 48.33800 24.02500
C  9.93000 48.36400 22.98200
C  9.39900 47.97400 21.60900
C  8.02000 47.34900 22.02300
C  7.86800 47.67300 23.49500
C  9.42900 49.06100 20.56800
C  8.10500 45.83000 21.79900
C  8.71700 44.90400 22.83200
N  7.32700 48.18400 26.26700
C  6.36400 47.81800 25.41000
C  5.04700 47.74300 26.11000
C  5.35400 48.06200 27.45300
C  6.72400 48.35900 27.48100
C  3.80600 47.15700 25.60500
C  4.83200 48.23800 28.85700
O  3.74800 48.00500 29.39000
C  6.08100 48.40800 29.68100
C  6.15800 47.19900 30.46700
O  6.95800 46.35400 30.24200
O  5.40100 47.24200 31.66000
C  5.85200 46.28600 32.68600
H  12.79700 49.87100 28.63200
H  11.94900 48.48400 22.39200
H  5.72500 47.17400 23.57500
H  8.52900 50.22300 30.99000
H  11.18300 49.01000 30.78600
H  11.71600 51.47300 29.82300
H  11.27900 51.30900 31.56900
H  10.06400 51.89200 30.44500
H  9.29600 47.25800 31.14900
H  7.89800 48.18000 31.72900
H  10.07100 49.39300 32.83500
H  10.33900 47.60900 33.06600
H  14.51000 50.33400 27.71800
H  15.51200 50.46300 26.29600
H  15.29000 48.87200 26.95900
H  16.16800 48.25800 24.57200
H  16.32000 50.01900 24.05300
H  16.35100 48.55100 22.93400
H  10.17400 47.30700 21.23300
H  7.24600 47.81800 21.41500
H  9.88500 49.95400 20.99500
H  8.42000 49.31900 20.24800
H  10.07300 48.85200 19.71400
H  8.68900 45.55900 20.91900
H  7.09800 45.53700 21.50100
H  7.90200 44.26800 23.17700
H  9.09800 45.36800 23.74100
H  9.34500 44.16600 22.33200
H  3.70700 46.11500 25.91100
H  3.81100 47.23600 24.51800
H  2.97300 47.72600 26.01700
H  5.93500 49.27700 30.32200
H  6.92100 46.47900 32.76900
H  5.55700 45.25900 32.47200
H  5.42600 46.62100 33.63200

