158

Mg 40.76100 10.14100 29.73600
C  42.95000 10.95700 32.38400
C  38.54500 8.86300 32.07500
C  38.89300 9.07700 27.27400
C  43.45100 10.75800 27.51100
N  40.86100 9.92000 31.97100
C  41.78300 10.45600 32.87000
C  41.24500 10.47800 34.31600
C  39.98800 9.54600 34.16800
C  39.72000 9.42000 32.61400
C  39.92800 8.28400 34.97700
C  41.12600 11.92300 34.86200
C  40.17200 12.25800 36.06400
H  40.88500 12.71000 37.34000
N  38.89400 9.20000 29.69500
C  38.17700 8.76500 30.74100
C  36.90700 8.28800 30.24500
C  37.02500 8.33700 28.81700
C  38.29200 8.96900 28.53900
C  35.76200 7.82200 31.19900
C  36.04000 7.95200 27.73300
O  36.21100 8.15100 26.51200
C  34.71400 7.30900 28.07700
N  41.14200 9.86000 27.73700
C  40.21400 9.43400 26.87900
C  40.66800 9.41100 25.40600
C  41.98800 10.20900 25.58300
C  42.23300 10.27400 27.04300
C  40.84700 7.93500 24.89200
C  42.07700 11.54700 24.77300
C  41.27700 12.63800 25.36700
N  42.83100 10.67500 29.88700
C  43.76200 10.94100 28.91100
C  44.99100 11.43400 29.45500
C  44.66600 11.50000 30.85900
C  43.35200 11.03300 31.01900
C  46.33400 11.72900 28.72100
C  45.19900 11.87500 32.15800
O  46.26000 12.36900 32.37900
C  44.06300 11.58900 33.20600
C  44.63000 10.81500 34.29800
O  45.14300 9.67900 34.09600
O  44.56900 11.53800 35.53100
C  45.23800 10.92600 36.65100
H  37.81400 8.51800 32.80900
H  38.37900 8.76500 26.36200
H  44.31600 10.98600 26.88500
H  41.94600 9.93000 34.94600
H  39.14000 10.11400 34.55000
H  40.16600 7.40600 34.37700
H  38.87200 8.32800 35.24400
H  40.52400 8.38300 35.88400
H  40.87400 12.69000 34.13000
H  42.06400 12.19800 35.34400
H  39.74000 11.30300 36.36400
H  39.32300 12.91900 35.88700
H  35.98200 7.88000 32.26500
H  35.42400 6.80500 31.00000
H  34.94200 8.50400 30.97700
H  34.08200 7.89200 28.74700
H  34.90600 6.31300 28.47600
H  34.25400 7.18800 27.09700
H  39.88000 9.89800 24.83200
H  42.85900 9.61300 25.30800
H  41.62500 7.76000 24.14900
H  39.99500 7.85000 24.21700
H  40.92500 7.25400 25.74000
H  41.57200 11.22900 23.86100
H  43.12600 11.84100 24.77900
H  41.95100 13.46000 25.60800
H  40.72600 12.39700 26.27600
H  40.56300 12.97800 24.61600
H  46.43000 12.81100 28.63100
H  46.29500 11.32100 27.71100
H  47.22100 11.36300 29.23900
H  43.86200 12.56800 33.64100
H  44.74000 10.04300 37.05100
H  45.23900 11.72500 37.39300
H  46.25500 10.72000 36.31800
Mg -12.38900 37.92400 41.27900
C  -10.54500 35.04000 40.27800
C  -9.81800 39.80000 39.91700
C  -14.32600 40.59300 41.47100
C  -14.87200 35.91900 42.26600
N  -10.35000 37.41300 40.32600
C  -9.84700 36.24100 39.97700
C  -8.41900 36.37000 39.45600
C  -8.18400 37.91900 39.44700
C  -9.55000 38.45000 39.89500
C  -7.01700 38.45500 40.33000
C  -8.30200 35.74500 38.07900
C  -6.99100 35.00900 37.80900
H  -6.11500 35.65700 36.78000
N  -12.14100 39.89500 40.75500
C  -11.01100 40.49800 40.28300
C  -11.24800 41.92400 40.13800
C  -12.57000 42.17600 40.53600
C  -13.11900 40.86600 40.88400
C  -10.17900 42.93100 39.63100
C  -13.19500 43.54200 40.45500
O  -12.61000 44.61500 40.36800
C  -14.73200 43.57900 40.36800
N  -14.36500 38.15300 41.56500
C  -14.92400 39.37800 41.76000
C  -16.37000 39.32700 42.16700
C  -16.59300 37.84500 42.37500
C  -15.19700 37.21300 42.02000
C  -16.72300 40.16100 43.39200
C  -17.64800 37.11800 41.54000
C  -18.56100 36.10000 42.28700
N  -12.71200 35.90700 41.25800
C  -13.67800 35.27000 41.94000
C  -13.37300 33.84100 41.97600
C  -12.20100 33.65700 41.20900
C  -11.78000 34.97700 40.86700
C  -14.15400 32.76000 42.73800
C  -11.26200 32.68100 40.70400
O  -11.28900 31.45100 40.68400
C  -10.11700 33.53900 40.01900
C  -8.81700 33.15600 40.65100
O  -8.07300 32.40600 40.08300
O  -8.61500 33.75800 41.88300
C  -7.42700 33.22800 42.64200
H  -9.01300 40.42100 39.52000
H  -14.91600 41.49300 41.65700
H  -15.59800 35.20200 42.65300
H  -7.70300 35.86900 40.10800
H  -7.93800 38.26200 38.44200
H  -6.17900 38.88800 39.78300
H  -6.54300 37.67600 40.92700
H  -7.41000 39.25800 40.95300
H  -8.53000 36.41800 37.25200
H  -9.09700 35.02700 37.88100
H  -7.20400 33.98800 37.49400
H  -6.33900 34.93500 38.68000
H  -10.13600 43.67500 40.42600
H  -10.75700 43.34900 38.80600
H  -9.24600 42.43000 39.37400
H  -15.27300 43.64800 41.31100
H  -15.03000 42.67200 39.84200
H  -14.92400 44.42000 39.70000
H  -17.01300 39.68500 41.36300
H  -16.74900 37.67000 43.44000
H  -17.32400 39.62500 44.12600
H  -17.36100 40.95800 43.01000
H  -15.83700 40.51000 43.92200
H  -17.24300 36.49000 40.74700
H  -18.24800 37.92700 41.12500
H  -19.54700 36.56500 42.28500
H  -18.28400 35.83200 43.30700
H  -18.60500 35.25300 41.60300
H  -14.03800 31.82400 42.19100
H  -15.21400 32.92800 42.92800
H  -13.64900 32.48700 43.66400
H  -9.92000 33.24800 38.98800
H  -7.18400 33.88500 43.47600
H  -6.54500 33.21400 42.00100
H  -7.72500 32.23900 42.99100

