158

Mg 43.83600 3.71700 47.75100
C  41.54900 6.40200 47.12300
C  41.14200 1.49300 47.15700
C  46.00700 1.13000 47.47400
C  46.37700 6.13100 47.32000
N  41.68000 3.93500 47.11000
C  40.96700 5.05600 46.99500
C  39.54500 4.81100 46.81500
C  39.38200 3.27900 46.99000
C  40.83800 2.84600 47.21500
C  38.43100 2.84600 48.19900
C  39.02200 5.26400 45.41200
C  37.67800 5.97300 45.26000
H  37.01800 5.86100 43.93300
N  43.62500 1.58900 47.53100
C  42.47200 0.93500 47.28800
C  42.74300 -0.48000 47.31500
C  44.17700 -0.63700 47.32100
C  44.67800 0.72800 47.51000
C  41.71200 -1.56200 47.24300
C  44.92700 -2.00500 47.14200
O  44.40100 -2.99100 46.70800
C  46.41700 -2.14100 47.50300
N  45.92300 3.66000 47.43000
C  46.60200 2.46000 47.51500
C  48.12300 2.66400 47.36800
C  48.26500 4.23500 47.38400
C  46.80100 4.73800 47.32000
C  48.96000 1.95300 48.46000
C  49.06700 4.87000 46.23400
C  50.63300 4.65800 46.23300
N  43.98800 5.85700 47.43700
C  45.05300 6.61300 47.30800
C  44.70500 7.94400 47.06700
C  43.29100 7.96000 47.06900
C  42.92400 6.61900 47.22400
C  45.71000 9.06000 46.85000
C  42.03600 8.77500 46.96300
O  41.92000 9.96500 46.78100
C  40.82500 7.71000 47.00100
C  39.84300 7.91000 48.06100
O  39.98300 7.63600 49.27900
O  38.62800 8.29800 47.48900
C  37.49200 7.87800 48.35900
H  40.34100 0.79200 46.91500
H  46.73100 0.32100 47.35200
H  47.24900 6.77600 47.44300
H  38.98000 5.34900 47.57600
H  39.13100 2.65100 46.13500
H  38.04200 3.75600 48.65500
H  38.96800 2.36100 49.01400
H  37.76800 2.16300 47.66800
H  39.03300 4.40600 44.74000
H  39.77400 5.94200 45.00700
H  37.80800 7.04500 45.40600
H  36.96400 5.64500 46.01500
H  42.01100 -2.50000 47.71200
H  41.71700 -1.76000 46.17100
H  40.72200 -1.29100 47.61000
H  46.82500 -1.48000 48.26800
H  46.93000 -2.09600 46.54300
H  46.61800 -3.11300 47.95200
H  48.42600 2.38100 46.36000
H  48.74300 4.66100 48.26600
H  48.26200 1.77100 49.27700
H  49.58200 2.72400 48.91600
H  49.45300 1.06100 48.07400
H  48.82300 5.92700 46.12300
H  48.63800 4.32800 45.39200
H  50.97200 4.18700 47.15500
H  51.03800 5.66900 46.19200
H  51.01300 4.08800 45.38500
H  46.53800 9.06500 47.55900
H  45.26800 10.05100 46.95100
H  46.16200 8.94200 45.86500
H  40.36600 7.81800 46.01900
H  37.29300 8.70100 49.04600
H  37.61100 6.89200 48.80800
H  36.58600 7.64100 47.80200
Mg 6.07600 54.17000 41.46700
C  5.28900 50.63600 41.09500
C  9.21100 53.32900 40.44200
C  6.61600 57.51500 41.12600
C  2.72300 54.72700 42.23300
N  7.05300 52.16700 40.71000
C  6.57000 50.89600 40.61000
C  7.64500 49.90100 40.22800
C  8.89200 50.75300 40.46700
C  8.33100 52.20600 40.54400
C  9.71400 50.48300 41.76500
C  7.66000 49.29100 38.75800
C  7.24800 50.24200 37.63100
H  5.76400 50.29500 37.18500
N  7.62900 55.30500 40.73500
C  8.88400 54.76500 40.47900
C  9.80300 55.80500 40.14900
C  9.10600 57.07400 40.43600
C  7.71000 56.71600 40.80600
C  11.23700 55.49000 39.83800
C  9.68700 58.50100 40.39000
O  10.90900 58.61800 40.24900
C  8.80600 59.73300 40.65200
N  4.82300 55.81400 41.66100
C  5.32100 57.08000 41.54000
C  4.23000 58.14000 41.86900
C  3.00700 57.25500 42.20000
C  3.51900 55.82000 42.03600
C  4.73300 59.11800 42.94900
C  1.71300 57.65400 41.38100
C  0.43900 57.89500 42.22200
N  4.32900 53.00800 41.87500
C  3.05800 53.36100 42.10100
C  2.17500 52.21600 42.19900
C  3.04700 51.13200 41.97400
C  4.33600 51.62900 41.64600
C  0.66900 52.16800 42.47400
C  3.11500 49.62700 41.85300
O  2.30600 48.75900 42.14200
C  4.53600 49.32900 41.34100
C  4.28000 48.68500 40.04600
O  3.74500 49.02200 39.03300
O  4.69800 47.34100 40.17400
C  4.85000 46.53400 38.94800
H  10.28300 53.15900 40.31700
H  6.59500 58.60100 41.01000
H  1.67100 54.96900 42.40100
H  7.62000 49.12800 40.99600
H  9.58200 50.66300 39.62800
H  9.68800 51.26800 42.52100
H  10.75300 50.35100 41.46500
H  9.46000 49.51500 42.19600
H  6.92500 48.48600 38.73600
H  8.64200 48.92900 38.45600
H  7.81800 49.92400 36.75800
H  7.56600 51.27900 37.73500
H  11.36000 54.46700 39.48100
H  11.91700 55.45700 40.69000
H  11.66400 56.14700 39.08100
H  8.05800 59.70200 39.85900
H  9.38200 60.65300 40.55500
H  8.28900 59.68100 41.61000
H  4.12500 58.71900 40.95100
H  2.74600 57.41700 43.24600
H  3.99700 59.30100 43.73300
H  4.83100 60.13500 42.56900
H  5.65100 58.70800 43.37000
H  1.48800 56.98500 40.55100
H  1.87000 58.62400 40.91000
H  0.39800 57.34000 43.15900
H  -0.40700 57.71400 41.55900
H  0.48800 58.93700 42.53700
H  0.07400 51.99300 41.57700
H  0.42500 53.12500 42.93500
H  0.35700 51.39900 43.18100
H  5.14000 48.70700 42.00100
H  5.77600 45.96100 38.97700
H  4.78000 47.20900 38.09500
H  4.05800 45.78800 39.01200

