158

Mg 47.59300 16.39200 28.89600
C  45.42000 15.55200 31.60300
C  49.42500 18.32000 31.06800
C  49.93600 16.81300 26.39700
C  45.60500 14.50300 26.77000
N  47.32500 16.95300 30.96900
C  46.51700 16.35900 31.95900
C  46.95400 16.76600 33.32800
C  47.76700 18.04500 33.04200
C  48.24000 17.76300 31.57000
C  47.09800 19.41100 33.08200
C  47.70200 15.66100 34.06800
C  47.80000 15.83200 35.61900
H  49.11400 15.90200 36.28700
N  49.46000 17.41300 28.75500
C  50.02600 18.17600 29.78600
C  51.19900 18.81300 29.23400
C  51.43200 18.35300 27.95000
C  50.22800 17.58300 27.59600
C  52.14000 19.70600 30.01700
C  52.61600 18.53100 26.97600
O  52.53500 18.12600 25.81800
C  53.72300 19.46300 27.40000
N  47.69000 15.89900 26.77400
C  48.83100 15.96700 26.07300
C  48.76900 15.12400 24.77800
C  47.51700 14.30100 25.04700
C  46.85500 14.96800 26.26700
C  48.78200 16.08400 23.55700
C  47.76400 12.81400 25.32700
C  47.22200 11.81600 24.28200
N  45.78500 15.38800 29.01500
C  45.04300 14.71800 28.05800
C  43.90000 14.13900 28.69100
C  43.98900 14.38200 30.03500
C  45.10500 15.28400 30.23100
C  42.89900 13.28100 27.96900
C  43.47800 14.11700 31.38800
O  42.50700 13.47300 31.69600
C  44.28700 14.99000 32.40700
C  43.48600 16.01900 33.06300
O  42.82500 16.86400 32.45900
O  43.50700 15.83600 34.40500
C  42.54900 16.42200 35.35000
H  50.05800 18.98700 31.65700
H  50.66400 16.81700 25.58300
H  45.10900 13.75900 26.14300
H  46.04600 17.08800 33.83800
H  48.73000 18.07100 33.55400
H  46.01800 19.30800 32.97900
H  47.48100 20.05900 32.29300
H  47.39800 19.88400 34.01700
H  48.72600 15.56800 33.70700
H  47.07500 14.79300 33.86700
H  47.43100 14.84500 35.89700
H  47.15900 16.66300 35.91600
H  53.02800 19.17200 30.35300
H  51.63300 20.20800 30.84100
H  52.47400 20.47900 29.32500
H  53.35000 20.48700 27.40700
H  54.47900 19.39200 26.61800
H  54.16900 19.02000 28.29100
H  49.61400 14.46200 24.59000
H  46.93800 14.38100 24.12800
H  48.73500 17.10500 23.93600
H  47.86100 16.08800 22.97500
H  49.66600 15.87600 22.95400
H  47.09500 12.56000 26.14900
H  48.82300 12.64200 25.51700
H  46.42300 11.26200 24.77400
H  48.02100 11.12900 24.00300
H  46.90700 12.34100 23.38000
H  41.93100 13.73800 28.17400
H  43.00000 12.31800 28.47000
H  43.22000 13.23600 26.92800
H  44.71100 14.35200 33.18300
H  41.75300 16.95400 34.82700
H  43.09700 17.02400 36.07500
H  42.01800 15.63100 35.87900
Mg 6.56800 55.97300 42.23400
C  5.80700 52.53500 42.38800
C  9.79700 54.98700 41.01400
C  7.21900 59.07500 41.38400
C  3.19900 56.72800 42.70900
N  7.63200 53.97400 41.73700
C  7.08100 52.71900 41.86800
C  8.11900 51.65800 41.45300
C  9.45100 52.46500 41.40600
C  8.96600 53.90700 41.34300
C  10.52800 52.12500 42.46000
C  7.78800 50.78600 40.22600
C  7.34200 51.53100 38.99800
H  6.16400 50.87800 38.25400
N  8.25900 56.88200 41.43800
C  9.45200 56.35200 41.03900
C  10.31000 57.35500 40.56600
C  9.59200 58.60100 40.67200
C  8.31400 58.25000 41.24000
C  11.74800 57.06300 40.20500
C  10.20900 59.94000 40.38700
O  11.32600 60.07100 39.91500
C  9.43500 61.21700 40.64100
N  5.35300 57.64400 42.01600
C  5.96700 58.85400 41.89600
C  4.95000 59.95800 42.27100
C  3.52000 59.22400 42.33800
C  4.08200 57.73200 42.37000
C  5.23200 60.59500 43.66400
C  2.63600 59.55300 41.09400
C  1.61100 60.65700 41.40400
N  4.81800 54.94900 42.55400
C  3.51800 55.39000 42.87200
C  2.74200 54.25800 43.24700
C  3.55700 53.16100 43.19300
C  4.84600 53.56700 42.67600
C  1.35800 54.42300 43.70100
C  3.58900 51.73900 43.37000
O  2.75500 50.94700 43.84900
C  5.05500 51.26000 42.96100
C  4.81900 50.14100 42.13600
O  4.09000 50.07600 41.18800
O  5.62100 49.09600 42.55900
C  5.81200 47.88200 41.75800
H  10.81300 54.68100 40.75800
H  7.20300 60.12400 41.08200
H  2.16000 56.97400 42.94000
H  8.05800 50.96700 42.29400
H  9.91900 52.17800 40.46400
H  10.11900 51.41300 43.17700
H  10.93000 52.99600 42.97900
H  11.44000 51.71100 42.02900
H  7.00300 50.06500 40.45200
H  8.73700 50.32700 39.94700
H  8.18800 51.79600 38.36300
H  7.08200 52.53800 39.32300
H  11.91200 56.99300 39.13000
H  12.11100 56.14000 40.65700
H  12.26800 57.88500 40.69800
H  9.01000 61.23000 41.64400
H  8.56500 61.25300 39.98500
H  10.02300 62.12100 40.47900
H  4.92400 60.81700 41.60100
H  3.10500 59.50600 43.30600
H  4.52600 61.38800 43.90900
H  6.21300 61.05200 43.54000
H  5.23500 59.82000 44.43100
H  2.01100 58.69000 40.86700
H  3.10500 59.77100 40.13500
H  0.56600 60.36900 41.28700
H  1.78300 61.40400 40.63000
H  1.52500 61.08200 42.40400
H  0.60300 54.65300 42.95000
H  1.27800 55.14500 44.51400
H  0.99700 53.51100 44.17600
H  5.68900 50.90900 43.77500
H  6.82000 47.84200 41.34500
H  5.08600 47.71200 40.96300
H  5.64200 47.00600 42.38300

