158

Mg 49.71800 45.37700 43.16400
C  46.46900 45.97600 41.96000
C  49.72100 42.38200 41.37800
C  53.08600 45.17500 43.64200
C  49.80800 48.78300 44.16200
N  48.29000 44.42500 41.74900
C  47.02200 44.77300 41.54400
C  46.42700 43.90500 40.48200
C  47.18300 42.56100 40.71400
C  48.49200 43.12500 41.29400
C  46.42900 41.54100 41.58300
C  46.63900 44.61300 39.08000
C  45.38400 45.04100 38.22700
H  45.17100 44.19200 36.99100
N  51.20100 43.92300 42.67600
C  50.94700 42.73500 41.97800
C  52.19900 41.96800 41.85600
C  53.13800 42.74500 42.54600
C  52.54100 44.03200 42.93700
C  52.37100 40.73200 41.13500
C  54.48600 42.28100 42.84500
O  54.81600 41.10900 42.57500
C  55.53100 43.07600 43.64500
N  51.27000 46.75600 43.89200
C  52.55500 46.41200 44.06700
C  53.43600 47.64800 44.46900
C  52.31900 48.64700 44.80800
C  51.05800 48.05900 44.19100
C  54.43400 47.40000 45.68100
C  52.57000 50.07700 44.23700
C  52.29500 51.28400 45.09400
N  48.35500 47.07300 43.21800
C  48.54300 48.38800 43.67600
C  47.35600 49.12000 43.42400
C  46.47700 48.23300 42.81300
C  47.16900 46.99500 42.66000
C  47.35700 50.57700 43.70600
C  45.10500 48.10500 42.30400
O  44.19200 48.88700 42.21900
C  45.12200 46.65600 41.58500
C  43.87400 45.98700 42.12300
O  43.84100 45.30900 43.17900
O  42.77800 46.08700 41.25900
C  41.49900 45.43600 41.56200
H  49.68200 41.42300 40.85600
H  54.11700 45.15700 44.00200
H  49.80400 49.84300 44.42500
H  45.37000 43.76800 40.70700
H  47.51500 42.06800 39.80000
H  46.25500 40.62900 41.01200
H  45.47700 41.84700 42.01700
H  47.10100 41.25900 42.39300
H  47.32400 43.98500 38.50900
H  47.12600 45.58600 39.14100
H  45.42400 46.06600 37.85900
H  44.52800 44.87200 38.88100
H  52.15300 39.94800 41.86000
H  53.37900 40.59800 40.74200
H  51.63400 40.52200 40.36000
H  56.45200 42.49500 43.68800
H  55.03500 43.12200 44.61400
H  55.78500 44.04200 43.20900
H  54.00400 47.96100 43.59200
H  52.11400 48.71300 45.87700
H  55.36000 47.97100 45.75400
H  54.62300 46.33000 45.76300
H  54.03800 47.62000 46.67200
H  51.92000 50.16500 43.36600
H  53.58200 50.16300 43.84200
H  51.44200 51.87500 44.76000
H  53.08000 52.03700 45.16200
H  52.00000 51.04900 46.11700
H  47.62000 50.81700 44.73700
H  46.36500 50.90500 43.39500
H  48.01500 51.03400 42.96700
H  44.98100 46.82900 40.51800
H  40.82400 46.20500 41.93800
H  41.49100 44.66100 42.32800
H  41.06700 44.98100 40.67000
Mg -10.29100 39.28400 41.63900
C  -8.89500 36.12400 40.93600
C  -7.80500 40.70400 39.86700
C  -12.23500 42.03100 41.32200
C  -13.23300 37.50900 42.57400
N  -8.54900 38.48700 40.56800
C  -8.13800 37.15500 40.40700
C  -6.83500 37.08100 39.63000
C  -6.51500 38.53600 39.29000
C  -7.70300 39.32100 39.93700
C  -5.14200 39.00300 39.82800
C  -6.92000 36.03100 38.38400
C  -5.64500 35.34200 38.07900
H  -4.65800 36.19500 37.18900
N  -9.92100 41.16100 40.96500
C  -8.80600 41.58700 40.32400
C  -8.83300 42.97300 40.08300
C  -10.16200 43.42400 40.53000
C  -10.88900 42.18600 40.92000
C  -7.74100 43.74100 39.36800
C  -10.64600 44.86000 40.63800
O  -10.07000 45.76000 40.16300
C  -11.98400 45.23800 41.40900
N  -12.48300 39.72000 41.82500
C  -12.93300 40.98800 41.76900
C  -14.47800 41.00800 42.20200
C  -14.70900 39.50500 42.51600
C  -13.38600 38.88700 42.34300
C  -14.91600 42.08400 43.25600
C  -15.82900 38.89500 41.64300
C  -15.42800 38.27400 40.34200
N  -10.99800 37.21600 41.82100
C  -12.10300 36.72500 42.37000
C  -11.96500 35.29800 42.56400
C  -10.72700 34.96300 41.97600
C  -10.14800 36.20900 41.58600
C  -12.90700 34.39000 43.33000
C  -9.71900 33.93700 41.86400
O  -9.64400 32.75300 42.15200
C  -8.55900 34.62600 41.05300
C  -7.16700 34.42700 41.76200
O  -6.29900 33.61100 41.46400
O  -7.01200 35.37400 42.77100
C  -5.95200 35.10100 43.76500
H  -7.13000 41.13300 39.12300
H  -12.94400 42.85700 41.24300
H  -14.07500 37.04100 43.08700
H  -6.17000 36.72500 40.41700
H  -6.52900 38.65400 38.20700
H  -5.26300 39.85100 40.50200
H  -4.69300 39.53800 38.99200
H  -4.52200 38.22800 40.28000
H  -7.12900 36.61000 37.48400
H  -7.74600 35.32300 38.31800
H  -5.89500 34.39900 37.59100
H  -5.08100 35.03600 38.96000
H  -7.27200 43.12800 38.59800
H  -7.02700 44.09600 40.11100
H  -8.17700 44.59200 38.84500
H  -12.10200 44.62900 42.30400
H  -12.86000 45.06700 40.78400
H  -12.07000 46.31600 41.54900
H  -14.95700 41.30900 41.27000
H  -14.90200 39.27900 43.56400
H  -15.47200 42.89600 42.78600
H  -14.04400 42.37000 43.84500
H  -15.63000 41.71100 43.99100
H  -16.56400 39.67100 41.42900
H  -16.33200 38.13600 42.24300
H  -16.08400 38.77000 39.62700
H  -15.64400 37.20700 40.40200
H  -14.37800 38.41600 40.08600
H  -12.66000 34.31100 44.38900
H  -12.74400 33.40200 42.89900
H  -13.94300 34.72000 43.25900
H  -8.38500 34.09000 40.12000
H  -4.96000 34.93800 43.34400
H  -6.38600 34.30200 44.36700
H  -5.84700 36.03200 44.32300

