158

Mg -0.21600 42.91900 25.96400
C  1.91300 42.95800 28.69400
C  -2.92400 42.51400 28.11500
C  -2.19000 42.66700 23.27100
C  2.57800 43.09300 23.92000
N  -0.38700 42.89600 28.11100
C  0.55600 42.90800 29.09900
C  0.01700 42.96900 30.49200
C  -1.55300 42.70300 30.22900
C  -1.60800 42.56900 28.68600
C  -2.18000 41.38500 30.79400
C  0.36500 44.39900 31.14800
C  0.90700 44.35800 32.54700
H  0.64400 43.15400 33.41500
N  -2.24300 42.57000 25.72200
C  -3.20100 42.46700 26.73000
C  -4.52300 42.46900 26.08600
C  -4.22400 42.26600 24.72000
C  -2.84200 42.44400 24.53100
C  -5.79000 42.43600 26.90600
C  -5.24800 41.85200 23.71400
O  -4.91100 41.70700 22.58300
C  -6.71400 41.62100 24.15300
N  0.17000 42.84500 23.94800
C  -0.79600 42.67800 23.01700
C  -0.24200 42.73600 21.53500
C  1.27200 43.00000 21.79600
C  1.36500 42.89500 23.26800
C  -0.50600 41.53200 20.57700
C  1.74600 44.42900 21.33500
C  3.06300 44.47800 20.65300
N  1.87000 42.92500 26.17300
C  2.85800 43.04600 25.28200
C  4.15600 43.00900 25.93300
C  3.83500 43.05400 27.25300
C  2.40600 43.01700 27.36200
C  5.53900 42.96900 25.20900
C  4.44300 43.17400 28.51000
O  5.60200 43.34400 28.82500
C  3.20300 43.02100 29.50600
C  3.33300 41.77800 30.37000
O  3.09600 40.56900 30.09800
O  4.00200 42.13100 31.54200
C  4.41900 40.99500 32.32700
H  -3.74100 42.46100 28.83800
H  -2.81700 42.82600 22.39100
H  3.49900 43.03600 23.33600
H  0.44600 42.09900 30.99000
H  -2.18200 43.52000 30.58200
H  -2.60800 40.78400 29.99200
H  -2.97500 41.62600 31.49900
H  -1.55900 40.81100 31.48100
H  -0.44900 45.12200 31.09300
H  1.11100 44.78300 30.45300
H  0.39800 45.15200 33.09400
H  1.99500 44.39800 32.60300
H  -6.60400 43.12400 26.67700
H  -5.47500 42.49600 27.94800
H  -6.13600 41.41200 26.76600
H  -6.84300 40.69300 24.71000
H  -7.17600 41.60300 23.16600
H  -7.25400 42.41100 24.67400
H  -0.71100 43.62600 21.11400
H  1.87500 42.22700 21.32000
H  -0.87000 40.62200 21.05400
H  0.44800 41.22700 20.14600
H  -1.09200 41.78300 19.69300
H  1.75100 45.10400 22.19100
H  1.03400 44.85800 20.63000
H  3.82000 43.71400 20.82900
H  3.55600 45.43700 20.81200
H  2.72200 44.51300 19.61800
H  6.12100 42.08000 25.45000
H  6.01000 43.92300 25.44800
H  5.40800 42.93500 24.12700
H  3.27600 43.81000 30.25400
H  4.68500 41.33400 33.32800
H  5.38400 40.66800 31.94000
H  3.75400 40.14800 32.49300
Mg -13.24600 16.33800 41.74300
C  -10.22000 14.63900 41.08800
C  -11.81900 19.16500 40.30200
C  -16.19900 17.63500 42.00700
C  -14.50900 13.22600 42.85200
N  -11.24700 16.83900 40.76400
C  -10.22400 15.99000 40.63500
C  -9.01300 16.68000 39.88600
C  -9.49300 18.19500 39.77900
C  -10.87600 18.08400 40.34500
C  -8.56800 19.19000 40.54900
C  -8.58700 15.95700 38.55700
C  -7.12600 15.55900 38.44800
H  -6.45600 16.02800 37.18900
N  -13.92800 18.12800 41.18800
C  -13.20500 19.16800 40.65300
C  -14.10700 20.38100 40.58500
C  -15.40800 20.00800 41.14900
C  -15.21500 18.50600 41.51300
C  -13.71700 21.77900 40.02900
C  -16.55300 20.99300 41.40200
O  -16.45300 22.17300 41.06000
C  -17.74800 20.53800 42.22300
N  -15.20000 15.34800 42.10600
C  -16.23400 16.26800 42.36600
C  -17.55300 15.40100 42.61600
C  -16.83900 14.17800 43.23600
C  -15.44200 14.19600 42.69400
C  -18.54800 16.05800 43.62000
C  -17.60400 12.84600 42.92100
C  -17.61300 11.74500 43.98100
N  -12.54000 14.29800 41.99000
C  -13.16100 13.16600 42.46700
C  -12.15800 12.11500 42.55400
C  -11.01900 12.62700 42.05000
C  -11.26100 13.95200 41.66000
C  -12.45100 10.80700 43.08000
C  -9.62200 12.25600 41.72100
O  -8.96800 11.22100 41.90200
C  -9.06400 13.59200 41.01900
C  -7.79900 14.03700 41.79100
O  -7.75400 14.93800 42.62100
O  -6.71600 13.37000 41.28000
C  -5.47200 13.70000 41.91900
H  -11.40700 20.09600 39.90600
H  -17.23200 17.98600 42.04100
H  -14.80300 12.28300 43.31900
H  -8.17200 16.62700 40.57700
H  -9.56200 18.41700 38.71500
H  -8.16200 19.91700 39.84600
H  -7.73700 18.66500 41.02000
H  -9.15800 19.71800 41.29800
H  -8.75900 16.60900 37.70100
H  -9.20200 15.08100 38.35400
H  -6.98800 14.49100 38.62100
H  -6.51900 15.88700 39.29200
H  -14.35400 21.96200 39.16300
H  -12.70400 21.75700 39.62600
H  -13.67100 22.55700 40.79100
H  -18.43600 19.88100 41.69200
H  -18.46300 21.35000 42.35800
H  -17.48400 19.85200 43.02800
H  -18.04800 15.11900 41.68700
H  -16.80800 14.30500 44.31900
H  -18.26800 17.08800 43.84200
H  -18.70100 15.56100 44.57700
H  -19.49300 16.09300 43.07800
H  -17.20400 12.54400 41.95300
H  -18.65900 13.04400 42.72700
H  -18.68300 11.62700 44.15600
H  -17.09700 12.03600 44.89600
H  -17.15700 10.90900 43.45200
H  -13.12100 10.25900 42.41800
H  -13.03000 10.98000 43.98700
H  -11.61600 10.22600 43.47200
H  -8.73900 13.22300 40.04600
H  -5.28900 14.76600 41.78500
H  -4.66300 13.33300 41.28700
H  -5.50800 13.38400 42.96200

