158

Mg 40.81200 40.27600 27.69800
C  40.52900 42.99100 29.99200
C  41.80800 38.33700 30.39700
C  41.52300 37.88800 25.54200
C  40.09000 42.51100 25.18400
N  41.21700 40.71400 29.91900
C  40.93200 41.80800 30.63800
C  41.07500 41.61900 32.14000
C  41.66700 40.19400 32.17900
C  41.55600 39.68700 30.77200
C  43.08400 40.08600 32.78200
C  39.65500 41.64700 32.80900
C  39.57600 42.66400 34.04300
H  38.86400 42.20000 35.35100
N  41.50900 38.29300 27.93400
C  41.84200 37.67900 29.11300
C  42.16800 36.32600 28.78400
C  42.29600 36.21800 27.35100
C  41.78500 37.46500 26.85700
C  42.45000 35.28600 29.85100
C  42.73600 35.08200 26.48000
O  42.78200 35.09600 25.25300
C  43.11200 33.78600 27.09800
N  40.93000 40.15500 25.68500
C  41.02000 39.02800 24.99600
C  40.83900 39.27700 23.50400
C  40.22000 40.66500 23.46600
C  40.49000 41.18200 24.86300
C  42.05100 39.11200 22.66900
C  38.71400 40.77800 23.05500
C  37.67600 39.93000 23.79000
N  40.39100 42.37500 27.51500
C  40.05300 43.08800 26.42800
C  39.73100 44.40900 26.85800
C  39.83600 44.48200 28.24900
C  40.29100 43.16900 28.60100
C  39.40100 45.56500 25.93100
C  39.73400 45.31800 29.50600
O  39.50600 46.54500 29.60200
C  40.04400 44.35900 30.68100
C  41.07500 44.89500 31.52900
O  42.24800 44.69700 31.35100
O  40.61600 45.60500 32.52400
C  41.59100 46.09500 33.51000
H  41.93600 37.64200 31.23000
H  41.57200 37.00500 24.90300
H  39.87400 43.18700 24.35400
H  41.75000 42.37900 32.53500
H  41.07600 39.57800 32.85700
H  43.76600 40.88400 32.48600
H  43.49600 39.08500 32.65200
H  42.90800 40.18700 33.85300
H  39.26800 40.68900 33.15700
H  38.96800 42.05500 32.06600
H  39.07600 43.57900 33.72800
H  40.58800 42.86600 34.39600
H  41.86200 35.39600 30.76100
H  43.49600 35.44700 30.11500
H  42.26100 34.24200 29.60000
H  42.28300 33.33700 27.64500
H  43.99700 33.97100 27.70800
H  43.41800 33.13300 26.28100
H  40.16600 38.46300 23.23500
H  40.86900 41.27100 22.83400
H  42.89400 38.74300 23.25200
H  42.35600 40.02400 22.15700
H  41.96500 38.36700 21.87700
H  38.74300 40.30000 22.07600
H  38.55300 41.84500 22.90300
H  36.82500 40.60200 23.89700
H  37.95700 39.83100 24.83900
H  37.36100 39.02500 23.27100
H  39.74700 45.25300 24.94600
H  39.94000 46.47600 26.19200
H  38.34500 45.82300 25.85000
H  39.06600 44.36800 31.16200
H  42.30600 46.83100 33.14200
H  42.07200 45.27500 34.04400
H  41.08600 46.55900 34.35800
Mg -1.15200 35.28900 26.66700
C  -3.01700 33.60600 29.14700
C  -0.01900 37.43600 28.96600
C  0.36700 36.92900 24.06400
C  -2.59900 33.11100 24.17800
N  -1.45500 35.44800 28.82700
C  -2.23000 34.62200 29.61200
C  -2.15900 35.17200 31.07500
C  -1.33900 36.46900 30.98400
C  -0.85300 36.38500 29.47600
C  -2.21100 37.67600 31.42000
C  -1.44400 33.96500 31.87600
C  -2.18600 33.47700 33.13200
H  -1.34800 33.21600 34.41600
N  -0.01700 37.00800 26.48000
C  0.42800 37.71000 27.59800
C  1.24200 38.85000 27.13600
C  1.27600 38.74200 25.69600
C  0.51700 37.52600 25.33100
C  1.86400 39.80500 28.10900
C  1.78400 39.70700 24.64700
O  1.66600 39.51400 23.46400
C  2.55000 40.97300 25.12100
N  -1.01900 34.98400 24.43000
C  -0.32800 35.83600 23.62200
C  -0.32000 35.37800 22.16700
C  -1.29300 34.13000 22.16500
C  -1.64300 34.02400 23.67200
C  -0.66600 36.50300 21.17400
C  -0.73600 32.78100 21.65800
C  0.35400 32.18200 22.48800
N  -2.46200 33.72400 26.62400
C  -3.00600 32.97800 25.57200
C  -3.94400 31.97900 26.13000
C  -3.91600 32.17700 27.47800
C  -3.04000 33.24700 27.77600
C  -4.69600 30.85500 25.40900
C  -4.42900 31.69400 28.78200
O  -5.29100 30.81900 28.99300
C  -3.83200 32.52900 29.86300
C  -4.84200 33.24300 30.65000
O  -5.32000 34.33800 30.36600
O  -5.14500 32.51500 31.79200
C  -6.40200 32.88300 32.57500
H  0.33700 38.00200 29.83000
H  1.01900 37.33400 23.28600
H  -3.06300 32.54500 23.36800
H  -3.13500 35.37200 31.51700
H  -0.44900 36.32500 31.59700
H  -3.20200 37.47800 31.82900
H  -2.35900 38.25300 30.50800
H  -1.62700 38.29100 32.10400
H  -0.44700 34.22300 32.23400
H  -1.15500 33.16200 31.19900
H  -2.45800 32.43400 32.97000
H  -3.07000 34.08100 33.33900
H  2.94100 39.73600 27.96200
H  1.65600 39.63500 29.16500
H  1.58700 40.82900 27.86100
H  1.97600 41.70300 25.69100
H  2.85100 41.52300 24.22900
H  3.41200 40.67300 25.71500
H  0.68600 35.06800 21.88600
H  -2.23800 34.31500 21.65500
H  -1.13800 37.33500 21.69700
H  -1.26700 36.14100 20.33900
H  0.23000 36.86500 20.67100
H  -0.31100 32.94300 20.66800
H  -1.57900 32.09100 21.62500
H  -0.17600 31.38200 23.00500
H  0.85500 32.84300 23.19600
H  1.11900 31.75700 21.83800
H  -5.00800 30.02300 26.04100
H  -4.09500 30.42900 24.60500
H  -5.62700 31.30900 25.07000
H  -3.24600 31.91900 30.55100
H  -6.20400 33.20900 33.59600
H  -6.91900 31.92500 32.64700
H  -7.01200 33.56300 31.98100

