158

Mg 2.80600 -3.20900 45.07600
C  5.72500 -1.14000 44.37900
C  1.08200 -1.32000 42.97400
C  0.64400 -5.50900 45.45300
C  5.29600 -5.34800 46.75100
N  3.44900 -1.36800 43.82000
C  4.62100 -0.79100 43.61300
C  4.55200 0.36400 42.57900
C  2.99100 0.27300 42.14200
C  2.40500 -0.84000 43.09000
C  2.25500 1.62500 42.27100
C  5.47100 0.21100 41.31300
C  6.53600 1.28100 41.12000
H  6.60800 1.93600 39.77900
N  1.03300 -3.32200 44.35200
C  0.41700 -2.43500 43.52800
C  -0.89200 -3.01900 43.11300
C  -1.02100 -4.24900 43.83200
C  0.24600 -4.47900 44.61100
C  -1.85700 -2.30800 42.17400
C  -2.25100 -5.19600 43.67300
O  -3.18400 -4.83400 42.93000
C  -2.29200 -6.54600 44.18700
N  3.00200 -5.24800 45.99900
C  1.80800 -5.88500 46.13300
C  1.96800 -7.12200 47.06900
C  3.49700 -7.20200 47.22300
C  4.02200 -5.83700 46.63100
C  1.06400 -7.07500 48.35600
C  4.09700 -8.40100 46.37400
C  3.68300 -9.71500 46.91900
N  4.99500 -3.18700 45.69400
C  5.76000 -4.10100 46.38600
C  7.07500 -3.65100 46.59500
C  7.10500 -2.41100 45.87600
C  5.85500 -2.22700 45.24800
C  8.35300 -4.28400 47.40500
C  7.92200 -1.30900 45.51400
O  9.10100 -1.05100 45.67800
C  7.06500 -0.46000 44.43000
C  6.97800 0.95600 44.89900
O  7.61000 1.88600 44.46100
O  6.09500 1.01800 45.93900
C  5.88100 2.28500 46.63800
H  0.44300 -0.68100 42.36100
H  -0.17800 -6.17000 45.73400
H  6.03300 -5.99400 47.23200
H  4.84800 1.23000 43.17200
H  2.80900 -0.12600 41.14400
H  1.81200 1.98800 41.34400
H  2.90200 2.40900 42.66500
H  1.52800 1.46400 43.06700
H  4.87100 0.14000 40.40600
H  6.03300 -0.72200 41.37200
H  7.50000 0.91400 41.47100
H  6.20400 2.11400 41.73900
H  -1.53500 -1.29200 41.94700
H  -2.86700 -2.34400 42.58200
H  -1.72500 -2.85100 41.23800
H  -1.29300 -6.94300 44.00500
H  -3.07500 -7.06500 43.63400
H  -2.45900 -6.56400 45.26400
H  1.53700 -7.87600 46.41000
H  3.85400 -7.20100 48.25200
H  0.83600 -6.00900 48.35400
H  1.67900 -7.30600 49.22600
H  0.14800 -7.65300 48.23400
H  5.17900 -8.29600 46.45800
H  3.79000 -8.47300 45.33100
H  2.93400 -9.61000 47.70300
H  4.50300 -10.31600 47.31400
H  3.30700 -10.23900 46.04000
H  8.43000 -5.31000 47.04600
H  8.16800 -4.30700 48.47900
H  9.25000 -3.68400 47.25200
H  7.50100 -0.35000 43.43700
H  5.49500 1.91700 47.58900
H  5.32000 3.09300 46.17000
H  6.84700 2.74800 46.83900
Mg 48.36700 35.78100 28.11000
C  46.28800 34.02700 30.39900
C  48.66900 38.18700 30.32100
C  49.93500 37.47700 25.64800
C  47.39000 33.38200 25.69100
N  47.59200 36.00900 30.02500
C  46.89900 35.14600 30.79200
C  46.83000 35.64800 32.19700
C  47.12000 37.18400 32.10200
C  47.84000 37.15900 30.72600
C  45.84500 38.15000 32.18000
C  47.67400 34.81200 33.25600
C  48.68400 35.60800 34.18400
H  48.21500 36.66600 35.21100
N  49.32900 37.51900 28.06900
C  49.39400 38.38100 29.15300
C  50.16300 39.48300 28.81200
C  50.59700 39.32800 27.43400
C  49.95100 38.07400 26.95400
C  50.37400 40.66800 29.71400
C  51.36400 40.31800 26.52400
O  51.63900 40.01200 25.34700
C  51.92900 41.69700 26.92900
N  48.51500 35.47100 26.01600
C  49.26400 36.34700 25.19300
C  49.49300 35.80600 23.71500
C  48.96300 34.33200 23.96700
C  48.20900 34.43900 25.30300
C  48.83000 36.69800 22.60000
C  50.06100 33.27200 23.91400
C  49.70400 31.92400 23.27600
N  47.07600 34.06900 28.00400
C  46.77000 33.19500 26.93900
C  45.82800 32.15700 27.35500
C  45.51000 32.48700 28.68600
C  46.39700 33.58800 29.02700
C  45.35500 31.04100 26.36700
C  44.70900 32.17900 29.82400
O  43.92400 31.30700 30.10300
C  45.09700 33.22900 30.89300
C  45.32200 32.62200 32.21000
O  46.23300 31.87800 32.52400
O  44.36200 33.04900 33.09700
C  44.43500 32.63900 34.52900
H  48.70000 39.06200 30.97400
H  50.50100 37.98500 24.86400
H  47.15200 32.71100 24.86300
H  45.81700 35.49500 32.56900
H  47.82800 37.57400 32.83300
H  44.91500 37.61100 32.35600
H  45.72000 38.62900 31.20800
H  45.91100 38.98000 32.88300
H  48.14100 33.92900 32.82100
H  46.90500 34.35100 33.87600
H  49.44700 36.04200 33.53800
H  49.29700 34.87300 34.70400
H  50.10800 40.63200 30.77100
H  49.81500 41.47400 29.23800
H  51.42800 40.86000 29.91700
H  51.14200 42.44300 27.03900
H  52.52400 42.04400 26.08400
H  52.48700 41.58500 27.85900
H  50.55800 35.83100 23.48700
H  48.22000 34.03000 23.22900
H  49.49600 36.91900 21.76600
H  48.52500 37.64900 23.03600
H  47.94700 36.22400 22.17100
H  50.42400 33.10500 24.92800
H  50.80500 33.79100 23.31000
H  50.35600 31.74400 22.42200
H  48.71400 31.87600 22.82100
H  49.87400 31.11700 23.98900
H  44.49000 30.49000 26.73500
H  46.15900 30.32000 26.21900
H  45.18400 31.37000 25.34200
H  44.28400 33.95500 30.91500
H  45.47600 32.50700 34.82600
H  43.88100 31.76800 34.87900
H  43.92700 33.42600 35.08600

