158

Mg 41.52400 7.35900 29.55300
C  43.32200 9.08400 32.04200
C  39.02200 6.64300 31.81000
C  39.79100 5.87100 27.07300
C  44.15700 7.98200 27.39700
N  41.20300 7.86100 31.68000
C  42.14500 8.47600 32.50900
C  41.58100 8.55400 33.94600
C  40.15700 7.90700 33.80100
C  40.12000 7.41500 32.38400
C  39.80400 6.79300 34.85100
C  41.63400 9.99800 34.50600
C  40.66000 10.34900 35.57500
H  41.01100 11.41200 36.63300
N  39.73800 6.30400 29.48800
C  38.84200 6.13800 30.54600
C  37.61600 5.53300 30.06100
C  37.89600 5.19500 28.73500
C  39.20000 5.84100 28.33700
C  36.42400 5.25100 30.89700
C  37.04100 4.43900 27.71000
O  37.39600 4.17000 26.54900
C  35.70000 3.93900 28.15500
N  41.96100 6.80000 27.52600
C  41.05000 6.30900 26.67700
C  41.63900 6.14800 25.29900
C  42.88500 6.97900 25.33300
C  43.05300 7.29600 26.83300
C  41.78400 4.64800 24.82600
C  42.82900 8.31700 24.46000
C  41.93300 9.36700 25.07500
N  43.40100 8.33400 29.65300
C  44.31300 8.58500 28.64700
C  45.34100 9.43900 29.09500
C  45.06100 9.58500 30.49600
C  43.78100 8.99100 30.71600
C  46.48000 9.90300 28.27900
C  45.53500 10.16800 31.74900
O  46.55600 10.83600 31.96200
C  44.41700 9.89600 32.78800
C  44.97000 9.09500 33.98600
O  45.05500 7.90300 34.00200
O  45.20900 9.92100 34.96900
C  45.39400 9.36400 36.29900
H  38.19300 6.65600 32.52000
H  39.21900 5.50800 26.21700
H  44.93700 8.15100 26.65200
H  42.26600 7.93800 34.52900
H  39.50700 8.77500 33.91200
H  38.86500 7.05800 35.33700
H  40.51500 6.55900 35.64400
H  39.72900 5.81600 34.37400
H  41.58400 10.68400 33.66100
H  42.58600 10.12100 35.02100
H  40.53400 9.44400 36.16900
H  39.78900 10.75400 35.06100
H  36.31500 4.16800 30.96200
H  35.53700 5.77300 30.53700
H  36.45800 5.58800 31.93300
H  35.65200 3.25700 29.00400
H  35.16800 3.50700 27.30900
H  35.13000 4.81000 28.48100
H  40.90700 6.57200 24.61100
H  43.68400 6.31000 25.01400
H  41.43600 3.91800 25.55600
H  42.82100 4.42000 24.57700
H  41.13800 4.44900 23.97100
H  42.40600 7.92300 23.53600
H  43.85300 8.68900 24.50000
H  42.51700 10.27500 25.21900
H  41.52200 9.06700 26.03900
H  41.10500 9.52500 24.38400
H  46.96600 10.70400 28.83600
H  46.15500 10.31300 27.32300
H  47.24800 9.13900 28.16300
H  43.89500 10.79500 33.11600
H  45.39700 8.27600 36.36200
H  44.62800 9.66500 37.01400
H  46.38000 9.64100 36.67400
Mg 41.32100 40.88500 26.89800
C  40.86400 43.42400 29.25900
C  42.21300 38.77700 29.53100
C  41.86200 38.39400 24.68500
C  41.20100 43.22100 24.34800
N  41.47200 41.08700 29.14600
C  41.12200 42.17200 29.88200
C  41.11700 41.91500 31.36600
C  41.61300 40.38600 31.39000
C  41.78400 40.03100 29.92900
C  42.84400 40.14000 32.29500
C  39.71800 42.12900 31.96000
C  39.50400 41.83400 33.50500
H  39.22700 42.98500 34.44000
N  41.89600 38.84900 27.06300
C  42.20900 38.21600 28.23800
C  42.48600 36.82300 27.90800
C  42.29800 36.66200 26.47400
C  41.97600 37.96700 25.99900
C  43.07900 35.86900 28.91800
C  42.65400 35.36800 25.62700
O  42.53900 35.37500 24.40900
C  42.98200 34.11600 26.23700
N  41.56300 40.87200 24.82800
C  41.75700 39.67500 24.14700
C  41.71200 39.92700 22.60700
C  41.34600 41.44000 22.55300
C  41.39500 41.85300 23.97800
C  43.06400 39.59700 21.83800
C  39.99800 41.66700 21.89800
C  38.79100 41.07300 22.61200
N  41.07600 42.90700 26.72200
C  41.09000 43.79100 25.60900
C  40.92300 45.18000 26.04300
C  40.75500 45.06900 27.43700
C  40.93400 43.68000 27.82100
C  40.68000 46.29100 25.10100
C  40.29200 45.73100 28.64300
O  39.91000 46.91300 28.78900
C  40.39600 44.69800 29.84100
C  41.38800 45.33100 30.84500
O  42.60600 45.49800 30.75300
O  40.62100 45.89000 31.91000
C  41.47000 46.48200 32.97900
H  42.47200 38.14500 30.38300
H  41.92800 37.67400 23.86700
H  41.07200 44.02200 23.61700
H  41.84800 42.48200 31.94200
H  40.96500 39.59800 31.77300
H  43.02700 41.10100 32.77400
H  43.70700 39.86800 31.68800
H  42.88000 39.34600 33.04000
H  39.17000 41.54100 31.22400
H  39.38400 43.16300 31.87400
H  40.48100 41.44900 33.79700
H  38.86100 40.96300 33.63200
H  42.99500 36.15600 29.96600
H  44.11200 35.60400 28.69400
H  42.50800 34.95200 28.76900
H  43.89700 34.26700 26.80900
H  43.27800 33.55500 25.35000
H  42.17600 33.75700 26.87800
H  40.93500 39.24000 22.27000
H  42.12800 42.02100 22.06300
H  42.92400 38.98800 20.94500
H  43.68600 38.94100 22.44700
H  43.60800 40.49300 21.54000
H  40.13300 41.17800 20.93300
H  39.78400 42.70600 21.64800
H  39.11700 40.43100 23.43100
H  38.27200 40.58300 21.78900
H  38.19900 41.93100 22.93200
H  41.06300 46.10400 24.09800
H  40.98100 47.25500 25.50900
H  39.59700 46.24800 24.98700
H  39.41000 44.58100 30.29100
H  41.71600 45.63800 33.62400
H  40.70100 47.05500 33.49700
H  42.23500 47.19100 32.66100

