158

Mg 46.64200 24.92900 28.71600
C  47.15700 27.26900 31.51900
C  45.38600 22.77100 30.77600
C  46.76900 22.93900 26.16000
C  48.00400 27.53100 26.61400
N  46.49600 24.99800 30.92600
C  46.59900 26.00800 31.81700
C  46.01300 25.60600 33.18000
C  45.45500 24.14400 32.91300
C  45.73300 24.00500 31.41600
C  46.21100 23.11400 33.82000
C  44.96000 26.55100 33.78700
C  45.23500 26.89600 35.19400
H  44.12200 27.00600 36.24700
N  46.25400 23.01500 28.55900
C  45.75200 22.23100 29.55400
C  45.37200 20.95800 28.93800
C  45.82100 20.93800 27.53000
C  46.30700 22.32300 27.34800
C  44.58800 19.93500 29.73500
C  45.70600 19.85400 26.52700
O  46.05700 20.06400 25.42700
C  44.97600 18.53900 26.84400
N  47.35500 25.23900 26.66000
C  47.19400 24.23200 25.80400
C  47.47000 24.62100 24.36200
C  47.68100 26.14300 24.45900
C  47.66300 26.34900 25.97700
C  48.65000 23.87900 23.71300
C  46.70400 27.11500 23.76900
C  45.29100 26.97400 24.39900
N  47.47600 26.94500 28.92800
C  47.98300 27.85300 28.04700
C  48.39700 29.09700 28.73500
C  48.00000 28.91600 30.09100
C  47.56600 27.56200 30.18200
C  48.95000 30.35900 28.06100
C  47.81800 29.56700 31.37800
O  47.97900 30.72000 31.74700
C  47.42900 28.45100 32.40100
C  48.58500 28.13800 33.23100
O  49.71400 28.33700 32.95000
O  48.11900 27.75200 34.44900
C  49.20600 27.44400 35.45700
H  44.82100 22.06700 31.39200
H  46.66900 22.23900 25.32800
H  48.41100 28.27200 25.92400
H  46.85300 25.48500 33.86300
H  44.42500 24.10500 33.26800
H  46.12500 23.54600 34.81800
H  47.29200 23.10000 33.67900
H  45.86600 22.08200 33.75800
H  43.99700 26.05200 33.89500
H  44.86400 27.44300 33.16700
H  45.62400 27.91300 35.24900
H  46.06600 26.32000 35.60100
H  43.76700 19.44300 29.21200
H  44.23000 20.30500 30.69600
H  45.32400 19.18900 30.03200
H  45.41900 17.98700 27.67300
H  44.96200 17.84500 26.00300
H  43.90800 18.69300 27.00100
H  46.55800 24.44000 23.79400
H  48.66600 26.42200 24.08600
H  49.34900 23.63500 24.51300
H  48.96300 24.49900 22.87300
H  48.27600 22.89900 23.41300
H  46.56800 26.95000 22.70000
H  47.04700 28.14000 23.90600
H  44.55500 27.17000 23.62000
H  45.18200 27.83100 25.06500
H  45.06600 26.03300 24.90100
H  48.33200 31.19500 28.38800
H  48.88500 30.11400 27.00000
H  49.98700 30.51900 28.35600
H  46.65600 28.86000 33.05100
H  48.74900 27.19900 36.41500
H  49.97600 28.21100 35.53800
H  49.83000 26.63900 35.06900
Mg 26.21200 51.77300 26.65100
C  23.80400 51.91100 29.29900
C  28.48800 50.47700 28.83000
C  28.33900 51.83600 24.05900
C  23.59400 52.36000 24.34200
N  26.13000 51.26500 28.83700
C  25.07100 51.47200 29.71300
C  25.52000 51.06800 31.07700
C  27.05700 50.77300 30.94100
C  27.29100 50.88200 29.42200
C  28.03100 51.42200 31.80700
C  24.71300 49.86400 31.66800
C  24.00100 50.05800 33.02600
H  24.74000 50.92000 34.13800
N  28.17700 51.28000 26.47600
C  28.89500 50.70100 27.50400
C  30.26800 50.53300 26.97500
C  30.32200 51.10200 25.66500
C  28.89000 51.45600 25.31700
C  31.39100 49.85900 27.74200
C  31.50200 51.28600 24.74700
O  31.33600 51.90000 23.67600
C  32.85800 50.81500 25.06100
N  25.97700 52.21800 24.48700
C  27.02200 52.06000 23.65400
C  26.60100 52.10900 22.11700
C  25.01800 51.92100 22.27600
C  24.86200 52.23500 23.78500
C  27.12300 53.32000 21.32800
C  24.43400 50.52700 21.94300
C  23.65900 50.42000 20.67500
N  24.17500 52.10300 26.75100
C  23.25100 52.34600 25.72700
C  22.03000 52.62700 26.34800
C  22.18600 52.45700 27.67300
C  23.50800 52.16900 27.92400
C  20.79600 52.93900 25.55900
C  21.48400 52.53600 28.95600
O  20.33200 53.01000 29.09000
C  22.46100 52.19800 30.06600
C  22.58200 53.39500 30.96200
O  23.19200 54.41300 30.72600
O  21.82300 53.20900 32.08500
C  21.76000 54.31700 33.12900
H  29.25800 49.97900 29.42200
H  29.02200 51.79200 23.20700
H  22.76500 52.34400 23.63100
H  25.40900 51.91300 31.75700
H  27.19900 49.71800 31.17700
H  28.90400 51.75000 31.24300
H  28.23900 50.76600 32.65200
H  27.44400 52.14000 32.37900
H  25.27200 48.93900 31.81000
H  23.91200 49.62800 30.96700
H  23.90800 49.09100 33.51900
H  22.98400 50.43100 32.90100
H  31.18300 49.42200 28.71800
H  32.17000 50.61800 27.81600
H  31.84400 49.07800 27.13200
H  32.85800 49.76500 25.35400
H  33.32100 51.41800 25.84100
H  33.51000 50.85300 24.18800
H  26.99500 51.20000 21.66400
H  24.50900 52.58800 21.58000
H  27.81100 52.83300 20.63700
H  27.75400 53.90000 22.00100
H  26.36600 53.97300 20.89400
H  23.79600 50.13700 22.73600
H  25.21400 49.77800 21.80700
H  24.07000 49.80300 19.87500
H  23.37700 51.35400 20.18900
H  22.68600 49.99500 20.92000
H  20.48100 51.95500 25.21100
H  21.07000 53.48000 24.65300
H  19.99700 53.38300 26.15200
H  22.06700 51.40300 30.70000
H  21.65900 55.28900 32.64500
H  22.73300 54.55500 33.55800
H  20.98100 54.22700 33.88700

