158

Mg 50.82500 45.89600 41.69300
C  47.81600 47.36100 40.71500
C  49.71200 42.98700 40.31500
C  54.08600 44.87800 41.70900
C  52.01700 49.17100 42.35600
N  49.00300 45.31800 40.56800
C  47.87100 46.04100 40.36800
C  46.64100 45.15200 39.91000
C  47.26400 43.68700 40.24700
C  48.74700 43.96000 40.45200
C  46.61300 42.93800 41.39900
C  46.30800 45.26700 38.37500
C  44.82600 45.42400 37.93800
H  44.24500 44.50400 36.85300
N  51.78100 44.16600 41.00500
C  51.14000 43.04900 40.44500
C  52.12600 42.07400 40.18300
C  53.37500 42.43700 40.72300
C  53.14400 43.85400 41.18000
C  51.78400 40.78500 39.50200
C  54.60700 41.65200 40.70100
O  54.59700 40.47600 40.26200
C  55.87300 42.29400 41.23000
N  52.80200 46.91700 41.94500
C  53.96700 46.17900 42.03900
C  55.16600 47.04100 42.51700
C  54.54500 48.46000 42.48900
C  53.04500 48.19500 42.20900
C  55.82600 46.46900 43.84800
C  55.04800 49.35700 41.31000
C  55.56200 50.72000 41.72800
N  50.03500 47.85600 41.79700
C  50.60800 49.01600 42.10000
C  49.63300 50.09100 41.97800
C  48.50100 49.49000 41.45000
C  48.86100 48.14300 41.24200
C  49.81500 51.52200 42.16900
C  47.17400 49.74200 40.92500
O  46.59500 50.83100 40.76900
C  46.60500 48.28600 40.57400
C  45.41200 47.78700 41.41300
O  45.39200 47.09500 42.43200
O  44.27500 48.18400 40.77800
C  43.08900 47.79200 41.56500
H  49.30200 42.07600 39.87400
H  55.09600 44.48200 41.83600
H  52.47000 50.10400 42.69900
H  45.71300 45.30200 40.46300
H  47.40100 43.03500 39.38500
H  46.01200 42.14300 40.95800
H  45.88300 43.49900 41.98200
H  47.34200 42.59300 42.13200
H  46.78900 44.39000 37.94100
H  46.82900 46.11200 37.92500
H  44.67800 46.46800 37.66200
H  44.17900 45.32500 38.80900
H  52.51300 40.62300 38.70800
H  50.76900 40.78900 39.10500
H  51.83000 39.98600 40.24300
H  55.70700 42.43100 42.29800
H  56.26800 43.12400 40.64400
H  56.63500 41.52300 41.11000
H  55.90900 46.90200 41.73200
H  54.78900 48.92300 43.44500
H  55.49000 45.47700 44.15000
H  55.64300 47.16200 44.67000
H  56.91500 46.45300 43.87100
H  54.20900 49.57700 40.65100
H  55.81900 48.83000 40.74700
H  55.01400 51.58300 41.34900
H  56.63500 50.86600 41.60100
H  55.40900 50.79300 42.80400
H  50.89300 51.63800 42.28800
H  49.29800 52.01600 42.99200
H  49.51000 51.93400 41.20800
H  46.34800 48.36800 39.51800
H  43.15100 47.70900 42.65000
H  42.66100 46.84300 41.24200
H  42.36100 48.57500 41.35800
Mg 5.83200 54.51500 41.88800
C  5.31900 51.02700 41.57400
C  8.75200 54.13900 40.37500
C  5.79600 57.84300 41.49500
C  2.44500 54.60500 42.90600
N  6.82600 52.80500 40.93900
C  6.47900 51.46200 40.95400
C  7.52600 50.56800 40.17100
C  8.67900 51.59000 40.15800
C  8.07500 52.92500 40.49700
C  9.66200 51.28600 41.31800
C  7.15400 49.99600 38.71400
C  6.13400 50.68200 37.87000
H  6.68900 51.47600 36.68800
N  7.19100 55.88800 41.12000
C  8.40800 55.46600 40.65700
C  9.21000 56.69600 40.43100
C  8.31400 57.80700 40.64800
C  7.02800 57.24500 41.09600
C  10.70200 56.71100 39.99100
C  8.62300 59.25000 40.52200
O  9.79500 59.53700 40.17800
C  7.69100 60.30500 40.93000
N  4.28300 55.92700 42.05400
C  4.54700 57.29800 41.85100
C  3.35900 58.18300 42.22900
C  2.28800 57.07700 42.59200
C  3.05600 55.77100 42.46100
C  3.66800 59.13800 43.41200
C  0.98700 57.11500 41.73500
C  -0.32400 57.29100 42.56900
N  4.22200 53.08600 42.25300
C  2.99900 53.32200 42.78800
C  2.31200 52.08400 43.03300
C  3.26000 51.18600 42.61000
C  4.37400 51.85600 42.17100
C  1.00900 51.83800 43.56700
C  3.47400 49.75400 42.43700
O  2.79600 48.78000 42.74200
C  4.92500 49.61400 41.89300
C  4.80500 48.77900 40.74900
O  4.37600 49.19800 39.68000
O  5.11500 47.50700 41.08600
C  4.99700 46.55000 39.92900
H  9.76700 54.07600 39.97800
H  5.85200 58.93300 41.48900
H  1.39800 54.67000 43.21100
H  7.66000 49.67600 40.78200
H  9.13000 51.68600 39.17100
H  9.30400 50.54900 42.03700
H  9.95300 52.19100 41.85100
H  10.58900 50.87700 40.91600
H  6.79500 48.97700 38.86200
H  8.12600 49.86900 38.23900
H  5.66900 51.43000 38.51300
H  5.38100 50.01100 37.45800
H  10.83100 57.10200 38.98100
H  10.97900 55.65800 39.94100
H  11.29300 57.22900 40.74600
H  6.86900 60.18600 40.22300
H  8.18700 61.23000 40.63600
H  7.37900 60.24400 41.97200
H  3.17100 58.74700 41.31500
H  1.96300 57.08600 43.63200
H  3.07000 59.07600 44.32100
H  3.53700 60.12400 42.96600
H  4.69100 59.12500 43.78700
H  0.88800 56.25000 41.07800
H  1.13900 57.97700 41.08500
H  -0.68200 56.26800 42.68300
H  -1.03400 57.87500 41.98300
H  -0.01700 57.74800 43.50900
H  0.20200 52.38600 43.08000
H  0.95300 52.25600 44.57300
H  0.76900 50.78000 43.66500
H  5.67600 49.11500 42.50600
H  5.56500 45.63100 40.07100
H  5.35500 47.05800 39.03300
H  3.96800 46.34500 39.63400

