158

Mg 46.09100 4.54500 47.86200
C  43.78800 7.34900 47.46600
C  43.37100 2.51600 46.81600
C  48.26000 2.01800 47.38000
C  48.60900 6.82400 48.17700
N  43.83700 4.91300 47.27300
C  43.19900 6.09500 47.16200
C  41.70800 5.94300 46.77900
C  41.59700 4.35100 46.61400
C  42.97100 3.86700 46.94500
C  40.49000 3.74200 47.47500
C  41.26700 6.79600 45.52700
C  42.25500 6.92200 44.31200
H  41.55800 6.94100 42.94800
N  45.83300 2.52600 47.38000
C  44.62200 1.90600 47.03100
C  44.94600 0.51600 46.75100
C  46.32600 0.31200 47.02200
C  46.88300 1.61700 47.34000
C  43.94700 -0.51400 46.21400
C  47.01200 -0.98000 46.75000
O  46.42900 -1.98000 46.43800
C  48.51400 -1.01300 46.70900
N  48.11300 4.35900 47.80300
C  48.83000 3.22500 47.76000
C  50.32200 3.50600 47.80400
C  50.38300 5.03500 47.99000
C  48.95300 5.48200 48.01600
C  50.95900 2.60700 48.96200
C  51.03900 5.86500 46.83500
C  52.09800 6.82100 47.37300
N  46.22100 6.62600 47.82300
C  47.32500 7.40000 48.01000
C  46.96400 8.80500 48.00800
C  45.58900 8.86000 47.81600
C  45.20000 7.47400 47.71800
C  47.90900 9.86200 48.28300
C  44.49700 9.73500 47.74500
O  44.38400 10.98000 47.76000
C  43.27500 8.76400 47.48900
C  42.26300 9.05800 48.47900
O  42.08200 8.22900 49.41100
O  41.54800 10.19000 48.25900
C  40.52100 10.46500 49.26000
H  42.59300 1.85400 46.43200
H  49.02500 1.26100 47.19400
H  49.40300 7.57300 48.17800
H  41.12300 6.43200 47.55800
H  41.49600 4.12100 45.55400
H  39.70200 4.46000 47.70100
H  40.89000 3.22700 48.34800
H  40.06100 2.96900 46.83700
H  40.84300 7.75600 45.82100
H  40.32900 6.38500 45.15300
H  42.94700 6.08200 44.36700
H  42.88100 7.81100 44.22400
H  44.16700 -0.72600 45.16800
H  42.90700 -0.18900 46.23200
H  44.03000 -1.44600 46.77300
H  48.92400 -0.79900 47.69600
H  48.95400 -0.27900 46.03500
H  48.97700 -1.94700 46.39000
H  50.79800 3.26100 46.85400
H  50.79800 5.36500 48.94200
H  51.58200 3.30800 49.51800
H  51.76700 2.05500 48.48200
H  50.34300 1.94700 49.57400
H  50.35500 6.40900 46.18400
H  51.65600 5.12000 46.33200
H  53.09900 6.66500 46.97100
H  52.23400 6.90100 48.45100
H  51.92300 7.84600 47.04600
H  48.36800 9.74700 49.26500
H  47.50700 10.86000 48.11100
H  48.72500 9.94100 47.56600
H  42.85200 9.05000 46.52600
H  40.47500 11.53500 49.45800
H  40.65600 10.02800 50.25000
H  39.54800 10.11900 48.91100
Mg 30.03600 57.37600 40.23000
C  27.37800 55.19400 39.21300
C  32.30600 55.07900 39.29300
C  32.36100 59.73800 40.36900
C  27.49700 59.83900 40.57900
N  29.80800 55.50100 39.02500
C  28.70000 54.76500 38.88300
C  28.96200 53.32900 38.42700
C  30.52800 53.29700 38.59200
C  30.93000 54.75200 39.07200
C  31.21000 52.10300 39.32700
C  28.31800 52.99100 37.01700
C  28.78000 53.84200 35.75300
H  27.66300 54.40900 34.92700
N  32.10900 57.41500 40.04400
C  32.86200 56.33300 39.64200
C  34.26300 56.69000 39.64100
C  34.38100 58.11400 40.03400
C  32.91400 58.52100 40.15800
C  35.28500 55.63600 39.27700
C  35.61400 58.91300 40.24600
O  36.71300 58.36200 40.06800
C  35.53900 60.28000 40.83300
N  29.94300 59.44800 40.51700
C  31.03800 60.16500 40.61000
C  30.74600 61.72700 40.79600
C  29.19800 61.65600 40.98000
C  28.84100 60.22800 40.75300
C  31.63300 62.39500 41.91500
C  28.53400 62.58400 39.81400
C  27.29800 63.39100 40.24100
N  27.78800 57.46600 40.14000
C  26.97200 58.53600 40.32700
C  25.58100 58.10600 40.20000
C  25.69300 56.76600 39.76400
C  27.03300 56.45500 39.69900
C  24.31900 58.97300 40.54400
C  24.90500 55.63400 39.38000
O  23.66800 55.55200 39.33100
C  26.00300 54.58400 38.93500
C  25.60400 53.33800 39.68700
O  26.24800 52.80700 40.60700
O  24.50000 52.78700 39.13000
C  23.92600 51.70100 39.99300
H  32.84700 54.16200 39.05000
H  33.08800 60.54900 40.45200
H  26.79700 60.67700 40.59800
H  28.47700 52.65200 39.13000
H  30.99600 53.43900 37.61800
H  31.67400 52.49800 40.23000
H  31.94000 51.60700 38.68700
H  30.49700 51.34700 39.65700
H  27.23400 52.94300 37.11800
H  28.64100 51.95600 36.90100
H  29.24300 53.11100 35.09100
H  29.41900 54.66700 36.06900
H  35.37800 54.84300 40.01800
H  36.18800 56.07600 38.85300
H  34.86300 55.11500 38.41700
H  35.13600 60.97700 40.09900
H  36.54600 60.48100 41.19800
H  34.83700 60.30400 41.66600
H  31.04200 62.16300 39.84200
H  28.91700 61.98200 41.98200
H  32.24200 61.63400 42.40500
H  30.87100 62.75700 42.60500
H  32.30900 63.09400 41.42300
H  28.37200 61.90900 38.97400
H  29.21900 63.35300 39.45600
H  26.47600 63.16200 39.56200
H  27.53400 64.44300 40.08400
H  27.05900 63.35400 41.30300
H  24.19300 59.73500 39.77400
H  24.51800 59.64200 41.38100
H  23.45800 58.31200 40.64400
H  25.73200 54.35200 37.90500
H  23.97900 52.00300 41.03900
H  24.33900 50.70100 39.85700
H  22.86200 51.65300 39.75800

