158

Mg 30.73100 59.43000 38.86200
C  27.74600 57.94500 37.64700
C  32.52500 56.69600 37.84700
C  33.52100 61.25600 39.14700
C  28.77500 62.34400 39.40700
N  30.23100 57.66200 37.75600
C  28.96700 57.10700 37.48200
C  28.98000 55.69500 36.83100
C  30.46500 55.27200 37.19900
C  31.12100 56.61000 37.65400
C  30.62200 54.31000 38.43900
C  28.56300 55.64800 35.31500
C  27.72900 54.50500 34.74000
H  26.53200 54.97800 33.83100
N  32.79000 58.96400 38.58700
C  33.26700 57.80200 38.26000
C  34.68100 57.93600 38.21300
C  35.06500 59.20700 38.75900
C  33.78200 59.85100 38.85800
C  35.54800 56.71400 37.86500
C  36.48500 59.64100 38.94600
O  37.34300 58.84400 38.70000
C  36.92000 61.00300 39.43800
N  31.09800 61.51000 39.21300
C  32.35300 62.02900 39.32500
C  32.41700 63.51600 39.63000
C  30.91000 63.82700 39.69200
C  30.15400 62.49600 39.41800
C  33.33300 63.88500 40.77600
C  30.39300 65.01600 38.90500
C  29.71600 66.10200 39.73700
N  28.68200 60.04100 38.75000
C  28.09500 61.18000 39.04900
C  26.66200 61.14800 38.81600
C  26.46000 59.84700 38.29900
C  27.75200 59.23100 38.22200
C  25.56700 62.24300 38.78700
C  25.48200 58.84800 37.77400
O  24.31500 58.91600 37.45800
C  26.26700 57.60800 37.47900
C  25.81300 56.63400 38.52900
O  25.60400 56.98600 39.67300
O  25.60100 55.32300 38.04200
C  25.21100 54.30100 39.03900
H  32.99600 55.76400 37.52900
H  34.44800 61.73300 39.47200
H  28.10400 63.15500 39.69600
H  28.23700 55.20800 37.46200
H  31.04800 54.84800 36.38100
H  29.66500 53.78700 38.45800
H  30.72800 54.88100 39.36200
H  31.37400 53.52500 38.36800
H  29.45200 55.52200 34.69800
H  28.06800 56.58500 35.06000
H  27.27000 53.86400 35.49300
H  28.43100 53.83800 34.24000
H  34.97700 55.94800 37.33900
H  35.98500 56.33900 38.79000
H  36.28800 56.95400 37.10200
H  37.98200 61.24100 39.36500
H  36.45000 61.17000 40.40700
H  36.50400 61.65300 38.66900
H  32.65700 63.98600 38.67700
H  30.74700 64.04000 40.74800
H  34.15000 64.57300 40.55900
H  33.92000 63.04100 41.13800
H  32.79100 64.28800 41.63100
H  29.64200 64.51400 38.29500
H  31.14500 65.41100 38.22200
H  29.44900 65.66800 40.70100
H  28.79100 66.41700 39.25500
H  30.33400 66.98000 39.92300
H  24.70000 61.70900 39.17600
H  25.32000 62.38400 37.73500
H  25.83200 63.12700 39.36700
H  25.96800 57.13200 36.54500
H  25.98700 54.31700 39.80400
H  25.21100 53.29200 38.62800
H  24.22600 54.45400 39.48000
Mg 35.39000 48.80200 24.82900
C  35.61100 47.38500 27.84800
C  34.50300 51.85000 26.26100
C  34.92800 50.34600 21.70800
C  36.34900 46.00800 23.27600
N  35.16900 49.57600 26.85900
C  35.26600 48.75500 27.97200
C  35.22200 49.64000 29.21800
C  34.76400 51.05700 28.68500
C  34.86100 50.85200 27.15000
C  33.28200 51.53700 29.12200
C  36.57200 49.80900 30.00900
C  36.59800 49.34500 31.46200
H  35.32200 49.56500 32.26200
N  34.75900 50.80200 24.04700
C  34.40000 51.86700 24.87100
C  34.02000 52.99800 24.06100
C  34.18300 52.58300 22.69900
C  34.60500 51.18500 22.81100
C  33.58000 54.34700 24.58900
C  33.92300 53.33100 21.44000
O  33.92200 52.76600 20.37100
C  33.67400 54.82800 21.45000
N  35.60800 48.24500 22.75000
C  35.42200 49.00000 21.64200
C  35.82200 48.28800 20.38500
C  36.72400 47.04900 21.00700
C  36.27200 47.11800 22.48200
C  34.59600 47.99300 19.49800
C  38.26800 47.16000 20.82400
C  39.01000 45.80600 20.73600
N  35.89800 47.00300 25.38500
C  36.21800 45.89100 24.67800
C  36.43800 44.73400 25.58400
C  36.10500 45.31200 26.82300
C  35.81300 46.67500 26.66400
C  36.69600 43.35100 25.12300
C  35.94800 44.98200 28.23400
O  36.02700 43.95100 28.89600
C  35.74400 46.35800 28.94000
C  34.45000 46.28800 29.87200
O  33.32900 46.61900 29.48500
O  34.74000 45.55600 31.02200
C  33.59000 45.17700 31.80800
H  34.20100 52.80400 26.69800
H  34.89500 50.68300 20.67000
H  36.52600 45.09300 22.70800
H  34.41100 49.28400 29.85400
H  35.45700 51.88900 28.80500
H  33.28000 52.49700 29.63700
H  32.75500 50.84500 29.77800
H  32.66800 51.74900 28.24700
H  36.87300 50.84800 30.14100
H  37.43000 49.41200 29.46700
H  37.41800 49.76700 32.04200
H  36.69300 48.26000 31.51200
H  32.56300 54.55700 24.25800
H  34.24800 55.06800 24.11700
H  33.53000 54.42400 25.67500
H  34.45100 55.43900 21.90900
H  32.73300 54.98300 21.97800
H  33.48600 55.18500 20.43700
H  36.57100 48.85500 19.83200
H  36.38200 46.07700 20.65100
H  34.66700 48.28200 18.44900
H  33.65600 48.40400 19.86600
H  34.53000 46.90900 19.58300
H  38.80900 47.79700 21.52500
H  38.56900 47.60000 19.87300
H  39.22500 45.61100 19.68600
H  38.39600 45.05200 21.22900
H  40.02600 45.86900 21.12600
H  35.76600 42.82500 24.90300
H  37.29500 42.87700 25.90000
H  37.28000 43.32700 24.20300
H  36.54200 46.58200 29.64800
H  33.00200 44.50600 31.18100
H  32.92000 46.01900 31.98200
H  33.87900 44.78700 32.78400

