158

Mg 47.05600 24.40000 28.26000
C  47.66700 26.80000 30.95200
C  46.26400 22.14200 30.73200
C  46.76900 22.17100 25.83000
C  48.49500 26.71700 26.17400
N  46.85800 24.51400 30.59200
C  47.05800 25.62000 31.41500
C  46.79400 25.14900 32.82300
C  46.56700 23.61400 32.73600
C  46.61900 23.39500 31.25800
C  47.63000 22.82100 33.54500
C  45.69600 25.95700 33.65700
C  46.16600 26.54500 35.05100
H  46.45900 25.61200 36.18300
N  46.54800 22.43600 28.26500
C  46.14300 21.72100 29.37800
C  45.64100 20.40000 28.96500
C  45.79300 20.35800 27.53000
C  46.34800 21.68000 27.12400
C  45.21200 19.38100 29.89000
C  45.30300 19.31200 26.51600
O  45.35500 19.46800 25.29300
C  44.56500 18.14700 27.02500
N  47.52300 24.47600 26.31000
C  47.30900 23.41600 25.45300
C  47.57800 23.76700 23.98700
C  48.06100 25.21200 24.10800
C  47.99100 25.52800 25.60100
C  48.63600 22.83100 23.39500
C  47.11400 26.14500 23.26700
C  45.63200 26.15000 23.71400
N  47.82900 26.38400 28.43300
C  48.43900 27.16500 27.46900
C  48.81300 28.36400 28.04200
C  48.57500 28.29300 29.43800
C  47.92000 27.05500 29.61700
C  49.40100 29.53100 27.27300
C  48.61000 29.09900 30.68900
O  48.91500 30.24200 30.78700
C  48.07800 28.05100 31.71700
C  49.18000 27.73900 32.72400
O  50.05000 26.95400 32.50100
O  49.06000 28.48500 33.87900
C  50.02800 28.19700 34.98900
H  46.01600 21.39000 31.48300
H  46.48500 21.55500 24.97400
H  48.88300 27.40400 25.42000
H  47.77500 25.27900 33.27900
H  45.61700 23.37500 33.21300
H  47.87500 21.92200 32.97900
H  47.23700 22.62600 34.54300
H  48.57900 23.32900 33.71600
H  44.78400 25.37500 33.79400
H  45.30000 26.73700 33.00700
H  45.35900 27.23100 35.30800
H  47.06400 27.14600 34.90700
H  46.09500 18.74500 29.95600
H  44.26700 18.95000 29.56000
H  45.09600 19.71600 30.92100
H  44.23800 17.48700 26.22200
H  43.69500 18.55000 27.54200
H  45.36600 17.69500 27.61100
H  46.60200 23.63800 23.51800
H  49.12600 25.37300 23.94000
H  49.00800 22.02500 24.02700
H  49.51700 23.43900 23.18800
H  48.32200 22.37800 22.45500
H  47.24600 25.86400 22.22200
H  47.46000 27.17700 23.32400
H  45.18100 27.13800 23.81000
H  45.53600 25.63400 24.66900
H  44.94900 25.62800 23.04400
H  48.59600 30.12700 26.84500
H  49.92000 29.09500 26.41900
H  50.07500 30.14700 27.86800
H  47.20000 28.44700 32.22600
H  49.60300 27.52200 35.73200
H  50.26500 29.13700 35.48700
H  50.98300 27.81200 34.63200
Mg -1.71900 35.11400 25.99200
C  -3.17700 33.35200 28.78300
C  -0.72100 37.56000 28.36200
C  -0.69300 36.90400 23.45300
C  -3.32100 32.90800 23.93100
N  -1.94700 35.38700 28.38100
C  -2.57100 34.51600 29.27600
C  -2.40200 35.04100 30.73100
C  -1.69800 36.42200 30.46600
C  -1.46400 36.51400 28.90800
C  -2.35300 37.57700 31.20000
C  -1.65000 34.02400 31.68200
C  -2.30800 33.41600 32.96700
H  -1.53400 33.29500 34.25600
N  -0.77800 36.90200 25.97600
C  -0.36300 37.69200 27.00800
C  0.26100 38.86000 26.39700
C  0.34400 38.64500 24.96600
C  -0.39300 37.43700 24.71200
C  0.93500 39.96700 27.19500
C  1.09400 39.50700 23.92500
O  1.23500 39.27300 22.71200
C  1.93900 40.68700 24.45300
N  -2.13600 34.97400 23.97200
C  -1.46400 35.80600 23.08200
C  -1.69800 35.38600 21.62200
C  -2.21000 33.92900 21.76700
C  -2.61000 33.88800 23.28300
C  -2.65800 36.24400 20.86200
C  -1.15800 32.84000 21.42800
C  0.20800 32.92000 22.10100
N  -2.93900 33.51300 26.28100
C  -3.55500 32.72700 25.27000
C  -4.28900 31.67400 25.86800
C  -4.16700 31.91600 27.23400
C  -3.34000 33.00800 27.44400
C  -5.11000 30.56900 25.21500
C  -4.57600 31.39700 28.51000
O  -5.24900 30.40500 28.86700
C  -3.97100 32.37000 29.61900
C  -5.09700 32.93500 30.37500
O  -5.78900 33.90300 30.00700
O  -5.32700 32.18400 31.51500
C  -6.36900 32.68500 32.43300
H  -0.31600 38.30100 29.05500
H  -0.26100 37.39900 22.58100
H  -3.89400 32.24100 23.28400
H  -3.43100 35.14900 31.07100
H  -0.70500 36.28100 30.89300
H  -2.57900 38.45400 30.59400
H  -1.55700 37.94100 31.85000
H  -3.16700 37.33200 31.88200
H  -0.67300 34.39700 31.99000
H  -1.33300 33.12900 31.14800
H  -2.67100 32.45100 32.61300
H  -3.22700 33.99500 33.06800
H  2.02100 39.90900 27.11800
H  0.74500 39.77200 28.25100
H  0.55800 40.93200 26.85700
H  2.37300 41.15700 23.57000
H  2.77600 40.42600 25.10000
H  1.28200 41.45700 24.85700
H  -0.72500 35.42900 21.13400
H  -3.09200 33.88300 21.12800
H  -2.06700 36.63100 20.03200
H  -2.95100 37.08900 21.48600
H  -3.55300 35.69400 20.57500
H  -1.10100 32.69000 20.34900
H  -1.60200 31.89500 21.73800
H  0.53500 32.17200 22.82300
H  0.38600 33.89600 22.55200
H  0.97400 32.78100 21.33800
H  -4.66800 30.22700 24.28000
H  -6.09700 30.97600 24.99300
H  -5.32500 29.69900 25.83500
H  -3.39800 31.66600 30.22100
H  -7.23800 33.11000 31.93100
H  -6.04900 33.21500 33.32900
H  -6.83900 31.80300 32.86700

