158

Mg 26.00700 1.49700 29.78500
C  27.97400 1.08700 32.68000
C  23.27200 2.02100 31.90900
C  24.08900 1.30800 27.17900
C  28.75400 0.45100 27.84200
N  25.63900 1.48000 32.11100
C  26.69400 1.47600 33.03200
C  26.16700 1.79400 34.38500
C  24.59800 1.95800 34.25700
C  24.44600 1.84400 32.65200
C  23.81800 0.83200 34.95300
C  26.87100 3.07600 35.03700
C  27.71000 2.90700 36.30900
H  27.22500 3.85800 37.44600
N  23.93300 1.79200 29.54800
C  22.98000 1.90000 30.50600
C  21.68700 2.07400 29.83500
C  21.95100 1.97900 28.47600
C  23.37700 1.67000 28.34600
C  20.37300 2.35800 30.62600
C  20.95300 2.23500 27.34300
O  21.17900 2.36700 26.11600
C  19.51700 1.98900 27.67400
N  26.44600 1.02100 27.73300
C  25.42800 1.08800 26.85800
C  25.91500 0.75400 25.46600
C  27.43900 0.46500 25.59900
C  27.61500 0.63100 27.12900
C  25.31600 -0.48600 24.78400
C  28.32900 1.46600 24.75200
C  29.04400 0.80900 23.52300
N  28.05700 0.87300 30.14000
C  28.98900 0.46500 29.23900
C  30.24800 0.25300 29.98100
C  29.94700 0.43400 31.35000
C  28.59500 0.79900 31.34400
C  31.50000 -0.19600 29.38700
C  30.44900 0.42200 32.64700
O  31.64100 0.27900 33.01600
C  29.21700 0.85400 33.59600
C  28.85700 -0.13400 34.65300
O  28.45500 -1.25900 34.39600
O  29.22700 0.32800 35.85600
C  29.22800 -0.67900 36.96600
H  22.42000 2.26500 32.54800
H  23.49400 1.30700 26.26300
H  29.56700 -0.01500 27.28000
H  26.34500 0.88900 34.96500
H  24.28900 2.96300 34.54300
H  23.88200 -0.06500 34.33700
H  22.78500 1.17800 34.92000
H  24.16500 0.54100 35.94500
H  26.03600 3.71000 35.33600
H  27.43900 3.46800 34.19300
H  28.73700 3.19200 36.08300
H  27.61100 1.89100 36.69200
H  20.02300 3.27100 30.14500
H  20.50300 2.49400 31.70000
H  19.72700 1.48900 30.49300
H  18.98100 1.93800 26.72600
H  19.08500 2.86000 28.16600
H  19.40700 1.08800 28.27900
H  25.56700 1.55700 24.81600
H  27.62500 -0.58000 25.35100
H  26.04100 -1.13100 24.28800
H  24.67300 -0.09900 23.99300
H  24.81500 -1.09500 25.53700
H  29.09500 1.96300 25.34800
H  27.68700 2.27900 24.41500
H  28.81400 1.34800 22.60300
H  28.61000 -0.18900 23.45700
H  30.12400 0.93800 23.58300
H  31.72000 0.23400 28.40900
H  31.32600 -1.26900 29.30100
H  32.39600 -0.17900 30.00800
H  29.44000 1.82800 34.03000
H  28.28900 -0.42300 37.45800
H  30.10000 -0.51500 37.59900
H  29.23200 -1.72900 36.67300
Mg 49.84000 44.91800 42.02500
C  46.56900 45.61400 41.26500
C  49.39200 41.74200 40.68700
C  53.21600 44.58000 42.02500
C  50.27300 48.34300 43.05600
N  48.20900 43.90400 41.00500
C  46.94000 44.38900 40.87400
C  46.16100 43.50900 39.91900
C  46.93400 42.15900 40.04400
C  48.32100 42.65700 40.49500
C  46.43000 41.12900 41.11500
C  46.14000 44.13700 38.44800
C  44.70200 44.24700 37.79200
H  44.32700 43.20400 36.73700
N  51.14300 43.33600 41.46600
C  50.74900 42.10900 41.08600
C  51.91100 41.25300 40.95500
C  53.05100 42.03300 41.31100
C  52.50200 43.38600 41.69600
C  51.90600 39.84700 40.40400
C  54.51800 41.58700 41.26200
O  54.79200 40.48900 40.79200
C  55.60700 42.44800 41.59800
N  51.48900 46.22800 42.59200
C  52.76200 45.87200 42.36200
C  53.78500 46.98400 42.83400
C  52.83300 48.08100 43.34300
C  51.41800 47.55300 42.96600
C  54.93400 46.47200 43.81800
C  53.28600 49.54400 42.88000
C  52.76000 50.77000 43.68800
N  48.70900 46.64300 42.19200
C  48.96400 47.93700 42.67300
C  47.75700 48.69200 42.72700
C  46.75700 47.84500 42.19100
C  47.36100 46.59700 41.89600
C  47.62400 50.12000 43.17900
C  45.28100 47.64800 41.88900
O  44.32000 48.34700 42.07800
C  45.17400 46.22200 41.09800
C  44.04100 45.46200 41.68600
O  44.10000 44.83300 42.74700
O  42.92200 45.58000 40.88200
C  41.72300 45.11700 41.63100
H  49.20100 40.70100 40.41800
H  54.30400 44.49700 41.96700
H  50.50100 49.27100 43.58500
H  45.15100 43.36300 40.30200
H  47.01500 41.66800 39.07400
H  46.05700 40.21100 40.66100
H  45.59400 41.51700 41.69700
H  47.21900 40.86000 41.81800
H  46.56400 43.36100 37.81100
H  46.70800 45.05600 38.30500
H  44.63000 45.20400 37.27500
H  43.95800 44.16100 38.58400
H  52.07400 39.78700 39.32800
H  50.90500 39.43000 40.51400
H  52.65600 39.29300 40.96800
H  55.52300 42.93700 42.56800
H  55.78700 43.17700 40.80800
H  56.55100 41.90400 41.60000
H  54.26500 47.39000 41.94400
H  52.77400 48.15100 44.43000
H  54.93700 46.99600 44.77400
H  55.94400 46.56200 43.41800
H  54.76600 45.41800 44.04100
H  53.00100 49.60200 41.82900
H  54.37100 49.59900 42.79100
H  53.49000 51.57900 43.68800
H  52.69600 50.53900 44.75200
H  51.77200 51.10300 43.37000
H  48.18500 50.29500 44.09700
H  46.58000 50.32200 43.42200
H  48.03100 50.87100 42.50300
H  44.96600 46.48800 40.06200
H  41.56300 45.66200 42.56100
H  41.73400 44.03100 41.71400
H  40.87600 45.45900 41.03600

