158

Mg -2.51800 17.06000 26.80500
C  -2.60500 15.04300 29.53800
C  -3.28000 19.77300 28.84200
C  -2.59800 19.02600 24.03600
C  -2.35800 14.23500 24.73600
N  -3.02900 17.46300 28.92200
C  -2.78500 16.45600 29.89200
C  -3.00200 17.08400 31.28100
C  -3.28200 18.53900 30.96300
C  -3.30000 18.61800 29.51900
C  -4.48200 19.27100 31.73200
C  -1.85700 16.88000 32.31100
C  -2.32400 16.29800 33.63900
H  -1.20000 16.20700 34.66000
N  -2.75900 19.04600 26.53000
C  -3.10500 19.93400 27.46500
C  -3.28500 21.24400 26.82000
C  -3.07900 21.15200 25.47800
C  -2.75800 19.68700 25.28400
C  -3.58300 22.45900 27.55000
C  -3.24100 22.20400 24.40000
O  -3.10800 21.98800 23.20100
C  -3.40400 23.67000 24.79400
N  -2.51200 16.70800 24.75000
C  -2.48200 17.68300 23.74700
C  -2.62200 17.14500 22.36900
C  -2.29900 15.56100 22.54300
C  -2.36200 15.47500 24.09500
C  -4.02700 17.39100 21.64500
C  -0.86300 15.07100 22.24900
C  0.39500 15.90200 22.58400
N  -2.53800 15.02700 27.03400
C  -2.53700 14.02100 26.11200
C  -2.45800 12.74100 26.80300
C  -2.47100 13.03400 28.14200
C  -2.56000 14.43800 28.23900
C  -2.33600 11.36100 26.15500
C  -2.33100 12.51300 29.49100
O  -2.32800 11.35400 29.89700
C  -2.38700 13.73100 30.38300
C  -1.04300 13.77500 31.13600
O  -0.01800 14.16900 30.67400
O  -1.19600 13.24200 32.39600
C  0.13000 13.18600 33.15800
H  -3.39000 20.64700 29.48700
H  -2.60000 19.60600 23.11100
H  -2.19700 13.36000 24.10300
H  -3.90500 16.64300 31.70500
H  -2.40800 19.07900 31.32900
H  -4.17100 20.06700 32.40900
H  -5.03000 18.51100 32.28900
H  -5.20300 19.72600 31.05300
H  -1.22700 17.74800 32.50700
H  -1.17000 16.11600 31.94700
H  -2.41100 15.25900 33.32200
H  -3.31100 16.66400 33.92100
H  -4.56300 22.86600 27.30500
H  -2.72600 23.13200 27.49900
H  -3.65200 22.39500 28.63600
H  -3.43200 24.30000 23.90400
H  -2.55700 23.99800 25.39600
H  -4.33200 23.82400 25.34500
H  -1.79700 17.43500 21.71800
H  -3.10700 14.92100 22.18600
H  -4.63000 16.48400 21.62400
H  -4.01600 17.84200 20.65200
H  -4.51200 18.16200 22.24400
H  -0.89000 15.04700 21.16000
H  -0.62200 14.06600 22.59700
H  0.50900 16.35200 21.59800
H  1.32900 15.34300 22.64500
H  0.28500 16.71900 23.29800
H  -3.33900 11.26700 25.74000
H  -2.15500 10.58100 26.89600
H  -1.59800 11.30600 25.35500
H  -3.22200 13.66400 31.08000
H  -0.17500 12.98100 34.18400
H  0.77500 14.06300 33.10800
H  0.75800 12.32800 32.91900
Mg 8.24300 3.99400 27.39300
C  9.55900 2.25000 30.29500
C  6.15900 5.68200 29.36400
C  6.79100 5.10500 24.65700
C  10.06000 1.66000 25.43500
N  7.86000 3.90100 29.63900
C  8.61600 3.30800 30.59600
C  8.30700 3.91900 31.95400
C  7.12300 4.87500 31.75100
C  7.07000 4.87300 30.12400
C  5.77400 4.53600 32.46200
C  9.68800 4.44700 32.69000
C  9.56200 5.41100 33.93700
H  10.23100 5.00400 35.26200
N  6.80600 5.36200 27.03200
C  6.03200 5.94400 27.98900
C  5.17800 6.99300 27.33300
C  5.42300 6.93800 25.97100
C  6.38800 5.73000 25.81600
C  4.24600 7.90400 28.10800
C  4.86900 7.71400 24.75000
O  5.26100 7.54300 23.55600
C  3.72400 8.53700 25.00300
N  8.30100 3.31500 25.39300
C  7.65100 4.03200 24.44400
C  7.83700 3.45300 23.09000
C  9.09400 2.53400 23.29900
C  9.13000 2.49100 24.81200
C  6.59000 2.66200 22.52900
C  10.39100 3.08800 22.68300
C  11.36400 3.91100 23.47900
N  9.44100 2.23000 27.72300
C  10.12400 1.40500 26.85100
C  10.76700 0.30400 27.65400
C  10.60500 0.65700 28.98100
C  9.75000 1.77400 28.97600
C  11.64900 -0.77400 27.00800
C  11.05200 0.24200 30.29000
O  11.89000 -0.57100 30.56200
C  10.35200 1.27100 31.24400
C  9.63100 0.55900 32.35500
O  8.59900 0.02200 32.16300
O  10.28100 0.58500 33.54700
C  9.68700 -0.03600 34.71900
H  5.58800 6.30400 30.05700
H  6.28500 5.45400 23.75500
H  10.47200 0.97800 24.68900
H  7.84800 3.13300 32.55300
H  7.42600 5.90000 31.96600
H  5.04200 4.08500 31.79200
H  5.28700 5.43400 32.84400
H  5.83400 3.79400 33.25800
H  10.34800 4.79400 31.89600
H  10.14200 3.51600 33.03200
H  8.50100 5.43200 34.18800
H  9.81200 6.45900 33.77400
H  4.19400 8.96000 27.84400
H  4.47300 7.92000 29.17400
H  3.26300 7.43700 28.05200
H  3.39000 8.96500 24.05700
H  4.06700 9.40400 25.56800
H  2.82400 8.01100 25.32000
H  8.11400 4.29300 22.45300
H  8.88000 1.51600 22.97400
H  5.67800 2.85000 23.09600
H  6.82600 1.60300 22.42100
H  6.33400 3.26600 21.65800
H  10.05900 3.66600 21.82100
H  10.96300 2.21200 22.37600
H  12.21800 3.24300 23.58500
H  10.82500 4.35500 24.31700
H  11.73600 4.69500 22.82000
H  11.59400 -0.82600 25.92100
H  11.35600 -1.70400 27.49600
H  12.71700 -0.62700 27.17200
H  11.07200 1.90600 31.76100
H  8.92000 -0.77300 34.48000
H  9.13700 0.73000 35.26600
H  10.49300 -0.44000 35.33200

