158

Mg 41.03100 8.52600 29.87600
C  42.72600 9.92100 32.63500
C  38.60000 7.46800 32.08300
C  39.31800 7.13900 27.25700
C  43.83700 8.75000 28.04800
N  40.69000 8.71800 32.14800
C  41.49500 9.45700 33.02200
C  40.75200 9.53100 34.36100
C  39.53600 8.67200 34.17700
C  39.57300 8.30200 32.69400
C  39.38500 7.33000 34.98900
C  40.62800 11.03100 34.94500
C  39.87400 11.33800 36.24400
H  40.67900 12.14500 37.34600
N  39.17400 7.49000 29.67600
C  38.40300 7.10500 30.71700
C  37.20500 6.48200 30.18500
C  37.33700 6.47000 28.77700
C  38.60000 7.10800 28.47900
C  36.09500 6.08200 31.09200
C  36.53300 5.79000 27.67700
O  36.78200 5.78800 26.45700
C  35.32200 4.98400 28.07000
N  41.51100 7.94300 28.02400
C  40.61600 7.47500 27.11100
C  41.35200 7.04300 25.75500
C  42.72800 7.66900 26.00200
C  42.71000 8.17400 27.43400
C  41.30000 5.54000 25.43600
C  43.06800 8.80100 24.88600
C  42.34900 10.11700 25.20700
N  42.89800 9.34000 30.20000
C  44.01400 9.31400 29.32600
C  45.08500 9.96800 29.99700
C  44.67400 10.28600 31.25500
C  43.33000 9.77300 31.36000
C  46.33700 10.21300 29.33600
C  45.06600 10.83700 32.46500
O  46.02400 11.42600 32.84300
C  43.81500 10.53500 33.53500
C  44.26500 9.69300 34.65200
O  45.02100 8.72600 34.54800
O  43.64700 10.02300 35.79900
C  44.18200 9.34300 36.96800
H  37.88500 7.19000 32.85900
H  38.91200 6.76200 26.31600
H  44.68100 8.67600 27.35900
H  41.30800 9.01800 35.14500
H  38.65700 9.30000 34.32400
H  39.48400 6.54800 34.23600
H  38.39500 7.29200 35.44300
H  40.17700 7.04700 35.68300
H  40.09600 11.65600 34.22800
H  41.61800 11.42100 35.18100
H  39.55400 10.36300 36.61100
H  38.99200 11.96400 36.10500
H  36.25400 6.04400 32.17000
H  35.89100 5.02000 30.95000
H  35.20400 6.68300 30.91200
H  35.62700 4.25500 28.82100
H  35.03300 4.45000 27.16400
H  34.52500 5.62700 28.44300
H  40.82700 7.54500 24.94200
H  43.56100 6.97000 26.08000
H  42.33100 5.19100 25.50400
H  40.96500 5.44500 24.40300
H  40.64400 5.01400 26.12900
H  42.77600 8.57400 23.86100
H  44.15200 8.89500 24.93700
H  41.55300 10.19600 24.46800
H  42.97100 11.01000 25.15600
H  41.80200 10.16300 26.14900
H  46.58700 9.39400 28.66100
H  47.17300 10.28900 30.03000
H  46.18300 11.15000 28.80000
H  43.55000 11.51300 33.93600
H  45.25800 9.23600 37.10200
H  43.72300 8.36100 37.08200
H  43.82000 9.86600 37.85300
Mg -6.49900 25.91100 24.63700
C  -4.68900 27.18900 27.42100
C  -8.26100 24.03600 26.83200
C  -7.76900 24.34400 21.99900
C  -4.36800 27.77000 22.65600
N  -6.40300 25.60500 26.84000
C  -5.60600 26.24800 27.79100
C  -6.03700 25.78300 29.20200
C  -7.01200 24.58700 28.91000
C  -7.30200 24.81200 27.45900
C  -6.42600 23.15200 29.24000
C  -6.70300 26.86300 30.10000
C  -6.13900 26.74000 31.54800
H  -6.07300 25.39300 32.27900
N  -7.76100 24.35000 24.46000
C  -8.52800 23.82100 25.45200
C  -9.64100 23.03100 24.86400
C  -9.43900 23.06200 23.47500
C  -8.26700 23.96000 23.30100
C  -10.63200 22.17600 25.78200
C  -10.20400 22.42700 22.40600
O  -9.96300 22.50700 21.17300
C  -11.40200 21.72300 22.87600
N  -6.27800 26.16700 22.57100
C  -6.79200 25.26900 21.61000
C  -6.24400 25.53200 20.20600
C  -5.24400 26.77300 20.44600
C  -5.30800 26.96100 22.04100
C  -5.61800 24.30600 19.50600
C  -5.64600 28.08500 19.70700
C  -4.53700 28.73500 18.99200
N  -4.87500 27.23800 24.86800
C  -4.15300 27.96600 24.00300
C  -3.19000 28.67900 24.67100
C  -3.34500 28.45000 26.04900
C  -4.40700 27.54200 26.14100
C  -2.24300 29.65400 24.06500
C  -2.85900 28.76300 27.39900
O  -1.90500 29.48600 27.75200
C  -3.76700 27.93400 28.37800
C  -2.85600 27.13400 29.25500
O  -2.38100 26.01500 28.99500
O  -2.71400 27.76200 30.40900
C  -1.87800 27.10700 31.44900
H  -8.95300 23.57000 27.53700
H  -8.26300 23.88200 21.14200
H  -3.73400 28.35400 21.98500
H  -5.14300 25.41900 29.71000
H  -7.89600 24.65600 29.54500
H  -6.25500 22.60700 28.31100
H  -6.86500 22.71100 30.13500
H  -5.39300 23.36000 29.51700
H  -7.77200 26.73700 30.27300
H  -6.35700 27.82200 29.71600
H  -6.97300 27.19000 32.08800
H  -5.19900 27.26700 31.71000
H  -11.62400 22.61400 25.67200
H  -10.44600 22.26000 26.85300
H  -10.58800 21.11400 25.54100
H  -11.15400 20.82600 23.44300
H  -11.96200 21.38900 22.00300
H  -11.90300 22.56900 23.34700
H  -7.07700 25.95200 19.64100
H  -4.21400 26.47700 20.24500
H  -4.57400 24.53700 19.29500
H  -6.24700 24.03600 18.65700
H  -5.55500 23.47900 20.21200
H  -6.20700 28.71100 20.40200
H  -6.44900 27.92100 18.98800
H  -4.47600 29.75700 19.36700
H  -4.74000 28.72200 17.92100
H  -3.59100 28.21800 19.14900
H  -2.37900 29.62400 22.98400
H  -1.23000 29.42600 24.39700
H  -2.62300 30.60100 24.44900
H  -4.31200 28.53300 29.10800
H  -0.85800 27.46300 31.29900
H  -1.99900 26.02400 31.47800
H  -2.15100 27.35600 32.47500

