158

Mg 41.06600 8.31400 29.93200
C  43.06200 9.24500 32.66100
C  38.65000 7.19700 31.99400
C  39.53400 7.02600 27.23200
C  43.72600 9.21200 27.89300
N  41.00100 8.05900 32.02400
C  41.84900 8.64400 33.00200
C  41.24300 8.48900 34.44400
C  39.86600 7.64300 34.20100
C  39.83800 7.52700 32.66300
C  39.54200 6.40700 35.01900
C  40.98300 9.97300 35.06800
C  40.24700 9.94800 36.39100
H  40.81200 10.73600 37.49500
N  39.34200 7.25600 29.63000
C  38.48500 7.00400 30.61100
C  37.37900 6.15200 30.08200
C  37.49300 6.07800 28.67100
C  38.80200 6.88500 28.39700
C  36.28500 5.49300 30.95600
C  36.64200 5.42100 27.59900
O  36.76200 5.62000 26.38200
C  35.49700 4.64700 28.02700
N  41.51000 8.18000 27.80100
C  40.70500 7.61200 26.91300
C  41.26000 7.64800 25.45800
C  42.57600 8.54800 25.72200
C  42.59100 8.69500 27.22900
C  41.63600 6.29900 24.85700
C  42.67200 9.88400 25.04100
C  41.80700 11.06900 25.55400
N  43.03900 9.12200 30.18900
C  44.00500 9.48300 29.28400
C  45.22800 9.92800 29.94800
C  44.83800 10.01300 31.28900
C  43.55200 9.42900 31.37300
C  46.45400 10.35400 29.23500
C  45.28100 10.46000 32.59600
O  46.28800 11.04000 32.98100
C  44.19100 9.87100 33.56800
C  44.91400 8.89200 34.40700
O  45.00000 7.71800 34.18400
O  45.50100 9.53000 35.45600
C  46.35800 8.80100 36.36700
H  37.84100 6.92800 32.67600
H  39.00600 6.56400 26.39600
H  44.59900 9.46300 27.28800
H  42.01700 7.98200 35.02000
H  39.06700 8.36000 34.39000
H  38.51600 6.13200 35.26100
H  40.13400 6.35900 35.93400
H  39.93600 5.52900 34.50700
H  40.34700 10.52400 34.37500
H  41.95300 10.39200 35.33500
H  40.22700 8.89500 36.67100
H  39.25500 10.36600 36.22100
H  35.30200 5.74800 30.56000
H  36.31900 5.66300 32.03200
H  36.24900 4.40700 30.87200
H  34.79700 5.34900 28.48000
H  35.83300 3.84100 28.67900
H  35.09100 4.36200 27.05700
H  40.57000 8.14100 24.77300
H  43.42800 7.94100 25.41500
H  42.63000 6.41800 24.42700
H  40.93100 6.01600 24.07600
H  41.62700 5.69000 25.76100
H  42.44400 9.57300 24.02200
H  43.73400 10.12400 25.07900
H  42.40800 11.93300 25.83800
H  41.07200 10.81000 26.31600
H  41.17600 11.37900 24.72100
H  46.80000 9.66400 28.46500
H  47.18700 10.20500 30.02800
H  46.47900 11.32400 28.73800
H  43.79200 10.56900 34.30400
H  46.64800 7.84000 35.94300
H  45.84500 8.67800 37.32100
H  47.27800 9.38100 36.43800
Mg 48.41500 34.33500 27.34500
C  46.92000 33.03600 30.11300
C  49.01100 37.24200 29.14500
C  49.31700 35.78700 24.42000
C  47.53700 31.50700 25.55300
N  48.14500 35.00600 29.51800
C  47.52500 34.28300 30.46800
C  47.64000 35.01700 31.83800
C  47.91200 36.52800 31.29200
C  48.47600 36.24400 29.95200
C  46.65800 37.52300 31.30800
C  48.75100 34.47200 32.67500
C  48.58000 34.52000 34.21100
H  47.51600 35.37400 34.87400
N  49.02300 36.20900 26.82700
C  49.26900 37.25100 27.70900
C  49.98000 38.30700 27.09100
C  49.94800 38.03500 25.67800
C  49.41000 36.63000 25.59300
C  50.41000 39.54100 27.83100
C  50.47600 38.82200 24.49300
O  50.30200 38.43700 23.34400
C  51.06300 40.20800 24.65500
N  48.42300 33.72000 25.28100
C  48.87700 34.48800 24.28800
C  48.76200 33.77300 22.92300
C  48.18400 32.44200 23.31700
C  48.12600 32.51600 24.78300
C  47.96400 34.52200 21.77700
C  48.96900 31.24500 22.76300
C  50.16500 30.58200 23.47600
N  47.41700 32.62500 27.65100
C  47.11700 31.53300 26.89800
C  46.44100 30.56400 27.70300
C  46.21700 31.12300 28.92800
C  46.84500 32.38300 28.85600
C  45.95800 29.19000 27.28400
C  45.58600 30.86400 30.14800
O  44.90000 29.89300 30.60600
C  45.90000 32.18900 30.99600
C  46.20100 31.80300 32.40000
O  47.23300 31.23600 32.85300
O  45.06500 32.21900 33.09200
C  44.80900 31.75500 34.44100
H  49.26100 38.15600 29.68900
H  49.66900 36.26400 23.50300
H  47.43900 30.52100 25.09400
H  46.73000 34.78600 32.39100
H  48.71800 36.99100 31.86100
H  46.45000 37.78700 30.27100
H  47.03300 38.43000 31.78300
H  45.79500 37.14900 31.85900
H  49.67100 34.99700 32.41600
H  48.83300 33.41400 32.42700
H  49.63600 34.66100 34.43900
H  48.39700 33.47200 34.44700
H  50.72000 39.25100 28.83500
H  49.61700 40.27100 27.99800
H  51.28300 40.05900 27.43400
H  50.33200 40.92200 25.03500
H  51.61900 40.60200 23.80500
H  51.80300 40.15600 25.45400
H  49.77100 33.57800 22.56000
H  47.15800 32.40300 22.95200
H  48.65100 34.57500 20.93300
H  47.55700 35.50900 21.99600
H  47.08200 33.94500 21.49900
H  49.27700 31.47100 21.74300
H  48.20600 30.46700 22.73000
H  50.43400 31.14700 24.36800
H  50.98700 30.49800 22.76400
H  49.91500 29.54700 23.70800
H  46.35300 28.91000 26.30700
H  44.87900 29.13200 27.14100
H  46.27500 28.40900 27.97500
H  44.96700 32.74500 30.90600
H  44.70600 32.66700 35.02900
H  45.50800 31.04800 34.88900
H  43.87300 31.24700 34.20800

