158

Mg 8.93200 3.81300 27.08900
C  10.02900 2.33800 30.01800
C  6.86700 5.81100 29.08700
C  7.68600 5.07400 24.27700
C  10.66100 1.39100 25.26000
N  8.41400 3.94300 29.30100
C  9.15200 3.34300 30.29900
C  8.73800 3.88800 31.66400
C  7.55200 4.78900 31.30700
C  7.57000 4.85600 29.86200
C  6.14100 4.27000 31.74700
C  9.97100 4.62300 32.25800
C  10.39700 4.05400 33.60000
H  10.84100 4.96500 34.73100
N  7.53800 5.25400 26.76800
C  6.86600 6.03700 27.67500
C  6.03900 7.03300 26.97700
C  6.48100 6.96800 25.64900
C  7.26600 5.73800 25.51700
C  5.11100 7.99300 27.62000
C  6.18600 7.93400 24.57000
O  6.55800 7.75000 23.41800
C  5.51500 9.16100 24.93500
N  9.18500 3.37200 25.05900
C  8.61700 4.05000 24.10200
C  9.10800 3.52800 22.75100
C  10.18900 2.54300 23.03700
C  9.96400 2.33900 24.58600
C  7.82100 3.01800 22.05500
C  11.68500 3.02600 22.70500
C  12.55900 2.08100 21.89800
N  10.05000 2.04500 27.51500
C  10.79400 1.23400 26.69500
C  11.67400 0.33800 27.44200
C  11.31000 0.64300 28.79900
C  10.37200 1.73500 28.78300
C  12.66200 -0.56200 26.88800
C  11.62300 0.46000 30.16700
O  12.48500 -0.30100 30.58600
C  10.85500 1.53300 31.03200
C  10.02800 0.69400 31.91700
O  8.83300 0.33000 31.72700
O  10.78200 0.51500 33.08900
C  9.99400 -0.30200 34.05300
H  6.33000 6.49900 29.74300
H  7.28400 5.51800 23.36400
H  11.12500 0.69300 24.56000
H  8.42100 3.11200 32.36200
H  7.68600 5.76900 31.76400
H  5.95500 4.69300 32.73400
H  6.37400 3.22200 31.93500
H  5.24400 4.39400 31.14000
H  9.83400 5.70400 32.22900
H  10.80200 4.43500 31.57800
H  11.30600 3.47200 33.44800
H  9.62700 3.37200 33.96100
H  4.86300 7.60200 28.60700
H  4.17400 8.10100 27.07400
H  5.55600 8.98200 27.73700
H  4.48600 8.91700 25.19900
H  5.49800 9.80700 24.05800
H  6.06100 9.70200 25.70800
H  9.39800 4.39600 22.15900
H  9.93600 1.56900 22.61700
H  6.92900 2.98000 22.68000
H  7.93300 2.06500 21.53900
H  7.63900 3.76500 21.28300
H  12.23800 3.29700 23.60400
H  11.58800 3.91500 22.08200
H  12.89000 2.59200 20.99300
H  11.99700 1.18700 21.62900
H  13.40900 1.73100 22.48400
H  12.21700 -1.22900 26.15000
H  13.06400 -1.20200 27.67300
H  13.48100 -0.02100 26.41300
H  11.51700 2.18200 31.60600
H  9.39700 -1.06900 33.55900
H  9.37700 0.29100 34.72800
H  10.75500 -0.75300 34.69000
Mg 26.13300 1.15300 28.93000
C  27.99400 1.06100 31.86100
C  23.29800 1.21300 30.87100
C  24.52800 1.56700 26.16400
C  29.00600 0.63800 27.11700
N  25.72300 1.08700 31.12900
C  26.68400 1.23100 32.11200
C  26.00400 1.39000 33.50400
C  24.48700 1.17700 33.19100
C  24.46400 1.14100 31.62600
C  23.88100 -0.08000 33.89400
C  26.32800 2.73500 34.20900
C  27.01500 2.56600 35.63300
H  26.60300 3.51700 36.71000
N  24.16400 1.25100 28.57300
C  23.12200 1.22900 29.48900
C  21.89700 1.43400 28.75200
C  22.25700 1.73700 27.42700
C  23.73200 1.47100 27.32200
C  20.55400 1.48300 29.40700
C  21.42700 2.41500 26.29500
O  21.87100 2.71400 25.23400
C  20.05700 2.75700 26.72200
N  26.67400 0.94800 26.90000
C  25.82500 1.42000 25.98500
C  26.47100 1.52600 24.58100
C  27.98300 1.32900 24.90400
C  27.93600 0.87100 26.36700
C  25.86700 0.48800 23.56400
C  28.76600 2.68400 24.92500
C  30.17900 2.61400 24.29500
N  28.11000 0.75600 29.35700
C  29.12000 0.50800 28.52800
C  30.36100 0.18400 29.28900
C  29.97700 0.54100 30.56700
C  28.57500 0.77700 30.58600
C  31.68300 -0.18000 28.76800
C  30.49500 0.58100 31.90500
O  31.61700 0.34300 32.34300
C  29.26500 0.99700 32.78400
C  29.16900 0.06500 33.91100
O  28.62800 -1.00200 33.97100
O  29.76200 0.67700 34.98300
C  29.88100 -0.11600 36.22400
H  22.41200 1.17800 31.50800
H  24.06800 1.84200 25.21300
H  29.99200 0.59300 26.65000
H  26.44900 0.61900 34.13200
H  23.98900 2.08400 33.53500
H  24.71500 -0.72500 34.17200
H  23.37100 -0.55800 33.05800
H  23.17900 0.13000 34.70100
H  25.46100 3.37000 34.39100
H  26.96700 3.30800 33.53700
H  28.05600 2.82600 35.44600
H  26.87200 1.54900 36.00100
H  19.87500 2.32500 29.27600
H  20.49900 1.27800 30.47700
H  20.03200 0.62900 28.97400
H  19.46900 3.18500 25.91000
H  20.14200 3.58500 27.42600
H  19.51000 1.88000 27.06900
H  26.16000 2.53000 24.29000
H  28.51600 0.61100 24.28100
H  25.21400 -0.24100 24.04200
H  26.71400 0.01600 23.06500
H  25.37800 1.01000 22.74100
H  28.82000 3.08700 25.93700
H  28.17600 3.42000 24.38100
H  30.71200 3.30000 24.95400
H  30.25500 3.01500 23.28500
H  30.51200 1.58300 24.41500
H  32.48900 0.47900 29.09200
H  31.78100 -0.18900 27.68300
H  31.90700 -1.17500 29.15300
H  29.41700 1.94200 33.30500
H  30.41300 -1.05600 36.07900
H  28.85600 -0.36200 36.49900
H  30.45100 0.30300 37.05300

