158

Mg 48.17100 15.72200 28.94900
C  46.02300 15.62800 31.61400
C  50.24800 17.76500 30.65700
C  50.07600 16.08700 26.17100
C  45.70400 14.14300 26.95800
N  48.16500 16.51300 30.89900
C  47.22000 16.38400 31.85600
C  47.74600 16.84100 33.25900
C  49.02100 17.76300 32.86900
C  49.16000 17.37100 31.35400
C  48.79000 19.31500 32.93500
C  48.08900 15.61100 34.14400
C  47.89200 15.73500 35.69100
H  47.33500 17.05700 36.16700
N  49.95900 16.72400 28.54700
C  50.73300 17.40000 29.41800
C  51.98600 17.66700 28.84200
C  51.95500 17.29900 27.49700
C  50.54800 16.73700 27.32300
C  53.10800 18.19500 29.62700
C  53.10500 17.35900 26.45300
O  52.93700 16.85800 25.32700
C  54.36900 18.04800 26.71500
N  47.96600 15.19800 26.90600
C  48.84700 15.59200 25.91800
C  48.43500 15.05600 24.51300
C  47.13000 14.23000 24.86700
C  46.87400 14.53000 26.37200
C  48.31600 16.20500 23.53600
C  47.30200 12.70700 24.74500
C  46.53300 12.15000 23.52000
N  46.29500 15.09500 29.21500
C  45.43300 14.45900 28.30100
C  44.18700 14.20600 29.00300
C  44.38500 14.60600 30.34200
C  45.69600 15.10900 30.40700
C  43.01100 13.68000 28.31800
C  43.74100 14.56300 31.64200
O  42.65900 14.02700 31.96600
C  44.88300 15.24900 32.61800
C  44.23800 16.36600 33.38100
O  44.32700 17.56700 33.11100
O  43.60500 15.86100 34.50300
C  42.88900 16.85400 35.27300
H  50.85900 18.38400 31.31700
H  50.69100 16.18200 25.27300
H  44.96200 13.60400 26.36500
H  47.03300 17.55900 33.66700
H  49.91500 17.35400 33.34100
H  49.30400 19.87800 33.71300
H  47.74900 19.33500 33.25800
H  48.85200 19.78300 31.95200
H  49.15500 15.39300 34.08000
H  47.45900 14.78300 33.82000
H  48.85400 15.47400 36.13200
H  47.18800 14.93800 35.93100
H  53.95900 17.51400 29.64700
H  52.83800 18.42500 30.65700
H  53.37100 19.22600 29.38600
H  54.17100 19.08000 27.00500
H  54.87400 18.20200 25.76100
H  55.04300 17.55900 27.41800
H  49.31100 14.45200 24.27600
H  46.28300 14.60000 24.28900
H  47.32000 16.33400 23.11200
H  48.90600 15.88900 22.67600
H  48.65900 17.17700 23.88900
H  46.85800 12.17900 25.58900
H  48.34700 12.42600 24.61900
H  46.90400 11.13100 23.40200
H  46.53700 12.84500 22.68000
H  45.50600 11.90400 23.79100
H  43.13500 12.63900 28.02000
H  42.85100 14.24600 27.40000
H  42.08400 13.91000 28.84300
H  45.26000 14.57700 33.38900
H  41.93700 17.02300 34.77000
H  43.35600 17.83900 35.27500
H  42.80400 16.48700 36.29600
Mg -4.68600 25.55100 25.78800
C  -3.79000 27.10300 28.72300
C  -6.63200 23.37000 27.55200
C  -5.06900 23.63900 22.96500
C  -2.55000 27.63600 24.02000
N  -5.05000 25.27700 27.96500
C  -4.58300 26.02400 28.97100
C  -5.20500 25.63600 30.34200
C  -6.08300 24.36900 29.99600
C  -5.94200 24.32900 28.41300
C  -5.59200 23.08600 30.64600
C  -6.01100 26.83600 31.08100
C  -5.75700 26.91900 32.64300
H  -5.16600 25.65600 33.35200
N  -5.69500 23.79600 25.32800
C  -6.46400 23.07200 26.19300
C  -7.06200 21.91900 25.54500
C  -6.54400 21.96200 24.19500
C  -5.73500 23.18900 24.10900
C  -7.96000 20.90800 26.30300
C  -6.75600 21.02300 23.10000
O  -6.22900 21.05900 21.99800
C  -7.59800 19.84900 23.39000
N  -4.09800 25.68500 23.72600
C  -4.37200 24.82700 22.77200
C  -3.60600 25.14900 21.43700
C  -3.05400 26.56100 21.74000
C  -3.20600 26.68900 23.27200
C  -2.68400 24.00700 20.95000
C  -3.70000 27.66100 20.83100
C  -2.80300 28.31100 19.80700
N  -3.40000 26.98200 26.26800
C  -2.58700 27.75500 25.43800
C  -1.85400 28.75300 26.18800
C  -2.29400 28.45300 27.52200
C  -3.23200 27.44700 27.50100
C  -0.92200 29.77800 25.58500
C  -2.05700 28.85500 28.88000
O  -1.36200 29.73300 29.41800
C  -2.95100 27.95700 29.76000
C  -2.13900 27.09700 30.68100
O  -1.62700 26.03900 30.33100
O  -1.90300 27.80400 31.85300
C  -1.12900 27.06600 32.83000
H  -7.25600 22.68300 28.12600
H  -5.13200 23.08600 22.02600
H  -1.87900 28.34700 23.53500
H  -4.35000 25.34100 30.95000
H  -7.10600 24.64900 30.24700
H  -5.96800 22.29600 29.99500
H  -6.09600 22.78300 31.56400
H  -4.50600 23.11800 30.55300
H  -7.05800 26.76000 30.78800
H  -5.59900 27.74200 30.63600
H  -6.75200 27.07700 33.06000
H  -5.26200 27.86400 32.86400
H  -7.63700 19.89500 26.06600
H  -9.00700 20.95800 26.00200
H  -8.00200 20.98400 27.39000
H  -7.04600 19.24000 24.10500
H  -7.81900 19.27100 22.49200
H  -8.55200 20.23500 23.74900
H  -4.22600 25.23800 20.54600
H  -1.98700 26.36200 21.63800
H  -1.65300 24.34600 20.85400
H  -3.07200 23.72700 19.97000
H  -2.75800 23.10900 21.56400
H  -4.10800 28.43800 21.47700
H  -4.60400 27.31700 20.32800
H  -3.45000 28.30800 18.93000
H  -1.90900 27.79400 19.45900
H  -2.49000 29.27700 20.20300
H  -1.65400 30.53000 25.28900
H  -0.47100 29.41700 24.66100
H  -0.19000 29.97500 26.36700
H  -3.58300 28.72300 30.20900
H  -0.28200 26.47700 32.47800
H  -1.82500 26.39600 33.33400
H  -0.74700 27.88800 33.43600

