158

Mg 26.13200 50.56800 26.36200
C  23.62300 51.22000 28.75800
C  28.09000 49.23700 28.77000
C  28.50900 50.07900 24.02200
C  24.04400 51.95300 23.98600
N  25.88300 50.32300 28.56400
C  24.82100 50.58800 29.35000
C  25.12500 50.27200 30.82900
C  26.60900 49.87900 30.76700
C  26.90200 49.80800 29.23900
C  27.57900 50.84300 31.42900
C  24.09400 49.26300 31.42600
C  23.39000 49.72200 32.70200
H  23.49600 48.90400 34.00400
N  28.04300 49.77600 26.40700
C  28.68000 49.26100 27.50200
C  29.97500 48.72700 27.11400
C  30.11300 49.08100 25.71600
C  28.84800 49.63500 25.29900
C  30.96700 48.03000 28.02000
C  31.32000 48.75600 24.82300
O  31.39200 49.06300 23.62600
C  32.46400 48.03000 25.37900
N  26.30400 50.99900 24.34600
C  27.36700 50.60800 23.53800
C  27.07600 51.05300 22.00800
C  25.61700 51.67600 22.03500
C  25.24400 51.40300 23.52400
C  28.14800 51.95600 21.40300
C  24.62300 51.33300 20.91000
C  23.38900 50.42500 21.21900
N  24.18600 51.34500 26.31900
C  23.53500 51.98500 25.25400
C  22.26500 52.51800 25.71000
C  22.31800 52.32700 27.10000
C  23.44700 51.56700 27.39900
C  21.33600 53.31700 24.83700
C  21.59500 52.60400 28.37000
O  20.61600 53.28700 28.52800
C  22.46800 51.88200 29.45700
C  23.00900 52.99900 30.31800
O  24.02400 53.65900 30.05200
O  22.12300 53.20800 31.34800
C  22.47700 54.11700 32.44200
H  28.68200 48.78200 29.56700
H  29.27000 49.95100 23.24900
H  23.33900 52.49700 23.35300
H  25.03600 51.25000 31.30200
H  26.72500 48.89900 31.23100
H  28.11100 51.35200 30.62500
H  28.29200 50.20700 31.95400
H  27.01700 51.58600 31.99500
H  24.62300 48.34600 31.68400
H  23.47200 48.94900 30.58800
H  22.33800 49.64300 32.42500
H  23.52600 50.79300 32.85600
H  31.13600 46.98600 27.75600
H  30.77700 47.95000 29.09000
H  31.88900 48.61200 28.01900
H  32.21700 47.07700 25.84600
H  32.76500 48.71800 26.16900
H  33.27400 47.79900 24.68700
H  27.02600 50.10600 21.47200
H  25.70500 52.76200 22.06000
H  27.81400 52.95000 21.10600
H  28.34600 51.45000 20.45800
H  29.09500 51.91300 21.94200
H  25.16500 50.90100 20.06800
H  24.34600 52.35300 20.64300
H  23.09900 49.85300 20.33700
H  22.52300 51.00400 21.54000
H  23.73200 49.72400 21.98000
H  20.82300 54.12800 25.35500
H  20.59200 52.68300 24.35400
H  21.80800 53.86400 24.02100
H  21.93900 51.26500 30.18300
H  23.29800 53.65100 32.98600
H  21.66900 54.19000 33.17100
H  22.77500 55.11200 32.11300
Mg 0.03400 43.86900 25.90600
C  2.00100 43.21100 28.74900
C  -2.65100 42.27700 27.53900
C  -1.64600 43.81000 23.07300
C  2.97500 44.66200 24.18500
N  -0.23300 42.79100 27.83600
C  0.64900 42.87500 28.89500
C  0.00200 42.61600 30.26700
C  -1.40400 42.06800 29.85800
C  -1.44200 42.36000 28.30200
C  -1.80200 40.67100 30.25700
C  0.02700 43.87200 31.25700
C  0.34300 43.61000 32.74600
H  0.07400 42.22100 33.50300
N  -1.88800 43.21200 25.35300
C  -2.83400 42.57100 26.17600
C  -4.08900 42.35500 25.38900
C  -3.78100 42.83000 24.07100
C  -2.35200 43.32300 24.10800
C  -5.34000 41.68300 25.97300
C  -4.61600 42.94500 22.84200
O  -4.31000 43.44700 21.79100
C  -5.99100 42.37100 22.94700
N  0.62000 44.24700 23.89900
C  -0.33000 44.32900 22.94800
C  0.17500 44.87500 21.66900
C  1.66100 44.99400 21.93900
C  1.76500 44.61600 23.42500
C  -0.02800 43.92100 20.48000
C  2.20200 46.34200 21.46800
C  2.16200 47.43700 22.59000
N  2.02700 44.12000 26.32800
C  3.16700 44.41700 25.52500
C  4.38600 44.56600 26.32700
C  3.92200 44.08400 27.58500
C  2.58300 43.78400 27.59000
C  5.72000 45.08600 25.96000
C  4.31300 43.75100 28.94300
O  5.41200 43.78300 29.33600
C  3.11500 43.22900 29.74500
C  3.46700 41.88600 30.27700
O  3.49100 40.85600 29.56100
O  3.65200 41.92400 31.66100
C  4.09900 40.63700 32.32900
H  -3.55700 41.89500 28.01500
H  -2.16800 43.83500 22.11500
H  3.76900 45.13300 23.60100
H  0.58700 41.75900 30.60200
H  -2.08700 42.80500 30.28200
H  -2.48200 40.09900 29.62500
H  -2.21400 40.78900 31.25900
H  -0.87900 40.10300 30.37400
H  -0.89700 44.43900 31.14000
H  0.75300 44.53400 30.78400
H  -0.39000 44.26200 33.22200
H  1.37000 43.87800 32.99200
H  -6.15500 42.37500 25.76000
H  -5.30300 41.44900 27.03700
H  -5.40200 40.74700 25.41800
H  -5.83900 41.30800 23.13500
H  -6.49400 42.52100 21.99200
H  -6.58000 42.87300 23.71500
H  -0.43000 45.74700 21.42100
H  2.17500 44.16300 21.45700
H  -0.32400 44.46600 19.58400
H  -0.87700 43.23800 20.48100
H  0.87100 43.45100 20.08100
H  1.70300 46.72000 20.57600
H  3.18200 46.18400 21.01800
H  3.13900 47.88900 22.76100
H  1.71200 47.09400 23.52200
H  1.40200 48.17400 22.33000
H  6.30000 45.30600 26.85600
H  5.64800 46.06800 25.49300
H  6.36100 44.44200 25.35700
H  2.90900 43.87900 30.59500
H  4.06700 39.85600 31.56900
H  3.41800 40.40000 33.14600
H  5.12800 40.87300 32.60100

