158

Mg 36.20900 3.01500 30.18800
C  33.78900 3.90600 32.61500
C  38.46000 2.48400 32.66500
C  38.49500 2.62000 27.82900
C  33.75300 3.41200 27.71200
N  36.04000 3.15300 32.39900
C  35.05500 3.61000 33.19400
C  35.51200 3.53400 34.65000
C  37.01700 3.41500 34.57600
C  37.19500 2.94900 33.11600
C  37.77500 4.82800 34.83700
C  34.77000 2.29400 35.24200
C  34.11800 2.47900 36.58200
H  34.95500 3.31100 37.51400
N  38.25100 2.50700 30.24500
C  38.98100 2.32100 31.37100
C  40.33400 2.05000 31.00300
C  40.34100 2.07700 29.58000
C  38.94600 2.39600 29.14700
C  41.39100 1.72100 32.07500
C  41.45800 1.80500 28.63700
O  41.31700 1.76000 27.41800
C  42.70600 1.26600 29.27600
N  36.17200 3.06400 28.07900
C  37.19700 2.80900 27.36300
C  36.92300 2.89600 25.87100
C  35.35200 2.86000 25.84100
C  35.01900 3.12600 27.32000
C  37.53000 4.14500 25.23300
C  34.69200 1.45800 25.40500
C  33.47300 1.65100 24.43900
N  34.18700 3.65600 30.12200
C  33.30600 3.71400 29.08100
C  31.97900 4.09400 29.58700
C  32.14500 4.20800 30.97400
C  33.46000 3.89000 31.23400
C  30.67200 4.13400 28.81300
C  31.42700 4.42400 32.20000
O  30.22600 4.64500 32.37900
C  32.44600 4.18000 33.34100
C  32.54000 5.35800 34.28800
O  33.24400 6.36500 34.18000
O  31.79700 5.16500 35.42800
C  31.79100 6.24700 36.43100
H  39.22500 2.60200 33.43600
H  39.22400 2.56100 27.01700
H  33.05600 3.39900 26.87100
H  35.33700 4.46600 35.18600
H  37.35000 2.67000 35.29900
H  37.06600 5.63300 34.64400
H  38.53900 4.96500 34.07200
H  38.22700 4.93200 35.82300
H  35.51400 1.50400 35.34500
H  33.95800 1.96600 34.59200
H  33.94600 1.53200 37.09400
H  33.16400 2.97100 36.39700
H  41.77800 2.64200 32.51000
H  42.31300 1.25400 31.72800
H  40.98800 0.98500 32.77000
H  43.36700 1.04700 28.43800
H  42.33000 0.35600 29.74500
H  43.07400 2.06900 29.91500
H  37.37400 1.97700 25.49600
H  34.91800 3.68800 25.28100
H  38.04600 4.90300 25.82300
H  36.76400 4.70100 24.69100
H  38.31700 3.88200 24.52600
H  34.31500 0.87300 26.24400
H  35.49500 0.91200 24.90900
H  33.39600 2.58800 23.88800
H  32.59700 1.56600 25.08100
H  33.34700 0.94600 23.61800
H  29.78100 4.44300 29.36000
H  30.51800 3.17900 28.31200
H  30.76800 4.72600 27.90200
H  32.31300 3.30900 33.98300
H  32.61600 6.07400 37.12200
H  30.81300 6.15400 36.90300
H  31.79500 7.26000 36.02800
Mg 54.64900 24.58600 45.02100
C  51.83000 26.47900 44.03300
C  52.91800 21.80900 43.77400
C  57.47100 22.73200 45.16900
C  56.36600 27.41900 45.76700
N  52.68600 24.26200 43.91600
C  51.64100 25.13900 43.69400
C  50.36900 24.45200 43.18900
C  50.72500 22.92600 43.45600
C  52.26700 23.04000 43.67600
C  49.86100 22.28600 44.54600
C  50.00900 24.76400 41.73100
C  48.53000 24.67400 41.52700
H  48.17800 24.38400 40.09200
N  55.18400 22.52300 44.63800
C  54.23900 21.54800 44.17200
C  54.86600 20.29500 44.18000
C  56.27700 20.45200 44.43000
C  56.36300 21.93900 44.81800
C  54.06800 19.04000 44.03400
C  57.27500 19.43300 44.40300
O  57.04500 18.35000 43.92500
C  58.65600 19.71200 44.93400
N  56.62300 25.05400 45.19900
C  57.63500 24.13100 45.33400
C  59.00800 24.76100 45.72600
C  58.56800 26.20900 46.03800
C  57.07200 26.26600 45.61600
C  59.69400 23.95900 46.93300
C  59.38600 27.25700 45.20600
C  59.94500 28.40200 46.05600
N  54.17200 26.53700 45.16600
C  54.96400 27.59600 45.50100
C  54.15800 28.81200 45.58000
C  52.90500 28.36700 45.06100
C  52.96600 27.01100 44.74900
C  54.65000 30.11900 45.96900
C  51.60700 28.90200 44.61300
O  51.23400 30.06800 44.61300
C  50.94100 27.68000 43.90800
C  50.70800 28.13600 42.53700
O  51.57400 28.32200 41.66100
O  49.38000 28.44400 42.36200
C  48.98900 28.93200 41.06000
H  52.27900 20.93900 43.61300
H  58.44600 22.24800 45.25300
H  56.99500 28.30800 45.84400
H  49.47200 24.85200 43.66200
H  50.70500 22.36600 42.52000
H  49.37100 21.45000 44.04700
H  49.03000 22.84900 44.97200
H  50.54100 21.98000 45.34100
H  50.48800 23.96200 41.16900
H  50.25100 25.78700 41.44400
H  48.28100 25.71700 41.72600
H  48.01700 24.03300 42.24300
H  53.44100 19.02000 43.14300
H  53.29400 18.98800 44.79900
H  54.55800 18.07500 44.16600
H  59.05500 20.46000 44.24900
H  59.13300 18.73200 44.90600
H  58.63100 20.07200 45.96300
H  59.55100 24.70100 44.78300
H  58.63900 26.28000 47.12400
H  60.58200 23.46300 46.54200
H  58.96800 23.26700 47.36000
H  60.07500 24.60100 47.72700
H  58.73400 27.83100 44.54700
H  60.11600 26.76400 44.56400
H  59.66900 28.26200 47.10100
H  59.63900 29.38800 45.70800
H  61.02500 28.29300 45.96300
H  55.65200 30.30200 45.57900
H  54.67800 30.24800 47.05100
H  54.01700 30.90800 45.56200
H  49.96600 27.43700 44.33000
H  48.09900 29.55300 40.95700
H  48.71200 28.02600 40.52000
H  49.81500 29.32800 40.46900

