158

Mg -1.42300 17.50200 27.17900
C  -1.86000 15.29600 29.83200
C  -1.73900 20.14300 29.52200
C  -1.22200 19.58500 24.67600
C  -1.65900 14.76100 24.94300
N  -1.82000 17.68300 29.50000
C  -1.83300 16.61700 30.35300
C  -1.99300 17.10900 31.81400
C  -1.93000 18.66900 31.63900
C  -1.89500 18.83900 30.11900
C  -3.17900 19.31700 32.28800
C  -0.94600 16.58700 32.85300
C  -0.54700 17.44800 34.05800
H  -0.57000 16.79900 35.44400
N  -1.40700 19.47800 27.13300
C  -1.54500 20.44200 28.13500
C  -1.39800 21.74900 27.63100
C  -1.15400 21.56200 26.22200
C  -1.20400 20.18300 25.91800
C  -1.76500 23.00000 28.34100
C  -0.86900 22.63200 25.07700
O  -0.42300 22.45200 23.92000
C  -0.88000 24.03000 25.48500
N  -1.48100 17.26100 25.16300
C  -1.32800 18.28100 24.34300
C  -1.35900 17.81100 22.84700
C  -1.45100 16.26900 22.95000
C  -1.46600 16.02300 24.44500
C  -2.51500 18.35400 21.96300
C  -0.34000 15.52800 22.20300
C  1.01900 15.45300 22.91000
N  -1.62000 15.45400 27.29700
C  -1.77900 14.46200 26.33400
C  -1.90400 13.13900 26.95800
C  -1.90800 13.47800 28.31200
C  -1.73300 14.87800 28.46600
C  -2.32100 11.82600 26.28000
C  -2.02000 12.88200 29.59100
O  -2.15800 11.70900 29.96000
C  -2.04500 14.00700 30.61600
C  -0.94100 13.74600 31.56000
O  0.23200 13.94900 31.25800
O  -1.43400 13.27400 32.69800
C  -0.35800 12.95400 33.67600
H  -1.51100 20.90200 30.27400
H  -1.06900 20.29500 23.86100
H  -1.69600 13.93100 24.23500
H  -2.97200 16.74600 32.13000
H  -1.02000 19.18700 31.94300
H  -4.04300 19.38700 31.62700
H  -2.90000 20.35800 32.45600
H  -3.63200 18.82100 33.14600
H  -0.07100 16.09900 32.42200
H  -1.52200 15.71600 33.16500
H  -1.17100 18.33800 33.98100
H  0.51400 17.68800 33.98400
H  -1.09000 23.85600 28.31900
H  -2.12400 22.79200 29.34900
H  -2.65800 23.26400 27.77500
H  -0.66700 24.63400 24.60300
H  0.09500 24.18200 25.94900
H  -1.77100 24.37800 26.00700
H  -0.35600 18.01300 22.47200
H  -2.40700 15.97200 22.51900
H  -2.89700 19.22700 22.49200
H  -3.37800 17.72000 21.75700
H  -2.01400 18.69900 21.05800
H  -0.37000 15.96400 21.20500
H  -0.80300 14.54300 22.13600
H  1.10600 14.44500 23.31700
H  0.95900 16.21900 23.68300
H  1.80000 15.58500 22.16200
H  -2.82800 11.14600 26.96400
H  -1.43000 11.29900 25.93900
H  -3.05400 12.17200 25.55100
H  -2.99800 13.92900 31.13900
H  -0.69500 12.59200 34.64700
H  0.28700 13.81100 33.87100
H  0.25900 12.19200 33.20000
Mg -4.24400 25.45300 26.31800
C  -3.01900 26.29600 29.35800
C  -6.46400 23.14200 27.93800
C  -5.03500 23.92400 23.34400
C  -1.90900 27.46000 24.82400
N  -4.58800 24.77700 28.45300
C  -3.98100 25.32500 29.48800
C  -4.51900 24.68900 30.83400
C  -5.44300 23.53800 30.25900
C  -5.52400 23.81200 28.76900
C  -4.87800 22.14900 30.68100
C  -5.34700 25.82900 31.57200
C  -5.37200 25.90700 33.10800
H  -4.64600 24.76300 33.83300
N  -5.67700 23.87300 25.75100
C  -6.55400 23.16100 26.52400
C  -7.39300 22.30800 25.67700
C  -6.94800 22.42300 24.34400
C  -5.82500 23.38500 24.44400
C  -8.37700 21.39900 26.34900
C  -7.33600 21.69100 23.10600
O  -6.75400 21.90100 21.99500
C  -8.38000 20.60300 23.18800
N  -3.70000 25.71300 24.40100
C  -4.10600 24.96600 23.31000
C  -3.37500 25.33700 22.05500
C  -2.61100 26.71700 22.54100
C  -2.68900 26.59400 24.02400
C  -2.52800 24.19400 21.43200
C  -3.10700 28.12000 21.97800
C  -1.98400 29.28300 21.69000
N  -2.72200 26.66500 26.85600
C  -1.90800 27.44200 26.20100
C  -1.07600 28.23000 27.11000
C  -1.48300 27.82300 28.33900
C  -2.49500 26.92500 28.18500
C  0.02200 29.19900 26.85600
C  -1.21900 27.98300 29.73000
O  -0.39300 28.64000 30.38700
C  -2.21600 26.99200 30.46300
C  -1.35100 26.19600 31.35900
O  -0.87300 25.13500 30.99500
O  -1.12700 26.77800 32.55900
C  -0.33300 25.83600 33.43100
H  -7.05200 22.37800 28.45100
H  -5.15000 23.69700 22.28200
H  -1.21000 28.20300 24.43400
H  -3.69200 24.28600 31.42000
H  -6.42700 23.73800 30.68400
H  -3.96600 22.13300 31.27800
H  -4.83500 21.58900 29.74700
H  -5.65500 21.72300 31.31500
H  -6.37600 25.76200 31.21900
H  -5.11800 26.83300 31.21700
H  -6.44400 25.95200 33.29700
H  -4.90200 26.86800 33.31800
H  -9.21100 21.38600 25.64800
H  -8.73300 21.66600 27.34400
H  -7.78300 20.49800 26.50200
H  -9.31600 20.92100 23.64800
H  -8.01700 19.74300 23.75100
H  -8.52100 20.18100 22.19300
H  -4.16800 25.37400 21.30800
H  -1.55400 26.55500 22.33200
H  -1.56400 24.68800 21.31900
H  -3.00300 24.00500 20.46900
H  -2.47500 23.23400 21.94600
H  -3.78500 28.54600 22.71800
H  -3.58300 27.85400 21.03300
H  -0.99300 28.84200 21.79800
H  -2.24700 30.07800 22.38800
H  -2.06500 29.77000 20.71800
H  -0.18400 29.68200 25.90000
H  0.96100 28.64600 26.84900
H  0.01100 29.86700 27.71700
H  -2.85300 27.58600 31.11900
H  0.63700 25.64000 32.97300
H  -0.96600 24.95500 33.53900
H  -0.09200 26.26800 34.40200

