158

Mg 30.13600 57.63600 40.90300
C  27.13800 56.14400 39.91200
C  31.83200 55.14000 39.26300
C  32.71500 59.67000 40.63700
C  28.20700 60.26200 42.16100
N  29.61400 55.87500 39.70000
C  28.26300 55.47600 39.36800
C  28.31100 54.26400 38.44600
C  29.83700 53.76300 38.61000
C  30.48600 54.96300 39.23100
C  30.09300 52.62000 39.59100
C  27.88200 54.68900 37.00800
C  26.70500 53.84700 36.51400
H  26.48600 53.88900 35.00300
N  32.02100 57.38400 40.09700
C  32.61600 56.24700 39.57300
C  33.99700 56.41800 39.55900
C  34.27700 57.79300 39.97900
C  32.95900 58.34300 40.33500
C  34.93200 55.45700 38.99200
C  35.66000 58.40200 39.87600
O  36.59700 57.71700 39.59300
C  35.93900 59.91100 40.12100
N  30.39500 59.76300 41.17600
C  31.52700 60.38300 41.00200
C  31.45900 61.89900 41.42600
C  30.16900 61.95400 42.22800
C  29.51600 60.61500 41.79900
C  32.63300 62.42600 42.22500
C  29.29800 63.17300 41.71000
C  28.31700 63.77900 42.66900
N  28.08100 58.10300 41.21600
C  27.43700 59.15900 41.83100
C  26.02300 58.98100 41.77600
C  25.87200 57.78400 41.08200
C  27.15400 57.32100 40.71400
C  24.98000 59.87100 42.37800
C  24.87800 56.81300 40.60300
O  23.69700 56.78300 40.87400
C  25.72500 55.67900 39.80800
C  25.34000 54.37100 40.34800
O  25.82800 53.81700 41.32300
O  24.39200 53.81500 39.52900
C  23.94800 52.47800 39.90000
H  32.36200 54.26400 38.88300
H  33.57200 60.32200 40.46100
H  27.68400 61.03100 42.73300
H  27.63600 53.47800 38.78600
H  30.25700 53.63700 37.61200
H  30.63400 51.84200 39.05200
H  29.24800 52.03100 39.94600
H  30.75500 52.83400 40.43000
H  28.71500 54.42100 36.35800
H  27.69200 55.75800 36.91400
H  25.86000 54.28700 37.04300
H  26.98500 52.82200 36.75900
H  35.49000 55.77500 38.11100
H  34.46300 54.48800 38.82000
H  35.69300 55.29600 39.75600
H  35.55700 60.24400 41.08600
H  35.34200 60.41000 39.35800
H  36.94300 60.30800 39.97200
H  31.33200 62.50600 40.53000
H  30.09300 61.88400 43.31300
H  33.47900 61.78300 41.98500
H  32.36200 62.55100 43.27300
H  32.83100 63.37100 41.71900
H  28.71900 62.89700 40.82800
H  30.01200 63.93400 41.39800
H  28.46200 63.49700 43.71200
H  27.30800 63.60300 42.29700
H  28.45900 64.85900 42.65700
H  24.90800 60.86900 41.94500
H  25.24900 59.93700 43.43200
H  24.03000 59.39800 42.13100
H  25.45800 55.42400 38.78200
H  24.34800 51.78900 39.15500
H  22.85900 52.51700 39.90100
H  24.15000 52.07300 40.89200
Mg 10.22300 46.58800 25.27500
C  7.90200 46.74400 27.83800
C  12.54300 47.93000 27.34600
C  12.37500 46.87000 22.67800
C  7.57000 46.26700 22.91100
N  10.20500 47.21700 27.36100
C  9.16200 47.07800 28.24000
C  9.60300 47.54800 29.61400
C  10.94500 48.35500 29.32500
C  11.30500 47.75200 27.96100
C  10.77800 49.86400 29.28900
C  9.47200 46.48600 30.82300
C  10.35700 46.70000 31.98200
H  10.29400 45.77300 33.16100
N  12.20500 47.18200 25.07400
C  13.04900 47.65300 26.07200
C  14.42300 47.65600 25.66600
C  14.37500 47.20600 24.26600
C  12.94000 47.13700 23.93800
C  15.55600 48.11700 26.48600
C  15.51200 46.92900 23.33800
O  15.37200 46.60500 22.14200
C  17.00400 47.07800 23.79100
N  9.99000 46.59200 23.04500
C  11.09300 46.60800 22.22900
C  10.62800 46.45000 20.79200
C  9.05500 46.27300 20.87100
C  8.83900 46.27300 22.37500
C  11.13300 47.56000 19.82300
C  8.47900 45.01300 20.08000
C  7.54000 45.40700 18.89300
N  8.13500 46.45000 25.27200
C  7.17900 46.41900 24.26600
C  5.78200 46.34400 24.86400
C  6.06400 46.44200 26.25700
C  7.50400 46.57400 26.47100
C  4.43400 46.22500 24.22900
C  5.42400 46.50000 27.59400
O  4.24900 46.39600 27.98200
C  6.57400 46.64500 28.64900
C  6.49000 45.67300 29.81000
O  7.06400 44.61700 29.89700
O  5.75600 46.16700 30.79000
C  5.77400 45.43500 32.05600
H  13.22300 48.35800 28.08500
H  13.11500 46.77000 21.88100
H  6.73200 46.11100 22.22900
H  8.86200 48.27300 29.95000
H  11.71800 47.96600 29.98800
H  11.50600 50.26700 29.99400
H  9.82300 50.26600 29.62500
H  11.16200 50.31800 28.37600
H  9.66600 45.44800 30.55300
H  8.45000 46.62800 31.17400
H  10.18000 47.69800 32.38400
H  11.38300 46.60400 31.62700
H  15.17400 48.22600 27.50100
H  15.86600 49.09900 26.12800
H  16.47000 47.52400 26.45400
H  17.61500 46.68400 22.97900
H  17.32000 46.57300 24.70400
H  17.16900 48.15500 23.76100
H  11.14400 45.52900 20.52000
H  8.59300 47.17700 20.47500
H  10.28900 48.15400 19.47000
H  11.59800 46.98000 19.02600
H  11.91500 48.26500 20.10300
H  8.06200 44.29900 20.79000
H  9.34500 44.56500 19.59300
H  6.92800 44.57300 18.55000
H  8.22900 45.58500 18.06700
H  6.95500 46.29300 19.14100
H  3.66300 46.71500 24.82400
H  4.14300 45.17500 24.22200
H  4.50700 46.49200 23.17400
H  6.45500 47.59400 29.17400
H  5.06000 44.62500 31.90800
H  5.47600 46.05700 32.90000
H  6.76500 45.07200 32.33000

