158

Mg 23.77600 -5.49100 46.13900
C  26.12300 -3.21400 44.76800
C  21.40300 -4.13700 44.18200
C  21.78600 -8.21500 46.93900
C  26.38200 -6.88400 48.02700
N  23.82000 -3.88500 44.63700
C  24.82400 -2.98100 44.36800
C  24.32600 -1.86400 43.44300
C  22.78100 -2.04900 43.45400
C  22.67100 -3.46200 44.03800
C  21.88000 -1.05800 44.27000
C  25.06300 -2.06500 42.07500
C  25.21800 -0.75600 41.27500
H  24.58200 -0.76400 39.88000
N  21.86700 -6.03100 45.63600
C  21.01600 -5.34000 44.80500
C  19.77800 -6.03100 44.72200
C  19.82500 -7.14800 45.51500
C  21.18600 -7.19200 46.10400
C  18.67200 -5.53500 43.78600
C  18.69100 -8.20200 45.61500
O  17.63600 -8.00200 45.00000
C  18.76200 -9.37100 46.63800
N  24.04400 -7.43800 47.19500
C  23.11600 -8.31100 47.46300
C  23.60000 -9.47300 48.33000
C  25.00300 -8.88500 48.95100
C  25.15200 -7.65600 48.02000
C  22.54400 -10.00200 49.47600
C  26.22600 -9.84800 48.83400
C  26.87900 -10.18400 50.14200
N  25.86600 -5.17300 46.43800
C  26.75800 -5.81900 47.19900
C  27.97700 -5.12900 47.14900
C  27.81100 -4.11900 46.21700
C  26.52000 -4.21700 45.70700
C  29.20800 -5.28800 47.92900
C  28.44500 -2.98700 45.51700
O  29.66000 -2.64000 45.58000
C  27.38100 -2.37700 44.53100
C  27.26500 -0.94400 44.75200
O  26.59500 -0.44400 45.61800
O  27.99700 -0.29700 43.81100
C  27.91800 1.13000 43.81300
H  20.57100 -3.64200 43.67800
H  21.31400 -9.17200 47.17000
H  27.18900 -7.31300 48.62500
H  24.60700 -0.87800 43.81400
H  22.31000 -1.87900 42.48600
H  22.60600 -0.53800 44.89500
H  21.12500 -1.58300 44.85500
H  21.41600 -0.43400 43.50600
H  24.61700 -2.83300 41.44300
H  26.11200 -2.34900 42.16400
H  26.28500 -0.58000 41.14200
H  24.78000 0.07800 41.82300
H  18.64100 -6.36100 43.07500
H  18.77200 -4.55900 43.31000
H  17.75100 -5.55200 44.36800
H  17.85000 -9.93900 46.81900
H  19.18800 -9.06900 47.59500
H  19.45600 -10.11700 46.25400
H  23.72000 -10.34100 47.68100
H  24.82300 -8.47500 49.94500
H  21.58000 -9.51300 49.33500
H  22.89400 -9.87700 50.50100
H  22.29900 -11.03200 49.22000
H  26.90100 -9.49900 48.05300
H  25.85700 -10.85100 48.62000
H  27.91600 -9.85700 50.22200
H  26.83200 -11.27300 50.17200
H  26.39300 -9.76700 51.02400
H  30.06000 -5.70100 47.38800
H  28.97000 -5.81900 48.85100
H  29.58600 -4.31400 48.23900
H  27.74900 -2.44000 43.50700
H  27.94800 1.63800 44.77600
H  26.98300 1.53300 43.42400
H  28.76500 1.55500 43.27500
Mg 16.88800 53.19300 25.96500
C  18.72400 51.86300 28.64800
C  14.29800 53.82500 28.15900
C  15.07500 54.29200 23.45700
C  19.52200 52.17500 23.91500
N  16.50200 52.77700 28.19600
C  17.45900 52.29800 29.08200
C  16.95900 52.37000 30.54600
C  15.51100 52.85000 30.32300
C  15.40500 53.16600 28.83300
C  14.46200 51.82700 30.75700
C  17.70000 53.39400 31.49600
C  17.62000 53.00600 32.96900
H  16.72300 53.75900 33.94400
N  14.96700 54.05000 25.82500
C  14.04900 54.25200 26.82800
C  12.87400 54.84700 26.21600
C  13.00900 54.90400 24.83100
C  14.39700 54.37400 24.64600
C  11.76300 55.27700 27.13600
C  12.01200 55.32700 23.72800
O  12.38100 55.45400 22.55500
C  10.58600 55.66900 24.16400
N  17.18000 53.17000 23.92700
C  16.34600 53.69300 23.07600
C  16.84600 53.63800 21.64500
C  18.38500 53.24800 21.85300
C  18.41100 52.81000 23.31900
C  15.97800 52.76700 20.66100
C  19.31500 54.49600 21.40500
C  19.25800 55.76200 22.22300
N  18.74500 52.19200 26.16700
C  19.72200 51.86500 25.26300
C  20.80400 51.15900 25.82000
C  20.48500 51.16400 27.21800
C  19.18800 51.76900 27.35100
C  21.92600 50.54200 25.04600
C  20.89800 50.75600 28.57200
O  21.79000 50.12300 29.04700
C  19.81400 51.23300 29.50600
C  19.30500 50.14600 30.41500
O  18.65700 49.16500 30.03500
O  19.53800 50.53700 31.72300
C  19.03000 49.60700 32.70500
H  13.53000 54.04600 28.90400
H  14.60100 54.52700 22.50100
H  20.28500 51.85800 23.20100
H  16.97300 51.36000 30.95600
H  15.17100 53.73800 30.85700
H  14.99000 50.99600 31.22500
H  13.88700 51.43700 29.91700
H  13.78200 52.27300 31.48300
H  17.26700 54.38200 31.34100
H  18.73900 53.44400 31.17300
H  18.62600 53.18600 33.34700
H  17.25700 51.98600 33.09800
H  11.01900 54.48200 27.07800
H  11.30200 56.22200 26.84900
H  12.00700 55.49600 28.17600
H  10.71600 56.73600 24.34600
H  10.23300 55.05000 24.98800
H  9.93300 55.47600 23.31300
H  16.79500 54.61000 21.15300
H  18.65900 52.50200 21.10700
H  15.42700 52.07500 21.29900
H  16.50100 52.27800 19.83900
H  15.26000 53.46300 20.22800
H  19.31600 54.52600 20.31600
H  20.32700 54.10100 21.49000
H  18.23000 55.99600 22.49700
H  19.81000 56.49200 21.63100
H  19.83900 55.77600 23.14600
H  21.69600 50.50500 23.98100
H  22.00000 49.52800 25.43800
H  22.93100 50.89500 25.27900
H  20.48700 51.91000 30.03200
H  19.46500 48.60700 32.69100
H  17.94500 49.50500 32.72000
H  19.28000 49.98600 33.69500

