158

Mg 7.56900 2.50500 27.73200
C  9.18000 0.90800 30.58000
C  5.55700 4.09000 29.88400
C  5.90500 3.55400 25.09400
C  9.43000 0.21700 25.72800
N  7.37700 2.43200 29.92100
C  8.15100 1.81400 30.89400
C  7.95200 2.53100 32.17500
C  6.63500 3.38100 32.01100
C  6.50300 3.29400 30.53000
C  5.39800 2.89400 32.82900
C  9.17200 3.38100 32.65500
C  9.02600 3.52000 34.19100
H  10.23200 3.04300 35.03800
N  6.05600 3.81600 27.51300
C  5.33400 4.30800 28.53600
C  4.28500 5.05000 27.98900
C  4.45300 5.13800 26.59800
C  5.49300 4.15000 26.32200
C  3.20700 5.73700 28.73900
C  3.71100 5.92100 25.53900
O  4.02100 5.92700 24.38600
C  2.49300 6.81600 25.84800
N  7.66300 1.87900 25.70700
C  6.91000 2.56700 24.82500
C  7.06900 1.90500 23.41500
C  8.28700 0.95700 23.58300
C  8.53400 0.99500 25.09000
C  5.82100 1.24800 22.89700
C  9.56300 1.29700 22.77100
C  9.87200 0.45000 21.54700
N  8.86600 0.80100 28.06200
C  9.53400 0.02600 27.08700
C  10.48200 -0.86600 27.72300
C  10.40500 -0.56300 29.10700
C  9.33600 0.40600 29.27500
C  11.39500 -1.81300 27.05300
C  10.95600 -0.87000 30.49000
O  11.84200 -1.57800 30.91800
C  10.15600 0.10500 31.48300
C  9.46900 -0.68200 32.61200
O  8.39000 -1.27000 32.49000
O  10.21300 -0.70200 33.75400
C  9.49500 -1.17000 34.95400
H  5.09500 4.74300 30.62800
H  5.27400 3.86300 24.25800
H  10.03600 -0.41500 25.07500
H  7.70100 1.78800 32.93200
H  6.79400 4.40400 32.35300
H  5.55200 1.93300 33.32000
H  4.54100 2.82600 32.15900
H  5.24300 3.74500 33.49200
H  9.21100 4.37500 32.20900
H  10.10700 2.90200 32.36500
H  8.14300 2.98400 34.54000
H  8.85100 4.56100 34.46000
H  3.23100 5.49800 29.80200
H  2.21800 5.43900 28.39100
H  3.26900 6.81900 28.62100
H  1.66800 6.20700 26.21600
H  2.21500 7.35700 24.94400
H  2.70600 7.56100 26.61500
H  7.34200 2.69000 22.70900
H  8.03700 -0.06100 23.28500
H  5.04600 1.27900 23.66300
H  6.13400 0.24200 22.61900
H  5.51000 1.79800 22.00800
H  10.42200 1.19600 23.43400
H  9.41400 2.29300 22.35600
H  10.23000 -0.49300 21.96100
H  10.60800 1.01900 20.98000
H  9.00600 0.22000 20.92600
H  10.98100 -2.78400 26.78200
H  12.16300 -2.04500 27.79100
H  11.84900 -1.26700 26.22600
H  10.84400 0.75200 32.02700
H  8.85200 -2.03100 34.77500
H  8.92600 -0.33500 35.36200
H  10.33300 -1.53900 35.54600
Mg 53.63100 24.93100 45.03700
C  51.19800 27.28500 44.01200
C  51.60400 22.36600 43.97000
C  56.32900 22.78800 44.76400
C  55.82300 27.57900 45.57300
N  51.65100 24.87700 43.90500
C  50.79800 25.95500 43.76500
C  49.37900 25.44400 43.39300
C  49.42000 23.91200 43.77700
C  50.94500 23.63300 43.95800
C  48.63400 23.41000 45.02900
C  49.10100 25.70900 41.83800
C  47.62700 25.66900 41.38800
H  47.23800 25.39700 39.92600
N  53.95600 22.91000 44.38800
C  52.93400 22.03600 44.02900
C  53.45200 20.69100 43.84800
C  54.85300 20.74100 44.19500
C  55.11100 22.15600 44.42900
C  52.63600 19.55700 43.45200
C  55.77500 19.56700 44.03700
O  55.30400 18.42300 43.96400
C  57.20700 19.77300 43.87000
N  55.73000 25.20700 44.87500
C  56.62600 24.13100 45.03000
C  58.03000 24.53900 45.28000
C  57.91700 26.11100 45.29800
C  56.35200 26.34900 45.28000
C  58.69400 23.88200 46.61000
C  58.64400 26.90300 44.15100
C  60.11600 27.35900 44.56600
N  53.50500 27.00300 45.19100
C  54.44100 27.92600 45.46500
C  53.80200 29.23500 45.45900
C  52.54500 29.01300 44.82200
C  52.42600 27.65300 44.63000
C  54.49400 30.46400 45.78600
C  51.37000 29.71900 44.26200
O  51.02900 30.88900 44.12000
C  50.47600 28.61200 43.68300
C  50.24800 28.89700 42.23900
O  51.01900 28.78100 41.33800
O  48.91200 29.30600 42.05000
C  48.31700 29.57900 40.73300
H  50.99000 21.48500 43.77100
H  57.15100 22.08000 44.89100
H  56.54700 28.38900 45.68400
H  48.61300 25.95100 43.98000
H  49.06500 23.33800 42.92100
H  48.00100 24.17400 45.48100
H  49.34700 22.91700 45.69000
H  47.93200 22.62800 44.74000
H  49.59100 24.91700 41.27100
H  49.59500 26.56500 41.37900
H  47.15300 26.63200 41.57800
H  47.17300 24.97700 42.09800
H  53.19900 18.75000 42.98300
H  51.81700 19.76900 42.76500
H  52.16500 19.19200 44.36400
H  57.57600 18.81200 43.50900
H  57.73100 20.05100 44.78400
H  57.30400 20.47600 43.04200
H  58.69300 24.22900 44.47200
H  58.20200 26.57500 46.24200
H  59.78000 23.79800 46.59800
H  58.25700 22.90700 46.82700
H  58.50500 24.52100 47.47300
H  58.20100 27.78400 43.68500
H  58.68100 26.18800 43.33000
H  60.27100 27.15500 45.62500
H  60.24000 28.43200 44.41900
H  60.91700 26.81200 44.06800
H  54.62100 30.66700 46.84900
H  53.89300 31.25400 45.33500
H  55.50000 30.56500 45.37900
H  49.56300 28.68700 44.27300
H  48.95100 29.45700 39.85500
H  47.97000 30.60700 40.62500
H  47.50700 28.90000 40.46900

