158

Mg 0.27700 8.56900 26.46100
C  1.12100 10.50300 29.29000
C  -0.03200 5.82300 28.62300
C  -0.18100 6.55500 23.81700
C  1.16600 11.16100 24.39400
N  0.62000 8.20700 28.73400
C  0.83500 9.13700 29.66100
C  0.76600 8.58600 31.11700
C  0.65800 7.02800 30.87800
C  0.35900 6.98700 29.34200
C  1.96500 6.25400 31.33900
C  -0.50500 9.05100 31.88600
C  -0.17700 9.49700 33.33000
H  1.02100 8.94700 34.13500
N  -0.15700 6.45700 26.26700
C  -0.24500 5.54900 27.27400
C  -0.48900 4.24100 26.69300
C  -0.68500 4.47800 25.29700
C  -0.30100 5.85000 25.04100
C  -0.57200 2.97700 27.45300
C  -1.18800 3.46500 24.23000
O  -1.30500 3.83900 23.05100
C  -1.62300 2.13200 24.58300
N  0.47900 8.87300 24.50500
C  0.18200 7.90000 23.57000
C  0.51900 8.34700 22.15900
C  0.82500 9.90300 22.40000
C  0.82200 9.99700 23.85700
C  1.68800 7.57100 21.54000
C  -0.11100 10.95600 21.68700
C  -1.38500 11.43300 22.46200
N  1.17700 10.44000 26.76800
C  1.39200 11.41500 25.82700
C  1.77900 12.66500 26.51700
C  1.79900 12.36500 27.85000
C  1.36200 10.97600 27.92600
C  2.06400 13.96900 25.93200
C  1.87200 12.89400 29.20600
O  2.10400 13.97900 29.63000
C  1.48500 11.72200 30.18800
C  2.67500 11.57600 31.28200
O  3.54900 10.71700 31.23300
O  2.43100 12.49400 32.29600
C  3.42600 12.56200 33.33600
H  -0.10200 4.97600 29.30900
H  -0.66300 6.05000 22.97700
H  1.36400 11.94700 23.66300
H  1.67900 8.92300 31.60700
H  -0.17900 6.48400 31.31600
H  2.72100 7.01500 31.53400
H  2.39700 5.51500 30.66500
H  1.57300 5.73400 32.21300
H  -1.25400 8.26100 31.93800
H  -1.04300 9.84500 31.36800
H  -1.03500 9.38400 33.99300
H  -0.00300 10.57200 33.27800
H  -0.28600 2.95600 28.50500
H  0.17300 2.28200 27.06400
H  -1.57000 2.54500 27.38200
H  -0.89000 1.45000 25.01300
H  -2.14100 1.80100 23.68200
H  -2.39100 2.36400 25.32100
H  -0.32100 8.37400 21.46600
H  1.80900 10.18000 22.02300
H  2.61100 7.72500 22.10000
H  1.94600 7.87600 20.52600
H  1.40700 6.51900 21.49500
H  -0.50400 10.49900 20.77800
H  0.51800 11.82200 21.48600
H  -1.50200 11.07700 23.48500
H  -2.36600 11.27200 22.01300
H  -1.30500 12.51300 22.58400
H  1.56900 13.97800 24.96100
H  3.09300 13.93300 25.57600
H  1.78500 14.87800 26.46500
H  0.62400 11.96500 30.81100
H  4.30900 13.12300 33.02800
H  3.70400 11.62200 33.81200
H  2.97900 13.18100 34.11400
Mg 46.92800 23.78700 28.08200
C  47.89900 26.35600 30.62700
C  46.22300 21.78700 30.55600
C  46.18500 21.59500 25.73800
C  48.09400 25.99700 25.74300
N  46.98700 24.09100 30.41500
C  47.38600 25.15100 31.21100
C  46.97200 24.81900 32.66000
C  46.52200 23.31600 32.58900
C  46.53700 23.04200 31.12100
C  47.34400 22.32600 33.39500
C  46.04300 25.87000 33.35600
C  45.53000 25.48100 34.78500
H  45.35500 26.57700 35.86200
N  46.36100 21.95400 28.11300
C  46.09500 21.21700 29.22700
C  45.71100 19.87500 28.90800
C  45.53400 19.86400 27.50300
C  46.00900 21.22100 27.05900
C  45.46300 18.79600 29.99000
C  45.08500 18.78000 26.52100
O  44.93300 18.93700 25.27100
C  44.76000 17.42400 27.10800
N  47.17200 23.83300 26.04700
C  46.72900 22.84700 25.30100
C  47.03500 23.08400 23.80200
C  47.39000 24.60000 23.87400
C  47.53300 24.85800 25.31200
C  48.07600 22.11500 23.09500
C  46.22900 25.40100 23.12800
C  46.13300 25.18200 21.62900
N  47.79200 25.74000 28.10500
C  48.28900 26.47200 27.11100
C  48.87000 27.66500 27.56900
C  48.58700 27.70600 28.91900
C  48.06000 26.45200 29.24400
C  49.59600 28.66700 26.72400
C  48.75200 28.50100 30.07100
O  49.19800 29.63100 30.16200
C  48.20600 27.67300 31.28100
C  49.32800 27.60300 32.27900
O  50.33300 26.88400 32.12800
O  49.02100 28.30300 33.42800
C  49.82300 28.03400 34.69200
H  45.86800 21.08100 31.30900
H  45.87600 20.91600 24.94000
H  48.57000 26.69600 25.05200
H  47.95900 24.77000 33.11900
H  45.51800 23.20700 32.99900
H  46.78300 21.48600 33.80400
H  47.88000 22.78000 34.22900
H  48.01700 21.84000 32.68800
H  45.17700 25.96800 32.70100
H  46.64800 26.77300 33.44100
H  46.11800 24.67300 35.21900
H  44.49300 25.16700 34.66800
H  44.40000 18.57300 30.07900
H  45.70900 19.23900 30.95500
H  46.10900 17.93800 29.80200
H  45.69700 17.14900 27.59300
H  44.52900 16.73600 26.29500
H  43.97300 17.55900 27.85100
H  46.04200 22.98400 23.36400
H  48.39900 24.64000 23.46500
H  47.62300 21.95000 22.11800
H  48.08600 21.18100 23.65600
H  49.03800 22.58000 22.87900
H  46.37700 26.46400 23.31800
H  45.29400 25.06400 23.57600
H  46.89500 24.48700 21.27500
H  46.40100 26.13400 21.16900
H  45.17500 24.82300 21.25500
H  50.33600 28.12900 26.13200
H  50.15900 29.27100 27.43500
H  48.90400 29.22600 26.09400
H  47.32700 28.17700 31.68400
H  50.19100 28.98500 35.07800
H  50.59200 27.28400 34.50800
H  49.07500 27.62400 35.37100

