158

Mg 45.99100 3.74100 46.80500
C  43.95600 6.58200 46.71500
C  43.00000 1.78500 46.42900
C  47.84500 1.05900 46.61500
C  48.75400 5.84300 46.66500
N  43.69200 4.18100 46.44500
C  43.17600 5.45200 46.46600
C  41.69000 5.28700 46.25300
C  41.35400 3.78500 46.70200
C  42.75300 3.16200 46.51500
C  40.72700 3.62600 48.18000
C  41.16600 5.87600 44.90800
C  42.15300 5.99300 43.79000
H  41.57900 6.50200 42.49700
N  45.47500 1.71400 46.43700
C  44.24500 1.11800 46.36300
C  44.47800 -0.32900 46.34700
C  45.86400 -0.62000 46.37200
C  46.43300 0.77200 46.52800
C  43.36600 -1.44500 46.37500
C  46.49900 -1.99400 46.28300
O  45.84100 -3.03500 46.23200
C  47.89300 -2.23100 46.31900
N  47.98600 3.54400 46.29200
C  48.53800 2.29100 46.60700
C  50.09500 2.42000 46.76100
C  50.39200 3.91200 46.49400
C  48.99700 4.47200 46.45600
C  50.65900 1.82400 48.02800
C  51.19900 4.24600 45.23600
C  52.37000 5.19700 45.46500
N  46.32400 5.78300 46.80600
C  47.51500 6.46500 46.88600
C  47.21100 7.87000 47.09600
C  45.88200 7.97100 47.11700
C  45.36700 6.66400 46.90400
C  48.15200 9.00900 47.03700
C  44.75300 8.88500 47.10600
O  44.68500 10.11900 47.22800
C  43.46200 8.05500 46.80000
C  42.48000 8.36300 47.90500
O  42.46700 7.81900 49.00400
O  41.63400 9.34900 47.53100
C  40.46700 9.52400 48.42800
H  42.10000 1.16700 46.46400
H  48.43600 0.15100 46.75500
H  49.62800 6.48500 46.78500
H  41.25000 5.87700 47.05700
H  40.67700 3.28000 46.01300
H  41.47400 3.18600 48.84100
H  39.83200 3.00400 48.19600
H  40.45700 4.56000 48.67300
H  40.68400 6.83600 45.09400
H  40.28700 5.25400 44.73900
H  42.41400 4.94700 43.62500
H  43.08500 6.46200 44.10600
H  42.39900 -0.96300 46.23100
H  43.41700 -2.04800 47.28100
H  43.47200 -2.15100 45.55100
H  48.32500 -2.09100 47.31000
H  48.34200 -1.53500 45.61100
H  48.16000 -3.21700 45.94000
H  50.52700 1.84900 45.93900
H  50.89400 4.37500 47.34300
H  51.38800 1.02400 47.89400
H  49.79200 1.54000 48.62400
H  51.10100 2.56200 48.69700
H  50.63500 4.48300 44.33400
H  51.77700 3.37000 44.94000
H  53.30100 4.64700 45.33100
H  52.35100 5.52100 46.50600
H  52.22200 6.08300 44.84800
H  48.95800 8.93100 47.76600
H  47.65800 9.98000 47.07600
H  48.62400 9.22100 46.07700
H  43.14400 8.37300 45.80700
H  39.89900 8.62000 48.20600
H  39.96000 10.41500 48.05900
H  40.65600 9.61200 49.49800
Mg 16.78500 52.05000 26.25500
C  18.83900 51.07100 28.98300
C  14.28500 52.84200 28.51800
C  14.74100 52.99600 23.80200
C  19.09300 50.69600 24.10500
N  16.68200 52.04900 28.52400
C  17.65800 51.73300 29.42200
C  17.21400 52.22100 30.81000
C  15.64700 52.45000 30.65700
C  15.52800 52.47900 29.14500
C  14.86700 51.24500 31.21400
C  18.02700 53.46300 31.25500
C  18.19400 53.60400 32.78200
H  17.12300 53.20900 33.74500
N  14.81000 52.89900 26.18700
C  13.96900 53.16600 27.19800
C  12.70800 53.57300 26.63600
C  12.80200 53.69600 25.23100
C  14.13900 53.25900 25.00000
C  11.51300 53.82300 27.47200
C  11.79100 54.11900 24.11900
O  12.03400 54.20600 22.92000
C  10.39400 54.40200 24.35300
N  16.84300 51.80100 24.31900
C  15.98900 52.45700 23.40700
C  16.51800 52.32400 21.98800
C  17.85800 51.62000 22.12200
C  17.96300 51.31200 23.63700
C  15.53100 51.61200 21.04100
C  19.04500 52.55600 21.70000
C  20.14200 51.88800 20.86200
N  18.60900 51.04000 26.46600
C  19.46400 50.47600 25.44800
C  20.61600 49.87400 26.07900
C  20.48700 50.07500 27.44500
C  19.25500 50.76600 27.59700
C  21.57100 48.97200 25.43700
C  20.99200 49.79600 28.77900
O  21.89800 49.04400 29.18100
C  20.03400 50.59800 29.84700
C  19.56500 49.67300 30.85400
O  18.93600 48.64200 30.50700
O  19.89300 50.12200 32.10500
C  19.43900 49.34700 33.22600
H  13.54000 53.09000 29.27700
H  14.26500 53.26400 22.85600
H  19.87200 50.37900 23.40900
H  17.45100 51.47300 31.56600
H  15.38200 53.44300 31.02100
H  14.50900 50.57700 30.43100
H  13.94000 51.43900 31.75400
H  15.49300 50.57600 31.80400
H  17.53400 54.40100 31.00200
H  19.01200 53.41100 30.79100
H  18.51800 54.63300 32.93600
H  19.01500 52.96100 33.09800
H  11.16500 54.76600 27.05200
H  11.77300 54.00900 28.51400
H  10.69000 53.11900 27.34500
H  9.89000 54.77300 23.46100
H  10.28700 55.19000 25.09900
H  9.89300 53.54300 24.79900
H  16.70200 53.35300 21.67900
H  18.04000 50.64400 21.67300
H  16.09000 50.83700 20.51600
H  15.18600 52.27400 20.24600
H  14.70200 51.06700 21.49200
H  19.54800 53.02900 22.54300
H  18.66600 53.32500 21.02700
H  21.10800 52.01300 21.35100
H  20.32600 52.36600 19.90000
H  19.91500 50.83400 20.70600
H  22.18500 48.65200 26.27900
H  22.08000 49.52000 24.64400
H  21.15400 48.12900 24.88600
H  20.39300 51.50300 30.33800
H  18.50700 48.81200 33.04200
H  19.26600 50.08200 34.01200
H  20.27700 48.73300 33.55700

