158

Mg 17.30100 -1.30800 27.51000
C  16.43500 0.55500 30.33200
C  19.02100 -3.49300 29.64300
C  18.34600 -2.94100 24.81400
C  15.75100 1.14600 25.55700
N  17.77500 -1.36500 29.65300
C  17.28400 -0.50700 30.60400
C  17.78400 -0.91100 32.02300
C  18.73600 -2.10300 31.73000
C  18.47100 -2.41100 30.27700
C  20.22700 -1.73800 32.08200
C  16.54600 -1.24100 33.01500
C  16.44200 -0.62700 34.41400
H  17.76200 -0.10500 35.09600
N  18.54800 -3.03900 27.18100
C  19.04400 -3.83300 28.25900
C  19.68000 -4.90900 27.57400
C  19.64700 -4.76400 26.19500
C  18.78400 -3.63400 25.98700
C  20.25900 -6.07700 28.37500
C  20.26100 -5.53800 25.05000
O  20.09400 -5.13400 23.91100
C  21.07500 -6.78800 25.28000
N  17.13500 -0.92700 25.47100
C  17.65300 -1.77100 24.57400
C  17.38100 -1.23300 23.22000
C  16.23200 -0.14200 23.38400
C  16.43200 0.12600 24.90500
C  18.63500 -0.54700 22.54900
C  14.74200 -0.60600 22.99000
C  14.01300 -0.11900 21.66600
N  16.15100 0.43300 27.84700
C  15.53500 1.32700 26.97000
C  14.76600 2.27700 27.75200
C  15.09000 1.99000 29.05400
C  15.92700 0.90400 29.04900
C  13.80600 3.35300 27.18200
C  14.86000 2.40900 30.37300
O  14.07900 3.24500 30.89700
C  15.77000 1.54200 31.22400
C  16.72400 2.39200 31.99200
O  17.82800 2.70000 31.64500
O  15.98200 2.96100 33.06000
C  16.73600 4.03400 33.76700
H  19.61100 -4.17700 30.25600
H  18.76500 -3.39200 23.91200
H  15.11900 1.80100 24.95400
H  18.31800 -0.06300 32.45100
H  18.43100 -3.00100 32.26600
H  20.78800 -2.32100 31.35200
H  20.41600 -2.29300 33.00100
H  20.58800 -0.71100 32.11600
H  16.59600 -2.30500 33.24700
H  15.60700 -1.01900 32.50800
H  16.00500 -1.33500 35.11700
H  15.84700 0.28400 34.34400
H  21.32400 -5.92700 28.19800
H  19.94200 -7.07100 28.06000
H  19.91300 -6.07600 29.40800
H  21.50100 -7.17900 24.35600
H  20.55000 -7.61300 25.76200
H  21.82700 -6.39100 25.96200
H  17.01400 -2.02600 22.56900
H  16.66400 0.64400 22.76500
H  19.42200 -0.67300 23.29300
H  18.57800 0.44000 22.09000
H  18.87800 -1.18400 21.69900
H  14.10900 -0.34000 23.83700
H  14.77200 -1.69200 22.89500
H  13.18500 0.46900 22.06100
H  13.58400 -0.90000 21.03800
H  14.55700 0.64500 21.10900
H  12.89100 2.95000 26.74800
H  14.30800 4.01300 26.47500
H  13.44900 3.98500 27.99500
H  15.07200 1.06500 31.91300
H  16.22400 4.99600 33.74900
H  17.73600 4.28300 33.41300
H  16.90100 3.75900 34.80900
Mg 47.38800 25.43600 28.84600
C  48.68800 27.51200 31.42000
C  46.79000 22.93200 31.19500
C  46.53600 23.38700 26.34500
C  48.70700 27.64400 26.58500
N  47.73100 25.25100 31.05800
C  48.07800 26.32200 31.94200
C  47.91400 25.91900 33.42100
C  47.43400 24.39400 33.33100
C  47.33100 24.13400 31.75700
C  48.55200 23.33200 33.92500
C  46.88600 26.81400 34.09000
C  46.67400 26.28100 35.52400
H  46.53200 27.25500 36.76200
N  46.79100 23.35000 28.75300
C  46.52200 22.53100 29.83300
C  45.98600 21.30000 29.30700
C  45.88800 21.45100 27.89000
C  46.46900 22.76900 27.60300
C  45.68100 20.07000 30.11000
C  45.29500 20.53100 26.92400
O  45.45600 20.69700 25.70500
C  44.57800 19.34100 27.32700
N  47.61600 25.46300 26.73400
C  47.06500 24.56300 25.85900
C  46.99800 25.11000 24.40100
C  47.60700 26.52500 24.57100
C  48.02100 26.52400 26.02600
C  47.55700 24.21100 23.26700
C  46.70800 27.70300 24.11500
C  46.46100 27.78400 22.57600
N  48.45700 27.23600 28.87100
C  49.00300 28.04600 27.89500
C  49.74600 29.20600 28.36700
C  49.60700 28.98600 29.78000
C  48.83100 27.85400 30.00400
C  50.33600 30.27000 27.59300
C  49.96500 29.61900 31.08100
O  50.53700 30.65800 31.37600
C  49.17800 28.71100 32.16800
C  50.12600 28.37200 33.24600
O  51.04900 27.60300 33.23600
O  49.84500 29.19400 34.35400
C  50.81000 29.10600 35.46600
H  46.44300 22.14100 31.86300
H  46.03600 22.92400 25.49100
H  49.18500 28.29900 25.85300
H  48.82600 26.09500 33.99200
H  46.56400 24.33600 33.98400
H  49.47800 23.89000 34.06900
H  48.61300 22.40800 33.35000
H  48.28100 23.03900 34.94000
H  45.92300 26.81800 33.58000
H  47.35600 27.79300 34.18700
H  47.46200 25.59300 35.83000
H  45.73100 25.73600 35.49900
H  44.61000 19.90800 29.99100
H  45.98300 20.10600 31.15700
H  46.28200 19.33200 29.57800
H  43.67000 19.53700 27.89800
H  45.27700 18.68700 27.84800
H  44.28200 18.76100 26.45300
H  45.92300 25.27800 24.32800
H  48.55200 26.52500 24.02800
H  48.32500 23.54200 23.65400
H  47.82400 24.74400 22.35500
H  46.71400 23.56000 23.03800
H  47.17900 28.64300 24.40300
H  45.85900 27.48700 24.76300
H  47.33700 27.40100 22.05100
H  46.33000 28.84000 22.34300
H  45.56500 27.27400 22.22300
H  49.95800 31.22000 27.97100
H  50.09700 30.13300 26.53800
H  51.40300 30.33800 27.80500
H  48.43600 29.37500 32.61200
H  51.77200 29.49200 35.12900
H  50.77900 28.10500 35.89800
H  50.46200 29.79800 36.23300

