158

Mg 1.76700 -0.89000 43.85000
C  5.08700 -0.47300 43.22700
C  1.14100 2.07400 42.22900
C  -1.48100 -1.64500 43.79300
C  2.43900 -4.07700 45.14200
N  2.98200 0.55400 42.82700
C  4.35300 0.61300 42.80300
C  4.83200 1.90600 42.13100
C  3.57600 2.72900 42.03700
C  2.46400 1.72400 42.39400
C  3.58800 3.91300 43.04300
C  5.43600 1.61400 40.72100
C  6.50900 2.62800 40.19600
H  6.29500 3.17000 38.87300
N  0.02600 0.17300 43.10900
C  0.02300 1.38000 42.51800
C  -1.33900 1.72300 42.12600
C  -2.15300 0.67600 42.55600
C  -1.21500 -0.36000 43.20300
C  -1.72900 2.90600 41.26200
C  -3.66100 0.60200 42.28800
O  -4.29100 1.48800 41.75800
C  -4.45300 -0.53200 42.89600
N  0.64600 -2.57300 44.35200
C  -0.67500 -2.63700 44.34500
C  -1.19900 -3.90600 44.94700
C  0.08000 -4.71000 45.42700
C  1.14800 -3.71600 44.93400
C  -2.28400 -3.75000 46.04000
C  0.29900 -6.16100 44.99600
C  -0.94400 -7.02100 44.80200
N  3.47200 -2.03100 44.27900
C  3.63500 -3.26700 44.73500
C  5.01500 -3.58600 44.89000
C  5.68200 -2.49200 44.26800
C  4.64400 -1.59700 43.93900
C  5.67300 -4.80500 45.46300
C  6.94500 -2.01700 43.82700
O  8.04400 -2.47400 43.95500
C  6.60500 -0.61200 43.20900
C  7.29300 0.36600 44.00100
O  7.00700 0.64800 45.17900
O  8.18900 1.06700 43.25200
C  8.71300 2.37300 43.76700
H  1.02600 3.05900 41.77300
H  -2.51700 -1.95700 43.93900
H  2.62100 -5.04700 45.60800
H  5.56800 2.35700 42.79700
H  3.44800 3.09300 41.01700
H  2.84500 3.70500 43.81400
H  3.23600 4.78300 42.48800
H  4.55900 4.12000 43.49100
H  4.63400 1.66700 39.98400
H  5.80900 0.59100 40.76600
H  7.40100 2.00100 40.20000
H  6.60500 3.31500 41.03600
H  -2.44400 3.59100 41.71700
H  -2.17100 2.52600 40.34100
H  -0.80200 3.41600 41.00200
H  -5.52500 -0.36200 42.79000
H  -4.20700 -0.53800 43.95800
H  -4.21800 -1.46200 42.37800
H  -1.59100 -4.31800 44.01700
H  0.09700 -4.80600 46.51300
H  -2.05500 -4.17400 47.01700
H  -3.21500 -4.23600 45.74800
H  -2.50600 -2.68900 46.15200
H  0.91000 -6.55500 45.80900
H  0.88900 -6.22100 44.08100
H  -0.81000 -8.04100 45.16300
H  -1.34000 -7.02200 43.78700
H  -1.66700 -6.49400 45.42500
H  5.54500 -5.52400 44.65400
H  5.21000 -5.09900 46.40500
H  6.73600 -4.65000 45.64600
H  7.04900 -0.59000 42.21300
H  7.87600 2.98400 44.10300
H  9.12500 2.89400 42.90300
H  9.48800 2.16800 44.50600
Mg 30.67000 59.56800 38.69600
C  27.72600 58.24100 37.39800
C  32.27300 56.68300 37.84300
C  33.70100 61.10000 38.93500
C  29.06600 62.61400 39.20000
N  30.14900 57.71900 37.56600
C  28.84300 57.39500 37.34600
C  28.82000 55.93900 36.87400
C  30.06100 55.34700 37.67300
C  30.89500 56.64200 37.69100
C  29.55200 54.84500 39.08200
C  28.85700 55.87600 35.29500
C  27.87400 54.87500 34.54700
H  27.09000 55.31300 33.29500
N  32.72400 58.94600 38.47600
C  33.20200 57.71300 38.13300
C  34.60800 57.59300 38.08400
C  35.11900 58.90200 38.41800
C  33.85000 59.73600 38.67100
C  35.42700 56.31700 37.76900
C  36.59200 59.29100 38.50400
O  37.45800 58.43200 38.25000
C  37.03900 60.64900 38.91800
N  31.27500 61.54600 39.01100
C  32.58600 61.98500 38.99200
C  32.70400 63.52700 39.23100
C  31.19300 63.92200 39.42600
C  30.44700 62.57500 39.21200
C  33.57300 63.94900 40.43400
C  30.70000 65.13500 38.54300
C  29.80800 66.19700 39.25500
N  28.67200 60.30600 38.58200
C  28.19300 61.55000 38.79500
C  26.73700 61.47800 38.72000
C  26.50900 60.17400 38.17300
C  27.76200 59.54200 38.01800
C  25.82000 62.63900 38.77600
C  25.45500 59.27400 37.66600
O  24.26500 59.42800 37.52300
C  26.23200 58.05400 37.08100
C  25.59300 56.84600 37.77700
O  25.60900 56.53700 38.96400
O  24.95600 56.06000 36.83800
C  24.55400 54.67800 37.24500
H  32.65800 55.68000 37.64900
H  34.63600 61.66300 38.90100
H  28.52600 63.55100 39.35300
H  27.89900 55.48500 37.23800
H  30.54900 54.65400 36.98900
H  29.75900 55.65500 39.78200
H  30.08600 53.92600 39.32200
H  28.47900 54.66900 39.00300
H  29.83900 55.47500 35.04400
H  28.85000 56.90300 34.92700
H  27.19100 54.56900 35.33900
H  28.50600 54.01400 34.32700
H  36.16100 56.59400 37.01200
H  34.76100 55.65900 37.21200
H  35.74300 55.85000 38.70100
H  38.12500 60.60900 39.00600
H  36.62400 61.01600 39.85600
H  36.92500 61.35700 38.09700
H  33.02900 64.00400 38.30700
H  30.97400 64.00600 40.49100
H  33.07500 64.81900 40.86300
H  34.60700 64.21100 40.21000
H  33.45100 63.09100 41.09500
H  30.11400 64.63900 37.76900
H  31.50700 65.67600 38.04900
H  29.90000 66.04000 40.33000
H  28.77100 65.92400 39.05800
H  30.13900 67.20600 39.00600
H  25.40000 62.74800 37.77700
H  26.34100 63.57900 38.95800
H  25.01600 62.48300 39.49500
H  25.99700 58.12000 36.01900
H  23.66000 54.67200 37.86800
H  25.33200 54.30800 37.91300
H  24.44300 54.19500 36.27400

