158

Mg 47.91400 25.63600 27.98000
C  48.82200 27.51600 30.64200
C  47.39700 22.93700 30.20900
C  47.56000 23.43200 25.31000
C  49.18100 27.90000 25.76600
N  48.05000 25.29400 30.17200
C  48.27500 26.32600 31.06200
C  48.01000 25.90500 32.52500
C  47.60900 24.40000 32.44000
C  47.70700 24.15300 30.89000
C  48.43700 23.45000 33.36400
C  47.14700 26.94200 33.29500
C  46.27700 26.40100 34.48600
H  46.11600 27.32200 35.73400
N  47.43400 23.50900 27.80400
C  47.24700 22.64500 28.81600
C  47.03900 21.32500 28.24500
C  46.97100 21.40900 26.90100
C  47.36200 22.80300 26.61100
C  46.80200 20.17000 29.10400
C  46.58900 20.40400 25.86100
O  46.84100 20.58500 24.68400
C  45.94700 19.12500 26.34500
N  48.47900 25.59400 25.86700
C  48.02400 24.66500 24.92100
C  47.99200 25.10800 23.51400
C  48.56900 26.52800 23.64100
C  48.77900 26.69500 25.23000
C  48.67400 24.22500 22.48700
C  47.77400 27.65400 22.96900
C  47.39200 27.47900 21.45100
N  48.82100 27.33200 28.13200
C  49.22700 28.27800 27.13500
C  49.70800 29.43000 27.76600
C  49.54000 29.23800 29.08100
C  49.04800 27.90600 29.32800
C  50.24800 30.66700 27.03200
C  49.70600 29.86900 30.36700
O  50.20800 30.92800 30.71900
C  49.16500 28.78800 31.44800
C  50.24900 28.46800 32.46200
O  50.97800 27.47700 32.61600
O  50.15200 29.47900 33.42300
C  50.99900 29.39300 34.57300
H  47.19400 22.15600 30.94400
H  47.31100 22.81700 24.44200
H  49.46000 28.64000 25.01300
H  48.94500 26.09100 33.05400
H  46.56800 24.22400 32.71200
H  47.81900 22.97200 34.12500
H  49.17000 24.06200 33.89000
H  48.97500 22.64000 32.87100
H  46.53200 27.50100 32.59000
H  47.90000 27.55800 33.78700
H  46.83000 25.55600 34.89600
H  45.27700 26.30300 34.06300
H  46.84100 20.46700 30.15200
H  47.50300 19.36000 28.89800
H  45.81600 19.75200 28.90200
H  45.02400 19.29900 26.89900
H  46.65300 18.56900 26.96200
H  45.62300 18.60200 25.44600
H  46.91800 25.03700 23.34300
H  49.55800 26.66200 23.20400
H  48.84700 23.25200 22.94700
H  49.59400 24.70600 22.15400
H  48.04600 24.05900 21.61200
H  48.36500 28.56500 23.05600
H  46.89100 27.68800 23.60700
H  46.38100 27.08500 21.34100
H  48.11900 26.83200 20.95900
H  47.27100 28.43000 20.93200
H  49.96300 30.58200 25.98300
H  51.31100 30.79300 27.23600
H  49.69400 31.49200 27.47900
H  48.41900 29.36100 31.99800
H  50.50400 28.69700 35.25000
H  51.17700 30.37500 35.01200
H  51.84100 28.82600 34.17600
Mg 35.70100 48.25900 24.98700
C  36.10800 46.41800 27.99400
C  34.11900 50.81500 26.76900
C  35.22800 49.76100 22.15900
C  36.79700 45.43000 23.20000
N  35.12600 48.51900 27.16600
C  35.50800 47.67600 28.20000
C  35.23800 48.41000 29.53000
C  34.39000 49.65000 29.06900
C  34.42900 49.65700 27.56600
C  32.96600 49.55800 29.60200
C  36.55700 48.87700 30.18700
C  36.61600 48.58500 31.68400
H  35.26500 48.67500 32.42400
N  34.82800 50.11600 24.48700
C  34.32400 51.05900 25.36600
C  33.87900 52.29200 24.55500
C  34.34200 52.04400 23.18600
C  34.84600 50.60600 23.18900
C  33.30400 53.53600 25.12800
C  34.28800 52.92300 21.88300
O  34.77100 52.63000 20.82200
C  33.36100 54.10000 21.91200
N  35.69300 47.59300 22.97700
C  35.53400 48.43300 22.01600
C  35.84800 47.82100 20.65900
C  36.72500 46.65600 21.07000
C  36.41000 46.52600 22.52600
C  34.58300 47.42900 19.79800
C  38.26000 46.81100 20.67100
C  39.16600 47.49700 21.70900
N  36.36800 46.31400 25.42300
C  36.84900 45.31200 24.62400
C  37.22700 44.15000 25.40700
C  37.01800 44.57800 26.75800
C  36.43000 45.88400 26.69000
C  37.64800 42.77400 24.85000
C  37.01700 44.16600 28.17200
O  37.40200 43.15300 28.68200
C  36.41900 45.34000 29.01900
C  35.19400 44.90400 29.70100
O  34.11400 44.80300 29.18900
O  35.43600 44.84300 31.01400
C  34.23300 44.56400 31.78000
H  33.67700 51.65000 27.31600
H  35.19700 50.24800 21.18200
H  37.13000 44.59900 22.57500
H  34.68400 47.69200 30.13400
H  34.79400 50.62700 29.33400
H  32.84300 50.39300 30.29200
H  32.78500 48.59200 30.07300
H  32.18300 49.56900 28.84300
H  36.62200 49.94700 29.98700
H  37.43100 48.37700 29.77000
H  37.31000 49.29600 32.13100
H  36.98600 47.56700 31.81000
H  33.83700 54.40400 24.73800
H  33.46800 53.68100 26.19600
H  32.25100 53.55800 24.84500
H  33.69800 54.79800 22.67800
H  32.33500 53.79300 22.11600
H  33.33500 54.73400 21.02600
H  36.40100 48.62000 20.16600
H  36.46800 45.77300 20.48400
H  33.67100 47.52900 20.38700
H  34.59700 46.49300 19.23900
H  34.46000 48.19300 19.03000
H  38.39700 47.38400 19.75400
H  38.49800 45.78700 20.38100
H  38.71100 47.47600 22.69900
H  39.26000 48.55100 21.44900
H  40.11200 46.95600 21.69200
H  37.31500 42.79400 23.81200
H  36.98000 42.08500 25.36800
H  38.67900 42.48200 25.05100
H  37.15300 45.65000 29.76300
H  34.12100 43.49000 31.62900
H  33.43900 45.21800 31.41800
H  34.41000 44.75800 32.83800

