158

Mg -1.41700 17.21800 27.28900
C  -1.97600 14.90500 29.85800
C  -2.14900 19.71300 29.51400
C  -1.13100 19.39000 24.67300
C  -1.46300 14.58900 24.99700
N  -1.98200 17.26800 29.46300
C  -1.99400 16.23500 30.37300
C  -2.30200 16.74900 31.81500
C  -2.47900 18.30200 31.59700
C  -2.21600 18.49500 30.10400
C  -3.88900 18.86800 32.15500
C  -1.27700 16.30800 32.88900
C  -1.01400 17.27600 34.06000
H  -0.36200 16.72100 35.32900
N  -1.55100 19.26600 27.15100
C  -1.83700 20.11300 28.17300
C  -1.94500 21.51900 27.63400
C  -1.53700 21.41400 26.27600
C  -1.36000 19.97500 25.95100
C  -2.15900 22.71900 28.47900
C  -1.44000 22.47700 25.27200
O  -0.97800 22.34200 24.13700
C  -1.94700 23.79900 25.58800
N  -1.27100 16.99500 25.11100
C  -1.09300 18.06000 24.31400
C  -0.76800 17.58000 22.83000
C  -0.70200 16.05900 22.97700
C  -1.13800 15.83900 24.43400
C  -1.90900 17.96000 21.80800
C  0.67600 15.46600 22.51500
C  1.93200 15.96400 23.32400
N  -1.68700 15.20800 27.31500
C  -1.63600 14.26400 26.36300
C  -1.84800 12.98800 26.92400
C  -1.91800 13.23100 28.29500
C  -1.79600 14.55000 28.49900
C  -2.06000 11.62800 26.23400
C  -2.13600 12.47000 29.52100
O  -2.33300 11.28600 29.76600
C  -2.14000 13.58300 30.64300
C  -1.04600 13.26300 31.53900
O  0.14500 13.37300 31.28800
O  -1.58200 12.92300 32.74000
C  -0.61600 12.75900 33.81400
H  -2.36200 20.53800 30.19700
H  -1.03800 20.06600 23.82000
H  -1.33200 13.74900 24.31100
H  -3.27400 16.37500 32.13800
H  -1.67600 18.84200 32.10000
H  -4.27700 18.23300 32.95200
H  -4.53100 18.97200 31.28000
H  -3.82100 19.88700 32.53600
H  -0.30300 16.11500 32.43900
H  -1.72600 15.49200 33.45600
H  -1.96400 17.76400 34.27500
H  -0.32200 18.00300 33.63500
H  -3.23600 22.72800 28.64400
H  -1.79500 23.65100 28.04500
H  -1.74800 22.48200 29.46000
H  -2.23000 24.24100 24.63200
H  -1.13400 24.38600 26.01400
H  -2.81100 23.58400 26.21700
H  0.25800 17.81700 22.54900
H  -1.44700 15.63500 22.30400
H  -1.71900 17.65000 20.78000
H  -2.16100 19.01700 21.89800
H  -2.74700 17.40500 22.22900
H  0.72900 15.49500 21.42600
H  0.55000 14.39900 22.69500
H  1.62800 16.71900 24.04900
H  2.55300 16.44300 22.56700
H  2.43500 15.11000 23.77800
H  -1.26800 11.51300 25.49400
H  -3.04600 11.63400 25.76900
H  -1.95300 10.84300 26.98200
H  -3.10100 13.70600 31.14200
H  -1.29800 12.32900 34.54700
H  -0.21000 13.73100 34.09400
H  0.16000 12.00800 33.66000
Mg -1.63600 34.52500 26.71700
C  -3.34200 32.61500 29.06600
C  -0.77900 36.77400 29.17800
C  -0.80400 36.63000 24.29600
C  -3.10400 32.39300 24.17800
N  -1.90100 34.61000 28.92200
C  -2.53900 33.63200 29.66000
C  -2.46400 34.04200 31.17800
C  -1.75500 35.45300 31.16500
C  -1.49000 35.66300 29.67800
C  -2.68200 36.53600 31.88800
C  -1.73600 33.01700 32.18000
C  -2.40500 32.68300 33.58000
H  -1.63600 32.59300 34.88700
N  -0.68600 36.27900 26.70400
C  -0.35900 37.03900 27.82000
C  0.47800 38.14300 27.32100
C  0.44000 38.25000 25.93500
C  -0.37500 37.00900 25.57200
C  1.25700 38.94900 28.31500
C  1.03000 39.17200 24.98700
O  0.91600 38.99000 23.78700
C  1.95400 40.37500 25.48800
N  -1.77500 34.45000 24.53500
C  -1.44900 35.46300 23.81400
C  -1.70200 35.23700 22.29700
C  -2.27800 33.80600 22.26100
C  -2.32300 33.45500 23.76200
C  -2.59900 36.41900 21.60400
C  -1.59800 32.87400 21.30600
C  -0.38000 32.08000 21.90000
N  -2.79700 32.79000 26.62500
C  -3.32900 32.08100 25.53900
C  -4.14100 30.96400 26.04900
C  -4.22100 31.16900 27.42900
C  -3.39200 32.28100 27.76300
C  -4.89700 29.95200 25.23100
C  -4.77200 30.68700 28.66200
O  -5.53900 29.79500 28.82500
C  -4.08800 31.53800 29.80200
C  -5.15200 32.01600 30.76800
O  -5.92700 32.94700 30.66400
O  -5.20300 31.13100 31.79700
C  -6.19600 31.45100 32.83300
H  -0.52700 37.49300 29.96000
H  -0.52600 37.34000 23.51400
H  -3.59100 31.85500 23.36100
H  -3.48500 34.15200 31.54500
H  -0.82600 35.41300 31.73500
H  -3.54000 36.02100 32.32100
H  -3.09600 37.22300 31.14900
H  -1.99500 37.00000 32.59500
H  -0.71200 33.25000 32.47400
H  -1.78600 32.07200 31.63800
H  -3.05200 31.80800 33.51200
H  -3.03300 33.56400 33.70900
H  1.21500 38.65300 29.36300
H  0.88600 39.97200 28.27100
H  2.30100 38.93500 28.00100
H  2.80800 39.91700 25.98800
H  1.39600 40.91600 26.25200
H  2.46700 41.04100 24.79500
H  -0.75100 35.18500 21.76700
H  -3.30500 33.91000 21.90900
H  -2.02700 36.74600 20.73600
H  -2.70500 37.28300 22.26100
H  -3.54500 35.98600 21.27900
H  -1.26100 33.28500 20.35500
H  -2.36300 32.15300 21.01900
H  -0.07200 32.45600 22.87600
H  0.46700 32.25500 21.23600
H  -0.65300 31.04100 22.08700
H  -4.26600 29.78700 24.35800
H  -5.87100 30.33200 24.92100
H  -4.97200 28.97800 25.71400
H  -3.39000 30.82700 30.24500
H  -7.23500 31.26100 32.56300
H  -6.21200 32.48600 33.17700
H  -5.97300 30.85300 33.71600

