158

Mg -11.57700 16.18000 42.44200
C  -8.17700 17.16600 42.30700
C  -12.40500 19.50600 42.22700
C  -14.85100 15.24400 42.07900
C  -10.59900 12.84900 42.29200
N  -10.38300 18.12500 42.37300
C  -9.05700 18.27400 42.28600
C  -8.65600 19.71100 41.98400
C  -10.06600 20.46500 42.34800
C  -11.05600 19.33000 42.30100
C  -9.94400 21.21900 43.73300
C  -8.19100 19.84300 40.42000
C  -7.04500 20.79300 40.10600
H  -6.02400 20.18900 39.09100
N  -13.39400 17.18600 42.33800
C  -13.48700 18.62700 42.22500
C  -14.87700 18.93200 42.12900
C  -15.61500 17.71000 42.15900
C  -14.64800 16.63000 42.21300
C  -15.32900 20.25700 41.99500
C  -17.17700 17.63900 42.22600
O  -17.83200 18.66200 42.29800
C  -17.97000 16.28600 42.36100
N  -12.56900 14.34300 42.31900
C  -13.91200 14.21100 42.18400
C  -14.29400 12.75800 42.28000
C  -12.99000 11.97400 42.00600
C  -11.96300 13.09600 42.27300
C  -14.78900 12.52200 43.62600
C  -12.86000 11.47900 40.52100
C  -13.60200 10.20400 40.35100
N  -9.75900 15.20300 42.15600
C  -9.49100 13.79900 42.22200
C  -8.07100 13.52600 42.24800
C  -7.52900 14.84400 42.24500
C  -8.61200 15.81200 42.24600
C  -7.40500 12.18700 42.45000
C  -6.28900 15.62500 42.36300
O  -5.11800 15.28800 42.41400
C  -6.68000 17.12600 42.42300
C  -6.22800 17.59400 43.81900
O  -6.01100 16.88300 44.82200
O  -5.91700 18.96000 43.87300
C  -5.36300 19.56000 45.11400
H  -12.62400 20.56700 42.09300
H  -15.88600 14.92000 41.95400
H  -10.17900 11.84600 42.18800
H  -7.82800 19.96600 42.64400
H  -10.26400 21.23400 41.60200
H  -10.63300 20.79800 44.46500
H  -10.23500 22.25800 43.57700
H  -8.93100 21.08000 44.11100
H  -9.03400 20.13100 39.79100
H  -7.85600 18.86100 40.08800
H  -6.49200 21.01500 41.01800
H  -7.48900 21.76100 39.87200
H  -14.56900 21.03800 42.02000
H  -15.95500 20.52500 42.84600
H  -15.83800 20.35400 41.03600
H  -18.95200 16.51100 42.77700
H  -17.42000 15.71900 43.11200
H  -18.08400 15.80400 41.39000
H  -15.05500 12.36700 41.60500
H  -12.87500 11.18800 42.75300
H  -15.22000 13.41100 44.08500
H  -14.12600 12.12800 44.39700
H  -15.56200 11.75600 43.57200
H  -11.83800 11.26200 40.20800
H  -13.26000 12.31400 39.94500
H  -14.47800 10.43100 39.74300
H  -13.84100 9.80300 41.33600
H  -12.99700 9.40100 39.92900
H  -7.31700 11.94200 43.50800
H  -6.46200 12.07500 41.91500
H  -7.99500 11.33500 42.11100
H  -6.13200 17.52200 41.56800
H  -5.56700 20.63000 45.11100
H  -4.27600 19.63800 45.13400
H  -5.72300 19.16200 46.06400
Mg -6.10100 24.99800 25.56400
C  -4.16700 26.43700 28.24700
C  -7.80100 23.17300 27.85700
C  -7.74700 23.74300 23.04300
C  -4.10100 26.89000 23.43600
N  -5.93600 24.77400 27.77200
C  -5.17200 25.53200 28.67700
C  -5.62200 25.14500 30.08300
C  -6.47100 23.85700 29.95500
C  -6.77000 23.95000 28.45600
C  -5.84500 22.45700 30.33200
C  -6.21700 26.34300 30.79700
C  -6.05200 26.46600 32.38000
H  -5.58700 25.17000 33.07600
N  -7.56900 23.61800 25.50800
C  -8.16700 23.00000 26.50500
C  -9.20200 22.15000 26.04400
C  -9.20300 22.29300 24.60000
C  -8.18100 23.27300 24.31600
C  -10.06200 21.31700 27.01500
C  -10.20700 21.63200 23.55300
O  -10.36200 21.99400 22.35600
C  -11.34200 20.66300 24.02500
N  -5.84100 25.18200 23.44900
C  -6.64900 24.50700 22.63700
C  -6.18800 24.73800 21.16500
C  -5.26200 26.03900 21.29200
C  -5.05300 26.12700 22.81700
C  -5.56500 23.52300 20.45900
C  -5.94500 27.21300 20.56400
C  -5.12000 28.04900 19.62700
N  -4.41000 26.35000 25.72100
C  -3.74300 27.03800 24.79100
C  -2.72600 27.85400 25.38500
C  -2.83600 27.62600 26.76800
C  -3.89700 26.73200 26.87800
C  -1.80700 28.77700 24.68700
C  -2.36700 27.95600 28.05900
O  -1.44200 28.70400 28.34200
C  -3.21300 27.25000 29.09800
C  -2.28300 26.47900 29.98800
O  -1.46200 25.66400 29.69200
O  -2.55400 26.89900 31.27800
C  -1.81400 26.37900 32.38600
H  -8.34500 22.70100 28.67800
H  -8.10200 23.15500 22.19400
H  -3.45700 27.58400 22.89200
H  -4.66000 24.80900 30.47000
H  -7.29400 24.05000 30.64300
H  -5.75700 21.85800 29.42600
H  -6.57400 22.05400 31.03400
H  -4.85700 22.45400 30.79400
H  -7.27000 26.40600 30.52500
H  -5.74200 27.25700 30.43900
H  -7.08500 26.70800 32.63000
H  -5.47400 27.35700 32.62600
H  -11.09300 21.45500 26.69000
H  -9.93800 21.66500 28.04100
H  -9.64300 20.31300 27.08000
H  -11.95600 20.36100 23.17700
H  -11.88000 20.97800 24.91900
H  -10.68700 19.86900 24.38300
H  -7.11000 24.99300 20.64100
H  -4.28500 25.77700 20.88500
H  -6.20800 23.23800 19.62600
H  -5.27100 22.72400 21.13900
H  -4.58800 23.77300 20.04500
H  -6.19000 27.93300 21.34500
H  -6.82800 26.82500 20.05700
H  -5.70900 28.24800 18.73100
H  -4.26300 27.50600 19.22800
H  -4.90500 29.04700 20.00800
H  -1.02900 28.29600 24.09400
H  -1.21100 29.28400 25.44600
H  -2.29200 29.51500 24.04800
H  -3.70800 28.01800 29.69300
H  -0.79900 26.71200 32.16600
H  -1.76900 25.29000 32.38900
H  -2.17800 26.79300 33.32600

