158

Mg 48.57600 45.23800 43.35600
C  45.39400 45.60200 41.81000
C  49.13000 42.61800 41.11900
C  51.94600 45.32000 43.90200
C  48.16100 48.47300 44.61700
N  47.39700 44.33300 41.63500
C  46.14800 44.60000 41.20200
C  45.69500 43.65700 40.12300
C  46.74200 42.51800 40.14500
C  47.88700 43.18400 41.02600
C  46.31500 41.15600 40.65900
C  45.47500 44.28400 38.65200
C  44.10100 43.90700 37.98900
H  44.24300 43.18000 36.65900
N  50.23100 43.95200 42.83300
C  50.20700 42.98300 41.94300
C  51.50200 42.28200 41.95200
C  52.36300 43.04100 42.80300
C  51.51700 44.15400 43.27900
C  51.78100 41.06000 41.16100
C  53.84500 42.73000 43.06700
O  54.36600 41.77100 42.52700
C  54.71100 43.63100 43.99100
N  49.87000 46.63500 44.16700
C  51.22200 46.43700 44.40000
C  51.83100 47.58300 45.07100
C  50.59300 48.59100 45.37500
C  49.49400 47.87400 44.63100
C  52.75700 47.37400 46.26000
C  50.84100 50.09400 45.10900
C  51.98700 50.68900 45.85800
N  47.03200 46.67700 43.46600
C  47.00300 47.92600 44.01000
C  45.62800 48.41000 44.04000
C  44.94900 47.51600 43.16300
C  45.84300 46.47400 42.84500
C  45.18300 49.61700 44.82500
C  43.72300 47.23200 42.60100
O  42.68500 47.84200 42.65300
C  43.93100 46.01400 41.67200
C  42.90400 45.03100 42.06800
O  41.77900 44.86700 41.50600
O  43.23600 44.49700 43.34800
C  42.19800 43.85700 44.17500
H  49.18800 41.77500 40.42700
H  52.99800 45.30800 44.19200
H  47.99000 49.49800 44.95400
H  44.74500 43.31400 40.53300
H  47.09600 42.39900 39.12100
H  46.32400 40.38300 39.89100
H  45.25300 41.20200 40.90000
H  46.82200 40.75900 41.53900
H  46.30800 44.26200 37.94900
H  45.42200 45.36000 38.82000
H  43.56800 44.82200 37.73100
H  43.45200 43.28300 38.60400
H  50.94000 40.54400 40.69700
H  52.24200 40.34300 41.83900
H  52.55300 41.35600 40.45100
H  54.25000 43.74000 44.97300
H  54.86800 44.60300 43.52400
H  55.64600 43.08200 44.10400
H  52.42500 47.98400 44.25000
H  50.35300 48.48400 46.43200
H  53.49200 48.17800 46.28900
H  53.48500 46.56400 46.21200
H  52.27700 47.42200 47.23700
H  49.99700 50.75600 45.30400
H  51.02500 50.23100 44.04300
H  51.72200 51.71100 46.12900
H  52.89000 50.92400 45.29400
H  52.32100 50.03600 46.66400
H  45.93500 49.86600 45.57400
H  44.22200 49.37100 45.27500
H  45.09200 50.50900 44.20500
H  43.67900 46.33800 40.66200
H  42.51200 42.83700 44.39500
H  41.20200 43.82200 43.73500
H  42.11100 44.43400 45.09600
Mg -1.56000 34.91700 25.88000
C  -3.49000 33.50900 28.44800
C  -0.67700 37.42800 28.04500
C  0.14700 36.30600 23.37500
C  -2.87400 32.54300 23.68300
N  -2.06600 35.42000 28.04700
C  -2.83200 34.69500 28.85600
C  -2.69700 35.09600 30.32400
C  -1.95800 36.45700 30.18400
C  -1.59400 36.53100 28.67600
C  -2.82100 37.61800 30.70100
C  -1.99000 34.04300 31.13200
C  -1.53800 34.56900 32.49600
H  -1.79300 33.57900 33.60400
N  -0.35700 36.57700 25.70700
C  -0.11800 37.46800 26.71900
C  0.81200 38.43200 26.25400
C  1.07900 38.09300 24.88100
C  0.23400 36.99300 24.59300
C  1.49600 39.51100 27.09300
C  2.04500 38.82100 24.00800
O  2.24800 38.53300 22.84100
C  2.86100 39.96800 24.45500
N  -1.38100 34.56300 23.82500
C  -0.62200 35.23700 22.95600
C  -0.51500 34.63400 21.56500
C  -1.44200 33.40900 21.75000
C  -1.89700 33.43700 23.22500
C  -0.94100 35.61500 20.41000
C  -0.80500 32.08500 21.17100
C  -0.53600 30.94900 22.20600
N  -3.06800 33.41800 25.91400
C  -3.44000 32.53200 24.94400
C  -4.37100 31.65100 25.54700
C  -4.36600 31.96500 26.93200
C  -3.63200 33.09500 27.07300
C  -5.14100 30.44300 24.88900
C  -4.84000 31.53900 28.21200
O  -5.50400 30.54500 28.50000
C  -4.24200 32.49000 29.29200
C  -5.37100 32.87500 30.19500
O  -6.13500 33.81700 30.00000
O  -5.49400 31.93200 31.13400
C  -6.41600 32.09800 32.28100
H  -0.41700 38.20400 28.76800
H  0.75300 36.77300 22.59600
H  -3.23900 31.65900 23.15700
H  -3.69800 35.18400 30.74700
H  -1.00100 36.44300 30.70500
H  -2.20000 38.26500 31.32000
H  -3.57900 37.19200 31.35800
H  -3.21400 38.24900 29.90400
H  -1.09700 33.88700 30.52700
H  -2.60600 33.14600 31.19300
H  -1.89700 35.56900 32.74000
H  -0.45200 34.53400 32.58100
H  2.55900 39.27400 27.05000
H  1.18300 39.40400 28.13200
H  1.22100 40.49500 26.71300
H  2.42300 40.69400 25.14000
H  3.19000 40.57700 23.61300
H  3.65300 39.41100 24.95600
H  0.51300 34.27200 21.55800
H  -2.39800 33.55600 21.24800
H  -1.97400 35.42200 20.12100
H  -0.26200 35.62900 19.55700
H  -0.85100 36.65600 20.72100
H  0.20000 32.31700 20.81800
H  -1.47700 31.73000 20.38900
H  -0.10500 31.35700 23.12100
H  0.21600 30.27100 21.80200
H  -1.48000 30.41400 22.30600
H  -5.99000 30.29400 25.55700
H  -4.48400 29.57800 24.79600
H  -5.56300 30.69500 23.91600
H  -3.51600 31.81100 29.73800
H  -6.11400 33.01100 32.79500
H  -6.44000 31.24700 32.96100
H  -7.41000 32.09300 31.83200

