158

Mg 48.10700 16.05600 29.04000
C  45.79700 15.60900 31.62400
C  49.83600 18.12000 31.29100
C  50.06500 16.86300 26.57200
C  45.62600 14.85800 26.72000
N  47.87400 16.71900 31.23600
C  46.89800 16.36200 32.10400
C  47.09900 16.78600 33.52300
C  48.24000 17.86600 33.32000
C  48.66600 17.59200 31.83700
C  47.79500 19.35600 33.48500
C  47.64500 15.52500 34.28600
C  47.99900 15.69200 35.78900
H  47.44300 16.74800 36.73100
N  49.82300 17.15500 29.01600
C  50.38200 17.91800 30.04700
C  51.63300 18.46300 29.57200
C  51.65500 18.23600 28.15300
C  50.52000 17.33900 27.80800
C  52.52600 19.26500 30.48300
C  52.66900 18.75300 27.09800
O  52.47600 18.56400 25.88800
C  53.87000 19.41500 27.62900
N  47.92200 15.75800 27.00700
C  48.92400 16.11100 26.18800
C  48.73000 15.78200 24.70600
C  47.37200 14.96300 24.84000
C  46.93800 15.16000 26.29500
C  48.53100 17.05500 23.81900
C  47.56300 13.40000 24.59100
C  46.77000 12.71500 23.52500
N  46.11100 15.36900 29.12600
C  45.27500 14.77800 28.13100
C  44.04600 14.30900 28.72300
C  44.30500 14.58800 30.05900
C  45.51100 15.18900 30.29700
C  42.90500 13.56200 28.21100
C  43.70400 14.34400 31.35200
O  42.65600 13.88900 31.73500
C  44.65800 15.01300 32.42400
C  43.87800 16.06600 33.08900
O  43.22500 16.95300 32.58500
O  43.96200 15.81700 34.43200
C  43.33200 16.79300 35.32500
H  50.37500 18.85100 31.89700
H  50.75300 17.13000 25.76700
H  44.87600 14.44700 26.04100
H  46.16800 17.04700 34.02700
H  49.13100 17.66700 33.91600
H  46.70600 19.37900 33.44400
H  48.23000 19.98200 32.70500
H  48.03400 19.74100 34.47700
H  48.61300 15.27100 33.85600
H  46.95800 14.72300 34.01500
H  49.08800 15.64800 35.79100
H  47.61900 14.84400 36.35900
H  53.36400 18.62900 30.77100
H  52.09000 19.65800 31.40200
H  52.84000 20.20100 30.02000
H  54.59200 19.50600 26.81800
H  54.31900 18.78400 28.39600
H  53.54000 20.37200 28.03200
H  49.48400 15.07300 24.36600
H  46.71500 15.29600 24.03700
H  47.54400 17.29600 23.42400
H  49.08500 16.79800 22.91600
H  49.03300 17.86500 24.34800
H  47.21500 12.84600 25.46400
H  48.62600 13.16400 24.55600
H  45.99600 12.04000 23.89100
H  47.40900 12.07400 22.91900
H  46.33600 13.48100 22.88200
H  42.80600 13.54700 27.12500
H  42.01500 14.02000 28.64200
H  42.97900 12.55600 28.62500
H  44.93400 14.29500 33.19700
H  43.25600 17.76700 34.84100
H  43.99000 16.86400 36.19100
H  42.37300 16.56700 35.79100
Mg 35.24800 47.40900 25.19700
C  35.92300 45.80000 28.06600
C  34.01300 50.05500 27.08100
C  34.53500 49.17200 22.30200
C  36.28400 44.66500 23.36900
N  34.87900 47.78000 27.42900
C  35.33000 46.97900 28.38400
C  35.12400 47.68200 29.72100
C  34.17300 48.93000 29.32500
C  34.33100 48.93000 27.87200
C  32.67000 48.91500 29.79700
C  36.39300 48.12200 30.50900
C  36.34400 47.96900 31.97800
H  35.16400 47.94300 32.95600
N  34.42900 49.35700 24.78200
C  34.05600 50.30500 25.69700
C  33.72100 51.54600 25.03100
C  33.78000 51.27600 23.61500
C  34.27900 49.91300 23.49500
C  33.43400 52.92200 25.67400
C  33.53200 52.20200 22.44600
O  33.47200 51.74400 21.32500
C  33.32300 53.68300 22.68700
N  35.33900 46.89700 23.14200
C  34.98000 47.81800 22.11600
C  35.34700 47.17100 20.75200
C  36.12500 45.86700 21.10800
C  35.87800 45.74700 22.61700
C  34.14000 46.86400 19.78800
C  37.61500 45.86200 20.76100
C  38.63700 46.12300 21.88300
N  35.92100 45.55300 25.61400
C  36.32500 44.49900 24.73900
C  36.66200 43.41500 25.52600
C  36.62700 43.86900 26.87500
C  36.03800 45.11500 26.81200
C  37.23400 42.08900 24.95600
C  36.85300 43.54800 28.24300
O  37.31300 42.51500 28.70400
C  36.39100 44.75200 29.10400
C  35.32000 44.32200 30.07400
O  34.18100 43.98000 29.74700
O  35.68800 44.49700 31.40500
C  34.69000 44.12200 32.41000
H  33.67600 50.96200 27.58800
H  34.37500 49.56900 21.29700
H  36.62900 43.80300 22.79400
H  34.60300 47.04900 30.43900
H  34.59500 49.86700 29.68900
H  32.46200 49.70500 30.51800
H  32.18600 48.01400 30.17300
H  32.12200 49.26600 28.92200
H  36.66900 49.15500 30.29700
H  37.18000 47.49900 30.08400
H  36.99500 48.71800 32.42900
H  36.80600 46.98400 32.03600
H  34.02400 53.75100 25.28100
H  33.73100 52.93500 26.72300
H  32.36700 53.10700 25.55200
H  34.09500 54.07200 23.35100
H  32.39800 53.71000 23.26400
H  33.28600 54.23200 21.74700
H  36.17700 47.76600 20.37200
H  35.63700 45.07600 20.53800
H  33.41300 47.67300 19.72200
H  33.72100 45.94400 20.19700
H  34.43400 46.61000 18.76900
H  37.77300 46.44300 19.85300
H  37.69800 44.87600 20.30400
H  38.97600 45.19100 22.33500
H  38.19300 46.65300 22.72500
H  39.50000 46.71900 21.58600
H  36.42100 41.37100 24.84900
H  37.91100 41.76500 25.74600
H  37.70700 42.35500 24.01000
H  37.25400 45.04300 29.70400
H  34.71000 43.04000 32.53600
H  33.70300 44.50900 32.15800
H  34.96700 44.34400 33.44100

