158

Mg 35.20600 1.82500 28.79500
C  33.43500 3.27100 31.45300
C  37.94100 1.63200 30.76000
C  36.85100 0.98800 26.00500
C  32.36700 2.57100 26.71900
N  35.56800 2.38700 30.80700
C  34.66800 2.78500 31.79700
C  35.37600 2.81600 33.18200
C  36.81800 2.67000 32.86900
C  36.82600 2.24200 31.40200
C  37.72900 3.92700 33.40200
C  34.80700 1.72000 34.10300
C  34.72000 1.98900 35.69200
H  35.24600 3.35300 36.24100
N  37.09200 1.28800 28.50700
C  38.08300 1.25100 29.39700
C  39.32000 0.84200 28.73000
C  38.94300 0.45500 27.39000
C  37.56800 0.83500 27.26900
C  40.65000 0.81100 29.48000
C  39.86000 -0.10000 26.26400
O  39.43600 -0.31400 25.09900
C  41.25800 -0.38100 26.58300
N  34.58600 1.78500 26.58900
C  35.52100 1.34300 25.75000
C  34.84600 1.17400 24.35300
C  33.31100 1.43600 24.64200
C  33.37800 1.89900 26.03100
C  35.48100 2.14500 23.31900
C  32.50900 0.08700 24.52900
C  32.07300 -0.34600 23.09800
N  33.27200 2.71600 29.02800
C  32.31300 2.94900 28.07200
C  31.13300 3.57900 28.78300
C  31.50000 3.62600 30.16200
C  32.81000 3.18000 30.19400
C  29.84300 4.01800 28.18000
C  31.01500 3.99500 31.44600
O  29.94600 4.41800 31.83900
C  32.32900 3.80900 32.35200
C  32.71700 4.95900 33.15900
O  33.42100 5.84200 32.78200
O  31.98500 4.98600 34.31500
C  32.18800 6.12500 35.33100
H  38.82300 1.53600 31.39700
H  37.29700 0.70600 25.04800
H  31.37500 2.60700 26.26300
H  35.17800 3.81400 33.57300
H  37.28200 1.85800 33.42900
H  37.20700 4.51900 34.15400
H  38.09000 4.55000 32.58300
H  38.69100 3.59000 33.78900
H  35.43200 0.83100 34.01400
H  33.78500 1.47900 33.81200
H  35.29600 1.30200 36.31200
H  33.68300 1.82500 35.98500
H  41.26900 -0.02200 29.14700
H  40.61300 0.63200 30.55400
H  41.09100 1.78100 29.24600
H  41.82100 -0.41300 25.65000
H  41.32700 -1.26100 27.22200
H  41.65800 0.43900 27.17900
H  35.13200 0.15400 24.09800
H  32.84800 2.09600 23.90900
H  36.31100 2.77100 23.64500
H  34.77400 2.85900 22.89800
H  35.70900 1.59500 22.40600
H  31.68500 0.18900 25.23400
H  33.11200 -0.68000 25.01500
H  30.98400 -0.34200 23.14900
H  32.40800 -1.36100 22.88600
H  32.44100 0.25700 22.26800
H  29.94600 4.42200 27.17300
H  29.40800 4.68100 28.92800
H  29.18700 3.16600 28.00100
H  31.98900 3.09500 33.10300
H  32.94000 6.86100 35.04800
H  32.62900 5.74400 36.25200
H  31.27300 6.67000 35.56600
Mg 0.48900 43.26400 25.98600
C  2.86600 43.02300 28.44200
C  -1.91000 42.09800 28.05500
C  -1.56400 43.04700 23.24700
C  3.21100 43.99100 23.62400
N  0.57200 42.57500 27.99100
C  1.53900 42.76700 28.86100
C  1.01000 42.69900 30.30200
C  -0.42100 42.11900 30.10300
C  -0.63400 42.19600 28.61100
C  -0.50400 40.58300 30.50700
C  1.14200 44.01400 31.14100
C  1.23800 43.96600 32.66200
H  0.86300 42.60000 33.29100
N  -1.53300 42.73400 25.73500
C  -2.33600 42.37900 26.71900
C  -3.71900 42.17900 26.15100
C  -3.61900 42.43800 24.70600
C  -2.16800 42.72700 24.48500
C  -4.98000 41.86600 27.01500
C  -4.62300 42.35500 23.72600
O  -4.44300 42.76700 22.61400
C  -5.96800 41.87700 24.12300
N  0.81300 43.37700 23.81300
C  -0.25500 43.38600 22.93600
C  0.16200 43.84800 21.51100
C  1.70800 44.08300 21.62300
C  1.93300 43.83200 23.11600
C  -0.15400 42.95400 20.26400
C  2.25900 45.46800 21.12000
C  2.33100 46.67100 22.00600
N  2.60300 43.51800 25.97300
C  3.53300 43.81600 24.98700
C  4.85200 43.81300 25.61000
C  4.64500 43.52100 26.93000
C  3.26400 43.31300 27.11900
C  6.12300 43.92500 24.85900
C  5.30500 43.23500 28.16500
O  6.49600 43.07800 28.46800
C  4.15500 43.05000 29.24900
C  4.43100 41.87200 30.07400
O  4.17900 40.70900 29.79500
O  4.86900 42.30600 31.30000
C  5.10800 41.35300 32.36500
H  -2.61900 41.66300 28.76200
H  -2.21000 43.13900 22.37100
H  3.98800 44.21500 22.89100
H  1.55900 41.94300 30.86400
H  -1.22100 42.63100 30.63600
H  0.40400 40.33100 31.05400
H  -0.48600 39.87100 29.68200
H  -1.43300 40.38500 31.04200
H  0.29400 44.62900 30.83900
H  2.01300 44.53600 30.74600
H  0.78400 44.78700 33.21600
H  2.29400 44.03200 32.92600
H  -4.86700 41.80600 28.09700
H  -5.25000 40.86100 26.68800
H  -5.78900 42.58400 26.88000
H  -5.83000 40.90200 24.58900
H  -6.59800 41.77500 23.23900
H  -6.46000 42.55500 24.82000
H  -0.29000 44.82900 21.36300
H  2.31700 43.34300 21.10400
H  -0.59900 41.98500 20.49300
H  0.70200 42.89300 19.59300
H  -0.88800 43.55100 19.72300
H  1.72700 45.78800 20.22300
H  3.29500 45.32400 20.81200
H  3.29000 46.73900 22.52000
H  1.61000 46.66400 22.82300
H  2.25500 47.50400 21.30800
H  6.31500 44.87300 24.35600
H  6.22500 43.24400 24.01500
H  6.86100 43.66900 25.62000
H  4.05400 43.98100 29.80600
H  5.34100 41.81300 33.32500
H  5.82500 40.57900 32.09200
H  4.20600 40.77900 32.57900

