158

Mg 17.41400 50.87400 26.34300
C  19.50100 49.64800 28.80700
C  14.93800 51.59500 28.62400
C  15.68200 51.96800 23.78200
C  20.08800 49.88200 24.09100
N  17.19100 50.61400 28.42400
C  18.21900 50.19800 29.25200
C  17.97800 50.50800 30.71700
C  16.40200 50.89100 30.61700
C  16.09700 51.05100 29.14400
C  15.48000 49.81300 31.23400
C  18.81800 51.61000 31.29000
C  18.86600 51.66100 32.87800
H  17.76500 51.04200 33.75200
N  15.49600 51.66800 26.20100
C  14.67700 51.97600 27.26300
C  13.61600 52.80100 26.79500
C  13.82700 52.95800 25.39100
C  14.97100 52.09300 25.05300
C  12.52900 53.33700 27.70600
C  12.99200 53.89800 24.38900
O  13.35600 53.94800 23.22200
C  11.73400 54.64500 24.85700
N  17.82500 50.83200 24.23100
C  16.86300 51.27800 23.39800
C  17.34900 51.10000 21.96800
C  18.83000 50.64600 22.01700
C  18.92700 50.43300 23.49200
C  16.34800 50.21500 21.24300
C  19.85400 51.83800 21.59300
C  20.67700 51.54400 20.27100
N  19.33700 49.82200 26.38300
C  20.25100 49.51300 25.41400
C  21.34600 48.82100 25.94400
C  21.13700 48.79800 27.31500
C  19.92100 49.49300 27.48300
C  22.49100 48.39200 25.15400
C  21.71300 48.49100 28.62300
O  22.74900 48.10800 28.99900
C  20.64000 49.02100 29.60900
C  20.29500 47.92600 30.61100
O  19.44800 47.11700 30.47600
O  21.01100 48.20400 31.70800
C  20.61400 47.46800 32.89600
H  14.22500 52.00200 29.34400
H  15.19600 52.40300 22.90600
H  20.93200 49.85100 23.39900
H  18.17400 49.68500 31.40400
H  16.25900 51.87600 31.06200
H  14.82800 49.34200 30.49800
H  14.94100 50.28700 32.05400
H  16.06000 48.96200 31.59100
H  18.50200 52.61100 30.99600
H  19.84000 51.50400 30.92500
H  19.11100 52.66100 33.23500
H  19.79500 51.09700 32.94800
H  11.63900 52.89800 27.25500
H  12.58400 54.42400 27.75300
H  12.65100 52.95500 28.72000
H  11.06000 54.04500 25.46800
H  11.19500 55.01600 23.98500
H  12.01300 55.54400 25.40600
H  17.36500 52.04900 21.43200
H  19.00700 49.69700 21.51000
H  16.01200 50.66600 20.31000
H  15.46000 50.15900 21.87200
H  16.70000 49.18400 21.23800
H  20.41200 52.29000 22.41300
H  19.28200 52.70800 21.27200
H  20.31900 50.66700 19.73200
H  21.75200 51.60800 20.43900
H  20.48200 52.37900 19.59800
H  23.19200 47.85500 25.79300
H  22.98500 49.18800 24.59600
H  22.13900 47.65700 24.43000
H  21.28300 49.74000 30.11500
H  19.56500 47.59300 33.16500
H  21.22700 47.90000 33.68800
H  20.88900 46.41800 32.78600
Mg -5.55900 25.09100 25.84800
C  -3.95800 26.39700 28.78200
C  -7.58300 23.19800 28.01300
C  -6.90900 23.74300 23.16800
C  -3.25400 26.74100 23.93200
N  -5.57900 24.68100 28.06900
C  -4.90600 25.43500 29.03900
C  -5.55200 25.21900 30.39100
C  -6.43400 23.87500 30.18500
C  -6.62400 23.98500 28.67400
C  -5.67600 22.61100 30.66700
C  -6.42000 26.40800 30.94700
C  -6.46700 26.49300 32.50600
H  -6.02800 25.37700 33.48100
N  -7.01200 23.65300 25.65000
C  -7.75700 23.03300 26.67700
C  -8.71300 22.15800 25.98700
C  -8.50900 22.26500 24.56900
C  -7.46600 23.28900 24.38200
C  -9.64600 21.26500 26.76300
C  -9.12500 21.52800 23.42600
O  -8.79700 21.61400 22.23600
C  -10.10600 20.49800 23.76500
N  -5.14100 25.19100 23.81000
C  -5.86600 24.56000 22.91000
C  -5.30400 24.76300 21.55600
C  -4.17400 25.85700 21.76400
C  -4.13400 25.88700 23.21700
C  -4.92000 23.48600 20.84900
C  -4.42200 27.22200 21.07200
C  -4.72600 27.25700 19.56400
N  -4.06800 26.42900 26.24200
C  -3.22900 27.03800 25.32800
C  -2.22700 27.84300 25.95500
C  -2.46000 27.58200 27.36200
C  -3.61400 26.79200 27.46300
C  -0.96200 28.44800 25.29200
C  -1.98000 27.79600 28.72500
O  -0.96300 28.32200 29.13700
C  -3.07600 27.26900 29.68800
C  -2.40300 26.46100 30.72000
O  -1.91300 25.34300 30.48800
O  -2.33300 27.07800 31.91600
C  -1.78600 26.29900 33.02700
H  -8.18800 22.72000 28.78600
H  -7.37600 23.46700 22.22100
H  -2.40700 27.15100 23.37800
H  -4.72200 24.94400 31.04200
H  -7.35200 24.00100 30.75900
H  -4.68400 22.82800 31.06300
H  -5.64200 21.80100 29.93800
H  -6.19000 22.19300 31.53300
H  -7.46100 26.34000 30.62900
H  -5.86500 27.27500 30.59100
H  -7.40800 26.89500 32.88000
H  -5.72700 27.24800 32.77000
H  -9.48800 20.20000 26.59200
H  -10.71200 21.43900 26.61700
H  -9.51500 21.48800 27.82200
H  -10.61100 20.23600 22.83600
H  -10.90600 20.78400 24.44800
H  -9.57200 19.70200 24.28400
H  -6.07800 25.18300 20.91300
H  -3.25400 25.39700 21.40400
H  -5.01300 22.62900 21.51500
H  -3.89400 23.50800 20.48300
H  -5.59400 23.21700 20.03500
H  -3.58800 27.90600 21.23100
H  -5.23300 27.80500 21.50900
H  -4.78800 26.23200 19.19900
H  -3.91200 27.83300 19.12500
H  -5.66300 27.78800 19.39700
H  -1.21000 29.51000 25.27000
H  -0.74800 27.96800 24.33700
H  -0.03900 28.36400 25.86500
H  -3.64000 28.09800 30.11500
H  -0.71900 26.08500 32.96400
H  -2.27900 25.35300 33.25200
H  -1.94500 26.92400 33.90500

