158

Mg 46.48600 25.20000 28.31500
C  46.92200 27.35800 31.08100
C  45.46700 22.88000 30.65100
C  47.15400 22.87300 26.11500
C  48.01300 27.56900 26.25300
N  46.38000 25.09600 30.67300
C  46.47800 26.12800 31.52500
C  46.15000 25.71300 33.02400
C  46.00600 24.21200 32.80700
C  45.82600 24.06100 31.24700
C  47.02300 23.23900 33.41600
C  44.97500 26.54000 33.65400
C  45.16300 27.05000 35.04000
H  44.09300 27.00800 36.12800
N  46.13600 23.22600 28.23700
C  45.66000 22.46600 29.26900
C  45.34600 21.15300 28.69300
C  45.92900 21.07600 27.39500
C  46.37600 22.40800 27.17400
C  44.71300 20.04900 29.51600
C  46.08800 19.89400 26.35400
O  46.59300 20.01000 25.30100
C  45.63500 18.54200 26.76800
N  47.63200 25.19600 26.53100
C  47.85300 24.04200 25.84700
C  48.66700 24.23600 24.49200
C  48.63100 25.77400 24.47000
C  48.00200 26.25700 25.81000
C  50.11400 23.47200 24.48100
C  48.14400 26.49900 23.19100
C  46.64100 26.81100 23.24700
N  47.29000 27.12300 28.57200
C  47.82300 28.02500 27.60200
C  48.11000 29.25100 28.30500
C  47.80400 28.99000 29.64400
C  47.27400 27.67500 29.75700
C  48.76300 30.40000 27.63800
C  47.82800 29.61900 30.92100
O  48.16400 30.73800 31.34800
C  47.34800 28.52200 31.92600
C  48.47800 28.22400 32.87000
O  49.43400 27.50300 32.50200
O  48.38700 28.81400 34.07000
C  49.39000 28.31000 35.04300
H  45.15100 22.12300 31.37100
H  47.30400 22.09900 25.36000
H  48.38600 28.36900 25.61000
H  47.09600 25.92300 33.52200
H  45.03000 23.93800 33.20700
H  47.87200 23.65700 33.95600
H  47.40600 22.58000 32.63600
H  46.52500 22.53100 34.07800
H  44.11900 25.86700 33.61000
H  44.67300 27.39600 33.04900
H  45.26400 28.11900 34.85500
H  46.05500 26.60200 35.47900
H  45.39400 19.19900 29.47900
H  43.76100 19.70100 29.11300
H  44.51500 20.40700 30.52600
H  45.79900 17.88400 25.91400
H  44.57200 18.55400 27.00600
H  46.22700 18.04300 27.53500
H  48.02600 23.86300 23.69400
H  49.69700 25.99700 24.51700
H  49.96100 22.61100 23.83000
H  50.48100 23.20500 25.47200
H  50.87500 24.15300 24.09900
H  48.37300 25.89100 22.31500
H  48.72500 27.41200 23.06300
H  46.10400 26.10500 23.88000
H  46.22200 26.76300 22.24200
H  46.38000 27.81800 23.57300
H  49.73300 30.17300 27.19700
H  49.10700 31.11600 28.38500
H  48.11100 30.90900 26.92700
H  46.45400 28.85200 32.45500
H  48.96400 27.74900 35.87400
H  50.01300 29.12900 35.40200
H  50.13500 27.68900 34.54500
Mg -5.00500 24.63500 27.39700
C  -3.47400 26.49500 29.79300
C  -6.12200 22.36200 29.65100
C  -6.29300 22.78700 24.86700
C  -3.47300 26.82400 24.84500
N  -4.80600 24.47100 29.41100
C  -4.25700 25.39900 30.22100
C  -4.65800 25.15200 31.64100
C  -4.97800 23.61500 31.64100
C  -5.31900 23.43000 30.12000
C  -3.94600 22.58100 32.09200
C  -5.68400 26.15500 32.14800
C  -6.21200 26.03900 33.59300
H  -5.70000 24.97000 34.51300
N  -6.14000 22.86100 27.29300
C  -6.40300 22.05100 28.31500
C  -7.32400 20.97000 27.83300
C  -7.48900 21.13100 26.44500
C  -6.59800 22.25200 26.14000
C  -7.98000 20.01500 28.80800
C  -8.27900 20.32200 25.45100
O  -8.35800 20.62200 24.27800
C  -9.13200 19.24700 25.90600
N  -4.94100 24.83900 25.14400
C  -5.59300 23.93200 24.40900
C  -5.66500 24.35100 22.90300
C  -4.78500 25.69900 22.95600
C  -4.36000 25.77600 24.38000
C  -5.03700 23.29000 22.02500
C  -5.59100 27.01100 22.49200
C  -4.79400 27.87900 21.52700
N  -3.63900 26.26900 27.31300
C  -3.22200 27.05700 26.25700
C  -2.40600 28.13100 26.82800
C  -2.48400 27.95700 28.25600
C  -3.24600 26.85700 28.43000
C  -1.65000 29.05600 26.04100
C  -2.00900 28.48600 29.50900
O  -1.29000 29.44900 29.74300
C  -2.74600 27.59000 30.59100
C  -1.76400 27.04800 31.55400
O  -1.06300 26.16300 31.20600
O  -1.88000 27.59100 32.76700
C  -1.00100 27.02600 33.84200
H  -6.48800 21.80100 30.51300
H  -6.67700 22.26600 23.98800
H  -3.14400 27.48100 24.03700
H  -3.82100 25.26300 32.33000
H  -5.92500 23.46600 32.15800
H  -3.12800 23.16000 32.52100
H  -3.54100 21.96800 31.28700
H  -4.38500 21.93600 32.85400
H  -6.52900 26.21500 31.46100
H  -5.33500 27.18800 32.14200
H  -7.29700 25.95900 33.65800
H  -5.98600 27.02100 34.00900
H  -7.37700 19.15800 29.10800
H  -8.90500 19.71500 28.31500
H  -8.23300 20.47600 29.76300
H  -9.91500 19.55800 26.59900
H  -8.49300 18.56100 26.46100
H  -9.52700 18.72300 25.03600
H  -6.68400 24.43900 22.52500
H  -3.95300 25.52900 22.27200
H  -4.73700 22.45700 22.66100
H  -4.18300 23.61100 21.43000
H  -5.74600 22.85300 21.32100
H  -5.88200 27.63300 23.33800
H  -6.46100 26.68100 21.92300
H  -5.52000 27.96900 20.71900
H  -3.92600 27.40400 21.07100
H  -4.43700 28.80400 21.98000
H  -2.18200 29.45000 25.17500
H  -0.80900 28.57000 25.54500
H  -1.31600 29.88100 26.67100
H  -3.43600 28.20700 31.16700
H  -0.31000 27.81300 34.14600
H  -0.51200 26.12100 33.48000
H  -1.58700 26.66500 34.68700

