158

Mg 2.40200 -2.00000 44.35300
C  5.79800 -0.91300 44.03500
C  1.44000 0.74900 42.46700
C  -0.61000 -3.21100 44.18800
C  3.66200 -5.04100 45.61100
N  3.49900 -0.24100 43.39800
C  4.83700 -0.01500 43.44700
C  5.22100 1.25500 42.56500
C  3.79200 1.80700 42.31200
C  2.82100 0.75500 42.81300
C  3.36100 3.22800 42.73500
C  6.02700 0.85400 41.24500
C  7.13200 1.88500 40.80700
H  6.56300 3.08700 39.99100
N  0.57700 -1.22500 43.55200
C  0.37900 -0.12300 42.82500
C  -1.01300 0.05100 42.47200
C  -1.66800 -1.09900 43.10700
C  -0.59000 -1.93600 43.65700
C  -1.55800 1.31700 41.79900
C  -3.17200 -1.38900 43.01300
O  -3.90200 -0.62400 42.34500
C  -3.81300 -2.32600 43.86700
N  1.68200 -3.79000 44.85300
C  0.33600 -4.08400 44.73700
C  0.01200 -5.53900 45.10300
C  1.41500 -6.02700 45.63900
C  2.33500 -4.88500 45.33600
C  -1.17300 -5.62800 46.10300
C  1.97600 -7.28200 44.90200
C  2.56800 -8.44900 45.76400
N  4.31800 -2.87200 44.82000
C  4.62900 -4.09500 45.35000
C  6.08200 -4.03100 45.69900
C  6.56900 -2.80300 45.22600
C  5.48600 -2.14000 44.62000
C  6.87300 -5.23400 46.30200
C  7.74400 -1.96600 45.03700
O  8.88600 -2.11300 45.37300
C  7.34400 -0.74200 44.16100
C  7.64600 0.48800 44.92800
O  7.31900 0.72700 46.09100
O  8.37300 1.37500 44.14700
C  8.81200 2.62900 44.74900
H  1.18200 1.62600 41.87000
H  -1.60800 -3.65100 44.23200
H  4.06600 -5.91800 46.11900
H  5.91200 1.89400 43.11400
H  3.61000 1.69600 41.24300
H  4.23300 3.78300 43.08200
H  2.74600 3.28400 43.63200
H  2.92800 3.76100 41.88800
H  5.33300 0.73000 40.41400
H  6.68000 -0.01400 41.33800
H  7.95000 1.29700 40.39100
H  7.54700 2.34000 41.70600
H  -1.74900 1.05100 40.76000
H  -0.94600 2.21200 41.90100
H  -2.51800 1.66400 42.18100
H  -4.87300 -2.14600 43.68600
H  -3.46800 -2.37300 44.90000
H  -3.52400 -3.35000 43.63400
H  -0.21500 -6.08700 44.18800
H  1.46900 -6.20700 46.71200
H  -0.95800 -5.09300 47.02700
H  -1.29100 -6.64200 46.48400
H  -2.09100 -5.32200 45.60100
H  2.62700 -6.79100 44.17800
H  1.16500 -7.75000 44.34500
H  3.64100 -8.57500 45.61700
H  2.19500 -9.46300 45.62000
H  2.38500 -8.35000 46.83400
H  6.79000 -6.12300 45.67700
H  6.57300 -5.26800 47.34900
H  7.92200 -4.93800 46.31100
H  7.83000 -0.67800 43.18800
H  9.62200 2.90300 44.07400
H  9.35700 2.42400 45.67100
H  8.23100 3.51500 45.00600
Mg 48.64500 14.93300 28.02100
C  46.91000 15.24200 31.13900
C  51.12900 16.75200 29.41100
C  50.01500 15.20300 25.08000
C  45.60400 13.80900 26.60300
N  48.92300 15.96100 30.10500
C  48.12500 15.93100 31.18700
C  48.78800 16.51600 32.41800
C  50.16800 17.06200 31.80200
C  50.06300 16.59100 30.39000
C  50.35000 18.60300 32.00000
C  48.95400 15.45300 33.56700
C  48.42400 15.85200 34.97500
H  48.36700 17.37200 35.39200
N  50.43900 15.75100 27.34300
C  51.36000 16.41600 28.06700
C  52.51500 16.82400 27.24700
C  52.23000 16.31400 25.95300
C  50.86300 15.70300 26.10900
C  53.70300 17.52800 27.87300
C  53.08900 16.36900 24.64500
O  52.70400 15.99500 23.56500
C  54.40000 17.11600 24.72200
N  47.89800 14.61200 26.11000
C  48.72000 14.72500 25.03500
C  47.93600 14.46800 23.76900
C  46.54700 14.02200 24.22700
C  46.66500 14.11500 25.74800
C  48.02100 15.68200 22.87200
C  46.04100 12.72000 23.65800
C  46.63800 11.47500 24.31500
N  46.66400 14.62800 28.63200
C  45.63200 14.13500 27.93700
C  44.45000 13.97100 28.81500
C  44.96500 14.30500 30.04900
C  46.27000 14.76500 29.92300
C  43.07200 13.63900 28.45900
C  44.56400 14.36600 31.41700
O  43.50600 14.05800 31.94600
C  45.81700 14.96400 32.24500
C  45.38400 16.21000 32.90500
O  45.42200 17.33200 32.38700
O  44.71400 15.91900 34.01100
C  44.05300 17.02900 34.68900
H  51.91300 17.39600 29.81400
H  50.57800 15.16500 24.14600
H  44.58200 13.63000 26.26500
H  48.11100 17.29800 32.76200
H  50.94700 16.51000 32.32800
H  49.38000 19.08000 32.14200
H  50.94300 19.04500 31.19900
H  50.93000 18.69400 32.91900
H  49.95200 15.22200 33.94100
H  48.51500 14.50600 33.25200
H  49.02100 15.33900 35.72900
H  47.43400 15.40000 34.91600
H  54.12100 18.24700 27.16800
H  54.43000 16.76600 28.15200
H  53.46900 17.96400 28.84400
H  54.27700 18.16700 24.98200
H  54.88500 16.90600 23.76800
H  54.96400 16.56400 25.47400
H  48.48700 13.70300 23.22300
H  45.73600 14.69900 23.96000
H  49.05900 15.81400 22.56800
H  47.65500 16.57900 23.37300
H  47.44000 15.48200 21.97100
H  46.22700 12.67400 22.58500
H  44.96200 12.82000 23.78000
H  47.59500 11.73400 24.76700
H  46.72900 10.69400 23.55900
H  46.03900 11.10400 25.14700
H  43.08800 12.62800 28.05300
H  42.76700 14.25600 27.61400
H  42.38000 13.88300 29.26600
H  46.10500 14.29800 33.05800
H  44.79000 17.56400 35.28800
H  43.20400 16.63800 35.25100
H  43.47500 17.73300 34.09100

