158

Mg 16.46500 52.33100 25.83900
C  18.23200 50.89300 28.57600
C  13.92500 53.18700 28.12300
C  14.74100 53.63500 23.31900
C  18.87100 51.11300 23.76900
N  16.10700 52.00200 28.07900
C  17.08700 51.57400 28.96300
C  16.65400 51.91500 30.50400
C  15.12200 52.28600 30.30000
C  15.02200 52.51800 28.76200
C  14.10800 51.34000 30.83400
C  17.50700 53.04200 31.16800
C  17.99600 52.81300 32.56900
H  17.02400 51.94200 33.37400
N  14.57500 53.24600 25.70600
C  13.71000 53.61700 26.74900
C  12.65500 54.50200 26.18000
C  12.95500 54.61100 24.76100
C  14.12700 53.78200 24.57300
C  11.57800 55.07900 27.03300
C  12.21200 55.38600 23.73500
O  12.56900 55.54300 22.56000
C  10.95900 56.10900 24.13900
N  16.67600 52.25300 23.83500
C  15.84100 52.92200 22.96100
C  16.36800 52.96400 21.52800
C  17.66800 52.05000 21.66200
C  17.73800 51.78400 23.21000
C  15.39800 52.52300 20.45900
C  18.95400 52.64600 21.15100
C  19.84000 51.60600 20.44900
N  18.19900 51.28800 26.00900
C  19.04600 50.78300 25.09300
C  20.15000 50.09900 25.70100
C  19.81100 50.15600 27.09400
C  18.58300 50.81900 27.25000
C  21.29500 49.43500 25.06100
C  20.27600 49.63400 28.29200
O  21.17700 48.91800 28.64600
C  19.29500 50.17400 29.33000
C  18.67300 49.14400 30.14500
O  17.65400 48.49800 29.90700
O  19.38400 48.97700 31.28200
C  18.63500 48.18400 32.31600
H  13.05700 53.44100 28.73600
H  14.41500 54.18800 22.43500
H  19.58500 50.68600 23.06200
H  16.74800 51.02000 31.11900
H  15.00600 53.27600 30.74000
H  13.35300 52.02300 31.22200
H  14.66500 50.82800 31.61900
H  13.76500 50.62600 30.08400
H  16.96300 53.98400 31.23400
H  18.39400 53.16600 30.54700
H  18.15500 53.77100 33.06300
H  18.99600 52.38400 32.49600
H  11.70100 56.16200 27.04800
H  11.59300 54.74000 28.06900
H  10.55600 54.88600 26.70800
H  10.95100 56.79900 24.98300
H  10.35600 55.21500 24.30000
H  10.46000 56.64500 23.33200
H  16.61100 54.02500 21.47100
H  17.39500 51.05800 21.30000
H  15.09300 53.35400 19.82300
H  14.55000 52.06300 20.96700
H  15.82800 51.70500 19.88100
H  19.55600 53.03700 21.97200
H  18.62300 53.49800 20.55700
H  19.85100 51.91900 19.40500
H  19.39800 50.61100 20.49600
H  20.74700 51.60700 21.05200
H  21.77800 50.18700 24.43800
H  20.89300 48.65500 24.41400
H  21.96000 49.11900 25.86500
H  19.85000 50.91400 29.90700
H  17.60800 48.52400 32.44800
H  19.19200 48.25700 33.25000
H  18.59200 47.17400 31.90900
Mg -5.81700 25.50600 26.18300
C  -4.10500 26.70300 28.95900
C  -7.15500 22.95100 28.14700
C  -6.96400 23.93200 23.37700
C  -4.00900 27.75900 24.22500
N  -5.47400 24.80600 28.28300
C  -4.93900 25.55900 29.28300
C  -5.42000 25.12000 30.63600
C  -6.21600 23.80300 30.34700
C  -6.31500 23.86900 28.83800
C  -5.57100 22.44600 30.88200
C  -6.26100 26.24400 31.34400
C  -5.88400 26.69400 32.78400
H  -5.55500 25.68100 33.86100
N  -6.93700 23.73100 25.84900
C  -7.40700 22.87500 26.82500
C  -8.31400 21.96800 26.20800
C  -8.11300 22.08100 24.82100
C  -7.33400 23.29800 24.63300
C  -9.26000 21.06400 27.01400
C  -8.74300 21.27900 23.72700
O  -8.58800 21.45800 22.47900
C  -9.50100 19.99200 24.17100
N  -5.49300 25.82000 24.02800
C  -6.11900 25.06000 23.14000
C  -5.94900 25.63300 21.71100
C  -5.14500 26.99100 21.92900
C  -4.94900 26.93900 23.46800
C  -5.26400 24.63700 20.79000
C  -5.88600 28.29200 21.50400
C  -5.40400 29.12400 20.32900
N  -4.30900 26.93700 26.48800
C  -3.68200 27.79700 25.59700
C  -2.76500 28.65700 26.31700
C  -2.90000 28.23400 27.71400
C  -3.87400 27.25700 27.73100
C  -2.01100 29.66500 25.73800
C  -2.56200 28.56700 29.01500
O  -1.87700 29.44200 29.48000
C  -3.34200 27.52800 29.93400
C  -2.26300 26.73300 30.63300
O  -1.33100 26.12300 30.05700
O  -2.45200 26.80900 32.01900
C  -1.38700 26.34700 32.90300
H  -7.66800 22.21000 28.76400
H  -7.52400 23.67100 22.47700
H  -3.47300 28.47400 23.59700
H  -4.51800 24.94700 31.22300
H  -7.26600 23.79800 30.63900
H  -6.22500 22.34600 31.74800
H  -4.54500 22.71200 31.13900
H  -5.59900 21.54500 30.27000
H  -7.32200 25.99600 31.34900
H  -6.15100 27.14400 30.74000
H  -6.82000 27.16500 33.08600
H  -5.12900 27.48000 32.75800
H  -8.83600 20.06100 27.07100
H  -10.29400 21.08200 26.66800
H  -9.33700 21.43400 28.03700
H  -9.74400 19.52400 23.21700
H  -10.41900 20.28500 24.68200
H  -8.92000 19.32300 24.80500
H  -6.91600 25.98900 21.35500
H  -4.20100 27.01800 21.38600
H  -5.91300 23.79400 20.55400
H  -4.35900 24.21400 21.22800
H  -5.03500 25.11500 19.83700
H  -5.80300 29.02600 22.30600
H  -6.96900 28.18800 21.43400
H  -5.09500 30.09300 20.72200
H  -6.25000 29.17700 19.64400
H  -4.51500 28.63500 19.92900
H  -2.38000 30.60500 26.14800
H  -2.03600 29.72900 24.65000
H  -1.06500 29.39100 26.20500
H  -4.03100 28.12100 30.53400
H  -0.73400 25.55200 32.54300
H  -1.96800 26.06700 33.78300
H  -0.90600 27.29700 33.13600

