158

Mg 47.22900 34.30300 27.25000
C  45.58400 33.20100 30.14400
C  47.93000 37.27700 29.02100
C  48.27300 35.84900 24.46300
C  45.94500 31.69900 25.60300
N  46.88800 35.08400 29.35700
C  46.27400 34.39500 30.39200
C  46.34300 35.23500 31.70000
C  46.78100 36.61200 31.12400
C  47.19000 36.33300 29.72600
C  45.82200 37.81000 31.29000
C  47.34700 34.56900 32.63400
C  46.90200 34.50500 34.09600
H  47.99200 34.59800 35.18000
N  48.25100 36.18700 26.85100
C  48.47700 37.22400 27.73900
C  49.18100 38.26200 27.03800
C  49.21100 37.88600 25.64700
C  48.61300 36.60800 25.60100
C  49.73100 39.52000 27.67700
C  49.81800 38.55100 24.45800
O  49.97700 37.99300 23.36200
C  50.31700 39.96100 24.67800
N  47.09600 33.90100 25.29800
C  47.75800 34.58800 24.32700
C  47.58700 33.93700 23.03500
C  46.94100 32.52800 23.29200
C  46.62700 32.69400 24.79100
C  46.94500 34.64100 21.86100
C  47.77100 31.28000 22.86100
C  48.88900 30.96500 23.78900
N  46.06900 32.76500 27.77100
C  45.62200 31.71500 26.99100
C  44.95200 30.68900 27.76000
C  44.79500 31.32200 28.99100
C  45.58400 32.50900 28.95700
C  44.35200 29.40700 27.26600
C  44.17800 31.21700 30.24700
O  43.43400 30.36200 30.68800
C  44.55400 32.43300 31.03200
C  45.06400 31.94100 32.33100
O  46.14200 31.49800 32.61000
O  43.95100 31.82100 33.13200
C  44.08100 30.89900 34.28900
H  48.20300 38.17900 29.57300
H  48.71300 36.20100 23.52800
H  45.62000 30.81400 25.05300
H  45.32400 35.27500 32.08300
H  47.68200 36.94600 31.63900
H  45.29800 37.53300 32.20500
H  45.17800 37.92300 30.41800
H  46.30300 38.77900 31.42000
H  48.29900 35.09400 32.71100
H  47.57200 33.58100 32.23200
H  46.40000 33.54100 34.17600
H  46.28400 35.39000 34.25300
H  49.02500 40.29500 27.37600
H  50.75300 39.83200 27.46300
H  49.58100 39.46600 28.75500
H  49.62700 40.59300 25.23700
H  50.41200 40.34600 23.66200
H  51.29100 39.92000 25.16400
H  48.63800 33.77100 22.79700
H  45.94300 32.48000 22.85600
H  46.22300 35.28300 22.36500
H  46.47400 33.89100 21.22700
H  47.51400 35.42100 21.35400
H  48.04900 31.36000 21.81000
H  46.98300 30.52700 22.88700
H  48.94300 31.69500 24.59700
H  49.82600 30.76700 23.26900
H  48.62400 30.08000 24.36800
H  44.11000 28.84400 28.16800
H  44.87300 28.78000 26.54200
H  43.35500 29.62600 26.88300
H  43.66300 33.03100 31.22300
H  43.17700 30.34400 34.54200
H  44.14500 31.60800 35.11400
H  45.01500 30.33700 34.30400
Mg -10.38500 40.18500 42.18400
C  -9.47900 37.04100 40.90800
C  -7.49300 41.49700 40.81100
C  -11.63500 43.34200 42.67000
C  -13.67100 38.84100 42.68300
N  -8.79500 39.33000 40.92400
C  -8.55900 38.10900 40.60000
C  -7.23800 37.91000 39.85200
C  -6.48200 39.24000 40.01200
C  -7.62100 40.07700 40.68800
C  -5.13600 39.19100 40.78200
C  -7.33300 37.49500 38.34400
C  -6.55700 36.22300 37.93000
H  -5.51000 36.37400 36.87400
N  -9.62100 42.12200 42.01500
C  -8.37000 42.44100 41.40600
C  -8.09700 43.85500 41.51700
C  -9.29100 44.45200 42.13900
C  -10.22700 43.31200 42.35500
C  -6.90200 44.54900 40.96700
C  -9.53100 45.81800 42.55300
O  -8.66200 46.67100 42.31000
C  -10.73900 46.28500 43.40900
N  -12.34500 40.96800 42.57100
C  -12.58200 42.30200 42.80500
C  -14.06800 42.57100 43.15500
C  -14.74100 41.12100 43.14000
C  -13.52000 40.26700 42.70900
C  -14.07900 43.36400 44.53900
C  -15.96100 41.04900 42.15400
C  -17.26600 40.54800 42.81400
N  -11.42300 38.28100 42.05700
C  -12.71400 37.89300 42.29800
C  -12.79100 36.48700 42.08800
C  -11.51900 36.03200 41.68700
C  -10.74700 37.22100 41.54500
C  -14.02500 35.67300 42.34700
C  -10.66300 34.88700 41.27800
O  -10.88300 33.67900 41.39500
C  -9.36900 35.58400 40.56900
C  -8.10700 34.87600 41.04500
O  -7.64600 34.93500 42.14500
O  -7.63900 34.07200 40.05100
C  -6.41000 33.35200 40.51600
H  -6.50500 41.72900 40.40900
H  -12.08100 44.32400 42.83900
H  -14.67900 38.46000 42.85900
H  -6.67200 37.23400 40.49300
H  -6.40200 39.73900 39.04600
H  -4.71500 38.18800 40.85900
H  -5.33900 39.66200 41.74400
H  -4.49200 39.88400 40.24100
H  -7.04700 38.30300 37.67100
H  -8.37200 37.33700 38.05300
H  -7.30600 35.46400 37.70500
H  -5.98100 35.77400 38.73900
H  -6.25600 43.90600 40.37000
H  -6.29900 44.83400 41.83000
H  -7.25500 45.44700 40.46100
H  -11.57800 46.37100 42.71900
H  -10.43500 47.23300 43.85200
H  -10.96400 45.54300 44.17500
H  -14.41100 43.11100 42.27200
H  -14.97100 40.80200 44.15600
H  -14.56000 44.34000 44.47900
H  -13.08500 43.45100 44.97700
H  -14.71300 42.83000 45.24800
H  -15.74700 40.33800 41.35500
H  -16.10200 41.91600 41.50800
H  -17.36000 40.93600 43.82800
H  -17.20000 39.46100 42.86200
H  -18.04200 40.91900 42.14400
H  -14.47000 36.01500 43.28100
H  -13.79200 34.61200 42.44100
H  -14.72900 35.85900 41.53500
H  -9.39500 35.60000 39.48000
H  -6.73400 32.69100 41.32000
H  -5.60300 33.98300 40.88700
H  -6.01800 32.60000 39.83100

