158

Mg 24.83000 -6.90300 47.85600
C  27.41900 -5.01900 46.41200
C  22.79400 -5.85800 45.26700
C  22.74300 -9.56200 48.50600
C  27.34100 -8.50500 49.92200
N  25.13900 -5.61500 46.00000
C  26.25200 -4.88200 45.71300
C  25.95500 -3.86800 44.60100
C  24.37800 -3.97900 44.40600
C  24.04500 -5.15200 45.30900
C  23.53400 -2.71800 44.74800
C  26.73700 -3.95200 43.23900
C  26.96200 -2.67500 42.42200
H  25.93800 -2.27300 41.39000
N  22.95600 -7.51300 47.16000
C  22.32100 -6.97800 45.98200
C  21.03500 -7.55300 45.83900
C  21.04700 -8.69500 46.78200
C  22.26200 -8.67300 47.54100
C  19.88700 -7.14200 44.90600
C  19.87300 -9.69800 46.89500
O  19.00700 -9.67300 46.01000
C  19.70300 -10.71300 47.88400
N  24.97400 -8.59200 49.22300
C  23.92700 -9.52100 49.31000
C  24.39200 -10.76600 50.10500
C  25.73100 -10.37000 50.66600
C  26.11600 -9.15300 49.82700
C  23.34700 -11.21000 51.11500
C  26.82100 -11.51800 50.56900
C  26.32200 -12.97900 50.63000
N  26.92200 -6.70000 48.27500
C  27.75200 -7.34700 49.19500
C  29.09400 -6.81400 49.05100
C  28.98000 -5.77200 48.02900
C  27.70400 -5.89000 47.49300
C  30.19800 -7.16000 49.92100
C  29.70700 -4.77100 47.29900
O  30.84000 -4.41800 47.47000
C  28.75900 -4.23200 46.23900
C  28.72200 -2.78500 46.23700
O  29.46100 -2.06100 45.55600
O  27.91400 -2.23700 47.16900
C  27.84400 -0.79000 47.12800
H  22.03400 -5.45900 44.59300
H  22.11100 -10.44000 48.65500
H  28.19300 -8.90700 50.47500
H  26.11700 -2.88300 45.03700
H  24.16900 -4.35800 43.40600
H  22.86700 -2.88400 45.59300
H  22.85300 -2.34000 43.98500
H  24.17100 -1.87900 45.03100
H  26.18800 -4.56300 42.52300
H  27.67800 -4.39000 43.57200
H  27.99100 -2.75400 42.07000
H  26.84200 -1.78400 43.03800
H  19.13600 -6.51400 45.38500
H  19.40300 -7.97600 44.39900
H  20.24800 -6.49300 44.10800
H  18.68100 -11.04100 48.07600
H  19.92400 -10.36800 48.89400
H  20.38000 -11.56000 47.77300
H  24.52700 -11.56500 49.37600
H  25.75800 -9.93500 51.66500
H  23.67100 -11.21000 52.15600
H  23.05100 -12.22400 50.84700
H  22.39400 -10.68300 51.15000
H  27.72200 -11.39100 51.16800
H  27.10100 -11.48100 49.51600
H  25.54600 -13.14700 51.37700
H  27.18900 -13.56600 50.93500
H  26.03600 -13.24000 49.61100
H  30.31400 -8.23100 50.08700
H  30.01200 -6.73600 50.90700
H  31.07100 -6.75100 49.41200
H  29.23900 -4.51700 45.30200
H  28.87300 -0.43000 47.14900
H  27.16000 -0.42000 47.89100
H  27.45500 -0.37500 46.19800
Mg 35.47000 1.20300 30.02000
C  33.17500 2.16700 32.42000
C  37.91700 1.06800 32.58600
C  37.92900 0.95300 27.78700
C  33.15200 1.94400 27.55600
N  35.50200 1.60900 32.27000
C  34.39400 1.89100 33.03200
C  34.75500 2.01600 34.48200
C  36.32400 1.91900 34.51200
C  36.60900 1.50700 33.07600
C  37.11700 3.21400 34.73700
C  34.02800 0.87100 35.29900
C  33.66300 1.25100 36.77500
H  34.81000 1.72600 37.71300
N  37.63600 0.88800 30.13500
C  38.40300 0.83700 31.25900
C  39.80400 0.43300 30.89300
C  39.81400 0.39900 29.46600
C  38.42700 0.85700 29.10200
C  40.96600 0.32500 31.88700
C  40.94600 0.04900 28.48600
O  40.73800 -0.07800 27.28600
C  42.36000 -0.32600 28.95000
N  35.55100 1.52300 27.98600
C  36.68700 1.19900 27.23100
C  36.31300 1.12700 25.68400
C  34.86400 1.66600 25.61500
C  34.44700 1.65800 27.13600
C  37.35000 1.84700 24.81100
C  33.88100 0.88300 24.60000
C  33.62400 1.41700 23.15800
N  33.46800 1.78500 29.97000
C  32.68500 2.07800 28.88100
C  31.37900 2.37800 29.36900
C  31.56300 2.51200 30.74400
C  32.84300 2.13200 31.06300
C  30.13000 2.70900 28.54000
C  30.85800 2.89900 31.99100
O  29.68000 3.30300 32.16700
C  31.98900 2.70600 33.16900
C  32.23400 4.00200 33.76000
O  32.70100 4.97600 33.15700
O  31.89300 4.12600 35.08100
C  32.43200 5.25100 35.82800
H  38.71300 0.93200 33.32100
H  38.60400 0.61500 26.99800
H  32.52800 2.13800 26.68000
H  34.51000 3.02900 34.80000
H  36.77000 1.11100 35.09100
H  37.56100 3.68000 33.85800
H  37.95400 3.08200 35.42200
H  36.60200 4.01100 35.27300
H  34.60200 -0.05500 35.34000
H  33.11900 0.54800 34.79000
H  33.10000 0.49700 37.32500
H  32.97200 2.08300 36.64300
H  40.65600 -0.13700 32.82400
H  41.40300 1.32200 31.94000
H  41.82700 -0.26700 31.57500
H  42.56300 0.34700 29.78300
H  43.17600 -0.26800 28.22900
H  42.24100 -1.34100 29.33000
H  36.27100 0.07900 25.38800
H  34.96500 2.64500 25.14600
H  38.02100 2.47600 25.39600
H  36.92500 2.57400 24.11900
H  37.93400 1.18200 24.17500
H  32.86800 0.87200 25.00200
H  34.25400 -0.14000 24.53900
H  33.68900 2.50300 23.09300
H  32.61100 1.11400 22.89600
H  34.42300 0.99500 22.54800
H  30.32000 2.49100 27.48900
H  29.94300 3.78000 28.61900
H  29.26600 2.23400 29.00500
H  31.60600 2.02600 33.92900
H  32.36800 6.18900 35.27600
H  33.44600 5.00200 36.14100
H  31.62900 5.33300 36.56200

