158

Mg 40.87100 9.75300 30.43900
C  42.98200 11.51800 32.90800
C  39.04800 8.61000 32.94300
C  39.12300 8.17100 28.17500
C  42.91600 11.08200 28.07800
N  41.05700 9.99900 32.61200
C  41.84900 10.85400 33.41100
C  41.46300 10.74100 34.88500
C  40.41700 9.64100 34.86200
C  40.14100 9.40900 33.38900
C  40.66200 8.34200 35.70800
C  40.88400 12.12300 35.39700
C  40.12300 12.16900 36.72800
H  40.68600 13.05400 37.92300
N  39.39900 8.54800 30.53700
C  38.71600 8.21900 31.68400
C  37.59700 7.32400 31.25700
C  37.79200 7.02600 29.92700
C  38.82400 7.88300 29.50900
C  36.51800 6.78100 32.22300
C  37.02600 6.02900 29.01000
O  37.41400 5.67600 27.87300
C  35.69500 5.38600 29.57100
N  41.02200 9.62300 28.36400
C  40.10000 9.01600 27.62200
C  40.15300 9.38800 26.15100
C  41.48200 10.20200 26.12600
C  41.86300 10.32800 27.57600
C  40.05500 8.26500 25.08200
C  41.29500 11.65000 25.52700
C  42.37200 12.08300 24.53700
N  42.60600 11.01200 30.39900
C  43.29000 11.39900 29.34600
C  44.47900 12.17000 29.73100
C  44.39500 12.28000 31.20000
C  43.20100 11.54200 31.49900
C  45.60200 12.58600 28.86700
C  45.05900 12.81300 32.40100
O  46.08800 13.41200 32.53600
C  44.06600 12.43400 33.59300
C  44.69100 11.70500 34.70100
O  45.34300 10.62800 34.67600
O  44.34300 12.33400 35.89000
C  44.70000 11.56300 37.08500
H  38.38100 8.29400 33.74900
H  38.51500 7.63700 27.44100
H  43.36600 11.52800 27.18900
H  42.28000 10.49300 35.56200
H  39.45800 10.07600 35.14200
H  41.65700 8.30100 36.15100
H  40.53300 7.42100 35.13900
H  39.89500 8.21900 36.47300
H  40.24900 12.46200 34.57900
H  41.75300 12.76100 35.55700
H  39.93700 11.19100 37.17200
H  39.21700 12.73400 36.50800
H  36.43300 5.69600 32.18000
H  35.48200 6.97100 31.94100
H  36.74300 7.01100 33.26500
H  34.83600 5.99200 29.86000
H  35.94400 4.63200 30.31700
H  35.33400 4.82300 28.71000
H  39.41300 10.18000 26.03300
H  42.25400 9.68000 25.56200
H  39.08600 8.34500 24.58900
H  40.16800 7.26700 25.50600
H  40.77600 8.41100 24.27800
H  41.35100 12.31400 26.39000
H  40.26400 11.79300 25.20200
H  42.67600 13.07800 24.86100
H  41.98600 12.27600 23.53600
H  43.23800 11.42500 24.47000
H  46.44500 11.92000 29.05300
H  45.88400 13.59500 29.16600
H  45.36600 12.41400 27.81700
H  43.52100 13.32700 33.89900
H  43.86300 11.89200 37.70100
H  45.62800 11.97800 37.47800
H  44.58800 10.49000 37.24400
Mg 47.40000 25.75500 29.18800
C  48.24100 28.04600 31.67500
C  46.12000 23.77000 31.67400
C  46.85300 23.48100 26.85500
C  49.06300 27.65300 26.78500
N  47.01800 26.09200 31.40100
C  47.45400 27.08400 32.21400
C  47.13300 26.92100 33.69900
C  46.81500 25.35900 33.67500
C  46.57900 25.07700 32.16100
C  47.67400 24.40300 34.52800
C  45.91600 27.77300 34.25000
C  46.21400 28.50400 35.47700
H  45.35300 28.19100 36.76300
N  46.49200 23.91600 29.22600
C  46.05900 23.32300 30.31100
C  45.47200 22.06700 29.91900
C  45.58000 21.96600 28.50800
C  46.33100 23.12900 28.12800
C  44.80700 21.16200 30.92700
C  45.08000 20.94200 27.53200
O  45.24900 20.95100 26.30200
C  44.34700 19.85800 28.13500
N  47.98100 25.54500 27.12800
C  47.63400 24.48700 26.43300
C  48.08700 24.53800 25.00100
C  48.41800 26.04400 24.85500
C  48.47800 26.45500 26.33000
C  49.21000 23.51500 24.63200
C  47.26100 26.82500 24.14700
C  47.72300 28.33800 23.88200
N  48.60200 27.45400 29.22000
C  49.24300 28.07500 28.20000
C  49.81800 29.29200 28.69900
C  49.47000 29.32200 30.06400
C  48.71000 28.16000 30.32600
C  50.56000 30.27300 27.89900
C  49.65600 30.01300 31.30700
O  50.20300 31.05700 31.45200
C  48.79700 29.25700 32.35400
C  49.61600 29.05600 33.58000
O  50.31800 28.07800 33.74800
O  49.47500 30.10300 34.46200
C  50.09400 29.93300 35.75300
H  45.95500 22.98100 32.41000
H  46.53000 22.89900 25.98900
H  49.37800 28.27600 25.94500
H  47.96700 27.02500 34.39300
H  45.84500 25.16700 34.13200
H  48.05400 23.63100 33.85800
H  47.04600 23.84800 35.22600
H  48.41200 24.89500 35.16200
H  45.06000 27.15600 34.52300
H  45.51600 28.47200 33.51500
H  46.07800 29.51400 35.09100
H  47.26400 28.38800 35.74700
H  43.89300 20.74600 30.50400
H  44.51400 21.49300 31.92300
H  45.36000 20.22600 31.01200
H  44.98200 19.55300 28.96700
H  44.19900 19.08000 27.38600
H  43.36500 20.20000 28.46300
H  47.30100 24.44100 24.25200
H  49.43200 26.20800 24.49000
H  49.22600 22.96900 25.57600
H  50.20200 23.94800 24.51000
H  48.98000 22.86900 23.78500
H  46.45200 26.88600 24.87600
H  46.89800 26.49000 23.17500
H  47.37700 28.86200 24.77300
H  47.15400 28.84800 23.10500
H  48.78100 28.31500 23.62100
H  51.43200 29.75400 27.50000
H  50.89800 31.03300 28.60300
H  49.95300 30.64000 27.07200
H  47.94700 29.91700 32.53100
H  51.16600 29.90000 35.55800
H  49.90000 28.99300 36.27000
H  50.02300 30.82500 36.37500

