158

Mg 16.60700 51.96200 26.08600
C  18.65300 50.44800 28.73900
C  14.33900 52.59200 28.51000
C  14.76900 53.33600 23.73100
C  19.00000 50.73500 23.76100
N  16.52600 51.53300 28.33900
C  17.49000 51.00300 29.24500
C  17.01400 51.04500 30.71600
C  15.53900 51.59800 30.57000
C  15.41500 51.94400 29.05900
C  14.44700 50.58800 30.89900
C  17.91800 51.87800 31.70500
C  18.07500 51.28100 33.10500
H  17.14600 51.89300 34.17700
N  14.82000 52.86800 26.12300
C  14.01500 53.06100 27.21300
C  12.86300 53.81900 26.78200
C  13.00300 54.14600 25.40400
C  14.23400 53.47000 25.03600
C  11.83200 54.32900 27.75400
C  12.17900 55.02900 24.45800
O  12.43900 55.17600 23.28700
C  10.94900 55.72600 24.94400
N  16.92800 51.98400 24.10600
C  15.98100 52.76100 23.32300
C  16.48400 52.82900 21.85600
C  17.91400 52.06900 21.88500
C  17.98300 51.62200 23.35800
C  15.51100 52.25400 20.80700
C  19.11700 52.99100 21.52300
C  19.78700 53.93900 22.49100
N  18.39100 50.67000 26.19600
C  19.22200 50.24200 25.10300
C  20.33200 49.46500 25.72800
C  20.14800 49.54500 27.13900
C  19.00700 50.32900 27.32400
C  21.65800 49.12100 24.97300
C  20.72600 49.15700 28.42100
O  21.69900 48.46300 28.67200
C  19.74300 49.75300 29.55000
C  19.19600 48.65700 30.42400
O  18.30000 47.88400 30.13500
O  19.95200 48.52900 31.57600
C  19.88500 47.44000 32.58000
H  13.65700 52.88400 29.31100
H  14.26600 53.83100 22.89800
H  19.71100 50.33200 23.03600
H  16.90200 50.03800 31.11900
H  15.38100 52.48200 31.18900
H  14.12000 50.07000 29.99800
H  13.64300 51.20600 31.29800
H  14.75100 49.90200 31.68900
H  17.43500 52.85200 31.78200
H  18.91100 51.91600 31.25700
H  19.06100 51.44500 33.53800
H  18.09600 50.19100 33.08100
H  10.85300 53.89800 27.54500
H  11.61800 55.39700 27.72300
H  12.01700 54.04400 28.79000
H  10.37200 56.30300 24.22200
H  11.24200 56.41600 25.73400
H  10.41900 54.86200 25.34700
H  16.67600 53.87000 21.59500
H  17.97000 51.27300 21.14200
H  14.46700 52.45100 21.05200
H  15.68900 51.17900 20.80200
H  15.79200 52.70800 19.85700
H  18.65700 53.62100 20.76100
H  19.85500 52.31400 21.09200
H  20.87600 53.89900 22.46200
H  19.54600 53.81400 23.54700
H  19.53900 54.95400 22.18100
H  22.55700 49.19100 25.58500
H  21.67200 49.78100 24.10600
H  21.61100 48.12500 24.53300
H  20.20800 50.42700 30.27000
H  20.20200 46.48400 32.16300
H  18.85300 47.40500 32.92700
H  20.60100 47.70000 33.36000
Mg -5.13000 25.17900 25.96300
C  -3.72000 26.78900 28.92400
C  -7.04300 23.26800 28.15900
C  -5.99700 23.31800 23.30400
C  -2.75600 27.01600 24.09900
N  -5.14900 24.90500 28.23800
C  -4.61100 25.67700 29.27300
C  -5.24900 25.36400 30.67700
C  -6.09400 24.11700 30.33500
C  -6.13300 24.06200 28.76600
C  -5.49900 22.76800 30.95300
C  -6.09300 26.56900 31.22000
C  -5.56600 27.04600 32.63100
H  -5.08000 25.98100 33.68300
N  -6.45200 23.76200 25.73800
C  -7.17200 23.14700 26.75000
C  -8.18000 22.28900 26.13800
C  -8.02000 22.44200 24.76700
C  -6.70400 23.16800 24.53200
C  -9.08400 21.31700 26.84900
C  -8.88400 21.83100 23.61000
O  -8.66700 22.07800 22.44200
C  -10.09000 20.97800 23.88900
N  -4.50400 25.23300 23.91500
C  -4.93100 24.25700 23.03700
C  -4.12800 24.35400 21.68700
C  -3.15400 25.61300 22.01200
C  -3.40300 25.93800 23.48400
C  -3.32900 23.06700 21.33200
C  -3.46300 26.84200 21.09600
C  -2.18400 27.61600 20.63200
N  -3.65400 26.67400 26.38500
C  -2.84700 27.38300 25.44300
C  -2.13100 28.41500 26.15700
C  -2.45500 28.20400 27.53800
C  -3.33100 27.11100 27.59700
C  -1.27500 29.47700 25.49900
C  -2.26200 28.73500 28.85100
O  -1.61800 29.67800 29.19600
C  -3.01000 27.81000 29.87200
C  -1.90700 27.07700 30.65500
O  -1.17700 26.26600 30.14300
O  -1.77400 27.51600 31.92200
C  -0.77000 26.74800 32.70700
H  -7.63200 22.58500 28.77500
H  -6.22200 22.64000 22.47800
H  -2.01500 27.48300 23.44700
H  -4.40400 25.19400 31.34400
H  -7.05700 24.22000 30.83700
H  -5.17000 22.13100 30.13200
H  -6.21600 22.25200 31.59200
H  -4.53600 22.97500 31.41900
H  -7.16900 26.40500 31.26800
H  -5.98100 27.41100 30.53700
H  -6.46600 27.40400 33.13100
H  -4.86600 27.86800 32.48100
H  -10.15000 21.47000 26.68100
H  -8.94600 21.42000 27.92500
H  -8.79100 20.31700 26.53100
H  -9.82400 20.26800 24.67100
H  -10.43600 20.54400 22.95100
H  -10.91000 21.58200 24.27900
H  -4.75500 24.61100 20.83400
H  -2.12500 25.26700 21.92200
H  -2.24400 23.04300 21.43600
H  -3.64200 22.83600 20.31400
H  -3.77800 22.30200 21.96500
H  -4.00700 27.54900 21.72300
H  -4.12300 26.59100 20.26500
H  -2.05400 27.45100 19.56300
H  -1.30700 27.30000 21.19800
H  -2.32000 28.65500 20.93100
H  -0.26500 29.39300 25.90100
H  -1.75400 30.41400 25.78300
H  -1.28000 29.33300 24.41900
H  -3.66800 28.43400 30.47600
H  0.14000 26.53000 32.14700
H  -1.30400 25.88700 33.10900
H  -0.48100 27.35100 33.56800

