158

Mg -1.92500 17.13500 25.59600
C  -2.03900 15.08000 28.45600
C  -2.79200 19.73000 27.53500
C  -1.91700 18.97600 22.81400
C  -1.50500 14.22100 23.65400
N  -2.23200 17.26500 27.75100
C  -2.23700 16.37000 28.73100
C  -2.53300 17.01200 30.19700
C  -2.93300 18.46100 29.74300
C  -2.58700 18.54400 28.23400
C  -4.41700 18.86100 29.97000
C  -1.30400 16.89900 31.12700
C  -1.52000 16.15600 32.45100
H  -2.22500 16.87300 33.58000
N  -2.20400 19.11900 25.26600
C  -2.54600 20.05300 26.23200
C  -2.49000 21.35500 25.55600
C  -2.20800 21.18100 24.17700
C  -1.99700 19.70100 24.06000
C  -2.63800 22.72200 26.32500
C  -1.99600 22.22000 23.06500
O  -2.09200 21.97400 21.87400
C  -1.76200 23.70700 23.45700
N  -1.75700 16.66000 23.54900
C  -1.86000 17.60600 22.55900
C  -1.80700 16.99000 21.12100
C  -1.33900 15.59100 21.41800
C  -1.58800 15.45000 22.94600
C  -3.02300 17.17600 20.25500
C  0.09500 15.39900 20.88900
C  1.16100 16.04400 21.80600
N  -1.78600 15.02000 25.98500
C  -1.62300 13.95100 25.07700
C  -1.53400 12.71300 25.73500
C  -1.76700 13.05300 27.08200
C  -1.86800 14.43300 27.17900
C  -1.38500 11.29800 25.20500
C  -1.92100 12.53700 28.45700
O  -1.94100 11.37000 28.82100
C  -1.97500 13.77600 29.35300
C  -0.65600 13.70700 30.10200
O  0.40800 14.20500 29.72200
O  -0.87600 12.91900 31.22100
C  0.24800 12.65900 32.19100
H  -3.14800 20.55100 28.16100
H  -1.90800 19.50800 21.86100
H  -1.23900 13.37400 23.01700
H  -3.36900 16.54800 30.72100
H  -2.27500 19.19300 30.21100
H  -4.41300 19.87400 30.37400
H  -4.91900 18.23900 30.71100
H  -4.92600 18.87000 29.00600
H  -1.05200 17.89800 31.48300
H  -0.46800 16.43200 30.60700
H  -0.55100 15.80000 32.80100
H  -2.14500 15.28700 32.24500
H  -2.72200 22.53100 27.39500
H  -3.40700 23.37900 25.92000
H  -1.66400 23.18100 26.15700
H  -1.83200 24.23200 22.50400
H  -0.77300 23.91600 23.86600
H  -2.64400 24.09700 23.96400
H  -0.96300 17.53300 20.69500
H  -1.94600 14.80100 20.97700
H  -2.64200 17.56500 19.31000
H  -3.67700 17.90100 20.74000
H  -3.51300 16.21500 20.10000
H  0.29800 15.69300 19.85900
H  0.38900 14.34900 20.86200
H  0.68300 16.85200 22.35900
H  2.04300 16.44700 21.30900
H  1.47800 15.30200 22.53900
H  -0.87500 10.65900 25.92600
H  -0.71000 11.31300 24.34900
H  -2.40300 10.92800 25.08800
H  -2.79100 13.61200 30.05600
H  0.00300 11.71700 32.68100
H  0.22900 13.46800 32.92000
H  1.25500 12.61300 31.77600
Mg 24.31300 -8.33700 47.44000
C  26.84700 -6.31600 46.51800
C  22.39100 -7.14500 44.90300
C  22.16900 -11.11400 47.74100
C  26.62100 -10.27800 49.33600
N  24.58500 -6.91200 45.91000
C  25.67200 -6.11400 45.75800
C  25.52300 -5.07600 44.64000
C  24.08300 -5.41100 44.08400
C  23.60800 -6.55000 45.02400
C  23.15300 -4.19100 43.92800
C  26.62800 -5.27300 43.50600
C  27.12800 -3.93900 42.90700
H  26.95700 -3.61800 41.43900
N  22.42500 -8.88200 46.66800
C  21.79200 -8.17100 45.64500
C  20.47800 -8.74900 45.42900
C  20.36600 -9.93500 46.27100
C  21.69900 -9.98400 46.97800
C  19.63600 -8.29200 44.28800
C  19.15500 -10.86800 46.35200
O  18.12300 -10.51500 45.79100
C  19.10100 -11.98100 47.13600
N  24.27800 -10.46500 48.45800
C  23.31000 -11.38700 48.48700
C  23.66100 -12.70900 49.19400
C  25.13600 -12.24400 49.83200
C  25.37300 -10.87200 49.21000
C  22.67400 -13.10700 50.29200
C  26.27700 -13.29900 49.52200
C  27.30900 -13.59600 50.53000
N  26.34100 -8.40900 47.82000
C  27.09500 -9.13400 48.71600
C  28.27000 -8.44300 48.93900
C  28.27100 -7.29400 48.09400
C  27.07400 -7.35200 47.40300
C  29.44100 -8.82400 49.91200
C  28.99300 -6.13100 47.66000
O  30.12100 -5.71200 48.07100
C  28.08700 -5.40600 46.56300
C  27.74700 -4.04900 47.03900
O  27.45100 -3.71000 48.15300
O  27.92700 -3.19400 46.01400
C  27.65000 -1.74900 46.24600
H  21.79300 -6.74300 44.08300
H  21.50200 -11.97800 47.78500
H  27.39400 -10.65200 50.01000
H  25.61400 -4.10100 45.11900
H  24.19400 -5.86500 43.09900
H  22.34100 -4.44000 43.24500
H  23.84200 -3.48300 43.46800
H  22.78000 -3.77900 44.86600
H  26.29000 -5.89100 42.67500
H  27.45600 -5.89300 43.85100
H  28.21000 -4.00400 43.02800
H  26.71600 -3.10300 43.47200
H  18.59100 -8.58200 44.17300
H  20.16100 -8.62600 43.39300
H  19.82800 -7.23000 44.44400
H  19.83700 -12.69800 46.77200
H  18.10600 -12.41500 47.23600
H  19.37400 -11.65700 48.14000
H  23.80500 -13.56700 48.53700
H  24.98300 -12.03400 50.89000
H  22.64200 -14.17400 50.07200
H  21.70800 -12.60400 50.23600
H  23.09400 -13.06000 51.29600
H  26.84100 -13.09900 48.61100
H  25.80300 -14.27300 49.40400
H  27.23800 -14.66900 50.70900
H  27.11100 -13.00200 51.42300
H  28.31100 -13.44100 50.13100
H  29.90200 -9.74800 49.56400
H  29.04400 -9.05800 50.90000
H  30.10500 -7.96400 50.00400
H  28.76900 -5.22400 45.73200
H  26.71500 -1.63400 46.79300
H  27.58800 -1.19900 45.30700
H  28.51400 -1.45500 46.84300

