158

Mg 35.72400 2.91500 30.93800
C  33.12300 3.92200 32.93200
C  37.85800 2.93800 33.49400
C  38.26400 1.92900 28.79000
C  33.59200 3.38000 28.15100
N  35.42100 3.37800 32.93200
C  34.33700 3.62200 33.59600
C  34.57300 3.53600 35.09500
C  36.16200 3.47700 35.24600
C  36.53300 3.35000 33.76500
C  36.82300 4.75900 35.94100
C  33.87800 2.30100 35.72700
C  33.41100 2.54900 37.18500
H  34.09800 3.49300 38.14100
N  37.79400 2.48400 31.14900
C  38.49300 2.50000 32.30100
C  39.85900 2.03300 32.14000
C  39.91800 1.71300 30.77700
C  38.61600 2.01400 30.16800
C  40.85300 1.90300 33.27500
C  41.11400 1.04900 29.97700
O  41.12100 0.99500 28.77900
C  42.31700 0.41600 30.69700
N  35.94300 2.76000 28.73600
C  37.02500 2.19300 28.15700
C  36.86500 2.16800 26.61600
C  35.42800 2.72800 26.42600
C  34.93900 3.05000 27.83200
C  38.01300 3.00800 25.81500
C  34.54400 1.78900 25.52400
C  34.15100 0.46100 26.20000
N  33.68800 3.51300 30.55800
C  32.91300 3.66000 29.38700
C  31.63700 4.02200 29.72800
C  31.58800 4.08800 31.15100
C  32.88200 3.79100 31.58400
C  30.47900 4.25200 28.74000
C  30.73500 4.29500 32.30600
O  29.55200 4.46000 32.41800
C  31.76800 4.12800 33.55300
C  31.73700 5.42600 34.34800
O  31.73700 6.54900 33.88400
O  31.50300 5.19300 35.70900
C  31.21000 6.29300 36.58800
H  38.46800 2.76100 34.38300
H  39.02600 1.55900 28.10000
H  32.96000 3.56900 27.28000
H  34.18400 4.45300 35.53800
H  36.46400 2.51300 35.65400
H  37.67600 5.10900 35.36000
H  37.11600 4.44200 36.94200
H  36.03500 5.50900 35.99700
H  34.62600 1.51200 35.80100
H  33.05600 1.98000 35.08600
H  33.32300 1.57600 37.66900
H  32.35100 2.79200 37.25500
H  41.00700 0.85500 33.53300
H  40.47600 2.16100 34.26400
H  41.78300 2.45900 33.15800
H  43.06600 0.06600 29.98700
H  42.02100 -0.17800 31.56200
H  42.86000 1.23800 31.16200
H  36.90200 1.11000 26.35700
H  35.46900 3.73000 26.00000
H  37.66000 3.77600 25.12700
H  38.52200 2.33000 25.13000
H  38.71500 3.47900 26.50400
H  35.12000 1.52100 24.63900
H  33.69700 2.35000 25.13000
H  34.76000 0.27800 27.08500
H  34.18100 -0.40900 25.54400
H  33.13300 0.48700 26.58900
H  30.29300 3.28100 28.28200
H  30.77100 4.89000 27.90600
H  29.61000 4.72100 29.20200
H  31.47500 3.27200 34.16200
H  30.48800 5.99700 37.34800
H  30.64500 7.08100 36.08900
H  32.15600 6.68400 36.96300
Mg 41.20900 9.03800 30.87800
C  43.17100 10.16700 33.62600
C  38.92000 7.83700 32.96300
C  39.42400 8.22000 28.21600
C  43.98100 9.67000 28.78300
N  41.19700 8.82500 33.00400
C  41.98500 9.50700 33.89500
C  41.41500 9.41900 35.32800
C  40.16100 8.50500 35.13500
C  40.12800 8.27500 33.61600
C  40.26400 7.18500 35.95300
C  41.00000 10.71100 36.00400
C  41.14300 10.72800 37.50700
H  41.85200 11.93500 38.08500
N  39.40900 8.14100 30.61000
C  38.59600 7.75900 31.63200
C  37.32300 7.28600 31.04500
C  37.37000 7.62100 29.64200
C  38.77500 8.08100 29.44300
C  36.27200 6.56200 31.82800
C  36.40000 7.42600 28.52600
O  36.49900 7.83000 27.36900
C  35.02000 6.92600 28.95700
N  41.77600 8.64900 28.87100
C  40.80700 8.44600 27.94500
C  41.38300 8.37500 26.52500
C  42.87100 8.79400 26.66400
C  42.89500 9.11500 28.19400
C  41.15000 6.95500 25.82900
C  43.46800 9.82700 25.71700
C  42.87400 11.25300 25.86100
N  43.16200 9.88700 31.11000
C  44.15400 10.08500 30.17300
C  45.22800 10.75500 30.76900
C  44.86700 10.87700 32.13000
C  43.67400 10.20500 32.27800
C  46.54700 11.23200 30.08400
C  45.26100 11.40700 33.38300
O  46.16200 12.14900 33.71300
C  44.19000 10.94700 34.43700
C  44.86000 10.09500 35.46600
O  45.75300 9.25200 35.28700
O  44.39400 10.49700 36.69200
C  44.82100 9.66400 37.82500
H  38.08100 7.59500 33.61900
H  38.87700 8.04200 27.28700
H  44.88600 9.78400 28.18300
H  42.17500 8.91400 35.92500
H  39.28900 8.99000 35.57300
H  40.44600 6.28800 35.36100
H  39.39100 7.01000 36.58200
H  41.03200 7.38400 36.70100
H  40.01500 11.01000 35.64600
H  41.66100 11.48600 35.61600
H  41.77200 9.90900 37.85700
H  40.13000 10.71200 37.91100
H  36.54300 6.38400 32.86800
H  36.10500 5.58500 31.37400
H  35.29000 7.03400 31.87200
H  34.58000 7.59900 29.69300
H  34.98200 5.86300 29.19500
H  34.28300 6.92400 28.15400
H  40.90300 9.06900 25.83500
H  43.52800 7.92400 26.65100
H  40.23900 6.79100 25.25500
H  41.15800 6.16300 26.57800
H  41.97400 6.64500 25.18600
H  43.42100 9.48600 24.68200
H  44.50700 9.90300 26.03700
H  42.38100 11.70000 24.99800
H  43.63500 11.95800 26.19400
H  42.09400 11.11500 26.61000
H  46.52100 11.28900 28.99600
H  47.27200 10.47900 30.39100
H  46.84400 12.20200 30.48300
H  43.78700 11.85200 34.89100
H  45.89800 9.73500 37.97900
H  44.55000 8.62400 37.64300
H  44.22800 9.96900 38.68700

