158

Mg 53.53400 24.20200 44.22800
C  50.82900 26.01000 43.31000
C  52.14500 21.31700 42.97900
C  56.57500 22.54100 44.65600
C  55.17500 27.16300 45.22100
N  51.85300 23.81100 43.04600
C  50.79500 24.66700 42.82300
C  49.66000 23.97000 42.04400
C  49.91900 22.48100 42.29300
C  51.37600 22.53800 42.85100
C  48.83900 21.77100 43.05900
C  49.77600 24.22000 40.46600
C  48.41300 24.23600 39.68600
H  47.86800 22.88600 39.19000
N  54.28900 22.21100 43.83700
C  53.48700 21.17700 43.37000
C  54.32100 20.00800 43.29800
C  55.57600 20.28800 43.84800
C  55.56200 21.72300 44.21300
C  53.71400 18.74500 42.78900
C  56.72100 19.32800 44.10900
O  56.64800 18.15800 43.77600
C  57.97500 19.75900 44.88000
N  55.60500 24.75600 44.87900
C  56.58000 23.91800 44.94800
C  57.81300 24.65300 45.43200
C  57.46300 26.17500 45.31400
C  56.00400 26.03600 45.14500
C  58.37900 24.03800 46.76900
C  58.24700 26.94300 44.21600
C  57.52900 27.66700 43.09100
N  52.99900 26.19500 44.42700
C  53.79800 27.27900 44.91400
C  52.84800 28.38300 45.04100
C  51.65300 27.97600 44.45400
C  51.83700 26.67300 43.98800
C  53.24900 29.70400 45.66100
C  50.27700 28.29000 44.10600
O  49.64000 29.28200 44.29400
C  49.71800 27.06600 43.32300
C  49.16400 27.71400 42.09200
O  49.86500 28.31200 41.27300
O  47.84900 27.44500 41.94300
C  47.22500 27.76700 40.67900
H  51.53800 20.45600 42.69300
H  57.57700 22.12200 44.76300
H  55.73100 28.08300 45.41800
H  48.71300 24.31000 42.46300
H  50.07000 21.87700 41.39800
H  48.72300 20.77400 42.63500
H  47.88600 22.27000 42.88500
H  49.08400 21.58900 44.10600
H  50.32900 23.42100 39.97200
H  50.39100 25.07500 40.18800
H  48.55000 24.95900 38.88100
H  47.62300 24.72400 40.25600
H  52.73400 18.50000 43.19700
H  54.25300 17.80100 42.88000
H  53.33700 18.93800 41.78500
H  58.39500 20.53800 44.24300
H  58.71200 18.96400 45.00200
H  57.68400 20.11400 45.86800
H  58.56800 24.52000 44.65700
H  57.80800 26.53100 46.28500
H  57.66500 23.25200 47.01800
H  58.48400 24.77700 47.56200
H  59.33900 23.56800 46.55300
H  59.13500 26.44900 43.82200
H  58.60200 27.75500 44.85100
H  58.18600 27.56000 42.22800
H  57.52200 28.72200 43.36600
H  56.53000 27.28100 42.88800
H  52.41500 30.10200 46.24000
H  53.38400 30.32800 44.77800
H  54.16000 29.51600 46.22800
H  48.78800 26.80000 43.82500
H  47.84600 27.53500 39.81300
H  47.12700 28.85000 40.61300
H  46.28600 27.23000 40.54300
Mg -1.30900 34.53600 26.71100
C  -3.02000 32.75700 29.31600
C  -0.29400 36.73200 28.95800
C  -0.26800 36.39200 24.24700
C  -2.94900 32.32400 24.45900
N  -1.75300 34.71100 28.91200
C  -2.31100 33.82400 29.80600
C  -2.09400 34.19900 31.31600
C  -1.27300 35.58700 31.05100
C  -1.00400 35.68700 29.56200
C  -1.93600 36.91300 31.54200
C  -1.33300 33.11900 32.12000
C  -2.17200 32.49300 33.28700
H  -1.43700 32.24200 34.63600
N  -0.30500 36.28500 26.58800
C  0.05700 37.05200 27.64400
C  0.88800 38.12800 27.21400
C  0.99000 38.03600 25.78700
C  0.12200 36.88200 25.46100
C  1.53800 39.20800 28.10600
C  1.70300 38.86500 24.81500
O  1.72200 38.73000 23.59600
C  2.62400 39.95700 25.21500
N  -1.61800 34.33400 24.65000
C  -0.98400 35.21000 23.85700
C  -1.12600 34.80200 22.34300
C  -1.80900 33.38100 22.42300
C  -2.15900 33.33100 23.90900
C  -1.89300 35.85400 21.39800
C  -1.01100 32.14900 21.87100
C  0.36600 32.02300 22.50100
N  -2.68100 32.79500 26.84200
C  -3.25600 32.08600 25.85000
C  -4.20600 31.08100 26.42100
C  -4.06100 31.27700 27.82400
C  -3.11900 32.28700 28.02200
C  -5.04600 29.98500 25.77200
C  -4.48600 30.80900 29.09200
O  -5.28100 29.91700 29.46900
C  -3.93200 31.76000 30.14600
C  -4.98000 32.36700 30.95400
O  -5.62400 33.40400 30.62600
O  -5.12900 31.70600 32.17800
C  -5.69100 32.47900 33.24400
H  0.14900 37.45400 29.64600
H  0.12100 36.94300 23.38900
H  -3.19200 31.43700 23.87100
H  -3.05900 34.41700 31.77400
H  -0.29600 35.51400 31.53000
H  -1.35400 37.41500 32.31500
H  -2.87900 36.53700 31.93700
H  -2.15800 37.59200 30.71900
H  -0.47700 33.61700 32.57600
H  -0.83500 32.41800 31.45000
H  -2.55800 31.51600 32.99500
H  -2.99700 33.14600 33.57300
H  1.07000 40.13900 27.78700
H  2.61100 39.24400 27.91900
H  1.37800 39.00200 29.16500
H  3.09700 40.23800 24.27400
H  3.36500 39.52500 25.88800
H  2.14200 40.70200 25.84800
H  -0.11800 34.64700 21.95900
H  -2.74500 33.16300 21.90900
H  -1.18000 36.26500 20.68300
H  -2.26900 36.73600 21.91600
H  -2.79800 35.46700 20.92800
H  -0.99000 32.19200 20.78200
H  -1.50300 31.18300 21.98300
H  1.17000 32.56000 21.99700
H  0.71200 30.99400 22.59000
H  0.21900 32.36000 23.52700
H  -5.98200 30.08400 26.32200
H  -4.67000 28.97600 25.94200
H  -5.15300 30.16200 24.70200
H  -3.29000 31.23600 30.85400
H  -6.21000 31.79300 33.91300
H  -6.46100 33.19100 32.94700
H  -5.01100 33.06800 33.86100

