158

Mg 0.46000 7.55900 25.32500
C  1.07200 9.48800 28.12400
C  0.93300 4.83600 27.31700
C  0.09300 5.63600 22.59900
C  0.10400 10.35800 23.41900
N  1.01300 7.23800 27.50700
C  1.09200 8.14800 28.49100
C  1.30700 7.42400 29.89000
C  1.36900 5.93900 29.52800
C  1.07600 5.99700 28.04800
C  2.79600 5.36100 29.77400
C  0.22600 7.75100 30.93100
C  0.83300 8.16000 32.31100
H  2.01300 7.33600 32.78900
N  0.52800 5.48000 25.00800
C  0.68400 4.52000 25.98800
C  0.50600 3.25700 25.37500
C  0.35200 3.47700 23.97700
C  0.29500 4.90500 23.80900
C  0.78500 1.99100 25.99900
C  0.26600 2.49300 22.85600
O  0.04600 2.91200 21.71500
C  0.49400 1.05200 23.11700
N  0.11400 7.98300 23.31000
C  -0.05700 7.02000 22.36000
C  -0.53900 7.62300 21.02100
C  -0.61600 9.11600 21.38300
C  -0.10400 9.14900 22.82100
C  0.50600 7.28100 19.89300
C  -2.03500 9.73400 21.17600
C  -2.09200 11.02400 20.34200
N  0.74400 9.46800 25.58900
C  0.62900 10.50500 24.73500
C  0.72600 11.74800 25.41700
C  1.01300 11.40600 26.74800
C  0.94100 10.00800 26.81000
C  0.64300 13.11400 24.79100
C  1.09400 11.94200 28.12700
O  1.09900 13.09400 28.50800
C  1.03200 10.71700 29.00600
C  2.09200 10.91100 29.92500
O  3.17500 10.37300 29.87800
O  1.59300 11.70300 30.98000
C  2.60500 12.10400 32.01400
H  1.05100 3.95200 27.94700
H  -0.09900 5.05300 21.69600
H  -0.21300 11.32200 23.01500
H  2.26200 7.87200 30.16200
H  0.59200 5.26700 29.89300
H  2.95800 4.28300 29.78000
H  3.21400 5.68800 30.72600
H  3.46300 5.60700 28.94800
H  -0.44900 6.91400 31.11000
H  -0.37200 8.55800 30.50800
H  -0.00700 8.07400 32.99900
H  1.14500 9.19600 32.17600
H  1.75000 1.64400 25.62900
H  0.08500 1.18200 25.79200
H  0.69300 2.08800 27.08100
H  1.35400 0.77200 23.72500
H  0.63700 0.47000 22.20600
H  -0.43300 0.71600 23.58100
H  -1.51500 7.22700 20.73800
H  0.11700 9.58900 20.73000
H  1.33200 6.67000 20.25700
H  0.98600 8.09200 19.34400
H  -0.09200 6.67700 19.21100
H  -2.44700 9.90300 22.17100
H  -2.67000 9.01400 20.66100
H  -2.79100 10.92400 19.51200
H  -1.13300 11.41100 19.99800
H  -2.57400 11.78200 20.95900
H  -0.41400 13.14900 24.53000
H  1.23800 13.21700 23.88400
H  0.85200 13.95000 25.46000
H  0.07700 10.72500 29.53200
H  2.14200 12.38400 32.96000
H  3.37000 12.80600 31.68000
H  3.07300 11.21000 32.42600
Mg -10.65400 16.55800 42.90600
C  -7.15700 17.06900 42.93500
C  -11.17700 19.86800 42.50400
C  -13.91500 15.87700 42.18600
C  -9.90100 13.02300 42.66100
N  -9.31900 18.25700 42.65500
C  -7.92000 18.24000 42.70400
C  -7.39700 19.73700 42.56900
C  -8.72600 20.61100 42.68300
C  -9.81700 19.52000 42.64400
C  -8.85400 21.51400 43.89600
C  -6.52900 19.98900 41.21900
C  -5.03400 20.22100 41.45300
H  -4.13600 19.38500 40.58600
N  -12.29900 17.71200 42.33000
C  -12.36900 19.08100 42.26000
C  -13.70100 19.45400 41.86700
C  -14.51100 18.30900 41.79400
C  -13.55600 17.23000 42.05700
C  -14.16400 20.88300 41.47500
C  -16.04900 18.31200 41.42200
O  -16.62400 19.38000 41.48900
C  -16.78600 17.12200 41.15700
N  -11.65900 14.66300 42.21100
C  -13.05000 14.74700 42.35100
C  -13.57500 13.31200 42.68500
C  -12.30900 12.38000 42.49200
C  -11.21300 13.42100 42.46500
C  -14.38100 13.23700 44.07500
C  -12.40700 11.55200 41.15500
C  -11.92200 10.07200 41.21500
N  -8.89800 15.24600 42.88700
C  -8.77300 13.85200 42.85700
C  -7.43400 13.54500 42.98600
C  -6.70500 14.78500 43.07900
C  -7.69400 15.76100 42.89600
C  -6.99000 12.20700 42.99800
C  -5.39200 15.35400 43.14200
O  -4.29600 14.82400 43.14200
C  -5.62600 16.92000 43.22500
C  -5.27700 17.18700 44.65800
O  -6.03000 17.06300 45.61800
O  -4.03200 17.77400 44.67800
C  -3.58500 18.29600 45.98900
H  -11.16700 20.95500 42.40400
H  -14.97700 15.67000 42.33000
H  -9.77600 11.94100 42.74400
H  -6.83000 20.00100 43.46200
H  -8.85300 21.27900 41.83100
H  -7.86700 21.97000 43.97700
H  -9.21800 20.88300 44.70600
H  -9.51600 22.34200 43.64600
H  -7.00600 20.76100 40.61600
H  -6.71400 19.11400 40.59500
H  -4.80700 19.99900 42.49600
H  -4.87600 21.28200 41.25700
H  -13.19900 21.37200 41.34600
H  -14.80000 21.30700 42.25200
H  -14.69600 20.76200 40.53100
H  -17.77900 17.45800 40.85800
H  -16.85500 16.63000 42.12700
H  -16.18900 16.50400 40.48600
H  -14.34600 12.93200 42.01400
H  -12.19400 11.72400 43.35500
H  -14.41600 14.20100 44.58100
H  -13.61500 12.82800 44.73400
H  -15.30900 12.67100 44.00000
H  -11.82500 12.14300 40.44800
H  -13.46400 11.54300 40.88800
H  -11.66300 9.85000 42.25000
H  -11.07800 9.92700 40.54100
H  -12.70300 9.34900 40.97800
H  -7.65000 11.35300 43.15200
H  -6.22500 12.19900 43.77500
H  -6.40800 12.18200 42.07700
H  -4.92400 17.41900 42.55800
H  -3.06300 19.21200 45.71400
H  -2.94600 17.49900 46.37100
H  -4.33500 18.64600 46.69800

