158

Mg 0.61300 7.63600 25.67700
C  1.32300 9.70600 28.62100
C  1.03300 5.03700 27.89800
C  0.20800 5.72700 23.12600
C  0.61000 10.57700 23.84100
N  1.17400 7.40500 28.04900
C  1.22400 8.39000 29.02600
C  1.49000 7.74300 30.37100
C  1.64600 6.21600 30.07100
C  1.16600 6.18300 28.61600
C  3.00100 5.57500 30.36800
C  0.39000 8.12400 31.30100
C  0.71600 7.98400 32.81200
H  1.76300 6.96700 33.33900
N  0.62900 5.63900 25.53600
C  0.79200 4.72900 26.53500
C  0.67200 3.38800 25.99500
C  0.41900 3.52900 24.55400
C  0.37500 5.00400 24.36600
C  0.71700 2.16200 26.77200
C  0.27700 2.52900 23.46400
O  -0.07900 2.85700 22.33300
C  0.46800 1.08400 23.72100
N  0.63600 8.14900 23.75400
C  0.36100 7.13400 22.80400
C  0.11300 7.79900 21.39800
C  -0.17300 9.29200 21.75600
C  0.40000 9.35000 23.21600
C  1.30600 7.46900 20.43100
C  -1.73600 9.59600 21.77700
C  -2.19100 10.93000 21.21900
N  0.98700 9.74800 26.09500
C  0.92000 10.81700 25.18300
C  1.38600 12.04100 25.87400
C  1.50100 11.70000 27.25000
C  1.28800 10.30100 27.31500
C  1.41200 13.48000 25.25200
C  1.70200 12.20600 28.55800
O  1.95200 13.34900 28.92300
C  1.63400 10.97700 29.49700
C  2.84800 10.81300 30.35300
O  3.87300 10.17300 30.08000
O  2.62400 11.43700 31.52000
C  3.67200 11.37400 32.54200
H  1.04800 4.15500 28.54100
H  0.04100 5.17700 22.19700
H  0.41300 11.40300 23.15500
H  2.42600 8.15600 30.74600
H  0.86100 5.70800 30.63200
H  3.40800 5.36200 29.37900
H  2.90000 4.64200 30.92300
H  3.46300 6.31300 31.02300
H  -0.48800 7.48300 31.22500
H  0.13600 9.15600 31.05800
H  -0.19300 7.71200 33.34900
H  1.04100 8.97900 33.11600
H  -0.00400 1.42400 26.42000
H  0.36900 2.40900 27.77500
H  1.71200 1.72300 26.85500
H  1.35600 0.92800 24.33300
H  0.48800 0.46400 22.82400
H  -0.37000 0.78700 24.35100
H  -0.78700 7.38000 20.94900
H  0.27600 9.92200 20.98900
H  1.95600 6.80500 21.00200
H  1.84800 8.38800 20.20600
H  0.87300 7.04300 19.52600
H  -1.96000 9.66600 22.84100
H  -2.38100 8.80900 21.38600
H  -1.31900 11.44400 20.81400
H  -2.72500 11.54000 21.94800
H  -2.87800 10.76200 20.38900
H  0.62700 14.13600 25.62900
H  1.22800 13.54200 24.18000
H  2.34200 13.98900 25.50300
H  0.82900 11.20200 30.19700
H  4.27500 12.27800 32.44800
H  4.33100 10.51800 32.39600
H  3.11400 11.41600 33.47700
Mg 17.04000 -1.59800 27.49800
C  15.98600 0.50300 30.33800
C  18.52700 -3.51500 29.89800
C  18.47800 -3.06200 25.07600
C  15.76700 0.88000 25.49500
N  17.25700 -1.38100 29.92300
C  16.76700 -0.52500 30.80800
C  17.02000 -0.93500 32.31400
C  17.81200 -2.28700 32.10300
C  17.91300 -2.38400 30.55700
C  19.23600 -2.42300 32.83100
C  15.77600 -1.04300 33.27000
C  15.70500 -0.17800 34.47500
H  16.93300 0.48200 35.16500
N  18.33600 -2.99800 27.40400
C  18.78500 -3.76800 28.52700
C  19.45200 -4.97800 28.01200
C  19.48400 -4.80800 26.54300
C  18.79300 -3.61700 26.29800
C  20.13100 -6.06200 28.80300
C  20.08500 -5.83200 25.56900
O  20.09800 -5.76100 24.34900
C  20.70000 -7.16600 26.03000
N  17.00400 -1.21100 25.50100
C  17.85900 -1.87000 24.64400
C  17.78200 -1.34500 23.17800
C  16.78600 -0.16400 23.36100
C  16.42800 -0.17900 24.88800
C  19.17900 -0.98500 22.65800
C  15.52500 -0.26400 22.45300
C  14.43700 -1.23000 22.86200
N  15.82900 0.30400 27.80200
C  15.41100 1.13200 26.82200
C  14.62600 2.19600 27.47600
C  14.87000 2.01900 28.88400
C  15.61600 0.83400 28.99600
C  13.71900 3.21600 26.85200
C  14.58400 2.48700 30.23400
O  13.94100 3.51100 30.43600
C  15.35300 1.60200 31.27800
C  16.25500 2.55500 31.98200
O  17.40900 2.83200 31.73600
O  15.50800 3.25200 32.93100
C  16.23000 4.33200 33.61000
H  18.95600 -4.23400 30.60000
H  18.78500 -3.69700 24.24300
H  15.35400 1.58500 24.77100
H  17.70700 -0.20900 32.74800
H  17.13900 -3.11800 32.31300
H  19.44200 -1.52300 33.41000
H  19.91500 -2.55500 31.98800
H  19.46100 -3.24200 33.51400
H  15.62400 -2.08200 33.56300
H  14.83000 -0.81700 32.77800
H  15.19600 -0.72400 35.26900
H  14.98500 0.61500 34.27500
H  19.63000 -7.02900 28.74300
H  20.29900 -5.72100 29.82400
H  21.15900 -6.05100 28.44000
H  19.85000 -7.58700 26.56700
H  21.63000 -7.00500 26.57400
H  20.97900 -7.78300 25.17600
H  17.29700 -2.11800 22.58300
H  17.36700 0.74500 23.21100
H  19.43600 0.03700 22.93600
H  19.19800 -1.01200 21.56800
H  20.01500 -1.60500 22.98200
H  15.87400 -0.52100 21.45300
H  15.18200 0.76300 22.32900
H  13.55400 -0.78700 23.32200
H  14.86900 -2.05800 23.42500
H  14.05800 -1.73000 21.97000
H  13.07700 2.70800 26.13200
H  14.26200 4.03500 26.38100
H  13.19900 3.61400 27.72300
H  14.59700 1.24600 31.97800
H  16.92800 4.85400 32.95600
H  16.68600 4.10100 34.57300
H  15.34500 4.93300 33.81800

