158

Mg 35.45900 1.64800 29.53900
C  33.58100 2.96500 32.03400
C  38.26800 1.79000 31.68500
C  37.54900 0.84100 27.00400
C  32.88800 2.20300 27.25000
N  35.86100 2.17500 31.65000
C  34.86900 2.64800 32.43900
C  35.37800 2.57700 33.89000
C  36.90100 2.60700 33.77000
C  37.07700 2.22000 32.29100
C  37.49700 3.92000 34.17300
C  34.77600 1.35200 34.70300
C  34.18100 1.84500 36.05600
H  34.70000 3.06800 36.75300
N  37.58000 1.30500 29.34100
C  38.51600 1.31800 30.38200
C  39.74000 0.75900 29.95500
C  39.58900 0.41300 28.58700
C  38.20800 0.86400 28.22400
C  40.89300 0.58900 30.93300
C  40.62500 -0.07700 27.60600
O  40.34100 -0.25900 26.45900
C  41.98300 -0.27300 28.02800
N  35.33300 1.70600 27.33300
C  36.27200 1.12500 26.58700
C  35.74500 0.96200 25.19200
C  34.18200 1.07800 25.33200
C  34.15100 1.75200 26.70300
C  36.32900 2.00800 24.16500
C  33.36300 -0.24500 25.32200
C  32.36600 -0.34900 24.14500
N  33.57300 2.39700 29.59000
C  32.60000 2.50800 28.59500
C  31.43400 3.02100 29.17800
C  31.76900 3.26600 30.50900
C  33.05700 2.81800 30.71400
C  30.10800 3.26900 28.49600
C  31.24100 3.82100 31.70200
O  30.13900 4.23800 32.07000
C  32.39300 3.53000 32.81300
C  32.59300 4.87600 33.51200
O  33.42200 5.66300 33.19000
O  31.76300 5.02200 34.62200
C  31.86900 6.30700 35.43000
H  39.06000 1.84000 32.43400
H  38.07800 0.43300 26.14100
H  32.06800 2.07500 26.54000
H  35.02600 3.48800 34.37300
H  37.37300 1.81800 34.35500
H  38.48300 3.71000 34.58700
H  36.96200 4.49800 34.92600
H  37.60800 4.58600 33.31700
H  35.58200 0.63100 34.84400
H  34.04800 0.75400 34.15500
H  34.31900 0.99200 36.72000
H  33.10600 1.99300 35.95600
H  40.66900 0.62400 31.99900
H  41.55200 1.44200 30.77200
H  41.40600 -0.37300 30.95100
H  42.56200 -0.70500 27.21300
H  41.92000 -1.03300 28.80700
H  42.41600 0.59000 28.53400
H  35.94300 -0.05300 24.84800
H  33.77400 1.71600 24.54900
H  35.62500 2.78300 23.86100
H  36.74200 1.39300 23.36600
H  37.17300 2.55200 24.58900
H  32.83500 -0.31000 26.27300
H  33.98700 -1.13000 25.19900
H  32.60300 -1.14000 23.43400
H  32.39100 0.55600 23.53700
H  31.39000 -0.50800 24.60200
H  29.81700 4.22200 28.93600
H  29.47500 2.41900 28.75100
H  30.15500 3.45000 27.42200
H  31.99900 2.86300 33.58100
H  30.81100 6.50300 35.60100
H  32.16100 7.19100 34.86200
H  32.38700 6.19300 36.38200
Mg 9.30900 48.24700 25.34500
C  6.98500 48.80500 27.86600
C  11.70100 49.46500 27.44000
C  11.46100 47.64800 22.96800
C  6.67200 47.70000 22.98800
N  9.27800 49.20400 27.40000
C  8.28300 49.05500 28.35000
C  8.81800 49.13700 29.83200
C  10.21500 49.83500 29.60200
C  10.42800 49.47400 28.02300
C  10.15700 51.34300 29.82700
C  8.80600 47.75600 30.52400
C  9.37600 47.75700 31.96000
H  8.46000 47.21600 33.06100
N  11.34000 48.39000 25.25500
C  12.14800 48.90400 26.25200
C  13.50900 48.71900 25.78200
C  13.52000 48.21600 24.51400
C  12.05500 48.08700 24.18400
C  14.66000 49.15200 26.71600
C  14.58300 47.90800 23.57400
O  14.38600 47.35600 22.50000
C  15.96700 48.10200 23.99600
N  9.07200 47.81300 23.23600
C  10.18100 47.60200 22.57300
C  9.86500 46.99000 21.16000
C  8.29500 47.01700 21.13800
C  7.97200 47.61500 22.47700
C  10.67700 47.51000 19.93700
C  7.60600 45.67000 20.78800
C  6.59400 45.75600 19.54200
N  7.25800 48.33100 25.37600
C  6.28400 48.09200 24.30600
C  4.98400 48.18200 24.90900
C  5.25700 48.41800 26.34000
C  6.59000 48.52500 26.50700
C  3.62800 48.18300 24.17600
C  4.58800 48.66500 27.59900
O  3.36000 48.60700 27.88300
C  5.70100 48.85900 28.65100
C  5.39500 47.74800 29.66100
O  5.74900 46.60100 29.59600
O  4.60200 48.23000 30.65900
C  4.06900 47.26200 31.63700
H  12.46900 49.69000 28.18300
H  12.11900 47.31300 22.16400
H  5.87000 47.53400 22.26700
H  8.16000 49.77200 30.42500
H  11.05600 49.35900 30.10600
H  9.26000 51.61300 30.38300
H  10.18700 51.88500 28.88100
H  11.01300 51.60800 30.44800
H  9.23700 46.91900 29.97700
H  7.75500 47.52200 30.69300
H  9.72300 48.78000 32.10900
H  10.23500 47.08700 31.92400
H  14.42900 49.36600 27.75900
H  15.03900 50.12400 26.40000
H  15.44800 48.40000 26.67200
H  16.12500 47.31300 24.73100
H  16.01300 49.05400 24.52400
H  16.60700 48.05500 23.11500
H  10.25500 45.97200 21.13900
H  7.94100 47.86300 20.54900
H  10.08800 48.19400 19.32700
H  11.14300 46.77800 19.27700
H  11.49900 48.06200 20.39300
H  7.14800 45.14300 21.62500
H  8.37700 44.93900 20.54800
H  5.78600 45.04900 19.73300
H  7.07300 45.67600 18.56600
H  6.10900 46.72500 19.65500
H  3.84300 48.10200 23.11100
H  2.99700 49.04400 24.39900
H  3.10500 47.35500 24.65500
H  5.67300 49.83300 29.14000
H  3.44600 47.92100 32.24100
H  4.89500 46.97800 32.28900
H  3.57600 46.37700 31.23500

