158

Mg 17.06900 52.79300 26.43400
C  18.67300 51.10000 29.10700
C  14.48100 53.67500 28.56700
C  15.50900 54.29800 23.83800
C  19.41300 51.44400 24.36200
N  16.54200 52.25500 28.55200
C  17.36300 51.63900 29.48300
C  16.93200 51.90800 30.92600
C  15.45900 52.45900 30.63500
C  15.47500 52.91000 29.18700
C  14.32700 51.44100 30.96500
C  17.83700 52.96500 31.66600
C  18.31500 52.60200 33.06500
H  17.43800 53.13500 34.27400
N  15.24300 53.93400 26.23500
C  14.35300 54.18500 27.25300
C  13.30100 54.92700 26.69600
C  13.53000 55.11000 25.29600
C  14.80200 54.40200 25.03400
C  12.09200 55.50100 27.50200
C  12.81300 56.02600 24.33200
O  13.19400 56.03000 23.20300
C  11.68000 56.88500 24.71400
N  17.36000 52.82100 24.32300
C  16.64500 53.55500 23.42500
C  17.22200 53.45400 21.98000
C  18.42100 52.52900 22.23700
C  18.41400 52.28000 23.74600
C  16.16000 53.01800 21.01200
C  19.85700 53.15900 21.76000
C  20.10400 53.20400 20.21600
N  18.76900 51.56200 26.61200
C  19.59100 51.08700 25.68100
C  20.65800 50.33400 26.24100
C  20.45500 50.42700 27.64400
C  19.22700 51.12600 27.79300
C  21.81300 49.76400 25.46800
C  20.92700 50.12100 28.96900
O  21.95900 49.59400 29.42300
C  19.75300 50.44400 29.95000
C  19.11200 49.22800 30.58800
O  18.17500 48.51800 30.20600
O  19.66800 49.19900 31.81100
C  19.22600 48.16800 32.71600
H  13.68400 53.92200 29.27100
H  15.03400 54.76800 22.97400
H  20.00200 51.07900 23.51900
H  16.79000 51.04800 31.58000
H  15.22900 53.33100 31.24800
H  14.38100 50.58400 30.29400
H  13.30800 51.82600 30.93500
H  14.54800 51.16200 31.99500
H  17.43300 53.96200 31.84000
H  18.71900 52.98500 31.02500
H  19.38000 52.82000 33.14100
H  18.37900 51.51900 33.17400
H  12.11000 56.58100 27.35700
H  12.19400 55.28600 28.56500
H  11.18800 55.04500 27.10000
H  12.07300 57.55100 25.48200
H  10.85500 56.22500 24.98300
H  11.38700 57.52500 23.88100
H  17.65000 54.42900 21.74300
H  18.28200 51.60600 21.67400
H  16.06400 51.93600 21.10400
H  16.38100 53.35700 20.00000
H  15.14600 53.37200 21.19600
H  20.61100 52.55900 22.27000
H  19.87200 54.20100 22.07900
H  20.40700 54.21900 19.96000
H  19.19300 52.83800 19.74100
H  20.94300 52.54900 19.98400
H  22.21500 50.67800 25.03000
H  21.41300 49.06200 24.73600
H  22.65300 49.40500 26.06200
H  20.07700 51.13300 30.73100
H  18.16000 48.08300 32.50100
H  19.35500 48.69900 33.65900
H  19.86700 47.28700 32.70600
Mg -2.05800 34.46700 26.99900
C  -3.66500 32.67400 29.45900
C  -0.50300 36.39200 29.45100
C  -0.75000 36.49300 24.57200
C  -3.61200 32.57200 24.59200
N  -2.04400 34.43700 29.27900
C  -2.75900 33.61600 30.02300
C  -2.31200 33.72400 31.49400
C  -1.41900 35.01000 31.45400
C  -1.30500 35.30300 29.97600
C  -2.06600 36.05300 32.30200
C  -1.63100 32.49600 32.11300
C  -1.98700 32.10900 33.56900
H  -0.90200 32.31300 34.61700
N  -0.85000 36.24400 27.06800
C  -0.26400 36.85000 28.12800
C  0.51600 38.00000 27.68700
C  0.36900 38.08800 26.28700
C  -0.40000 36.86800 25.87800
C  1.23000 39.03000 28.62900
C  0.88700 39.11800 25.32500
O  0.42800 39.17400 24.20400
C  2.05100 39.90800 25.77000
N  -2.20900 34.59500 24.85600
C  -1.52700 35.41700 24.06800
C  -1.72100 35.05100 22.60000
C  -2.21600 33.61500 22.71500
C  -2.75400 33.58200 24.16400
C  -2.79600 35.98200 21.86500
C  -1.17700 32.43200 22.47300
C  0.32000 32.73400 22.51000
N  -3.30400 32.91100 26.92800
C  -3.96500 32.29600 25.92000
C  -4.88000 31.29700 26.42400
C  -4.72100 31.35000 27.76900
C  -3.88000 32.37300 28.04300
C  -5.73300 30.47900 25.54300
C  -5.12400 30.76500 29.04900
O  -5.90200 29.84400 29.22600
C  -4.41500 31.59400 30.20400
C  -5.50300 32.18600 31.00300
O  -6.20400 33.13600 30.71300
O  -5.60400 31.38900 32.15400
C  -6.42800 31.86700 33.16500
H  -0.07900 36.89000 30.32600
H  -0.32100 37.06800 23.74800
H  -4.03800 31.92200 23.82600
H  -3.24100 33.89200 32.03900
H  -0.49100 34.66700 31.91100
H  -3.02100 36.33600 31.85900
H  -1.41500 36.91400 32.45000
H  -2.22300 35.54500 33.25300
H  -0.55900 32.69200 32.12400
H  -1.92800 31.63300 31.51700
H  -2.05600 31.02400 33.49300
H  -2.99100 32.34200 33.92400
H  0.95200 40.04600 28.34800
H  2.31600 38.95500 28.68300
H  0.91800 38.78800 29.64500
H  1.74300 40.70100 26.45200
H  2.59300 40.28800 24.90500
H  2.57800 39.18700 26.39600
H  -0.81600 35.11100 21.99500
H  -3.07800 33.50700 22.05700
H  -2.78900 36.85600 22.51600
H  -3.76700 35.48800 21.86400
H  -2.40400 36.22400 20.87600
H  -1.36000 32.04100 21.47200
H  -1.20500 31.55300 23.11600
H  0.87500 32.81800 21.57600
H  0.82700 31.90600 23.00600
H  0.41500 33.57600 23.19500
H  -5.86500 31.00700 24.59900
H  -6.62900 30.37400 26.15500
H  -5.30100 29.48700 25.41400
H  -3.83600 30.90900 30.82400
H  -6.07400 32.78000 33.64200
H  -6.33400 31.14900 33.98000
H  -7.44900 32.06000 32.83500

