158

Mg 1.17900 42.34800 24.82300
C  1.80300 42.45700 28.27500
C  -1.79200 40.69500 25.66000
C  0.79900 41.70400 21.60500
C  4.37900 43.66900 24.27900
N  0.15400 41.67300 26.73500
C  0.53300 41.93100 28.03000
C  -0.63900 41.59900 29.02400
C  -1.58100 40.70900 28.10400
C  -1.03900 41.11900 26.75500
C  -1.54800 39.22800 28.39300
C  -1.39100 42.87300 29.58700
C  -1.22500 43.21200 31.07100
H  -1.49200 42.09600 32.06600
N  -0.40600 41.57700 23.80400
C  -1.53500 40.92800 24.31300
C  -2.35000 40.47600 23.16700
C  -1.75200 41.01200 21.96900
C  -0.36400 41.45500 22.39800
C  -3.62700 39.78400 23.45700
C  -2.15400 40.86100 20.56500
O  -1.35000 41.02100 19.67200
C  -3.55300 40.48100 20.18900
N  2.41900 42.48100 23.22600
C  2.05300 42.24100 21.97400
C  3.18500 42.48200 21.02400
C  4.05900 43.54800 21.72000
C  3.56600 43.25800 23.19000
C  3.93500 41.21800 20.62900
C  3.74700 44.98900 21.15100
C  2.81800 45.92700 21.89800
N  2.76700 42.93400 25.97000
C  4.00300 43.44800 25.62000
C  4.74100 43.81900 26.85600
C  3.87300 43.46700 27.85000
C  2.71800 42.86300 27.32000
C  6.02100 44.43900 27.02000
C  3.77300 43.47400 29.29600
O  4.52300 44.03800 30.16200
C  2.52500 42.74800 29.62400
C  2.83100 41.60000 30.53700
O  3.72200 40.74100 30.29800
O  2.01800 41.60200 31.57700
C  2.10900 40.38800 32.47900
H  -2.69300 40.11600 25.87100
H  0.75500 41.56500 20.52300
H  5.29000 44.21900 24.03500
H  -0.17800 41.02100 29.82500
H  -2.59600 41.06400 28.28000
H  -0.74800 39.09900 29.12100
H  -1.18200 38.72200 27.50000
H  -2.55600 38.98300 28.72800
H  -2.47100 42.76100 29.49900
H  -1.00200 43.65800 28.93800
H  -1.87900 44.02000 31.39800
H  -0.23200 43.63000 31.22900
H  -4.25700 39.84300 22.57000
H  -4.25200 40.29600 24.18900
H  -3.40100 38.73800 23.66500
H  -3.90300 39.51100 20.54200
H  -3.50700 40.31400 19.11300
H  -4.13400 41.31800 20.57800
H  2.69200 42.95100 20.17300
H  5.10800 43.26700 21.62300
H  3.87900 41.15700 19.54200
H  3.43100 40.34200 21.03700
H  4.98300 41.31400 20.91200
H  3.39600 44.85800 20.12700
H  4.72800 45.45700 21.23200
H  2.21600 45.48400 22.69100
H  2.11400 46.56600 21.36400
H  3.41400 46.66900 22.42900
H  6.69600 43.76400 27.54600
H  6.03500 45.36200 27.60000
H  6.44500 44.79300 26.08000
H  1.93600 43.48300 30.17300
H  2.92500 39.70700 32.23600
H  1.22400 39.75700 32.55400
H  2.34500 40.70100 33.49600
Mg -4.59700 25.42500 25.52400
C  -3.24900 26.57500 28.48800
C  -6.70600 23.32500 27.45100
C  -5.73800 24.05000 22.66400
C  -2.35700 27.29200 23.76800
N  -4.96500 25.06600 27.78500
C  -4.33900 25.66700 28.77500
C  -4.83200 25.28000 30.18000
C  -5.58300 24.00200 29.81000
C  -5.83100 24.14300 28.22500
C  -4.85500 22.69200 30.23000
C  -5.58900 26.44700 30.90500
C  -5.04300 26.73600 32.28600
H  -5.16700 25.70800 33.37900
N  -6.07500 23.92500 25.10100
C  -6.91600 23.26400 26.04300
C  -7.83500 22.42400 25.30500
C  -7.58300 22.64000 23.89900
C  -6.43000 23.55900 23.80700
C  -8.77200 21.47100 25.99000
C  -8.36700 22.11200 22.68200
O  -7.99800 22.40300 21.54100
C  -9.63700 21.34200 23.00200
N  -4.28600 25.82900 23.59400
C  -4.71900 24.96500 22.56700
C  -3.97400 25.16800 21.22100
C  -3.11800 26.36800 21.51300
C  -3.26600 26.52100 23.03200
C  -3.34400 23.86600 20.77300
C  -3.42100 27.69600 20.68600
C  -2.46000 28.06300 19.58600
N  -2.96800 26.70100 26.01700
C  -2.13100 27.42100 25.15800
C  -1.25000 28.27800 25.97200
C  -1.66100 27.92000 27.30200
C  -2.68900 26.94900 27.25400
C  -0.19000 29.23500 25.58100
C  -1.37400 28.22700 28.65800
O  -0.53100 28.98000 29.09800
C  -2.44100 27.34000 29.50000
C  -1.66700 26.34600 30.33400
O  -1.45900 25.19300 30.13600
O  -1.23500 26.99600 31.47700
C  -0.70800 26.17300 32.63700
H  -7.37500 22.69300 28.03800
H  -5.84800 23.54500 21.70200
H  -1.64700 27.72100 23.05800
H  -3.93100 25.00400 30.72800
H  -6.62100 24.06800 30.13600
H  -3.97200 22.79100 30.86100
H  -4.53300 22.26400 29.28100
H  -5.59400 22.13800 30.81000
H  -6.64500 26.20300 31.01500
H  -5.50900 27.40000 30.38200
H  -5.53800 27.63900 32.64300
H  -4.00600 27.04600 32.15800
H  -9.76300 21.92300 25.94200
H  -8.50600 21.44400 27.04700
H  -8.60900 20.49400 25.53500
H  -10.02000 21.11400 22.00700
H  -10.39300 22.02300 23.39100
H  -9.47300 20.48000 23.64900
H  -4.75900 25.38500 20.49700
H  -2.07800 26.05900 21.41200
H  -3.52300 23.03500 21.45500
H  -2.27000 23.95100 20.60800
H  -3.76400 23.57700 19.80900
H  -3.38500 28.61600 21.27000
H  -4.45400 27.65200 20.34100
H  -2.66300 27.61300 18.61400
H  -1.52400 27.63100 19.93900
H  -2.34500 29.13100 19.40000
H  0.37800 28.84200 24.73800
H  0.39100 29.40300 26.48800
H  -0.63900 30.17000 25.24400
H  -3.04700 28.05200 30.06100
H  -0.92400 25.10900 32.54500
H  -1.08300 26.43200 33.62700
H  0.36000 26.37900 32.56200

