158

Mg 41.67400 9.09800 29.38500
C  43.49400 10.53700 31.94700
C  39.52600 7.67100 31.59200
C  40.13700 7.63100 26.69100
C  44.29500 9.99800 27.16800
N  41.59500 9.01100 31.57800
C  42.33400 9.85100 32.42100
C  41.77100 9.81200 33.89600
C  40.62300 8.76800 33.76500
C  40.63700 8.34900 32.19600
C  40.64400 7.57300 34.70400
C  41.52000 11.23100 34.51700
C  40.36000 11.29800 35.54600
H  40.51700 12.11500 36.86100
N  40.02100 7.87100 29.11400
C  39.24900 7.31500 30.17800
C  38.10500 6.69000 29.65500
C  38.12700 6.80100 28.21700
C  39.47400 7.42400 27.91700
C  37.06500 6.03100 30.66000
C  37.15000 6.39200 27.22000
O  37.29500 6.41300 26.01000
C  35.88900 5.95500 27.73800
N  42.23000 8.74800 27.23700
C  41.35200 8.24600 26.34700
C  41.94900 8.29500 24.92500
C  43.26800 9.10500 25.06700
C  43.27100 9.25000 26.57800
C  42.13500 6.84700 24.43200
C  43.22200 10.51600 24.31800
C  42.05400 11.47600 24.61000
N  43.40100 10.16500 29.47100
C  44.39600 10.37500 28.54500
C  45.43400 11.21000 29.08500
C  45.09300 11.37500 30.48700
C  43.85000 10.64700 30.61300
C  46.51600 11.76200 28.25300
C  45.48800 11.91700 31.75700
O  46.45200 12.58500 32.13700
C  44.41600 11.37700 32.75700
C  45.10100 10.65800 33.86900
O  45.96000 9.81200 33.75600
O  44.68900 11.13200 35.13300
C  45.39000 10.68900 36.43000
H  38.88800 7.20500 32.34600
H  39.51500 7.13400 25.94300
H  45.06500 10.49800 26.57600
H  42.53300 9.49300 34.60800
H  39.63400 9.20700 33.89700
H  40.38100 6.69800 34.10900
H  39.86500 7.76400 35.44300
H  41.54400 7.55700 35.31800
H  41.39600 11.86400 33.63800
H  42.30000 11.55100 35.20700
H  40.14700 10.26000 35.80400
H  39.54800 11.79100 35.01200
H  36.16200 6.64000 30.67900
H  37.42300 5.97000 31.68800
H  36.67000 5.09100 30.27500
H  35.24500 5.70300 26.89500
H  35.35000 6.61400 28.41900
H  36.04500 5.03400 28.29900
H  41.23000 8.74000 24.23800
H  44.13000 8.55600 24.68800
H  41.74900 6.18700 25.20900
H  43.19200 6.65500 24.24500
H  41.54500 6.73100 23.52300
H  43.16700 10.33100 23.24500
H  44.15500 11.04800 24.50000
H  42.40600 12.40300 25.06300
H  41.29400 11.09700 25.29300
H  41.52400 11.63700 23.67100
H  47.09200 12.49800 28.81400
H  46.17400 12.16500 27.30000
H  47.19600 10.95800 27.97000
H  43.89400 12.28100 33.07100
H  46.03800 9.85700 36.15300
H  44.71500 10.25800 37.16900
H  45.98600 11.54000 36.76000
Mg 48.77100 35.20500 27.92100
C  46.77800 33.57000 30.33500
C  48.58400 38.01200 30.00400
C  50.14600 36.98300 25.46900
C  48.43600 32.38400 25.88100
N  47.90900 35.72100 30.01400
C  47.20800 34.82300 30.81900
C  47.15200 35.37800 32.20000
C  47.17000 36.88400 31.86000
C  47.93500 36.92700 30.59100
C  45.72800 37.60400 31.83100
C  48.43200 34.97900 33.08700
C  48.05400 34.80100 34.58600
H  47.21900 35.85600 35.26900
N  49.38000 37.19800 27.75400
C  49.29100 38.12500 28.80600
C  49.91700 39.35200 28.24900
C  50.33900 39.15500 26.89500
C  49.99600 37.71900 26.64000
C  50.07800 40.58800 29.12400
C  51.08100 40.08400 25.78600
O  51.56600 39.75600 24.72400
C  51.37100 41.52400 26.15600
N  49.15900 34.74200 25.96300
C  49.81000 35.65400 25.11100
C  49.94300 35.08300 23.75700
C  49.63000 33.58300 23.94000
C  49.08200 33.52800 25.35500
C  49.00800 35.89400 22.73000
C  50.92500 32.65600 23.86100
C  50.87300 31.75100 22.63600
N  47.76900 33.35300 28.01600
C  47.77200 32.34400 27.10700
C  47.00200 31.20000 27.71900
C  46.48600 31.68200 28.93000
C  47.08800 32.95900 29.12600
C  46.84700 29.81900 27.20700
C  45.79500 31.31700 30.12900
O  45.20700 30.28400 30.41700
C  45.78900 32.60600 30.97200
C  45.93700 32.20100 32.39000
O  46.99400 31.95500 32.92700
O  44.68800 32.19100 33.01800
C  44.74500 32.04200 34.49000
H  48.63100 38.90500 30.63100
H  50.51200 37.52800 24.59700
H  48.50800 31.49000 25.25800
H  46.31300 35.04300 32.80800
H  47.84700 37.40000 32.54000
H  44.87500 36.95500 32.03300
H  45.51600 37.95700 30.82100
H  45.67000 38.55400 32.36200
H  49.27300 35.67000 33.13400
H  48.78000 34.02000 32.70300
H  49.01700 34.65800 35.07800
H  47.44800 33.91200 34.75800
H  49.22200 41.26200 29.08400
H  50.95100 41.20700 28.91900
H  50.10500 40.34500 30.18700
H  52.07900 41.73700 26.95800
H  50.34300 41.83000 26.34800
H  51.78100 42.03500 25.28500
H  50.96200 35.22900 23.40100
H  48.82800 33.31600 23.25100
H  48.45200 36.50900 23.43700
H  48.21700 35.27300 22.31100
H  49.51400 36.49400 21.97400
H  50.96900 31.95200 24.69200
H  51.88400 33.17100 23.82400
H  51.13900 30.72300 22.88300
H  51.70400 32.01500 21.98100
H  49.97400 31.77700 22.02000
H  47.68400 29.48900 26.59100
H  45.95300 29.80000 26.58400
H  46.69700 29.18200 28.07800
H  44.79600 33.03300 30.83100
H  43.75200 32.01000 34.93700
H  45.22800 32.94400 34.86700
H  45.39400 31.21900 34.79300

