158

Mg 1.68500 -1.42600 43.40300
C  4.82400 -0.52300 42.74400
C  0.55100 1.38600 41.72900
C  -1.52100 -2.66800 43.57400
C  2.84300 -4.47500 44.80300
N  2.57000 0.14300 42.19000
C  3.89600 0.35800 42.21000
C  4.30700 1.61200 41.42500
C  2.90800 2.36800 41.39400
C  1.96300 1.21300 41.73300
C  2.73100 3.73100 42.14300
C  4.99600 1.36400 40.06200
C  6.31400 2.06200 39.75000
H  6.50700 2.60900 38.29900
N  -0.23700 -0.63600 42.88700
C  -0.44200 0.47500 42.17600
C  -1.82600 0.64700 41.95000
C  -2.45200 -0.47200 42.42500
C  -1.42100 -1.40100 42.94600
C  -2.47900 1.64500 40.99900
C  -3.96100 -0.75100 42.31600
O  -4.71100 0.09000 41.82300
C  -4.59700 -1.96500 42.88400
N  0.82900 -3.30400 44.01400
C  -0.53300 -3.56200 44.04900
C  -0.84000 -4.90600 44.67700
C  0.53100 -5.47900 45.06200
C  1.44900 -4.37000 44.61600
C  -1.76600 -4.96000 45.95400
C  0.89500 -6.82700 44.53400
C  1.25000 -7.94600 45.54400
N  3.47300 -2.37600 43.72800
C  3.84600 -3.58000 44.33900
C  5.27000 -3.61300 44.56500
C  5.68900 -2.42900 43.97600
C  4.61200 -1.71900 43.44500
C  6.12700 -4.71600 45.17100
C  6.82500 -1.60700 43.63000
O  8.05000 -1.75400 43.78100
C  6.33600 -0.28700 42.89700
C  6.60700 0.90400 43.87800
O  5.80200 1.58100 44.44700
O  7.96600 0.99800 43.99000
C  8.34100 2.15400 44.80000
H  0.26700 2.40500 41.45800
H  -2.45000 -3.23500 43.66000
H  3.22400 -5.27100 45.44600
H  5.02700 2.21400 41.97800
H  2.70100 2.73500 40.38900
H  1.69500 3.75100 42.48200
H  2.89700 4.48900 41.37800
H  3.46000 3.85200 42.94500
H  4.34400 1.68700 39.25000
H  5.14700 0.28400 40.06400
H  7.18300 1.48600 40.06900
H  6.49400 2.93500 40.37800
H  -1.71600 1.94300 40.27900
H  -2.94100 2.48400 41.51900
H  -3.21400 1.21600 40.31700
H  -4.09000 -2.87300 42.55700
H  -5.55500 -2.16800 42.40500
H  -4.79800 -1.85100 43.94900
H  -1.25100 -5.49800 43.86000
H  0.67700 -5.41100 46.14000
H  -1.33100 -5.79600 46.50100
H  -2.78400 -5.07400 45.58000
H  -1.72600 -4.03300 46.52700
H  1.64000 -6.56500 43.78200
H  0.02300 -7.28000 44.06200
H  2.32800 -8.11000 45.56200
H  0.82600 -8.92800 45.33400
H  0.94400 -7.70400 46.56200
H  6.89700 -4.24000 45.77800
H  6.49200 -5.20100 44.26500
H  5.65300 -5.45700 45.81400
H  6.94800 -0.17600 42.00200
H  7.59700 2.86800 45.15400
H  9.03500 2.82200 44.29100
H  8.69600 1.68200 45.71600
Mg -5.30000 25.13300 26.04000
C  -4.03600 26.31000 28.93300
C  -7.35600 23.07400 27.69000
C  -6.34500 23.97500 23.09500
C  -3.00700 27.34800 24.32500
N  -5.71900 24.80800 28.10600
C  -5.10800 25.45600 29.17000
C  -5.63900 24.85600 30.53500
C  -6.49000 23.67200 30.06800
C  -6.55000 23.82800 28.50900
C  -6.13100 22.21400 30.44400
C  -6.46600 26.01100 31.23000
C  -6.31500 26.06000 32.79300
H  -5.72200 24.86900 33.59700
N  -6.66500 23.63300 25.43900
C  -7.46500 23.02100 26.26300
C  -8.41500 22.24700 25.51000
C  -8.13800 22.48100 24.14300
C  -6.97100 23.35600 24.16800
C  -9.39700 21.37800 26.17700
C  -8.85300 22.05400 22.90600
O  -8.48600 22.38300 21.76900
C  -10.08300 21.22500 23.06600
N  -4.74400 25.60500 23.95500
C  -5.32200 24.92600 22.91800
C  -4.60100 25.21200 21.64500
C  -3.72700 26.45000 21.98200
C  -3.77300 26.45000 23.52000
C  -3.81400 23.87400 21.07000
C  -4.24300 27.82000 21.36400
C  -3.11300 28.89500 21.06600
N  -3.78400 26.51200 26.45600
C  -2.93600 27.35700 25.73900
C  -2.05300 28.09000 26.59900
C  -2.48100 27.70600 27.86300
C  -3.50300 26.78300 27.72900
C  -0.98400 29.09200 26.30300
C  -2.20700 28.04800 29.28600
O  -1.40100 28.82200 29.85000
C  -3.29900 27.17700 29.99500
C  -2.55500 26.41700 30.96500
O  -2.04400 25.32300 30.76600
O  -2.61800 27.05400 32.18200
C  -1.85600 26.31400 33.16800
H  -7.94000 22.39500 28.31500
H  -6.62300 23.64000 22.09400
H  -2.45600 28.07000 23.71900
H  -4.88300 24.52800 31.24800
H  -7.53300 23.85600 30.32600
H  -5.51500 21.69000 29.71200
H  -7.10900 21.73400 30.48700
H  -5.73000 22.06600 31.44700
H  -7.52100 26.00500 30.95300
H  -5.99000 26.93100 30.89100
H  -7.29700 26.28100 33.21300
H  -5.59800 26.85200 33.00900
H  -9.73800 20.51400 25.60600
H  -10.19500 22.06900 26.44700
H  -8.99900 21.06200 27.14200
H  -9.69600 20.30800 23.51100
H  -10.45800 20.92800 22.08600
H  -10.69600 21.73600 23.80700
H  -5.28900 25.52100 20.85800
H  -2.68600 26.32300 21.68200
H  -2.96600 23.60500 21.70000
H  -3.36400 24.01600 20.08800
H  -4.39200 22.96300 21.22800
H  -4.96300 28.19500 22.09200
H  -4.86800 27.61700 20.49500
H  -3.48100 29.82300 21.50600
H  -2.98300 29.10800 20.00500
H  -2.14700 28.68600 21.52400
H  -0.57600 29.10100 25.29200
H  -0.11700 29.06000 26.96300
H  -1.49500 30.03400 26.50600
H  -3.90400 27.92000 30.51400
H  -2.34600 25.39200 33.48300
H  -1.71100 26.99400 34.00700
H  -0.84000 26.15300 32.80700

