158

Mg 24.87900 -4.64800 46.74000
C  26.82600 -2.27800 45.08300
C  22.28200 -3.75800 44.63400
C  23.26400 -7.42300 47.76100
C  27.79600 -5.64500 48.47500
N  24.59700 -3.06700 45.18800
C  25.52000 -2.17900 44.66000
C  25.01600 -1.28200 43.50000
C  23.41600 -1.72400 43.56200
C  23.39900 -2.90900 44.54700
C  22.54000 -0.48100 44.18200
C  25.73800 -1.69500 42.16100
C  26.39200 -0.54600 41.40000
H  25.89200 -0.35200 39.96900
N  22.97000 -5.37500 46.42600
C  22.07800 -4.90600 45.44600
C  20.91900 -5.79700 45.40100
C  21.13400 -6.74000 46.43000
C  22.49600 -6.53800 46.98400
C  19.76200 -5.67200 44.37700
C  20.20700 -7.93400 46.84600
O  19.17200 -8.17700 46.28200
C  20.52600 -8.83000 48.07100
N  25.46700 -6.27400 47.96300
C  24.56700 -7.23600 48.29300
C  25.28100 -8.29600 49.19700
C  26.47600 -7.49400 49.71600
C  26.60500 -6.42400 48.65800
C  24.38700 -9.09300 50.19800
C  27.76000 -8.34300 50.13200
C  28.10400 -8.30300 51.63000
N  26.94900 -4.09700 46.82600
C  27.98000 -4.60500 47.55900
C  29.13100 -3.83700 47.22900
C  28.71800 -2.89000 46.27000
C  27.36400 -3.11600 46.07500
C  30.51200 -3.99700 47.83300
C  29.25600 -1.76400 45.46800
O  30.30500 -1.21600 45.48100
C  28.02600 -1.34400 44.66700
C  27.79100 0.07000 44.97600
O  27.40600 0.48300 46.01400
O  28.07400 0.83800 43.83800
C  27.91300 2.27100 43.95700
H  21.42600 -3.41000 44.05200
H  22.92900 -8.46000 47.82700
H  28.66200 -6.01700 49.02700
H  25.11800 -0.21800 43.71400
H  22.94300 -2.07700 42.64600
H  21.81300 -0.13200 43.44900
H  23.09500 0.36600 44.58700
H  21.97000 -0.92700 44.99800
H  24.96500 -2.06900 41.49000
H  26.36000 -2.57000 42.34900
H  27.46600 -0.72100 41.33400
H  26.29400 0.40600 41.92200
H  19.21200 -6.58900 44.16300
H  20.08700 -5.21000 43.44500
H  19.04000 -4.92500 44.70400
H  21.03200 -8.24400 48.83900
H  21.22900 -9.62000 47.80900
H  19.57800 -9.13200 48.51600
H  25.52200 -9.04700 48.44400
H  26.02700 -7.04900 50.60400
H  23.32200 -8.99700 49.98900
H  24.56000 -8.77400 51.22600
H  24.76300 -10.11600 50.18800
H  28.66000 -8.02400 49.60600
H  27.53800 -9.36600 49.83000
H  27.19700 -7.96400 52.13100
H  28.87100 -7.58400 51.91700
H  28.35600 -9.30500 51.97700
H  30.75200 -5.06000 47.81700
H  30.47200 -3.68400 48.87700
H  31.30600 -3.39000 47.39800
H  28.46400 -1.47200 43.67800
H  26.95600 2.63200 43.58000
H  28.71200 2.79200 43.43000
H  27.82000 2.66900 44.96800
Mg 40.42400 10.23400 29.42000
C  42.18400 11.35300 32.13500
C  38.07100 8.99200 31.53300
C  38.82000 8.92900 26.71600
C  42.96500 11.35200 27.17700
N  40.25800 10.04600 31.56700
C  40.99600 10.75700 32.45400
C  40.39500 10.68400 33.87500
C  39.23000 9.73200 33.67100
C  39.09900 9.63000 32.15600
C  39.43600 8.29200 34.24000
C  39.93300 12.00400 34.57900
C  39.53800 12.07100 36.12300
H  40.44900 12.52200 37.27300
N  38.61100 9.16800 29.16000
C  37.78800 8.77400 30.19000
C  36.57400 8.20800 29.54200
C  36.82400 8.14800 28.17900
C  38.09300 8.79200 27.99000
C  35.32900 7.94400 30.34200
C  35.98000 7.40700 27.17000
O  36.40900 7.07400 26.07600
C  34.53300 7.07100 27.59000
N  40.83200 10.13700 27.17400
C  39.97300 9.61800 26.27000
C  40.47800 9.75800 24.81400
C  41.66000 10.83100 25.01400
C  41.93100 10.74100 26.52300
C  40.93100 8.44700 24.13700
C  41.37300 12.37200 24.75000
C  39.94000 12.89700 24.71800
N  42.22500 10.98000 29.57700
C  43.18800 11.39300 28.62800
C  44.32200 11.96200 29.33900
C  43.97300 12.00700 30.72200
C  42.68000 11.41300 30.82600
C  45.59600 12.45300 28.75100
C  44.50800 12.40700 31.99700
O  45.60200 12.91300 32.25300
C  43.30700 12.02300 32.99700
C  43.81600 11.08100 34.01500
O  43.89600 9.86400 33.89100
O  44.13500 11.74500 35.13200
C  44.69000 10.96700 36.21000
H  37.33800 8.61400 32.24900
H  38.37000 8.55700 25.79400
H  43.67800 11.91500 26.57200
H  41.20100 10.34800 34.52600
H  38.35000 10.13700 34.17200
H  38.97200 8.15700 35.21700
H  40.48000 7.98100 34.25400
H  39.03000 7.54900 33.55400
H  39.10300 12.48900 34.06400
H  40.76400 12.70900 34.56900
H  39.39600 11.01900 36.37000
H  38.59300 12.60900 36.18100
H  35.41600 8.04000 31.42400
H  35.18100 6.86600 30.28400
H  34.47500 8.56500 30.07200
H  34.18500 6.69800 26.62600
H  34.00800 8.00600 27.78400
H  34.41200 6.30700 28.35700
H  39.75400 10.27200 24.18100
H  42.58100 10.57800 24.48900
H  40.49500 8.35900 23.14200
H  40.74200 7.62600 24.82900
H  42.00300 8.64300 24.16800
H  41.74500 12.57400 23.74600
H  42.04900 12.97700 25.35600
H  39.46500 12.87200 23.73700
H  40.00800 13.90700 25.12400
H  39.41700 12.47500 25.57500
H  45.96000 13.17200 29.48500
H  45.51400 13.07800 27.86200
H  46.22700 11.58500 28.55800
H  42.91000 12.90300 33.50300
H  45.13700 10.02800 35.88400
H  43.84200 10.67000 36.82700
H  45.32000 11.67000 36.75600

