158

Mg -0.46200 7.00800 27.20900
C  -0.16800 9.30200 29.90600
C  -0.29300 4.50500 29.62000
C  -0.95900 4.94100 24.87100
C  -0.07100 9.69900 25.02500
N  -0.23900 6.90600 29.48200
C  -0.25100 7.95100 30.35100
C  -0.15200 7.51600 31.79800
C  0.03700 5.91600 31.67700
C  -0.15200 5.82200 30.17800
C  1.39400 5.37500 32.16900
C  -1.48100 7.83900 32.54400
C  -1.41700 8.07200 34.06400
H  -0.10600 7.59300 34.76200
N  -0.48300 4.97700 27.21900
C  -0.39700 4.12100 28.25000
C  -0.47700 2.75200 27.80900
C  -0.78800 2.82000 26.40400
C  -0.79100 4.29000 26.10600
C  -0.41600 1.57400 28.75100
C  -1.13700 1.81000 25.42400
O  -1.38300 2.02600 24.28000
C  -1.17600 0.32300 25.87100
N  -0.49800 7.35700 25.26900
C  -0.77600 6.28300 24.44500
C  -0.88600 6.71600 22.94800
C  -0.89300 8.31400 23.09000
C  -0.52900 8.47900 24.54000
C  0.14100 6.16400 21.94100
C  -2.13900 9.06900 22.67700
C  -2.45100 9.00900 21.10800
N  -0.16100 9.14700 27.34900
C  -0.04900 10.10700 26.37700
C  0.12900 11.42700 26.95200
C  0.04300 11.16900 28.40200
C  -0.04800 9.80200 28.58300
C  0.34200 12.62400 26.15300
C  0.13400 11.71800 29.75500
O  0.50000 12.80200 30.03800
C  0.01900 10.46400 30.80400
C  1.21800 10.44500 31.70400
O  2.38300 10.22000 31.36700
O  0.83900 10.93000 32.99500
C  1.84800 11.16000 34.05800
H  -0.39800 3.68700 30.33500
H  -1.14700 4.25900 24.03900
H  -0.10800 10.53000 24.31700
H  0.73700 7.93300 32.27200
H  -0.70500 5.43600 32.31600
H  2.01500 6.17200 32.58000
H  2.06100 4.94100 31.42400
H  1.28200 4.62700 32.95400
H  -2.20300 7.02800 32.44700
H  -1.89600 8.70900 32.03500
H  -2.20600 7.56000 34.61600
H  -1.51700 9.15500 34.13900
H  -1.34800 1.03400 28.91800
H  0.00100 1.83800 29.72300
H  0.34600 0.93300 28.30800
H  -2.09600 0.08800 26.40600
H  -0.33800 -0.19100 26.34300
H  -1.26600 -0.28500 24.97100
H  -1.77900 6.23000 22.55200
H  -0.03800 8.64500 22.50100
H  0.17000 6.96700 21.20400
H  -0.31700 5.28600 21.48600
H  1.12700 5.83000 22.26500
H  -1.99500 10.09900 23.00300
H  -3.02400 8.67500 23.17600
H  -1.84700 8.41600 20.42000
H  -2.41900 10.06900 20.85600
H  -3.47400 8.64900 21.00100
H  1.03300 12.47000 25.32400
H  0.74300 13.41400 26.78800
H  -0.58800 12.94800 25.68600
H  -0.90500 10.59500 31.36900
H  2.67700 10.46500 34.19300
H  1.23100 11.27900 34.94900
H  2.28900 12.11200 33.76200
Mg 7.50800 3.23200 28.08700
C  8.93800 1.75000 30.92600
C  5.59600 5.19400 30.29000
C  5.71500 4.22600 25.46500
C  9.20800 0.86400 26.05400
N  7.17000 3.34500 30.40200
C  8.05500 2.82000 31.27900
C  7.84600 3.49400 32.64700
C  6.40900 4.20400 32.57900
C  6.41400 4.25400 30.97500
C  5.27900 3.25300 33.09300
C  9.00500 4.39400 33.06000
C  10.02200 4.02300 34.17900
H  10.12600 4.95200 35.41700
N  5.95800 4.60400 27.86400
C  5.38700 5.33000 28.87600
C  4.41700 6.18700 28.25400
C  4.52400 6.09500 26.84200
C  5.44700 4.94700 26.68700
C  3.52400 7.04200 29.14100
C  3.85300 6.86400 25.75000
O  4.14700 6.57500 24.64200
C  2.88000 7.91500 26.03600
N  7.39700 2.57800 26.13700
C  6.65800 3.25000 25.18300
C  6.97500 2.73100 23.76400
C  8.10100 1.71000 23.97100
C  8.30200 1.76800 25.44700
C  5.68200 2.19500 23.09300
C  9.45200 2.06600 23.26200
C  10.51100 2.90900 24.01300
N  8.86300 1.57300 28.35300
C  9.44400 0.71400 27.44000
C  10.23700 -0.24500 28.19100
C  10.20000 0.13700 29.55000
C  9.24700 1.22100 29.62400
C  10.92700 -1.46400 27.71600
C  10.66100 -0.10700 30.88500
O  11.46400 -0.93500 31.40600
C  10.01100 1.06000 31.74000
C  9.36900 0.53100 32.95200
O  8.18600 0.15000 32.95800
O  10.29600 0.50900 34.02300
C  9.81100 0.05700 35.41600
H  5.04600 5.82600 30.99000
H  5.07400 4.44400 24.60900
H  9.70100 0.11200 25.43400
H  7.76700 2.69900 33.38800
H  6.30700 5.17600 33.06200
H  5.03700 3.59900 34.09800
H  5.63000 2.22600 33.19400
H  4.41600 3.28200 32.42800
H  8.62400 5.38200 33.31500
H  9.71100 4.54600 32.24400
H  10.99500 3.96000 33.69200
H  9.84300 2.99800 34.50500
H  2.58200 6.49200 29.15300
H  3.56600 8.06900 28.77900
H  3.86700 7.14900 30.17000
H  1.94800 7.42500 26.31800
H  2.61800 8.45500 25.12600
H  3.09100 8.65700 26.80500
H  7.37600 3.55600 23.17500
H  7.83200 0.70300 23.65100
H  4.87700 2.32700 23.81600
H  5.74300 1.11700 22.93900
H  5.52100 2.88100 22.26200
H  9.13400 2.59800 22.36600
H  9.96300 1.14100 22.99400
H  11.21200 2.18800 24.43200
H  9.95400 3.50600 24.73600
H  11.04300 3.65600 23.42300
H  10.83200 -1.58900 26.63700
H  10.68400 -2.38100 28.25300
H  12.00600 -1.36500 27.83200
H  10.72500 1.79700 32.10900
H  9.03300 -0.65500 35.14100
H  9.53900 0.87600 36.08200
H  10.66900 -0.41600 35.89400

