158

Mg 44.23400 4.53600 48.70800
C  41.96800 7.05300 47.82200
C  41.48300 2.24500 48.23400
C  46.35100 2.01600 48.76800
C  46.81800 6.83700 48.41500
N  41.92500 4.63400 48.00600
C  41.31400 5.80100 47.81500
C  39.84100 5.56700 47.40800
C  39.64200 4.07900 47.92400
C  41.12200 3.58900 48.12200
C  38.81800 3.89500 49.27000
C  39.65900 5.69200 45.87400
C  38.52500 6.58700 45.36300
H  37.80200 6.14900 44.14700
N  43.98800 2.41400 48.60100
C  42.78200 1.69600 48.44700
C  43.08600 0.26500 48.43900
C  44.52200 0.19000 48.63600
C  45.02600 1.55600 48.67400
C  41.93400 -0.71300 48.30400
C  45.22200 -1.11400 48.73400
O  44.69400 -2.22800 48.57200
C  46.67600 -1.09200 49.27200
N  46.29800 4.49800 48.59900
C  46.94900 3.25300 48.79900
C  48.43700 3.46300 49.07800
C  48.60900 5.01500 49.17000
C  47.21800 5.50200 48.70400
C  48.98400 2.76800 50.32400
C  49.82700 5.58100 48.41500
C  50.61000 6.68800 49.16600
N  44.40000 6.56400 48.27400
C  45.53000 7.41700 48.13800
C  45.20400 8.76200 47.88200
C  43.77800 8.69300 47.81500
C  43.39700 7.30800 47.93100
C  46.24000 9.88500 47.74600
C  42.53500 9.49800 47.68300
O  42.37800 10.71000 47.59800
C  41.38500 8.38300 47.55800
C  40.35100 8.70400 48.64000
O  40.34100 8.21500 49.77200
O  39.47600 9.63100 48.14800
C  38.58200 10.06500 49.17100
H  40.56700 1.65100 48.23800
H  47.07200 1.19700 48.79900
H  47.45400 7.72300 48.46300
H  39.12100 6.23300 47.88200
H  39.06600 3.43600 47.25800
H  39.48900 3.60300 50.07800
H  38.05400 3.12400 49.16400
H  38.31800 4.83300 49.51300
H  39.45200 4.70100 45.47000
H  40.56600 6.01800 45.36600
H  39.02700 7.54500 45.23100
H  37.67900 6.74800 46.03100
H  41.40200 -0.82900 49.24800
H  42.28500 -1.64700 47.86500
H  41.16100 -0.31100 47.64900
H  47.45100 -0.74200 48.59100
H  46.95600 -2.04700 49.71700
H  46.63500 -0.37700 50.09400
H  48.94900 3.18500 48.15600
H  48.71600 5.32000 50.21100
H  48.12500 2.26100 50.76300
H  49.48400 3.44500 51.01700
H  49.68100 2.00100 49.98600
H  49.36800 6.10800 47.57800
H  50.49000 4.82100 48.00000
H  49.99900 6.93000 50.03600
H  50.56200 7.59800 48.56900
H  51.64400 6.45500 49.41900
H  45.64400 10.79700 47.74500
H  46.74600 9.75300 46.79000
H  46.98800 9.87000 48.53900
H  40.95200 8.43500 46.55900
H  38.84600 9.83300 50.20300
H  37.54200 9.79400 48.98600
H  38.69500 11.13900 49.03000
Mg 9.02900 48.08200 28.20900
C  6.97200 47.31500 30.92400
C  11.71000 48.29600 30.32900
C  10.91100 48.86500 25.55900
C  6.18200 48.33000 26.22000
N  9.26500 47.89000 30.36600
C  8.33200 47.48500 31.25000
C  8.89300 47.44700 32.72300
C  10.39000 47.96300 32.58600
C  10.46700 48.04800 31.02200
C  10.57200 49.25500 33.41800
C  8.81100 45.95500 33.34000
C  9.85000 45.45200 34.38200
H  9.39300 45.09100 35.83600
N  11.03800 48.45700 27.94100
C  12.01000 48.45300 28.94100
C  13.29900 48.69800 28.36800
C  13.02200 48.84100 26.95600
C  11.61600 48.69100 26.75100
C  14.54300 48.81500 29.24800
C  14.05600 48.89300 25.84000
O  13.79900 48.76300 24.63700
C  15.57200 48.94100 26.13600
N  8.60200 48.69500 26.29300
C  9.54300 48.90900 25.29100
C  8.89400 49.34400 24.02600
C  7.53300 48.74800 24.10400
C  7.42000 48.56200 25.63700
C  8.88400 50.83200 23.62300
C  7.35300 47.42700 23.22700
C  6.26200 47.48500 22.03500
N  6.95000 48.01900 28.49000
C  5.86800 48.08500 27.56900
C  4.63200 47.81300 28.34500
C  5.00600 47.52100 29.63400
C  6.44100 47.63200 29.68300
C  3.23900 47.63000 27.72700
C  4.48800 47.12500 30.93000
O  3.31200 46.91600 31.35500
C  5.71600 46.96800 31.78700
C  5.74100 45.53700 32.29000
O  6.40400 44.60300 31.80300
O  5.12700 45.53100 33.52400
C  5.13800 44.24600 34.25500
H  12.50700 48.29000 31.07500
H  11.51200 49.13200 24.68700
H  5.35900 48.42500 25.50800
H  8.41300 48.12500 33.42900
H  11.06900 47.19600 32.95800
H  10.66000 50.05900 32.68700
H  11.50300 49.28700 33.98500
H  9.80200 49.35800 34.18300
H  8.60300 45.29200 32.50000
H  7.88400 45.82100 33.89700
H  10.54000 46.23800 34.68900
H  10.45400 44.62600 34.00600
H  14.30700 48.87600 30.31000
H  15.08900 49.70900 28.94500
H  15.24000 47.98900 29.10900
H  15.94800 48.94400 25.11300
H  15.86200 48.02300 26.64800
H  15.96700 49.81000 26.66100
H  9.45400 48.97600 23.16700
H  6.84000 49.52300 23.77600
H  8.92600 51.51600 24.47100
H  7.96800 51.09800 23.09600
H  9.74000 51.01100 22.97200
H  7.11100 46.60400 23.89900
H  8.24700 47.11400 22.68800
H  6.82100 47.66900 21.11700
H  5.48400 48.20000 22.30200
H  5.74700 46.52800 21.94800
H  2.61100 48.43800 28.09900
H  2.73600 46.73900 28.10200
H  3.43600 47.57800 26.65600
H  5.52600 47.58200 32.66700
H  4.19300 43.70400 34.20400
H  5.32200 44.49500 35.30000
H  5.92900 43.58700 33.89800

