158

Mg -2.50300 34.26400 26.24500
C  -3.95400 32.64100 28.95700
C  -0.92800 36.51000 28.37700
C  -1.30800 35.85900 23.60500
C  -4.22000 31.98800 24.07000
N  -2.47900 34.51100 28.44100
C  -3.03600 33.67100 29.38900
C  -2.89300 34.25400 30.79600
C  -1.91400 35.48600 30.59900
C  -1.70800 35.50900 29.09900
C  -2.34000 36.72800 31.37400
C  -2.33300 33.24300 31.83500
C  -3.23300 32.90300 33.07900
H  -2.46400 32.64400 34.46700
N  -1.34900 35.92300 26.03100
C  -0.79600 36.72800 27.01600
C  -0.00700 37.74500 26.43400
C  -0.02800 37.53100 25.02800
C  -0.94100 36.39500 24.82500
C  0.70300 38.77400 27.22700
C  0.63800 38.43100 23.90600
O  0.33300 38.28900 22.71200
C  1.67700 39.44300 24.35800
N  -2.88200 34.04700 24.09900
C  -2.14200 34.78200 23.21600
C  -2.51900 34.50300 21.76800
C  -3.26400 33.11300 21.95900
C  -3.50800 33.02300 23.44900
C  -3.37500 35.56000 21.16500
C  -2.46300 31.81500 21.47000
C  -1.04100 31.56300 21.87600
N  -3.80800 32.68500 26.39600
C  -4.37300 31.82400 25.43700
C  -5.11600 30.79800 26.18900
C  -5.02600 31.05100 27.54300
C  -4.19400 32.25800 27.57400
C  -5.88400 29.72700 25.49000
C  -5.39800 30.62200 28.81200
O  -6.09200 29.68500 29.13600
C  -4.86400 31.70000 29.75700
C  -5.84700 32.30100 30.62100
O  -6.44100 33.37500 30.38700
O  -6.01200 31.58000 31.72000
C  -6.96800 32.01200 32.76100
H  -0.47200 37.19000 29.10000
H  -0.91400 36.33200 22.70400
H  -4.58500 31.20600 23.40000
H  -3.89200 34.46000 31.18100
H  -0.97500 35.15300 31.04100
H  -2.38200 37.49500 30.60100
H  -1.54800 37.07000 32.03900
H  -3.31300 36.53700 31.82500
H  -1.27800 33.37100 32.07800
H  -2.24700 32.33300 31.24300
H  -3.87700 32.05100 32.86100
H  -3.89500 33.75000 33.26200
H  1.73400 38.95300 26.92100
H  0.65500 38.61000 28.30300
H  0.04500 39.62600 27.05400
H  1.89600 39.97100 23.43000
H  2.65600 39.01900 24.58100
H  1.25900 40.18500 25.03800
H  -1.60700 34.45100 21.17200
H  -4.27900 33.13200 21.56400
H  -2.83100 35.82800 20.26000
H  -3.33500 36.43800 21.81000
H  -4.39500 35.28900 20.89200
H  -2.51800 31.75400 20.38300
H  -2.93000 30.84500 21.64300
H  -0.95500 30.67900 22.50900
H  -0.67700 32.45900 22.37700
H  -0.44300 31.47800 20.96800
H  -5.26200 28.97000 25.01200
H  -6.49300 30.22000 24.73300
H  -6.52600 29.25000 26.23100
H  -4.23900 31.11900 30.43500
H  -7.02600 31.28900 33.57500
H  -7.98200 32.24100 32.43200
H  -6.52800 32.95500 33.08400
Mg -11.97300 16.24000 42.76900
C  -9.03500 14.47500 42.16700
C  -10.45800 18.91400 40.92300
C  -15.01100 17.56900 42.22800
C  -13.34000 13.32500 44.04400
N  -10.02500 16.57900 41.52000
C  -8.95500 15.77200 41.55300
C  -7.77000 16.39500 40.78100
C  -8.19100 17.85200 40.54100
C  -9.58600 17.84600 41.19400
C  -7.16200 18.89300 41.12900
C  -7.53100 15.67300 39.46700
C  -6.09200 15.33100 39.03500
H  -5.52900 16.13000 37.83600
N  -12.57700 18.09100 41.98000
C  -11.84200 18.97300 41.22000
C  -12.73100 20.10600 40.80000
C  -14.07600 19.67900 41.17100
C  -13.93900 18.45300 41.88300
C  -12.32200 21.28100 39.89700
C  -15.32500 20.49000 40.80800
O  -15.25300 21.52000 40.12200
C  -16.68200 20.15200 41.27900
N  -13.94300 15.55200 43.09100
C  -14.99000 16.31200 42.83500
C  -16.24500 15.50500 43.17000
C  -15.62500 14.46700 44.13500
C  -14.21700 14.37300 43.73400
C  -17.42200 16.40600 43.71600
C  -16.41400 13.13600 44.22600
C  -16.37400 12.09700 43.09800
N  -11.32800 14.31600 43.11500
C  -11.99900 13.28900 43.71200
C  -11.13500 12.12500 43.89300
C  -9.93900 12.56000 43.30600
C  -10.07600 13.90200 42.82800
C  -11.37100 10.78200 44.50000
C  -8.62300 12.22900 43.06700
O  -7.99900 11.23900 43.42500
C  -7.95200 13.39900 42.31800
C  -6.82800 13.93900 43.14700
O  -6.95300 14.43900 44.23900
O  -5.64100 13.69700 42.44300
C  -4.35600 14.07200 43.07900
H  -9.99700 19.73900 40.37600
H  -15.97200 17.81500 41.77200
H  -13.58700 12.44700 44.64400
H  -6.86800 16.24800 41.37600
H  -8.38300 17.98000 39.47600
H  -6.62700 18.43600 41.96100
H  -7.49500 19.84200 41.55000
H  -6.40600 19.05400 40.36000
H  -8.04100 16.04300 38.57800
H  -7.93400 14.66900 39.60400
H  -6.00300 14.24700 38.96300
H  -5.48900 15.73400 39.85000
H  -13.08000 21.49100 39.14300
H  -11.38800 21.06400 39.37700
H  -12.23000 22.18700 40.49400
H  -16.74500 19.79500 42.30700
H  -17.10500 19.39000 40.62400
H  -17.29900 21.05000 41.31100
H  -16.64500 14.96500 42.31100
H  -15.67300 14.83000 45.16200
H  -17.38300 17.43500 43.35900
H  -17.55900 16.37200 44.79700
H  -18.39600 16.03000 43.40400
H  -17.44900 13.42000 44.41600
H  -16.16100 12.57600 45.12700
H  -17.27400 11.92700 42.50700
H  -16.05000 11.16500 43.56000
H  -15.54300 12.25800 42.41100
H  -12.02900 10.14700 43.90700
H  -11.76900 10.90200 45.50800
H  -10.45500 10.21000 44.64400
H  -7.42500 13.06600 41.42300
H  -4.49300 15.14900 43.17400
H  -3.53200 13.79000 42.42400
H  -4.20600 13.68300 44.08700

