158

Mg 1.01300 7.76700 27.95200
C  1.46800 9.96300 30.55200
C  0.85300 5.22600 30.37200
C  0.57700 5.52600 25.42000
C  1.30700 10.25700 25.64400
N  1.32300 7.60700 30.22200
C  1.35300 8.70100 31.06200
C  1.03200 8.23500 32.53500
C  1.21400 6.70400 32.43100
C  1.10900 6.48200 30.89900
C  2.44000 6.18100 33.10800
C  -0.39700 8.64100 32.98700
C  -0.84400 8.46800 34.49400
H  0.20400 8.15900 35.61900
N  0.71600 5.72700 27.87100
C  0.69700 4.86900 28.97500
C  0.35800 3.55000 28.52000
C  0.28100 3.60600 27.08900
C  0.63500 4.98600 26.75600
C  -0.00900 2.40700 29.55600
C  -0.21500 2.48800 26.06700
O  -0.26600 2.56900 24.86200
C  -0.64800 1.18400 26.74100
N  0.87600 7.84300 25.83300
C  0.61400 6.87500 24.96000
C  0.63900 7.28300 23.37900
C  0.76900 8.80900 23.61800
C  1.02700 9.00700 25.13100
C  1.85000 6.73000 22.53300
C  -0.43400 9.59200 23.00700
C  -0.07500 10.52600 21.82500
N  1.36400 9.71700 27.99100
C  1.48200 10.62800 26.96000
C  1.59100 11.96900 27.54700
C  1.60100 11.72000 28.92300
C  1.45000 10.34700 29.16200
C  1.68400 13.27800 26.75500
C  1.64700 12.46100 30.13100
O  1.77800 13.68900 30.32500
C  1.42700 11.36900 31.27900
C  2.55100 11.62600 32.24800
O  3.70100 11.32000 32.08000
O  1.92100 12.06500 33.38800
C  2.83600 12.19500 34.57300
H  0.83000 4.51200 31.19800
H  0.55900 4.82300 24.58500
H  1.28100 11.02800 24.87100
H  1.80600 8.72400 33.12600
H  0.32400 6.23300 32.84800
H  3.14200 6.88000 33.56100
H  2.94200 5.58900 32.34300
H  2.09000 5.58300 33.95000
H  -0.99600 7.92000 32.42900
H  -0.57100 9.60800 32.51700
H  -1.57900 7.67000 34.38600
H  -1.25900 9.43700 34.77000
H  0.65800 1.54800 29.47900
H  -1.00100 2.02000 29.32200
H  -0.02100 2.70000 30.60600
H  -0.88900 0.37000 26.05800
H  -1.50800 1.29700 27.40200
H  0.12100 0.69300 27.33700
H  -0.23500 7.05200 22.77000
H  1.71100 9.18600 23.21900
H  2.12600 5.71200 22.80900
H  2.77800 7.27900 22.69400
H  1.65900 6.89900 21.47400
H  -0.81000 10.11400 23.88700
H  -1.22700 8.90000 22.72100
H  -0.71500 10.17400 21.01600
H  1.00500 10.43500 21.70500
H  -0.26500 11.55800 22.11800
H  2.59600 13.74100 27.13200
H  0.74600 13.82100 26.64600
H  1.92200 13.16100 25.69700
H  0.46700 11.60100 31.74100
H  2.45900 12.91400 35.30000
H  3.76700 12.62300 34.20300
H  2.97400 11.26000 35.11500
Mg -11.53800 38.93900 41.77100
C  -9.57600 36.36600 41.05800
C  -9.17700 41.24600 40.43000
C  -13.84000 41.52000 41.81100
C  -14.05000 36.72600 42.87300
N  -9.50600 38.80700 41.06400
C  -8.99600 37.53300 40.61400
C  -7.72800 37.73500 39.80200
C  -7.58600 39.27800 39.62600
C  -8.75800 39.84300 40.49000
C  -6.15200 39.69300 40.06200
C  -7.69700 36.95000 38.43200
C  -6.51000 35.90200 38.36100
H  -5.55600 36.04800 37.15700
N  -11.47000 41.05900 41.25300
C  -10.37000 41.80400 40.87700
C  -10.74100 43.18400 40.64800
C  -12.10200 43.22700 40.74600
C  -12.55300 41.91200 41.27200
C  -9.84700 44.24100 40.15100
C  -12.91300 44.39700 40.41800
O  -12.45500 45.45500 40.00500
C  -14.44600 44.44900 40.54800
N  -13.63000 39.08200 42.10500
C  -14.27800 40.27200 42.26100
C  -15.65900 40.20700 42.96600
C  -15.72800 38.60500 43.15200
C  -14.36300 38.10500 42.76600
C  -15.85700 41.02000 44.27100
C  -16.80400 37.90600 42.19700
C  -18.03800 37.33200 42.94000
N  -11.77600 37.03100 41.93700
C  -12.78500 36.24000 42.53600
C  -12.39600 34.83800 42.63600
C  -11.13500 34.88400 42.04800
C  -10.80600 36.19900 41.67100
C  -13.19500 33.67000 43.12700
C  -9.99000 34.04000 41.61000
O  -9.82600 32.88800 41.70400
C  -8.97900 34.94200 40.87900
C  -7.63700 34.76600 41.43000
O  -6.85800 34.01400 40.96500
O  -7.50200 35.60300 42.49000
C  -6.15200 35.60500 43.11800
H  -8.51200 41.88200 39.84100
H  -14.52200 42.36000 41.95300
H  -14.73100 36.00600 43.33100
H  -6.94200 37.35600 40.45500
H  -7.71900 39.49800 38.56700
H  -5.94900 40.60300 39.49800
H  -5.39800 39.01800 39.65600
H  -5.95500 39.91100 41.11200
H  -7.46200 37.67900 37.65600
H  -8.68400 36.50200 38.32100
H  -6.96000 34.90900 38.36000
H  -5.88700 35.93000 39.25500
H  -8.79700 44.05900 40.38000
H  -9.94100 45.25300 40.54400
H  -9.95000 44.34300 39.07100
H  -14.93200 43.60500 40.05900
H  -14.75200 45.42900 40.18200
H  -14.78200 44.60100 41.57400
H  -16.32300 40.50000 42.15300
H  -16.09500 38.36800 44.15100
H  -16.44400 41.91500 44.06500
H  -14.86400 41.34800 44.57800
H  -16.42800 40.46300 45.01400
H  -16.31700 37.15400 41.57600
H  -17.27600 38.63300 41.53700
H  -17.81600 36.28300 43.13200
H  -18.91800 37.48000 42.31400
H  -18.14900 37.89500 43.86700
H  -14.22700 33.72000 42.78000
H  -13.23200 33.78200 44.21000
H  -12.59900 32.76900 42.97700
H  -9.01500 34.66300 39.82600
H  -5.83600 36.64400 43.20700
H  -5.31600 35.13100 42.60300
H  -6.16100 35.21700 44.13700

