158

Mg 41.43700 41.20800 27.15400
C  41.00100 43.78400 29.62400
C  42.32600 39.12100 29.76800
C  42.19000 38.95400 24.90500
C  40.89800 43.59500 24.71200
N  41.58200 41.48500 29.33800
C  41.21700 42.51100 30.19900
C  41.28700 42.26300 31.74000
C  41.70200 40.77700 31.69300
C  41.90900 40.38800 30.16500
C  42.80500 40.42500 32.70700
C  39.90600 42.46300 32.53900
C  39.97100 43.42700 33.67700
H  39.21900 43.08500 34.98900
N  42.11200 39.35700 27.31700
C  42.56400 38.71000 28.42200
C  43.06900 37.40900 28.01100
C  43.03700 37.32100 26.56500
C  42.46400 38.59000 26.22800
C  43.43700 36.29200 29.15400
C  43.55500 36.19000 25.67200
O  43.58700 36.21100 24.41600
C  44.06900 34.92000 26.31800
N  41.65800 41.26200 25.08800
C  41.76800 40.13900 24.36800
C  41.62300 40.42200 22.87100
C  40.82200 41.76500 22.93200
C  41.15200 42.27000 24.33300
C  42.99400 40.46600 22.13100
C  39.20400 41.75200 22.71000
C  38.38400 40.55300 23.25000
N  41.09800 43.19600 27.14200
C  40.86500 44.06200 26.03500
C  40.59100 45.41400 26.49600
C  40.67400 45.28900 27.88500
C  40.95000 43.93300 28.25600
C  40.39000 46.60200 25.58200
C  40.46500 46.04000 29.12300
O  40.21700 47.19300 29.31700
C  40.61000 45.05100 30.26300
C  41.79200 45.49000 31.08300
O  42.94700 45.58900 30.73700
O  41.27600 45.97700 32.31400
C  42.26900 46.55900 33.27600
H  42.56600 38.41300 30.56400
H  42.15800 38.13100 24.18900
H  40.55800 44.27000 23.92400
H  42.05300 42.90500 32.17400
H  40.81500 40.22000 31.99800
H  43.84100 40.52700 32.38400
H  42.78400 39.35300 32.90500
H  42.70000 40.99700 33.62900
H  39.55300 41.52600 32.96900
H  39.14500 42.84100 31.85600
H  39.54000 44.37900 33.36700
H  41.01000 43.50500 33.99800
H  43.79700 36.81600 30.03900
H  44.21800 35.57600 28.90100
H  42.57200 35.72800 29.50300
H  43.43700 34.63400 27.15900
H  45.04600 35.28300 26.63700
H  44.25700 34.17800 25.54200
H  40.95500 39.70900 22.38900
H  41.30100 42.38100 22.17100
H  43.82800 40.37900 22.82700
H  43.01400 41.43500 21.63300
H  43.21200 39.66200 21.42800
H  39.04600 41.86000 21.63700
H  38.78800 42.61700 23.22500
H  37.61600 40.41800 22.48800
H  37.87300 40.80000 24.18000
H  38.97700 39.64900 23.39400
H  40.95000 46.49200 24.65300
H  40.76000 47.45300 26.15400
H  39.33700 46.77600 25.36100
H  39.64700 45.13900 30.76600
H  42.56500 45.88200 34.07800
H  41.80400 47.49000 33.60000
H  43.21300 46.84100 32.81000
Mg -5.38600 24.84900 26.64300
C  -3.60500 26.28500 29.40200
C  -6.51100 22.60700 28.97600
C  -6.55200 23.37800 24.11700
C  -3.74700 27.24000 24.49300
N  -5.31900 24.74600 29.05600
C  -4.50000 25.34900 29.87600
C  -5.01100 25.15000 31.30900
C  -5.59900 23.66800 31.12700
C  -5.86200 23.65800 29.66700
C  -4.49700 22.59200 31.45400
C  -5.98100 26.23500 31.87300
C  -5.71400 26.75600 33.22300
H  -5.45000 25.69000 34.24400
N  -6.41400 23.25900 26.55100
C  -6.72200 22.37300 27.60000
C  -7.36400 21.21600 27.07000
C  -7.38300 21.38700 25.60200
C  -6.81400 22.70600 25.33100
C  -7.83600 20.14000 27.92700
C  -7.91000 20.44500 24.52100
O  -7.88600 20.70000 23.28800
C  -8.52100 19.22600 24.98000
N  -5.30800 25.35800 24.58400
C  -5.86900 24.55300 23.70600
C  -5.71600 24.95100 22.24700
C  -4.87500 26.28700 22.41500
C  -4.67800 26.37600 23.95900
C  -5.07800 23.79900 21.38100
C  -5.33300 27.51400 21.69000
C  -4.30100 28.33500 20.80100
N  -4.10200 26.45400 26.87600
C  -3.44700 27.26100 25.88700
C  -2.44900 28.16400 26.57400
C  -2.48100 27.75900 27.89600
C  -3.47200 26.74300 28.08900
C  -1.62400 29.39300 26.06600
C  -1.89200 28.03500 29.22200
O  -0.99600 28.80800 29.57300
C  -2.74100 27.21800 30.17700
C  -1.92500 26.50800 31.23500
O  -1.08100 25.62000 30.95200
O  -2.12600 26.99600 32.43600
C  -1.25900 26.60300 33.51900
H  -6.91200 21.97600 29.77200
H  -6.99600 22.98700 23.19800
H  -3.29800 28.00400 23.85500
H  -4.15000 25.03300 31.96600
H  -6.63400 23.51400 31.43300
H  -4.84600 21.64700 31.03800
H  -4.36300 22.41700 32.52100
H  -3.52900 22.90900 31.06500
H  -6.96600 25.77500 31.79600
H  -5.88900 27.05300 31.15900
H  -6.61400 27.26800 33.56200
H  -4.89900 27.47700 33.16100
H  -7.21500 20.09600 28.82100
H  -7.69900 19.18300 27.42400
H  -8.92200 20.22700 27.89300
H  -7.69000 18.60500 25.31300
H  -9.02200 18.81400 24.10400
H  -9.22800 19.38200 25.79500
H  -6.74100 25.09500 21.90500
H  -3.87000 26.12000 22.02600
H  -4.38700 24.13000 20.60500
H  -5.98200 23.39300 20.92700
H  -4.72200 23.04700 22.08500
H  -5.58300 28.22200 22.48000
H  -6.18500 27.16400 21.10800
H  -3.30600 27.91300 20.65600
H  -4.18600 29.31300 21.26800
H  -4.64700 28.60700 19.80500
H  -1.77100 30.31800 26.62400
H  -1.78800 29.57600 25.00400
H  -0.54900 29.22000 26.10700
H  -3.39500 27.90200 30.71700
H  -0.29400 26.20100 33.21000
H  -1.75900 25.87600 34.16000
H  -1.25500 27.57600 34.01100

