158

Mg 42.95100 42.00300 26.64200
C  42.35100 44.24000 29.33500
C  43.96700 39.75700 29.03500
C  43.91500 40.14000 24.23300
C  42.44400 44.77700 24.46000
N  43.12000 42.03100 28.90000
C  42.76800 42.99700 29.83900
C  42.78400 42.49600 31.26800
C  43.64000 41.23000 31.07700
C  43.54200 40.91800 29.57300
C  45.12700 41.19300 31.57800
C  41.46400 42.30800 32.00400
C  41.25300 43.00700 33.36400
H  42.01800 42.40900 34.52000
N  43.81500 40.20500 26.58700
C  44.02900 39.36800 27.66000
C  44.50800 38.11400 27.17200
C  44.40800 38.11300 25.75300
C  44.05800 39.53500 25.45000
C  45.02700 36.95200 28.06400
C  44.59500 37.07100 24.68600
O  44.64900 37.28700 23.48900
C  44.86400 35.68000 24.97600
N  43.34000 42.50800 24.61200
C  43.71000 41.43800 23.76300
C  43.45400 41.82700 22.28400
C  42.97400 43.30500 22.38200
C  42.91900 43.59100 23.87100
C  44.56400 41.53300 21.24300
C  41.51600 43.52800 21.75300
C  40.35500 42.85000 22.54800
N  42.52900 44.07100 26.79100
C  42.23000 44.98600 25.83600
C  41.66700 46.08000 26.38300
C  41.68400 45.93500 27.77600
C  42.24500 44.64000 28.02900
C  41.33300 47.40000 25.71000
C  41.39900 46.56500 29.05500
O  41.04800 47.70600 29.39400
C  41.86700 45.48400 30.13400
C  42.84300 46.00600 31.09900
O  43.95000 46.27900 30.72300
O  42.35100 46.00900 32.38700
C  43.39600 46.51600 33.33600
H  44.26700 39.00100 29.76300
H  44.03500 39.50100 23.35600
H  42.15300 45.48700 23.68400
H  43.36600 43.17700 31.88800
H  43.17500 40.39400 31.60000
H  45.17600 40.48800 32.40700
H  45.57300 42.09400 32.00100
H  45.78200 40.82800 30.78700
H  41.27500 41.26000 32.23700
H  40.57200 42.50900 31.41200
H  40.19000 43.06700 33.59500
H  41.59000 44.04200 33.30400
H  44.26100 36.20200 28.26200
H  45.24200 37.28600 29.07900
H  45.91500 36.57900 27.55400
H  45.76100 35.73700 25.59200
H  45.07200 35.02800 24.12700
H  44.03500 35.30800 25.57700
H  42.64400 41.16200 21.98200
H  43.66700 44.03400 21.96200
H  44.10900 41.00500 20.40400
H  45.37800 40.99200 21.72600
H  45.02000 42.42200 20.80900
H  41.46000 43.25000 20.70000
H  41.29300 44.59100 21.83700
H  39.75700 43.53500 23.15000
H  40.73600 42.14100 23.28400
H  39.77100 42.19000 21.90600
H  40.86200 47.20800 24.74600
H  42.25400 47.93500 25.47800
H  40.70200 47.97100 26.39100
H  40.92600 45.32000 30.65900
H  42.99100 46.27100 34.31800
H  43.52100 47.59100 33.20200
H  44.34700 45.99600 33.22500
Mg 27.18000 50.21100 27.51600
C  24.95900 51.33100 30.10600
C  29.44800 49.45800 30.04000
C  29.43700 49.89700 25.23500
C  24.80500 51.51600 25.12800
N  27.16400 50.41600 29.76200
C  26.11600 50.72400 30.60000
C  26.44600 50.55800 32.07000
C  27.96800 50.17100 32.03300
C  28.25200 50.08000 30.55100
C  28.97000 51.18000 32.76400
C  25.46400 49.43200 32.68600
C  24.78400 49.76200 34.02800
H  24.93800 48.73000 35.17400
N  29.13100 49.52000 27.60600
C  29.86500 49.21100 28.72100
C  31.19600 48.86800 28.23700
C  31.30000 49.14400 26.85800
C  29.96300 49.53900 26.49400
C  32.29800 48.42900 29.22900
C  32.50200 49.21800 25.94700
O  32.41700 49.74800 24.84300
C  33.85200 48.70500 26.40700
N  27.15600 50.82700 25.53600
C  28.15300 50.24600 24.78500
C  27.82400 50.40200 23.30300
C  26.33900 50.81400 23.26700
C  26.08000 51.03300 24.71300
C  28.76300 51.38200 22.60000
C  25.43000 49.76200 22.54900
C  24.62600 50.32500 21.36700
N  25.24900 51.16700 27.54900
C  24.45700 51.68200 26.52500
C  23.30300 52.35200 27.03300
C  23.48700 52.20400 28.44700
C  24.65700 51.50000 28.73200
C  22.20100 52.95100 26.25500
C  22.85500 52.51600 29.70400
O  21.77900 53.10900 29.91700
C  23.80400 51.92300 30.85400
C  24.26300 53.18500 31.58000
O  25.26800 53.83500 31.26400
O  23.54200 53.44900 32.72600
C  24.06900 54.54200 33.48200
H  30.05900 49.00600 30.82500
H  30.12700 49.52200 24.47700
H  24.05100 51.78400 24.38400
H  26.35600 51.50600 32.60100
H  28.04100 49.13400 32.36100
H  29.79900 51.39800 32.09100
H  29.34500 50.77000 33.70200
H  28.54000 52.16200 32.95900
H  25.91700 48.44100 32.69700
H  24.63800 49.14600 32.03400
H  23.73700 49.91300 33.76700
H  25.21600 50.71400 34.33600
H  32.49000 47.37500 29.02700
H  32.09700 48.41700 30.30000
H  33.14500 49.11000 29.14800
H  34.53800 48.67900 25.56100
H  33.65900 47.71400 26.81700
H  34.07500 49.34600 27.26000
H  27.91700 49.38400 22.92600
H  26.23200 51.82600 22.87600
H  28.35800 52.18600 21.98600
H  29.28900 50.67400 21.95900
H  29.50000 51.78100 23.29800
H  24.66900 49.28600 23.16600
H  26.08400 48.96900 22.18700
H  24.96700 51.33100 21.12500
H  23.53800 50.25800 21.40000
H  24.95400 49.73000 20.51500
H  21.55600 53.63300 26.80900
H  21.58300 52.23400 25.71600
H  22.59300 53.64200 25.50800
H  23.25700 51.23000 31.49400
H  23.50400 54.80400 34.37600
H  24.22700 55.46800 32.93000
H  24.99800 54.14100 33.88800

