158

Mg 16.77600 -2.36000 27.93800
C  16.02300 -0.28000 30.61600
C  18.33800 -4.52400 30.04400
C  17.87200 -3.97400 25.20800
C  15.45800 0.12500 25.78700
N  17.21100 -2.34700 30.08100
C  16.81200 -1.38500 31.00300
C  17.43000 -1.73500 32.45100
C  18.26000 -2.99000 32.15200
C  17.76700 -3.37500 30.66300
C  19.80300 -2.90900 32.21500
C  16.19000 -1.97100 33.49900
C  16.61000 -1.79700 35.00900
H  17.91200 -1.05100 35.37600
N  17.85000 -4.01700 27.66200
C  18.36400 -4.81300 28.72300
C  19.06700 -5.86500 28.09700
C  18.92000 -5.84300 26.71700
C  18.19500 -4.56400 26.48900
C  19.81400 -6.90500 28.84100
C  19.36600 -6.84900 25.64300
O  18.98500 -6.66100 24.45500
C  20.19000 -8.08900 25.90000
N  16.85900 -1.90300 25.81300
C  17.31100 -2.76700 24.93900
C  17.15200 -2.25500 23.52600
C  16.20100 -1.01100 23.68400
C  16.15300 -0.89400 25.17400
C  18.52000 -1.91000 22.87700
C  14.78700 -1.23700 23.02000
C  14.76500 -1.24000 21.48400
N  15.80600 -0.51600 28.06200
C  15.24500 0.31900 27.15100
C  14.46600 1.36800 27.83500
C  14.78200 1.20800 29.24400
C  15.65900 0.08100 29.27200
C  13.83500 2.58600 27.30900
C  14.57800 1.71000 30.56200
O  13.89100 2.66700 30.92400
C  15.38700 0.74300 31.55500
C  16.41000 1.64200 32.21500
O  17.47700 1.93900 31.74800
O  15.99300 1.95400 33.43800
C  16.72500 2.98200 34.14000
H  18.70300 -5.29200 30.72900
H  18.32900 -4.41500 24.32000
H  14.81400 0.79200 25.20900
H  18.15600 -0.96000 32.69600
H  17.79700 -3.73900 32.79500
H  20.08700 -1.89100 31.95100
H  20.27100 -3.60000 31.51400
H  20.10900 -3.13700 33.23600
H  15.92300 -3.02800 33.49400
H  15.26100 -1.45000 33.27000
H  16.84400 -2.76300 35.45800
H  15.75000 -1.30100 35.46000
H  20.75900 -7.05200 28.31800
H  19.27600 -7.85200 28.80900
H  20.12700 -6.49800 29.80300
H  19.71400 -8.64000 26.71200
H  21.22600 -7.77900 26.04100
H  19.98900 -8.68500 25.01000
H  16.56400 -2.82200 22.80500
H  16.66800 -0.09700 23.31800
H  18.85800 -0.89400 23.08300
H  18.54100 -2.00900 21.79100
H  19.31600 -2.54900 23.25800
H  14.17600 -0.37900 23.30000
H  14.31500 -2.13400 23.42200
H  15.74800 -1.25000 21.01400
H  14.34300 -0.27600 21.20000
H  14.12100 -2.05400 21.15000
H  12.77400 2.39700 27.14800
H  14.30300 2.89300 26.37400
H  13.98300 3.40800 28.00900
H  14.66400 0.33500 32.26000
H  16.78000 3.88300 33.52900
H  17.70000 2.55900 34.38500
H  16.24300 3.22400 35.08700
Mg 25.97500 0.26000 29.63400
C  27.82800 -0.22200 32.60500
C  23.21800 0.39200 31.70100
C  24.18500 0.29300 26.85900
C  28.87200 -0.41500 27.84100
N  25.60800 0.28300 31.87100
C  26.53900 0.17200 32.91200
C  25.97000 0.23700 34.28600
C  24.47800 -0.01000 33.94100
C  24.40900 0.22000 32.42600
C  23.98200 -1.42000 34.33400
C  26.43700 1.44400 35.05200
C  26.89000 1.13200 36.48600
H  26.85600 2.21800 37.55700
N  24.01400 0.32700 29.32900
C  23.03700 0.44700 30.28800
C  21.72700 0.63500 29.67600
C  21.97200 0.41500 28.31000
C  23.42200 0.36000 28.06100
C  20.44100 0.76100 30.45700
C  20.96100 0.20600 27.14100
O  21.26400 0.10300 25.97100
C  19.50700 0.43100 27.45400
N  26.48100 -0.04000 27.63400
C  25.53800 0.20200 26.63400
C  26.18300 0.11200 25.30700
C  27.74900 -0.09200 25.59200
C  27.75700 -0.08000 27.12200
C  25.59400 -0.94200 24.39300
C  28.70800 0.94100 24.97300
C  29.93800 0.37200 24.21900
N  27.98400 -0.30900 30.06000
C  29.00200 -0.57000 29.24500
C  30.13600 -0.99000 29.99500
C  29.77500 -0.76400 31.32800
C  28.43200 -0.34600 31.34800
C  31.49700 -1.36400 29.42900
C  30.23000 -0.84100 32.64800
O  31.38800 -1.09700 33.06400
C  29.03700 -0.42700 33.59200
C  28.90300 -1.46300 34.63500
O  28.37300 -2.55900 34.51700
O  29.54500 -1.08900 35.79000
C  29.74700 -2.13000 36.82700
H  22.34500 0.49900 32.34800
H  23.71300 0.36900 25.87700
H  29.81100 -0.49000 27.28800
H  26.45700 -0.63600 34.72000
H  23.90600 0.71300 34.52200
H  23.65000 -1.21700 35.35200
H  24.65700 -2.27600 34.35200
H  23.13700 -1.65200 33.68600
H  25.59000 2.11200 35.20800
H  27.29100 1.85000 34.51100
H  27.91500 0.76200 36.48800
H  26.35300 0.28700 36.91800
H  19.98500 1.73700 30.29300
H  20.63600 0.42000 31.47400
H  19.78700 -0.03400 30.09900
H  19.32800 1.38900 27.94100
H  19.14000 -0.34600 28.12500
H  18.98300 0.25200 26.51500
H  25.92100 1.08900 24.90000
H  28.18400 -1.07600 25.41500
H  26.30300 -1.26100 23.62900
H  24.85000 -0.40900 23.80100
H  25.25100 -1.82300 24.93500
H  29.04200 1.55600 25.80900
H  28.11300 1.61000 24.35200
H  30.12300 0.99700 23.34500
H  29.75500 -0.66300 23.93100
H  30.80700 0.43700 24.87400
H  31.56800 -2.23800 28.78200
H  32.19900 -1.52600 30.24700
H  31.92900 -0.51300 28.90300
H  29.33600 0.50400 34.07200
H  30.57200 -2.04900 37.53500
H  29.92000 -3.12100 36.40800
H  28.91500 -2.33600 37.50100

