158

Mg 47.50400 25.31400 28.51700
C  48.46500 27.61700 31.06700
C  46.50000 23.18300 30.74100
C  47.21700 23.04200 25.86300
C  48.54700 27.74300 26.15500
N  47.61800 25.34600 30.62700
C  47.98900 26.37000 31.49200
C  47.64000 26.10400 32.95300
C  47.00100 24.63200 32.78200
C  47.05700 24.36700 31.30300
C  47.68600 23.45000 33.54200
C  46.63200 27.13800 33.54500
C  46.92100 27.81000 34.89200
H  45.73500 28.00900 35.82400
N  46.91400 23.47300 28.37000
C  46.52300 22.74700 29.42100
C  46.11700 21.42800 29.10100
C  46.24700 21.32900 27.66000
C  46.80400 22.65400 27.15700
C  45.58900 20.33200 29.97500
C  45.71300 20.25300 26.75600
O  45.87500 20.39400 25.59200
C  44.87500 19.08600 27.30400
N  47.86600 25.36900 26.36600
C  47.56800 24.32600 25.51200
C  47.96300 24.71500 24.06800
C  48.09900 26.22900 24.20300
C  48.14700 26.48000 25.67200
C  49.24700 23.91500 23.61400
C  46.99200 27.10000 23.52800
C  47.56300 28.25100 22.70500
N  48.19900 27.32200 28.51800
C  48.68300 28.15400 27.51300
C  49.24800 29.35800 28.05800
C  49.13400 29.18300 29.43400
C  48.56200 27.93900 29.68800
C  49.87100 30.44200 27.16700
C  49.48500 29.79600 30.69200
O  50.06900 30.83500 30.86000
C  49.10200 28.78000 31.81300
C  50.27800 28.47000 32.72300
O  51.28400 27.90200 32.28800
O  50.11300 29.14800 33.93300
C  51.30100 29.14000 34.80200
H  46.20200 22.38200 31.42000
H  46.97000 22.36300 25.04500
H  48.79800 28.48700 25.39600
H  48.49000 25.95300 33.61800
H  45.96400 24.48200 33.08100
H  48.56400 23.01900 33.06000
H  46.93300 22.67000 33.65700
H  48.01100 23.77600 34.53000
H  45.69300 26.58700 33.59400
H  46.38000 27.99600 32.92200
H  47.38400 28.78200 34.72600
H  47.55400 27.07800 35.39600
H  44.53400 20.08300 29.86500
H  45.82100 20.57300 31.01300
H  46.29900 19.57800 29.63500
H  44.63000 18.53500 26.39600
H  43.91600 19.47000 27.65100
H  45.44800 18.41900 27.94900
H  47.12200 24.43400 23.43400
H  49.07000 26.53100 23.81200
H  50.01400 24.52400 23.13800
H  48.90500 23.09600 22.98100
H  49.73800 23.40600 24.44400
H  46.41900 27.50700 24.36100
H  46.25100 26.58300 22.91800
H  48.29100 27.83700 22.00800
H  47.80200 29.14300 23.28400
H  46.77600 28.47200 21.98300
H  49.43300 30.56300 26.17700
H  50.95200 30.34000 27.07200
H  49.83300 31.40900 27.67000
H  48.19900 29.15000 32.29800
H  52.19500 29.33600 34.21200
H  51.48700 28.16500 35.25400
H  51.01200 29.96700 35.45100
Mg 26.38000 50.05400 26.20600
C  24.47100 51.02700 28.91000
C  28.59800 48.72100 28.47100
C  28.44000 49.31300 23.55100
C  24.31400 51.72200 24.02700
N  26.50900 49.83400 28.40300
C  25.58600 50.29400 29.28600
C  25.91300 49.92800 30.75200
C  27.32200 49.31500 30.59000
C  27.53200 49.32100 29.05800
C  28.37200 50.06500 31.54700
C  24.86900 48.94100 31.26800
C  24.53300 48.95100 32.74700
H  25.36300 49.60500 33.87200
N  28.22800 49.13300 26.02300
C  28.99900 48.66700 27.08700
C  30.17400 48.01500 26.53400
C  30.14700 48.13700 25.09300
C  28.88800 48.84300 24.80400
C  31.23100 47.38300 27.44800
C  31.18900 47.65200 24.08300
O  31.08000 47.81000 22.90000
C  32.50500 47.08400 24.57900
N  26.35700 50.40300 24.11500
C  27.29900 49.99000 23.19600
C  26.93200 50.36600 21.73000
C  25.48700 50.94800 21.90300
C  25.40100 51.08100 23.45200
C  27.99400 51.34500 21.02600
C  24.33300 50.00600 21.48700
C  23.14400 50.67100 20.78000
N  24.76700 51.16400 26.39800
C  24.03400 51.78700 25.41200
C  22.92800 52.43500 25.99000
C  23.09700 52.19100 27.38900
C  24.21300 51.47100 27.58800
C  21.94200 53.28000 25.18400
C  22.53000 52.61300 28.66500
O  21.54500 53.31800 28.89000
C  23.48300 51.89500 29.73800
C  24.01600 52.92100 30.62600
O  25.04600 53.60000 30.33100
O  23.29500 53.03400 31.77700
C  23.62000 54.13300 32.71600
H  29.27300 48.20100 29.15300
H  29.04400 49.16500 22.65400
H  23.71000 52.28100 23.31000
H  25.94200 50.89400 31.25600
H  27.26900 48.28800 30.95000
H  29.12100 50.33900 30.80300
H  28.90000 49.38300 32.21400
H  27.94500 50.94000 32.03600
H  25.21600 47.92200 31.09800
H  23.89800 48.96500 30.77300
H  24.50100 47.95800 33.19700
H  23.50900 49.29300 32.89900
H  32.13100 47.99500 27.38900
H  31.51800 46.42700 27.00900
H  30.81100 47.28000 28.44900
H  33.18600 46.94200 23.74000
H  32.39400 46.15600 25.13900
H  32.87200 47.89300 25.21000
H  26.88800 49.40900 21.21000
H  25.52800 51.92400 21.42000
H  28.85800 51.66500 21.60800
H  27.43800 52.17300 20.58700
H  28.35400 50.72700 20.20300
H  23.85100 49.58600 22.37000
H  24.75400 49.21900 20.86100
H  23.24600 51.73900 20.58600
H  22.26800 50.43900 21.38700
H  23.11800 50.10400 19.84900
H  21.42300 52.50200 24.62500
H  22.39800 54.02400 24.53000
H  21.25200 53.84100 25.81400
H  22.91000 51.25400 30.40800
H  23.85200 55.02800 32.13900
H  24.46200 53.70900 33.26400
H  22.82800 54.36600 33.42900

