158

Mg 48.39500 45.50500 43.64200
C  45.02700 45.86300 42.54400
C  48.49900 42.39400 42.53400
C  51.73200 45.83800 43.65100
C  48.18400 49.02900 44.31100
N  46.92900 44.38600 42.57900
C  45.61300 44.59100 42.26900
C  44.87000 43.34200 41.67200
C  45.91800 42.24400 41.94800
C  47.19600 43.01800 42.39200
C  45.52900 41.22300 43.02000
C  44.35600 43.54800 40.16900
C  45.14500 44.44200 39.14400
H  46.20000 43.63200 38.37900
N  49.94700 44.29000 43.23700
C  49.75100 43.03100 42.82200
C  51.05500 42.33600 42.73700
C  52.01800 43.31400 43.13600
C  51.27000 44.57300 43.29000
C  51.16400 40.80300 42.54400
C  53.50500 42.94500 43.24200
O  53.85200 41.80500 42.93600
C  54.44500 43.92800 43.78400
N  49.81400 47.21300 43.93100
C  51.15100 47.00500 43.94200
C  51.92000 48.36200 44.16200
C  50.78900 49.26700 44.81000
C  49.46400 48.49500 44.31000
C  53.15200 48.18400 45.14100
C  50.92300 50.77500 44.63500
C  50.66300 51.62500 45.81800
N  46.85000 47.08500 43.76400
C  46.94100 48.44900 44.01600
C  45.62000 49.07600 43.91400
C  44.88100 48.04800 43.36700
C  45.69100 46.88600 43.23600
C  45.36200 50.59800 44.00400
C  43.63100 47.80400 42.82000
O  42.64700 48.54700 42.79000
C  43.63200 46.33100 42.25000
C  42.44100 45.64500 42.91000
O  41.56700 45.02100 42.30800
O  42.54700 45.76700 44.28600
C  41.36700 45.39000 45.02100
H  48.51500 41.31000 42.39800
H  52.82400 45.82900 43.67100
H  48.11000 50.11500 44.39200
H  43.99400 43.18400 42.30100
H  46.01900 41.75300 40.98000
H  45.94500 41.52600 43.98100
H  45.77500 40.23200 42.63800
H  44.44800 41.29300 43.13600
H  43.36900 44.00700 40.21900
H  44.20600 42.52700 39.81800
H  45.68000 45.26200 39.62300
H  44.38400 44.90800 38.51800
H  52.08100 40.53400 42.01900
H  50.32100 40.34100 42.03200
H  51.19600 40.34600 43.53400
H  54.53800 44.74300 43.06700
H  55.37000 43.39600 44.00600
H  54.02800 44.37900 44.68500
H  52.23100 48.73900 43.18700
H  50.93300 49.10900 45.87800
H  53.00100 47.26800 45.71200
H  53.28300 48.89800 45.95400
H  53.98000 48.05800 44.44400
H  50.27400 51.10800 43.82500
H  51.91300 50.89500 44.19500
H  51.46400 51.71500 46.55100
H  49.76400 51.30700 46.34600
H  50.53800 52.62500 45.40100
H  45.90600 51.06400 43.18200
H  45.60200 51.07200 44.95600
H  44.29300 50.74900 43.85200
H  43.47300 46.31600 41.17200
H  40.89600 44.46100 44.69900
H  40.67300 46.20400 44.81300
H  41.52000 45.26600 46.09300
Mg 17.36800 51.64100 26.63900
C  19.18100 50.20900 29.32200
C  14.82100 52.36200 28.78300
C  15.44300 52.72900 23.92900
C  19.74500 50.45100 24.36700
N  17.08900 51.36100 28.86500
C  18.02300 50.88600 29.74600
C  17.55000 51.07800 31.19700
C  15.99500 51.42200 30.97300
C  15.96800 51.78800 29.46600
C  14.94800 50.33800 31.30300
C  18.43100 52.09000 31.94500
C  18.07600 52.44900 33.42600
H  17.23500 51.42600 34.24600
N  15.39100 52.56400 26.44700
C  14.53100 52.73800 27.43700
C  13.31700 53.44500 26.93800
C  13.44800 53.52000 25.50800
C  14.79400 52.92500 25.22600
C  12.18000 53.73500 27.90700
C  12.54900 54.19500 24.46700
O  12.75200 54.27100 23.25200
C  11.24700 54.73000 24.90600
N  17.52000 51.60000 24.47900
C  16.61100 52.13800 23.60600
C  17.16200 52.01300 22.18000
C  18.52300 51.26500 22.34300
C  18.68500 51.20600 23.84400
C  16.16200 51.37000 21.20500
C  19.70100 51.91400 21.60600
C  20.88300 52.48700 22.40900
N  19.07000 50.51400 26.79700
C  19.95200 50.15700 25.75000
C  21.05400 49.32100 26.31400
C  20.79000 49.33400 27.72700
C  19.60800 50.04000 27.92800
C  22.19100 48.64600 25.66600
C  21.17900 48.74300 28.99600
O  22.03700 47.90400 29.25200
C  20.26900 49.47800 30.09900
C  19.78000 48.58900 31.14100
O  19.16700 47.54900 30.95100
O  20.07800 49.10700 32.42200
C  19.68400 48.15200 33.52300
H  14.02400 52.57100 29.50100
H  15.12400 53.07200 22.94300
H  20.49900 50.11200 23.65400
H  17.68700 50.12000 31.69800
H  15.69700 52.36700 31.42700
H  14.13400 50.82300 31.84300
H  15.48800 49.58600 31.87800
H  14.50000 50.03100 30.35800
H  18.28400 53.04300 31.43700
H  19.45000 51.70300 31.93300
H  17.65000 53.45100 33.39500
H  19.00900 52.58500 33.97300
H  11.26100 54.25700 27.64500
H  12.58700 54.15000 28.82900
H  11.85000 52.76400 28.27800
H  10.59900 54.02600 25.42800
H  10.72300 55.15300 24.04900
H  11.52600 55.53200 25.59000
H  17.31000 53.02100 21.79200
H  18.41600 50.27300 21.90500
H  15.56600 50.57200 21.64700
H  16.77400 50.85500 20.46500
H  15.56000 52.13600 20.71700
H  19.28600 52.58800 20.85700
H  20.06200 51.02000 21.09700
H  21.54600 51.68000 22.72100
H  20.47900 52.98500 23.29100
H  21.45500 53.17700 21.78900
H  21.98600 48.40900 24.62200
H  22.40500 47.67100 26.10500
H  23.14900 49.16500 25.68300
H  20.98500 50.19300 30.50400
H  18.64000 48.00800 33.24600
H  19.58600 48.74600 34.43100
H  20.20900 47.22400 33.75200

