158

Mg -0.38100 18.13700 27.90500
C  -0.99400 15.62100 30.47500
C  -1.13300 20.51800 30.32600
C  -0.17900 20.45500 25.54900
C  -0.36200 15.53500 25.53000
N  -1.21700 18.00100 30.09000
C  -1.17900 16.93200 30.97600
C  -1.41900 17.33500 32.45900
C  -1.58400 18.93500 32.32000
C  -1.24700 19.18800 30.82800
C  -3.01100 19.45900 32.72800
C  -0.34100 16.87200 33.43500
C  -0.03600 17.75500 34.66300
H  0.72300 16.98600 35.77000
N  -0.56100 20.19200 27.92700
C  -0.83200 21.02300 29.00500
C  -0.75600 22.36400 28.62000
C  -0.50800 22.41200 27.19900
C  -0.39200 20.98300 26.82100
C  -1.03600 23.52400 29.55100
C  -0.21600 23.59400 26.25500
O  -0.05000 23.46900 25.06200
C  -0.24200 24.95600 26.88200
N  -0.26800 18.04700 25.86000
C  -0.11800 19.09700 25.05800
C  0.00200 18.67200 23.58000
C  0.23900 17.16900 23.69000
C  -0.15000 16.87100 25.11900
C  -1.20800 19.00700 22.71900
C  1.75700 16.68000 23.43600
C  2.74400 17.23100 24.50200
N  -0.56500 15.96300 27.88200
C  -0.66900 15.12000 26.82800
C  -0.90500 13.80200 27.38000
C  -1.07700 13.97900 28.81800
C  -0.80400 15.26200 29.08600
C  -0.95400 12.55400 26.62300
C  -1.38500 13.27400 30.10000
O  -1.69000 12.12700 30.34100
C  -1.28500 14.30200 31.25700
C  -0.23300 13.72100 32.14100
O  0.95600 13.84700 31.97400
O  -0.89300 13.04400 33.11700
C  -0.06400 12.15000 33.87400
H  -1.38100 21.30100 31.04600
H  0.05100 21.17200 24.75800
H  -0.30400 14.68400 24.84900
H  -2.32300 16.78300 32.71300
H  -0.90800 19.52500 32.93800
H  -2.99200 19.92400 33.71400
H  -3.58800 18.53500 32.76200
H  -3.36500 20.23900 32.05500
H  0.64700 16.84700 32.97500
H  -0.49100 15.82000 33.67600
H  -0.88900 18.10300 35.24500
H  0.53500 18.67300 34.52600
H  -1.72800 24.25100 29.12700
H  -0.14700 24.10800 29.78900
H  -1.43400 23.21400 30.51700
H  0.19300 24.98800 27.88100
H  -1.30700 25.17300 26.97000
H  0.22100 25.64400 26.17500
H  0.90000 19.20500 23.27000
H  -0.40300 16.51000 23.10500
H  -1.97800 19.44200 23.35700
H  -1.62500 18.12500 22.23300
H  -0.95100 19.76100 21.97400
H  2.14900 17.17100 22.54500
H  1.71500 15.59200 23.47900
H  2.25000 17.61100 25.39600
H  3.29400 18.06600 24.06800
H  3.36600 16.41700 24.87700
H  -0.22700 11.81300 26.95700
H  -0.77800 12.75600 25.56600
H  -1.93000 12.07900 26.72400
H  -2.24400 14.31700 31.77400
H  -0.70200 11.74000 34.65600
H  0.85200 12.63700 34.21100
H  0.22000 11.36000 33.18000
Mg 5.32100 54.78900 40.41000
C  4.76200 51.28300 40.30800
C  8.60500 54.08500 39.56200
C  5.74000 57.98700 40.16600
C  1.89900 55.16100 40.99200
N  6.54300 52.92100 39.94100
C  6.05300 51.61100 39.85500
C  7.17900 50.63500 39.42200
C  8.44300 51.51600 39.53000
C  7.84600 52.95200 39.72400
C  9.44900 50.99600 40.56600
C  7.04300 49.91400 38.01200
C  6.15900 50.66500 36.98900
H  6.87900 51.31900 35.85700
N  7.03700 55.90500 39.96300
C  8.27700 55.45500 39.65300
C  9.12400 56.61200 39.49000
C  8.32800 57.79000 39.74400
C  6.92700 57.24100 39.88800
C  10.65900 56.51300 39.25600
C  8.86700 59.17900 39.63200
O  10.06100 59.42000 39.45700
C  7.96600 60.32200 39.82800
N  4.01700 56.39200 40.52200
C  4.43300 57.65300 40.49200
C  3.29100 58.66700 40.80500
C  2.04700 57.72100 40.89400
C  2.69300 56.35100 40.80100
C  3.56300 59.48900 42.07800
C  0.93100 57.74700 39.78700
C  -0.52200 57.78500 40.17100
N  3.58700 53.52700 40.59300
C  2.35700 53.79400 40.96000
C  1.60600 52.57600 41.13600
C  2.51300 51.59600 41.02900
C  3.70700 52.16700 40.64500
C  0.09000 52.46300 41.22200
C  2.77000 50.14400 41.09900
O  2.01700 49.24000 41.37500
C  4.26800 49.96500 40.61800
C  4.08500 49.23500 39.35700
O  3.56500 49.73000 38.35400
O  4.55000 47.92500 39.53700
C  4.29600 46.94000 38.45800
H  9.66000 53.90800 39.34700
H  5.79100 59.07700 40.17100
H  0.84100 55.33000 41.20200
H  7.19800 49.88800 40.21600
H  8.98900 51.51800 38.58700
H  10.46300 50.86300 40.18800
H  9.21100 50.09700 41.13400
H  9.53600 51.74200 41.35600
H  6.61100 48.91900 38.11300
H  7.99700 49.85200 37.48800
H  5.55000 51.45700 37.42500
H  5.46400 49.99200 36.48800
H  11.07300 57.06600 38.41200
H  10.92400 55.46400 39.12700
H  11.04600 56.82900 40.22500
H  8.45100 61.29700 39.77700
H  7.45100 60.24500 40.78600
H  7.32800 60.33400 38.94500
H  3.11900 59.27900 39.92000
H  1.62600 57.61900 41.89400
H  2.72500 59.40100 42.77000
H  3.54900 60.54600 41.81400
H  4.45900 59.25100 42.65100
H  1.06900 56.95200 39.05300
H  1.06900 58.62000 39.15000
H  -0.61400 58.11700 41.20500
H  -1.17100 56.91700 40.05500
H  -0.96700 58.58500 39.57900
H  -0.41300 53.37500 40.90100
H  -0.11100 52.34300 42.28700
H  -0.36900 51.63200 40.68700
H  4.91500 49.54100 41.38600
H  4.51400 47.36900 37.48000
H  3.30600 46.49900 38.34200
H  4.94300 46.09500 38.69300

