158

Mg 47.31700 25.05500 28.25300
C  47.81800 27.54600 30.66000
C  46.52600 22.81000 30.64800
C  46.95900 22.76600 25.87500
C  48.64600 27.44100 25.88800
N  47.30900 25.13000 30.34300
C  47.51800 26.28100 31.16400
C  47.24700 25.92900 32.61500
C  46.84400 24.46000 32.61100
C  46.92300 24.03800 31.10800
C  47.66600 23.53600 33.58200
C  46.29800 26.92900 33.37300
C  45.71700 26.42200 34.73300
H  46.68800 26.03400 35.84700
N  46.76800 23.08100 28.25300
C  46.45200 22.27000 29.31700
C  46.18500 20.90700 28.90700
C  46.31800 20.96100 27.43300
C  46.70300 22.27300 27.13100
C  46.05900 19.76200 29.88200
C  46.13800 19.75500 26.53100
O  46.39300 19.72800 25.35900
C  45.74100 18.43700 27.06400
N  47.97800 25.03500 26.26500
C  47.61000 23.98800 25.44900
C  47.75100 24.34300 23.97100
C  47.80900 25.88400 23.95900
C  48.19600 26.15400 25.43200
C  48.88400 23.53600 23.21400
C  46.57300 26.61900 23.52500
C  45.35000 26.55700 24.47800
N  48.19200 26.99800 28.22500
C  48.68400 27.80300 27.22400
C  49.00200 29.09900 27.73200
C  48.67700 29.08200 29.11800
C  48.25600 27.72500 29.32100
C  49.53000 30.29600 26.86800
C  48.73100 29.83600 30.39000
O  48.98100 31.00600 30.55700
C  48.21200 28.83000 31.39300
C  49.30600 28.66900 32.41400
O  50.49800 28.33700 32.24400
O  48.95600 29.24700 33.65300
C  49.82000 29.01200 34.87200
H  46.27500 22.16000 31.48900
H  46.87900 21.98900 25.11100
H  48.67900 28.19100 25.09500
H  48.25100 25.96200 33.04000
H  45.78200 24.38600 32.84400
H  48.51300 24.05200 34.03400
H  48.17800 22.74300 33.03700
H  47.11800 22.91500 34.29100
H  45.48400 27.28700 32.74200
H  46.83300 27.74400 33.86100
H  45.08200 25.54700 34.59300
H  44.97500 27.18900 34.95300
H  46.63100 18.88400 29.58200
H  45.04400 19.37600 29.79800
H  46.05300 19.94000 30.95700
H  45.21100 17.89200 26.28300
H  45.10300 18.47600 27.94600
H  46.73300 18.02200 27.24200
H  46.82000 24.06100 23.47800
H  48.60800 26.32800 23.36400
H  49.36900 22.85000 23.90800
H  49.61600 24.24800 22.83300
H  48.45600 22.87500 22.46000
H  46.38600 26.01500 22.63800
H  46.88200 27.59700 23.15600
H  44.36900 26.46200 24.01200
H  45.34700 27.37900 25.19300
H  45.59600 25.63800 25.01100
H  50.08300 30.90900 27.58000
H  48.64500 30.74000 26.41100
H  50.19800 29.88400 26.11200
H  47.36300 29.22000 31.95400
H  50.62000 29.75000 34.91900
H  50.32900 28.04900 34.91300
H  49.25200 29.14100 35.79300
Mg 26.21800 51.13400 25.30700
C  24.16700 52.52000 27.76400
C  28.37600 50.12000 27.79900
C  28.20900 50.15800 22.86600
C  24.04000 52.63000 22.89500
N  26.26000 51.32600 27.44200
C  25.26800 51.84800 28.27700
C  25.52500 51.63500 29.79200
C  26.97200 51.04900 29.73200
C  27.25500 50.79400 28.21900
C  28.04100 51.97300 30.15300
C  24.53100 50.64800 30.57100
C  24.01300 51.02400 31.91700
H  25.08200 51.45400 32.91600
N  28.07000 50.25900 25.32400
C  28.75800 49.90900 26.45700
C  29.99500 49.34700 26.05300
C  29.99500 49.33600 24.62700
C  28.72600 49.97300 24.17700
C  31.11100 49.08400 27.04700
C  31.11500 49.08400 23.73500
O  31.10300 49.43400 22.55800
C  32.30900 48.34700 24.17100
N  26.02900 51.24000 23.14500
C  26.98100 50.72900 22.41600
C  26.67600 50.73300 20.87900
C  25.31000 51.53500 20.92600
C  25.05400 51.81900 22.40600
C  27.84200 51.23100 19.93000
C  24.05500 50.78300 20.34900
C  23.19200 51.50000 19.20500
N  24.47300 52.40000 25.20300
C  23.74300 52.89100 24.23900
C  22.55700 53.53400 24.77000
C  22.71800 53.43100 26.14000
C  23.90600 52.79600 26.36700
C  21.46700 54.14300 24.10100
C  22.07800 53.71700 27.39000
O  20.97300 54.24100 27.59900
C  22.94800 53.12000 28.52100
C  23.35800 54.12400 29.54700
O  24.40100 54.73300 29.67100
O  22.26600 54.45700 30.32900
C  22.57600 55.14700 31.58400
H  28.94500 49.73500 28.64800
H  28.92000 50.00100 22.05200
H  23.47900 52.96800 22.02200
H  25.48500 52.59900 30.30000
H  27.06000 50.16700 30.36700
H  28.79300 52.14500 29.38300
H  28.50000 51.57200 31.05600
H  27.67500 52.95000 30.46700
H  24.97000 49.65100 30.60100
H  23.61000 50.57700 29.99200
H  23.39800 50.18100 32.23100
H  23.43400 51.92900 31.73400
H  31.41200 48.03700 27.05300
H  30.88500 49.41300 28.06200
H  32.06700 49.55600 26.82100
H  32.89100 47.98300 23.32400
H  32.06100 47.55200 24.87400
H  32.87100 49.01700 24.82100
H  26.49300 49.75800 20.42800
H  25.34600 52.43800 20.31700
H  28.05700 50.51600 19.13600
H  28.79600 51.25100 20.45600
H  27.60800 52.23700 19.58100
H  23.39300 50.53300 21.17800
H  24.38000 49.87100 19.84800
H  22.18400 51.36500 19.59800
H  23.34300 50.80200 18.38200
H  23.33500 52.53300 18.88700
H  21.76300 55.11900 23.71500
H  20.70100 54.34000 24.85100
H  21.26800 53.45600 23.27900
H  22.37900 52.38500 29.09100
H  22.71900 56.21800 31.44000
H  23.40900 54.67800 32.10800
H  21.64500 55.05200 32.14200

