158

Mg 17.02700 -2.20500 27.90100
C  15.60500 -0.16200 30.49100
C  18.81200 -3.81800 30.29600
C  18.74100 -3.73300 25.38700
C  15.35600 -0.21700 25.64600
N  17.41800 -1.84800 30.15700
C  16.57600 -1.08000 30.99000
C  17.13900 -1.25100 32.44600
C  18.20700 -2.32600 32.32800
C  18.21300 -2.66600 30.83500
C  19.60400 -2.16700 32.90900
C  15.94400 -1.46500 33.48800
C  16.16400 -0.87900 34.92300
H  16.98300 -1.75600 35.91800
N  18.50700 -3.62700 27.88600
C  19.09800 -4.13500 28.93300
C  19.99800 -5.26800 28.57700
C  19.79300 -5.38800 27.19200
C  19.09100 -4.16900 26.71800
C  20.86100 -6.12700 29.60200
C  20.20900 -6.53700 26.33100
O  20.13600 -6.48600 25.16200
C  20.76800 -7.78800 26.83700
N  17.02900 -2.07600 25.83800
C  17.87000 -2.76000 25.02300
C  17.66400 -2.31600 23.60700
C  16.60300 -1.13100 23.64200
C  16.28600 -1.14700 25.14900
C  19.00600 -1.91800 22.99400
C  15.27600 -1.24500 22.72600
C  15.39700 -0.72600 21.31900
N  15.64900 -0.57400 27.99800
C  15.02600 0.05900 27.00100
C  14.23500 1.22000 27.56500
C  14.53800 1.18700 28.94500
C  15.34800 0.08900 29.14100
C  13.57800 2.35000 26.85200
C  14.28500 1.85400 30.17400
O  13.54300 2.84500 30.37200
C  15.01100 1.05600 31.32200
C  16.04500 1.92000 31.92800
O  17.06300 2.22300 31.37600
O  15.79400 2.20900 33.22900
C  16.64800 3.23300 33.89500
H  19.45900 -4.20400 31.08700
H  19.20700 -4.35700 24.62200
H  14.91700 0.50100 24.95000
H  17.60400 -0.32000 32.77100
H  17.71000 -3.21200 32.72100
H  19.67800 -3.07900 33.50200
H  19.67200 -1.22200 33.44700
H  20.20800 -2.12800 32.00300
H  15.86700 -2.55100 33.55100
H  14.98700 -1.09800 33.11600
H  15.16800 -0.66700 35.31100
H  16.67800 0.07800 34.84000
H  21.13400 -5.46200 30.42100
H  21.80900 -6.50400 29.21700
H  20.33100 -6.99700 29.99100
H  21.79400 -7.65600 27.18100
H  20.75700 -8.48000 25.99500
H  20.18200 -8.29300 27.60500
H  17.25500 -3.21400 23.14300
H  16.99900 -0.14800 23.38700
H  19.55200 -2.79700 22.65400
H  19.78000 -1.71500 23.73400
H  18.90200 -1.09700 22.28400
H  14.39600 -0.77300 23.16400
H  15.13800 -2.32000 22.60800
H  16.31800 -0.77000 20.73800
H  15.00200 0.28700 21.25400
H  14.83200 -1.43200 20.71100
H  12.68500 1.92600 26.39500
H  14.23900 2.73300 26.07400
H  13.33500 3.20100 27.48900
H  14.27900 0.68200 32.03800
H  16.14900 3.91200 34.58600
H  17.17400 3.85100 33.16700
H  17.52600 2.72500 34.29300
Mg 26.89000 50.68200 26.60800
C  24.92900 51.77900 29.23300
C  29.21500 49.56500 28.87000
C  29.08000 50.17600 24.09200
C  24.54600 51.93800 24.24200
N  26.98700 50.64200 28.83300
C  26.06800 51.11800 29.69700
C  26.44300 50.83600 31.17500
C  27.88200 50.23600 31.06600
C  28.01300 50.09700 29.49400
C  29.01400 51.26100 31.64500
C  25.43400 49.86500 31.89000
C  24.51200 50.55900 32.88200
H  24.52000 49.95200 34.25600
N  28.85700 50.03900 26.53500
C  29.58300 49.57300 27.54300
C  30.86300 49.10200 27.14000
C  30.96500 49.37200 25.74000
C  29.61100 49.89900 25.31800
C  31.92700 48.60200 28.11300
C  32.09200 49.14800 24.80800
O  31.98400 49.35800 23.59900
C  33.32600 48.58300 25.26000
N  26.79300 51.06000 24.43000
C  27.82400 50.57700 23.68000
C  27.43100 50.61000 22.12600
C  25.91300 51.15100 22.20100
C  25.69100 51.33900 23.74700
C  28.23300 51.45400 21.18100
C  24.77100 50.29600 21.60500
C  24.08200 50.91800 20.39600
N  25.10800 51.63900 26.65300
C  24.22800 52.05400 25.65700
C  23.07100 52.64700 26.28800
C  23.32500 52.62000 27.66000
C  24.52200 51.93900 27.85900
C  21.91300 53.24800 25.51900
C  22.80700 53.01400 29.00000
O  21.82500 53.53900 29.29600
C  23.90700 52.53500 29.98200
C  24.45600 53.72200 30.65000
O  25.19200 54.54700 30.16500
O  23.87800 53.81500 31.89100
C  23.92400 55.19700 32.55200
H  29.92200 49.31300 29.66300
H  29.86100 50.15200 23.32900
H  23.85200 52.12300 23.41900
H  26.40400 51.82300 31.63700
H  28.02000 49.26700 31.54600
H  28.63800 52.02300 32.32800
H  29.59500 51.68500 30.82600
H  29.68900 50.75300 32.33300
H  26.05100 49.07300 32.31400
H  24.75200 49.53300 31.10700
H  23.49800 50.45700 32.49600
H  24.75600 51.61500 33.00200
H  31.92500 49.07500 29.09500
H  32.93600 48.84000 27.77700
H  31.86900 47.51300 28.10600
H  33.95400 49.25600 25.84300
H  33.83500 48.18900 24.38100
H  33.04200 47.71900 25.86200
H  27.40800 49.59600 21.72700
H  25.72300 52.14300 21.79000
H  29.28200 51.40700 21.47400
H  27.97800 52.51200 21.12000
H  28.10100 50.92900 20.23500
H  24.02300 50.18600 22.39100
H  25.22800 49.33000 21.39000
H  22.99500 50.95700 20.47000
H  24.40100 50.27600 19.57500
H  24.35600 51.96100 20.23800
H  21.47000 52.61000 24.75400
H  22.13000 54.09700 24.87100
H  21.14000 53.44300 26.26200
H  23.54100 51.87800 30.77100
H  23.84500 55.86800 31.69700
H  24.84700 55.37400 33.10500
H  23.03700 55.20500 33.18600

