158

Mg 1.91200 8.08600 26.36200
C  2.18000 10.16400 29.28800
C  2.37800 5.36300 28.63800
C  2.36900 5.98100 23.74500
C  2.10300 10.73000 24.29700
N  2.17600 7.85100 28.78900
C  2.12800 8.81100 29.69600
C  2.11000 8.21600 31.11300
C  2.46200 6.66100 30.84600
C  2.36400 6.58000 29.33800
C  3.80300 6.04800 31.53800
C  0.85900 8.41600 31.86000
C  0.67500 7.53400 33.12700
H  1.87500 7.30400 34.08700
N  2.17700 5.95500 26.24400
C  2.45300 5.06700 27.23700
C  2.77800 3.71000 26.72500
C  2.60900 3.80300 25.31400
C  2.34000 5.24700 25.02900
C  3.07800 2.56700 27.69400
C  2.71500 2.71000 24.27300
O  2.43600 2.94800 23.10100
C  3.19300 1.28600 24.64900
N  2.00300 8.27600 24.35600
C  2.09000 7.32200 23.38500
C  1.82600 7.87700 21.91000
C  1.59400 9.39800 22.20200
C  1.89200 9.44700 23.68200
C  3.00900 7.52000 21.00100
C  0.13900 9.92100 21.88000
C  0.17300 10.87800 20.67500
N  2.06500 10.01200 26.66200
C  2.14000 11.02100 25.71600
C  2.20700 12.36600 26.41100
C  2.28100 12.09500 27.75500
C  2.08400 10.62500 27.87700
C  2.08600 13.68400 25.83400
C  2.35500 12.67400 29.06800
O  2.51300 13.87600 29.41100
C  2.24400 11.43600 30.10400
C  3.40200 11.45900 31.09500
O  4.60700 11.23200 30.85400
O  2.99300 11.97000 32.24600
C  3.91700 11.92500 33.39800
H  2.62300 4.65600 29.43400
H  2.49900 5.32700 22.87900
H  2.15400 11.60300 23.64300
H  2.85800 8.63400 31.78700
H  1.57500 6.10000 31.14000
H  4.06900 6.71000 32.36200
H  4.59100 5.87400 30.80500
H  3.57100 5.07100 31.96100
H  0.01500 8.10800 31.24300
H  0.72200 9.45300 32.16800
H  0.24900 6.55300 32.91600
H  -0.01800 8.12600 33.72500
H  2.11400 2.07600 27.83100
H  3.54600 2.90100 28.62000
H  3.69500 1.83400 27.17400
H  2.77700 0.94000 25.59500
H  4.26900 1.45900 24.66600
H  3.00500 0.56500 23.85300
H  0.88300 7.40800 21.62900
H  2.40800 9.91400 21.69200
H  3.77200 7.07100 21.63600
H  3.41800 8.38300 20.47600
H  2.80100 6.69300 20.32100
H  -0.23100 10.45500 22.75500
H  -0.46100 9.02200 21.74200
H  1.19100 11.05700 20.32800
H  -0.23900 11.84400 20.96500
H  -0.33200 10.44200 19.81200
H  1.49400 13.41100 24.96000
H  3.03800 14.14700 25.57500
H  1.37500 14.31700 26.36400
H  1.32300 11.40600 30.68600
H  4.51000 11.01100 33.43000
H  3.30500 11.82200 34.29300
H  4.54300 12.81000 33.50600
Mg -10.52400 40.80900 42.55600
C  -9.19600 37.78900 41.46900
C  -8.26100 42.44000 40.61400
C  -12.26000 43.76400 42.96100
C  -13.31400 39.03400 43.72800
N  -8.93900 40.18400 41.18700
C  -8.55500 38.88800 40.90000
C  -7.43200 38.89500 39.93300
C  -6.94700 40.42300 39.90600
C  -8.07600 41.07800 40.65200
C  -5.47300 40.67700 40.41900
C  -7.79100 38.29000 38.52400
C  -6.96800 37.04000 38.18800
H  -5.78700 37.17000 37.19300
N  -10.15200 42.87600 42.09600
C  -9.11400 43.33500 41.33700
C  -9.16400 44.78700 41.24100
C  -10.39000 45.18000 41.97800
C  -10.99000 43.91200 42.37800
C  -8.19000 45.66900 40.57400
C  -10.88400 46.65100 42.02800
O  -10.23300 47.55800 41.60600
C  -12.11600 47.07400 42.64300
N  -12.47600 41.34200 43.45400
C  -12.97400 42.60500 43.39300
C  -14.39500 42.62000 43.86500
C  -14.76900 41.11600 44.21700
C  -13.44500 40.41900 43.75900
C  -14.73700 43.57300 45.02700
C  -16.00400 40.57900 43.46000
C  -17.03500 39.78100 44.35100
N  -11.05300 38.84900 42.86600
C  -12.19500 38.25300 43.34900
C  -12.07500 36.84300 43.24800
C  -10.85900 36.59800 42.62500
C  -10.30400 37.83500 42.35400
C  -13.01600 35.73600 43.75200
C  -10.06900 35.54600 41.98500
O  -10.27000 34.33100 41.95400
C  -8.85400 36.25200 41.28400
C  -7.60400 35.77000 42.04500
O  -7.19800 36.21000 43.12100
O  -6.85400 34.79000 41.36100
C  -5.50900 34.32800 41.85000
H  -7.49100 43.03600 40.12000
H  -12.91400 44.63800 42.96700
H  -14.20400 38.43900 43.94200
H  -6.64300 38.25000 40.32100
H  -6.92600 40.75600 38.86900
H  -5.12300 39.67400 40.66300
H  -5.42500 41.34800 41.27600
H  -4.83200 41.10900 39.65000
H  -7.58300 39.08300 37.80600
H  -8.83800 38.05600 38.33000
H  -7.61700 36.26100 37.78700
H  -6.40600 36.46700 38.92500
H  -8.58500 46.14900 39.67900
H  -7.30800 45.08000 40.32400
H  -7.92700 46.49200 41.24000
H  -12.06000 46.61400 43.62900
H  -13.01000 46.72200 42.13000
H  -12.35200 48.13200 42.75700
H  -14.92500 42.96600 42.97700
H  -14.92600 40.89400 45.27300
H  -13.85700 44.20500 45.14400
H  -14.94300 43.09200 45.98300
H  -15.60900 44.20800 44.87000
H  -15.67400 39.92200 42.65600
H  -16.50100 41.40500 42.95100
H  -16.65700 39.66500 45.36700
H  -17.08800 38.76500 43.96200
H  -18.00100 40.27700 44.26000
H  -12.84100 35.63800 44.82400
H  -12.78600 34.73900 43.37700
H  -14.06100 35.91100 43.49600
H  -8.74500 35.94000 40.24500
H  -5.49400 33.97700 42.88200
H  -4.76800 35.11900 41.73700
H  -5.28700 33.50600 41.16900

