158

Mg 24.32700 -5.58900 46.16000
C  26.90600 -3.53800 44.80800
C  22.06700 -4.07000 44.02600
C  22.18600 -8.13100 46.68600
C  26.81900 -7.47300 47.79600
N  24.58100 -4.09000 44.51900
C  25.68100 -3.36100 44.17900
C  25.31100 -2.42500 42.94200
C  23.71600 -2.36800 42.95100
C  23.40500 -3.60500 43.96200
C  23.18900 -0.94200 43.30200
C  25.90100 -2.96700 41.68200
C  26.96400 -2.14400 40.82300
H  26.93000 -2.30300 39.36300
N  22.31600 -5.89900 45.61100
C  21.56800 -5.16300 44.69600
C  20.23400 -5.70800 44.64600
C  20.26900 -6.89400 45.46400
C  21.66700 -7.03000 45.92400
C  19.05700 -5.15200 43.86700
C  19.04000 -7.70700 45.76900
O  17.93400 -7.34100 45.30000
C  19.05200 -8.95200 46.64500
N  24.47900 -7.55400 47.08700
C  23.40700 -8.37900 47.23400
C  23.73900 -9.72300 48.04100
C  25.22600 -9.37900 48.39300
C  25.54300 -8.05600 47.73200
C  22.82700 -9.95200 49.22900
C  26.13700 -10.52100 47.87900
C  26.81400 -11.30700 48.95200
N  26.43300 -5.55400 46.35200
C  27.24200 -6.24000 47.19200
C  28.53300 -5.63200 47.23500
C  28.41100 -4.54000 46.33100
C  27.14900 -4.57900 45.77100
C  29.70000 -6.04300 48.08500
C  29.17700 -3.44600 45.71900
O  30.27400 -3.01400 45.86000
C  28.18000 -2.71000 44.66500
C  27.81900 -1.35500 45.09800
O  28.04200 -0.31800 44.41800
O  27.14100 -1.37800 46.25800
C  26.24100 -0.17200 46.59100
H  21.31600 -3.48500 43.49000
H  21.46100 -8.81200 47.13800
H  27.62700 -7.97600 48.33200
H  25.70100 -1.41700 43.07700
H  23.26600 -2.48700 41.96500
H  22.23300 -1.01200 42.78400
H  23.70100 -0.18300 42.71000
H  23.24500 -0.74400 44.37200
H  25.07200 -3.15400 41.00000
H  26.35900 -3.94400 41.83900
H  27.94900 -2.25900 41.27500
H  26.69900 -1.12800 41.11300
H  19.34000 -4.34000 43.19700
H  18.26300 -4.80500 44.52800
H  18.69100 -5.98000 43.25900
H  19.46500 -9.80800 46.11200
H  17.98200 -9.00000 46.84800
H  19.56800 -8.70300 47.57200
H  23.64200 -10.49600 47.27800
H  25.36400 -9.16300 49.45200
H  21.78700 -9.80400 48.93700
H  23.11400 -9.27400 50.03200
H  22.83500 -10.99500 49.54700
H  26.97000 -10.12500 47.29700
H  25.71500 -11.30400 47.24800
H  26.19700 -12.17600 49.17900
H  26.81700 -10.73200 49.87800
H  27.82000 -11.51700 48.58900
H  29.58200 -6.02400 49.16900
H  30.54400 -5.37200 47.92800
H  30.03800 -7.01300 47.72000
H  28.56500 -2.64100 43.64800
H  25.41000 0.02200 45.91300
H  26.77800 0.77500 46.63600
H  25.69400 -0.38600 47.50900
Mg 0.00300 43.84200 25.88500
C  2.17300 44.10300 28.71100
C  -2.47600 43.06000 28.03400
C  -1.49100 42.90900 23.27600
C  2.96200 44.46300 23.92700
N  -0.22100 43.71400 28.13100
C  0.81200 43.93500 29.02100
C  0.20000 43.92500 30.49000
C  -1.26000 43.45500 30.27900
C  -1.34400 43.42400 28.76300
C  -1.59800 42.06600 30.96300
C  0.33500 45.29100 31.17000
C  0.43400 45.21200 32.67500
H  -0.12500 44.01500 33.44300
N  -1.75300 43.10300 25.73200
C  -2.72300 42.79400 26.64600
C  -3.79600 42.17600 26.06300
C  -3.58600 42.27400 24.65700
C  -2.23300 42.76900 24.46100
C  -4.95800 41.73200 26.86500
C  -4.61800 41.95100 23.44500
O  -4.37100 41.87200 22.24500
C  -6.06400 41.75300 23.88300
N  0.62300 43.89000 23.87000
C  -0.28800 43.43300 22.99200
C  0.29000 43.42600 21.55400
C  1.62300 44.13400 21.77100
C  1.74800 44.31400 23.25900
C  0.39200 42.01800 20.91000
C  1.71400 45.56100 21.14000
C  0.79200 46.62800 21.82200
N  2.17800 44.37900 26.21100
C  3.16000 44.48700 25.31000
C  4.45400 44.50800 26.02700
C  4.09900 44.42100 27.36300
C  2.71600 44.29000 27.41800
C  5.73800 44.63500 25.40900
C  4.60200 44.16300 28.75400
O  5.76700 44.01900 29.11800
C  3.34400 44.14600 29.62800
C  3.37600 43.01700 30.52100
O  2.97000 41.92700 30.20100
O  3.84000 43.36900 31.82500
C  3.99600 42.31400 32.79400
H  -3.30000 42.77100 28.69000
H  -2.08400 42.46700 22.47200
H  3.81200 44.50900 23.24200
H  0.78900 43.24300 31.10200
H  -2.01900 44.16700 30.60100
H  -0.78600 41.53900 31.46400
H  -1.92200 41.32100 30.23700
H  -2.42500 42.30300 31.63300
H  -0.48600 45.95500 30.90200
H  1.16700 45.85200 30.74500
H  -0.03800 46.09300 33.10900
H  1.51200 45.13900 32.82400
H  -5.78500 42.43200 26.74200
H  -4.70700 41.64300 27.92200
H  -5.37100 40.80900 26.45800
H  -6.85100 42.00800 23.17300
H  -6.32500 42.36200 24.74900
H  -6.21700 40.70200 24.12900
H  -0.24400 44.15200 20.94100
H  2.49000 43.54900 21.46400
H  0.11700 41.24400 21.62700
H  1.30900 41.72200 20.40000
H  -0.30900 41.92200 20.08200
H  1.42000 45.51300 20.09200
H  2.72200 45.97300 21.20000
H  -0.19500 46.28100 22.12900
H  0.47200 47.27500 21.00500
H  1.40800 47.21900 22.50000
H  6.02100 45.66900 25.60600
H  5.69300 44.32500 24.36500
H  6.45800 43.95700 25.86800
H  3.43400 45.07200 30.19600
H  5.08000 42.20800 32.83300
H  3.48700 41.43800 32.39300
H  3.63800 42.55800 33.79400

