158

Mg -3.04000 16.97500 26.73900
C  -3.66700 14.84800 29.44900
C  -3.57900 19.57000 29.02700
C  -3.42700 19.08300 24.22000
C  -3.41800 14.23200 24.61100
N  -3.68200 17.17300 29.05300
C  -3.64000 16.16800 29.97900
C  -3.68900 16.70400 31.41800
C  -3.88100 18.22700 31.18300
C  -3.69400 18.34400 29.68600
C  -5.18000 18.94300 31.76100
C  -2.65200 16.15700 32.44500
C  -2.24800 17.05700 33.53800
H  -1.83600 16.34300 34.87000
N  -3.08100 19.02000 26.68900
C  -3.32000 19.94000 27.71500
C  -3.23400 21.26500 27.09000
C  -3.19000 21.14200 25.72400
C  -3.22500 19.68300 25.46100
C  -3.27200 22.56300 27.98600
C  -3.21800 22.21700 24.70500
O  -3.19900 22.00300 23.54700
C  -3.15700 23.63600 25.04000
N  -3.53400 16.69500 24.77600
C  -3.55100 17.72400 23.90500
C  -3.60400 17.20600 22.42600
C  -3.34000 15.71100 22.59100
C  -3.47600 15.51100 24.12100
C  -4.93600 17.63600 21.65200
C  -1.95800 15.33600 21.87500
C  -0.69100 15.32700 22.72000
N  -3.29200 14.93800 26.94400
C  -3.44600 13.94200 25.99400
C  -3.67700 12.69500 26.67200
C  -3.78800 12.98800 28.06500
C  -3.58700 14.31500 28.11700
C  -3.96400 11.35000 26.09200
C  -4.08500 12.47000 29.37000
O  -4.38000 11.39500 29.89200
C  -4.00500 13.67500 30.34200
C  -2.92100 13.27900 31.27600
O  -1.76400 13.41700 30.98900
O  -3.45300 12.78500 32.39500
C  -2.47200 12.44400 33.47500
H  -3.62600 20.38300 29.75400
H  -3.53900 19.75200 23.36400
H  -3.29000 13.35300 23.97600
H  -4.63900 16.39500 31.85400
H  -3.05100 18.72200 31.68800
H  -4.81300 19.69000 32.46500
H  -5.81300 18.24900 32.31500
H  -5.77900 19.41200 30.98000
H  -1.72000 16.06100 31.88600
H  -3.11200 15.24300 32.82100
H  -3.13400 17.64400 33.77600
H  -1.37600 17.68900 33.37000
H  -3.50800 22.42500 29.04100
H  -4.11900 23.14800 27.62800
H  -2.33800 23.12600 27.99400
H  -3.96700 23.87000 25.73100
H  -3.21000 24.30200 24.17800
H  -2.20600 23.76200 25.55600
H  -2.80500 17.67300 21.85000
H  -4.06200 15.15900 21.99100
H  -5.55400 16.75200 21.80900
H  -4.84800 17.79000 20.57700
H  -5.51700 18.44900 22.08800
H  -1.66300 15.93800 21.01600
H  -2.05200 14.30000 21.54900
H  -0.65100 16.05600 23.52900
H  0.22500 15.53700 22.16800
H  -0.59700 14.28200 23.01500
H  -4.24100 10.71300 26.93200
H  -3.20300 10.87500 25.47200
H  -4.89500 11.55000 25.56100
H  -4.94000 13.90000 30.85300
H  -2.90700 11.75500 34.19900
H  -2.30400 13.33500 34.08000
H  -1.49100 12.03000 33.24200
Mg -6.23100 25.40800 25.98300
C  -4.50800 26.68400 28.76900
C  -8.04200 23.52600 28.03200
C  -7.48900 24.03400 23.24100
C  -3.74500 26.94500 23.91200
N  -6.42000 25.34000 28.15300
C  -5.61700 25.85900 29.13000
C  -6.05200 25.37300 30.55000
C  -6.92100 24.13300 30.19200
C  -7.12300 24.34500 28.68200
C  -6.15800 22.73200 30.43000
C  -6.84800 26.52300 31.33600
C  -7.14200 26.24500 32.88700
H  -6.30100 25.13200 33.55000
N  -7.71700 24.08900 25.69100
C  -8.40800 23.43200 26.67400
C  -9.37900 22.56000 26.05400
C  -9.15700 22.66400 24.69500
C  -8.10900 23.65800 24.47800
C  -10.38900 21.67300 26.92100
C  -9.95500 21.97500 23.60500
O  -9.60700 22.04000 22.41200
C  -11.02000 20.95800 23.87300
N  -5.68300 25.53700 23.85800
C  -6.32200 24.68200 22.96500
C  -5.74000 24.84800 21.53500
C  -4.67300 25.95500 21.66700
C  -4.70300 26.21500 23.21500
C  -5.30600 23.49600 20.89400
C  -5.08100 27.28100 20.95000
C  -4.37300 27.54000 19.57300
N  -4.56800 26.61600 26.23400
C  -3.67100 27.10200 25.32100
C  -2.53700 27.77700 26.00900
C  -2.85000 27.66000 27.31600
C  -4.03900 26.91500 27.44400
C  -1.38100 28.49100 25.37100
C  -2.38700 28.01200 28.64500
O  -1.34400 28.54500 28.97300
C  -3.48600 27.47100 29.70100
C  -2.87700 26.59100 30.71400
O  -2.30900 25.56400 30.40900
O  -3.05200 27.05000 32.01600
C  -2.54100 26.19000 33.10400
H  -8.68100 22.88000 28.63700
H  -7.88800 23.65100 22.29900
H  -2.89000 27.40200 23.40800
H  -5.12700 25.07300 31.04200
H  -7.79800 24.15300 30.83900
H  -5.91900 22.12000 29.56000
H  -6.81600 22.10600 31.03200
H  -5.23300 22.90000 30.98200
H  -7.77900 26.60400 30.77600
H  -6.34100 27.48700 31.30800
H  -8.20300 26.06500 33.05600
H  -6.69100 27.10300 33.38600
H  -9.97800 20.66400 26.92200
H  -11.33700 21.50200 26.41100
H  -10.53500 22.08300 27.92000
H  -11.30900 20.51600 22.92000
H  -11.90800 21.45000 24.26900
H  -10.71700 20.24800 24.64300
H  -6.63700 25.21700 21.03800
H  -3.72300 25.54300 21.32700
H  -5.20900 22.79700 21.72500
H  -4.31200 23.56900 20.45200
H  -6.05600 23.14000 20.18800
H  -4.71100 28.15300 21.49000
H  -6.16800 27.32100 20.88000
H  -4.95100 27.53200 18.65000
H  -3.64500 26.74200 19.42500
H  -3.78000 28.45400 19.60600
H  -1.69300 28.86200 24.39500
H  -0.49600 27.88000 25.19400
H  -1.05300 29.35500 25.94900
H  -3.85700 28.35700 30.21700
H  -1.49900 26.50900 33.12200
H  -2.77900 25.16900 32.80600
H  -3.02500 26.40500 34.05600

