158

Mg 26.39800 0.13400 29.04800
C  28.11800 0.08000 32.26800
C  23.51100 0.78800 30.76600
C  24.73800 -0.07400 26.23400
C  29.24200 -1.05800 27.59900
N  25.94300 0.30800 31.28900
C  26.78100 0.34700 32.42600
C  26.02000 0.82300 33.68100
C  24.48300 0.89400 33.15000
C  24.58400 0.64700 31.59100
C  23.54800 -0.11500 33.90100
C  26.57100 2.13500 34.21300
C  26.02100 2.64100 35.54900
H  27.09100 2.81100 36.69900
N  24.33300 0.36300 28.54600
C  23.35200 0.66900 29.42900
C  22.09400 0.66700 28.74900
C  22.35700 0.45400 27.35800
C  23.83800 0.20600 27.30900
C  20.73800 1.02100 29.33100
C  21.51100 0.48400 26.11400
O  21.94200 0.24500 25.01800
C  20.08000 0.75400 26.26000
N  26.95000 -0.49000 27.20400
C  26.11100 -0.36000 26.16600
C  26.79000 -0.61500 24.83100
C  28.20400 -1.05900 25.26800
C  28.10100 -0.95800 26.81200
C  26.11400 -1.64700 23.89600
C  29.34100 -0.21800 24.57300
C  29.72600 -0.58300 23.14500
N  28.28700 -0.41800 29.74700
C  29.32700 -0.82100 28.99100
C  30.51600 -0.97300 29.81800
C  30.11500 -0.63400 31.14800
C  28.71300 -0.33500 31.01700
C  31.83300 -1.54300 29.30200
C  30.51500 -0.46500 32.53400
O  31.58000 -0.57100 33.09200
C  29.19800 0.07700 33.24100
C  28.88500 -0.91200 34.32000
O  28.60300 -2.10800 34.12500
O  28.94100 -0.25400 35.54600
C  28.87400 -1.08500 36.70200
H  22.67600 1.03500 31.42500
H  24.29500 -0.10600 25.23700
H  30.18900 -1.38900 27.16600
H  26.10100 0.07900 34.47400
H  24.14900 1.91400 33.34000
H  23.10500 0.36700 34.77200
H  24.24400 -0.85900 34.28900
H  22.77000 -0.47700 33.22900
H  26.40800 2.94500 33.50300
H  27.65500 2.14200 34.33000
H  25.20300 2.02100 35.91600
H  25.61700 3.63500 35.35800
H  20.51600 2.06900 29.13100
H  20.97100 0.99200 30.39600
H  19.88300 0.42300 29.01800
H  19.57700 0.77600 25.29300
H  20.04500 1.78300 26.61800
H  19.59400 -0.01700 26.85900
H  26.77900 0.38900 24.40600
H  28.36400 -2.12100 25.08300
H  25.23000 -1.97000 24.44400
H  26.81100 -2.39700 23.52000
H  25.74900 -1.07700 23.04100
H  30.34600 -0.26800 24.99200
H  29.08100 0.84000 24.57700
H  30.78400 -0.84200 23.09200
H  29.57200 0.31100 22.54100
H  29.18400 -1.43600 22.73700
H  31.59200 -2.22100 28.48300
H  32.27900 -2.00600 30.18200
H  32.51900 -0.77400 28.94700
H  29.40500 1.09400 33.57500
H  29.87100 -1.26400 37.10400
H  28.32400 -2.01600 36.56700
H  28.34500 -0.56600 37.50100
Mg 6.06800 54.24500 40.58300
C  5.23700 50.88100 40.29000
C  9.43100 53.42800 39.93800
C  6.73900 57.45400 40.12000
C  2.69300 54.96500 40.87000
N  7.09200 52.43600 40.01800
C  6.56800 51.12900 39.89600
C  7.68900 50.14300 39.62200
C  9.05400 50.94500 39.78900
C  8.49400 52.35700 39.98100
C  10.01600 50.48500 40.92700
C  7.53500 49.26000 38.35200
C  7.54800 50.03200 36.93900
H  6.55500 49.57200 35.86500
N  7.89100 55.25600 40.24000
C  9.12000 54.77200 39.97000
C  10.02000 55.88700 39.83600
C  9.35600 57.12200 40.10600
C  7.93500 56.66800 40.18000
C  11.56300 55.44900 39.50700
C  9.97000 58.52600 40.19300
O  11.21000 58.67300 39.97200
C  9.15800 59.71600 40.53800
N  4.88600 55.89600 40.35100
C  5.41600 57.14800 40.22500
C  4.30400 58.23000 40.13300
C  3.06700 57.43300 40.46200
C  3.56200 56.00500 40.58900
C  4.49500 59.44000 41.08600
C  1.87800 57.74600 39.46200
C  0.52400 58.25600 40.07400
N  4.23100 53.18700 40.65100
C  2.91500 53.62600 40.84700
C  2.09700 52.48800 41.06700
C  2.99300 51.41500 40.85700
C  4.25300 51.83900 40.62300
C  0.59200 52.34900 41.35400
C  2.92600 49.94200 40.79200
O  1.99500 49.11400 40.86600
C  4.47100 49.53200 40.50700
C  4.36500 48.56200 39.40200
O  3.90100 48.67000 38.26500
O  4.73500 47.36300 39.97400
C  4.42500 46.11600 39.25700
H  10.42700 52.99000 39.84300
H  6.97500 58.51000 39.97300
H  1.68100 55.25800 41.15800
H  7.71800 49.45200 40.46500
H  9.53000 50.84100 38.81400
H  10.93400 50.04600 40.53700
H  9.65700 49.72400 41.62000
H  10.27800 51.41700 41.42900
H  6.78000 48.47600 38.40600
H  8.46600 48.69900 38.42100
H  8.55700 49.89900 36.55000
H  7.43800 51.10400 37.10600
H  12.08300 55.03800 40.37200
H  12.23800 56.20400 39.10300
H  11.47600 54.65500 38.76600
H  8.63000 60.10200 39.66600
H  9.87700 60.46500 40.86800
H  8.46900 59.48700 41.35100
H  4.40100 58.55400 39.09700
H  2.61700 57.75400 41.40100
H  5.12500 60.19600 40.61700
H  5.02900 59.06800 41.96000
H  3.55600 59.94400 41.31400
H  1.66900 56.85200 38.87300
H  2.15900 58.51600 38.74300
H  -0.23600 57.48600 39.93500
H  0.12800 59.18100 39.65500
H  0.63800 58.45300 41.14000
H  -0.10100 53.08500 40.94600
H  0.47400 52.31200 42.43700
H  0.32600 51.45200 40.79500
H  4.75800 49.00300 41.41500
H  4.65200 45.18600 39.77800
H  4.81700 46.24600 38.24800
H  3.34300 46.03100 39.15700

