158

Mg 40.72300 8.36900 29.49400
C  42.34500 9.74200 32.22800
C  38.59300 6.71300 31.67900
C  39.36900 6.90000 26.77900
C  43.24800 9.56300 27.50500
N  40.50100 8.31500 31.67600
C  41.30000 8.99600 32.62000
C  40.58300 8.99000 34.00400
C  39.49200 7.82700 33.77700
C  39.51900 7.60000 32.27100
C  39.63700 6.49800 34.50400
C  39.93900 10.28100 34.44900
C  39.47400 10.39600 35.96000
H  40.10300 11.59400 36.72800
N  39.29500 6.97000 29.28000
C  38.49200 6.43300 30.28100
C  37.52100 5.55000 29.69900
C  37.53600 5.76100 28.32300
C  38.75000 6.62700 28.05800
C  36.78000 4.53600 30.51200
C  36.66500 5.03900 27.35400
O  37.03900 4.92300 26.22200
C  35.40000 4.40500 27.66100
N  41.18900 8.24400 27.35100
C  40.47300 7.65000 26.44000
C  41.01700 7.87700 24.99100
C  42.30200 8.68700 25.28100
C  42.27900 8.84800 26.81200
C  41.27600 6.51400 24.44600
C  42.36100 10.07400 24.59800
C  41.44900 10.32300 23.38900
N  42.49600 9.44300 29.75600
C  43.46800 9.75500 28.87500
C  44.46500 10.59800 29.55500
C  44.06500 10.69200 30.85300
C  42.89700 9.88200 30.93200
C  45.67500 11.18600 28.89800
C  44.38800 11.21700 32.17600
O  45.32000 11.90900 32.53400
C  43.21200 10.72800 33.10200
C  43.85500 10.10300 34.25000
O  44.86300 9.42700 34.34000
O  43.03100 10.38800 35.37700
C  43.37200 9.62700 36.63000
H  37.86400 6.19900 32.30900
H  38.78700 6.56800 25.91700
H  44.07200 9.89300 26.86700
H  41.23300 8.78500 34.85400
H  38.50900 8.15000 34.12000
H  39.09000 6.61200 35.43900
H  40.67300 6.42700 34.83600
H  39.42100 5.60800 33.91200
H  39.06400 10.56500 33.86500
H  40.75400 11.00400 34.42200
H  39.72300 9.42300 36.38400
H  38.39900 10.50000 35.81700
H  35.74000 4.80700 30.69200
H  37.16100 4.33800 31.51400
H  36.91800 3.60000 29.97200
H  35.61400 3.43600 28.11100
H  34.84700 4.28100 26.73100
H  34.85500 5.05000 28.35000
H  40.23500 8.42000 24.45900
H  43.25500 8.21100 25.05100
H  42.18900 6.49100 23.85200
H  40.48800 6.22200 23.75100
H  41.45700 5.78400 25.23400
H  43.37400 10.41600 24.38500
H  42.01800 10.83100 25.30400
H  41.29000 9.43800 22.77200
H  41.90400 11.04600 22.71200
H  40.50300 10.76400 23.70400
H  45.72600 12.16300 29.37900
H  45.59600 11.27900 27.81500
H  46.48300 10.60100 29.33800
H  42.56800 11.55700 33.39600
H  43.06600 8.58800 36.51000
H  42.80700 10.05000 37.46100
H  44.44700 9.72100 36.78200
Mg 46.92700 46.65800 43.78600
C  43.61300 46.76900 42.75300
C  47.41400 43.67700 42.01600
C  50.13500 46.88800 44.19200
C  46.42300 49.83300 45.14800
N  45.65100 45.60000 42.32200
C  44.33600 45.74500 42.16500
C  43.83600 44.57600 41.22000
C  44.93500 43.50600 41.28400
C  46.09000 44.30100 41.96900
C  44.73800 42.16200 42.13600
C  43.53600 45.11100 39.80000
C  42.26200 44.59500 39.14100
H  42.51600 43.25800 38.32300
N  48.55700 45.32100 43.28600
C  48.61300 44.21900 42.52800
C  49.93200 43.60200 42.60000
C  50.77000 44.57000 43.24200
C  49.84400 45.66600 43.55200
C  50.24600 42.22100 41.92700
C  52.23300 44.33100 43.48000
O  52.79600 43.24700 43.30700
C  53.15400 45.42900 44.11900
N  48.04500 48.12800 44.67600
C  49.42900 48.01600 44.63800
C  50.07400 49.29100 45.16500
C  48.86700 50.24900 45.48200
C  47.68600 49.37100 45.08500
C  51.22800 49.16100 46.18600
C  48.97000 51.58700 44.74800
C  49.36000 52.81700 45.55700
N  45.35000 48.11200 43.92200
C  45.24500 49.25100 44.60100
C  43.89700 49.76700 44.68100
C  43.24000 48.78100 44.02000
C  44.14100 47.83300 43.53600
C  43.41700 50.96700 45.35800
C  41.91700 48.35500 43.61200
O  40.82000 48.86600 43.77000
C  42.16900 47.00200 42.78900
C  41.48000 45.92600 43.55200
O  40.69200 45.06400 43.13000
O  41.89300 45.99100 44.82300
C  41.73300 44.78600 45.71500
H  47.45000 42.64900 41.65000
H  51.21200 47.06300 44.23700
H  46.32600 50.81300 45.62100
H  42.90200 44.13700 41.57100
H  45.37600 43.30000 40.30800
H  43.71000 41.80900 42.05600
H  44.90500 42.48200 43.16500
H  45.41600 41.38600 41.78100
H  44.37800 44.76100 39.20400
H  43.49200 46.19400 39.91700
H  41.96500 45.34500 38.40700
H  41.46900 44.34500 39.84500
H  51.23800 42.20100 41.47600
H  49.52500 42.05000 41.12800
H  50.17700 41.38400 42.62300
H  53.40300 46.16400 43.35300
H  54.10600 44.96700 44.38300
H  52.65500 45.83900 44.99600
H  50.59900 49.68400 44.29400
H  48.87300 50.40400 46.56100
H  51.09100 49.89900 46.97600
H  52.14400 49.49000 45.69400
H  51.13800 48.17100 46.63200
H  48.02400 51.75900 44.23500
H  49.72700 51.43100 43.97800
H  50.39200 53.10600 45.35800
H  49.04400 52.84300 46.59900
H  48.83000 53.67900 45.15100
H  44.15700 51.53700 45.92000
H  42.77800 50.57200 46.14800
H  42.80500 51.49500 44.62700
H  41.69700 47.07200 41.80900
H  42.04400 45.00200 46.73800
H  42.31600 43.91300 45.41900
H  40.65700 44.66200 45.83300

