158

Mg 30.56300 58.41400 38.88600
C  27.39100 56.83800 37.97000
C  32.02900 55.52700 37.70600
C  33.37500 59.99500 39.10800
C  28.66300 61.27000 39.61000
N  29.72100 56.50300 37.67300
C  28.44800 56.08300 37.53600
C  28.44300 54.83900 36.71100
C  29.83200 54.20100 37.11400
C  30.59800 55.49200 37.49100
C  29.64400 53.09400 38.24400
C  28.26700 55.01000 35.19600
C  27.00400 54.41900 34.56700
H  26.34000 55.34500 33.57200
N  32.51800 57.86500 38.41500
C  32.93000 56.61800 38.09000
C  34.35800 56.57700 38.15900
C  34.80200 57.84800 38.58900
C  33.59600 58.62400 38.82100
C  35.12600 55.29600 37.83500
C  36.27700 58.29500 38.53100
O  37.07700 57.54800 38.05200
C  36.70400 59.62100 38.93900
N  30.99700 60.42600 39.27800
C  32.26400 60.87100 39.19500
C  32.30000 62.46400 39.25500
C  30.76500 62.75100 39.60600
C  30.08000 61.44400 39.51600
C  33.29500 63.20900 40.17100
C  30.12500 63.96600 38.86000
C  29.33200 64.96600 39.67400
N  28.48600 58.93100 38.93000
C  27.88900 60.10200 39.36700
C  26.45500 59.99000 39.35600
C  26.26400 58.66700 38.90400
C  27.49800 58.11100 38.60600
C  25.51000 61.02900 39.61900
C  25.19500 57.81600 38.62500
O  23.97200 57.88600 38.70900
C  25.92200 56.54000 38.04100
C  25.64100 55.38100 38.91400
O  26.08900 55.13500 40.01900
O  24.59000 54.62100 38.28300
C  24.03600 53.50600 39.03500
H  32.51500 54.57500 37.48000
H  34.30400 60.56300 39.19200
H  28.06700 62.18400 39.58500
H  27.66600 54.22900 37.17100
H  30.32700 53.78200 36.23800
H  30.44000 53.24600 38.97300
H  29.75700 52.07600 37.87100
H  28.67800 53.16300 38.74400
H  29.12500 54.58300 34.67700
H  28.36400 56.08400 35.03700
H  26.30900 54.22400 35.38300
H  27.35100 53.50500 34.08500
H  35.46600 54.74800 38.71300
H  36.01300 55.42600 37.21500
H  34.51700 54.68800 37.16600
H  37.77300 59.61200 39.15300
H  36.26100 59.94900 39.88000
H  36.56100 60.41300 38.20500
H  32.47700 62.74900 38.21800
H  30.67900 62.92300 40.67900
H  33.81200 63.94100 39.55000
H  33.94600 62.42600 40.55900
H  32.94000 63.83400 40.99100
H  29.43100 63.56400 38.12200
H  30.93400 64.54600 38.41600
H  28.44100 65.10800 39.06300
H  29.83900 65.92900 39.63200
H  29.03400 64.68900 40.68600
H  24.56400 60.57800 39.91500
H  25.49600 61.62500 38.70600
H  25.85000 61.66800 40.43400
H  25.56700 56.28900 37.04200
H  23.40800 52.84600 38.43600
H  23.64000 53.77600 40.01300
H  24.88500 52.83900 39.18500
Mg 35.20300 48.87500 24.93200
C  35.29100 47.35300 28.06500
C  33.84000 51.64100 26.45300
C  35.09600 50.32100 21.84100
C  36.21300 45.92300 23.48400
N  34.70900 49.43600 27.06500
C  34.81300 48.67600 28.13600
C  34.38000 49.37600 29.38600
C  34.01100 50.80600 28.87000
C  34.19600 50.61900 27.36200
C  32.65500 51.28600 29.28600
C  35.48700 49.47300 30.50500
C  34.97900 48.86900 31.90800
H  34.71200 49.90200 33.01600
N  34.52100 50.77100 24.25300
C  33.96900 51.72800 25.06700
C  33.75700 52.84500 24.18600
C  34.11900 52.56100 22.83400
C  34.57800 51.18600 22.92600
C  33.08300 54.12000 24.70700
C  33.87600 53.33200 21.53400
O  34.14900 52.90600 20.41400
C  33.22800 54.67800 21.59700
N  35.60000 48.15500 22.92700
C  35.53400 48.98800 21.82800
C  36.00900 48.22600 20.50300
C  36.57600 46.95500 21.12000
C  36.05600 46.96500 22.61600
C  35.05200 47.93600 19.47600
C  38.13600 46.78000 21.05300
C  38.61700 45.33500 20.86700
N  35.55700 47.00900 25.60200
C  35.89900 45.86500 24.82900
C  36.27500 44.84800 25.83100
C  35.98200 45.39500 27.07300
C  35.52000 46.71700 26.87700
C  36.80400 43.43300 25.65300
C  36.03500 45.05600 28.44700
O  36.40300 44.07500 29.08900
C  35.51300 46.29500 29.12300
C  34.22900 45.90400 29.84200
O  33.22400 45.53500 29.22400
O  34.31700 45.82600 31.19400
C  33.16700 45.34300 32.00200
H  33.65800 52.58300 26.97400
H  35.17000 50.68000 20.81200
H  36.78600 45.05500 23.15000
H  33.43200 49.03000 29.79900
H  34.68700 51.62800 29.10300
H  31.87800 51.08400 28.54900
H  32.63500 52.36100 29.46700
H  32.31800 50.76800 30.18400
H  35.68100 50.53800 30.63400
H  36.44400 49.03700 30.22100
H  35.68900 48.09400 32.19700
H  34.08800 48.26000 31.75300
H  32.26700 54.47000 24.07500
H  33.78800 54.95100 24.74600
H  32.66300 54.06800 25.71100
H  33.90400 55.28800 22.19700
H  32.18800 54.48500 21.85900
H  33.22600 54.96300 20.54500
H  36.86400 48.73800 20.06200
H  35.99800 46.12700 20.71100
H  35.25100 48.69900 18.72300
H  34.01300 48.00900 19.79700
H  35.27700 47.02200 18.92700
H  38.58200 47.10600 21.99300
H  38.55200 47.40400 20.26100
H  37.88700 44.64400 20.44400
H  38.83600 44.92900 21.85400
H  39.49500 45.25800 20.22600
H  37.55300 43.23200 26.41800
H  37.12700 43.33300 24.61700
H  35.93000 42.84400 25.93000
H  36.28700 46.52100 29.85700
H  33.27100 44.31100 32.33500
H  32.20600 45.45000 31.50000
H  33.18400 45.92800 32.92200

