158

Mg 7.18800 2.72800 27.65500
C  8.75100 1.40400 30.50800
C  5.05000 4.52400 29.69900
C  5.45600 3.78300 24.89900
C  8.92400 0.39900 25.67900
N  6.87200 2.84000 29.84700
C  7.71000 2.29800 30.85100
C  7.29000 2.77500 32.28600
C  6.05700 3.67700 31.92600
C  5.99900 3.70000 30.33800
C  4.69100 3.41200 32.59200
C  8.50800 3.37700 33.09000
C  8.22300 4.39300 34.21900
H  8.94300 4.04600 35.54300
N  5.58200 4.15300 27.31800
C  4.92200 4.79600 28.30700
C  3.98200 5.71300 27.68500
C  4.13900 5.54700 26.25900
C  5.11900 4.51000 26.06400
C  3.10900 6.65900 28.47800
C  3.55800 6.33600 25.17900
O  3.84400 6.07100 24.05500
C  2.46800 7.49800 25.44600
N  7.00200 2.01000 25.62700
C  6.24700 2.57000 24.73700
C  6.42300 2.02800 23.30400
C  7.74300 1.15100 23.55300
C  7.89400 1.16900 25.04300
C  5.22500 1.15900 22.69800
C  9.00100 1.78100 22.89400
C  9.81900 2.74900 23.72900
N  8.56300 1.20400 27.96500
C  9.22000 0.38700 27.06900
C  10.10400 -0.46800 27.75800
C  10.01000 -0.04500 29.13600
C  9.04100 0.92200 29.15600
C  11.01900 -1.50400 27.10700
C  10.62200 -0.19300 30.42800
O  11.58300 -0.88200 30.79300
C  9.72200 0.66700 31.45400
C  9.11000 -0.46700 32.27500
O  8.14000 -1.10100 31.93300
O  9.81000 -0.51000 33.43000
C  9.26500 -1.38600 34.44100
H  4.47800 5.06600 30.45400
H  5.11900 4.22900 23.96000
H  9.65900 -0.14500 25.08300
H  6.98700 1.90500 32.86700
H  6.33400 4.67000 32.28000
H  4.21100 4.34900 32.87300
H  4.74600 2.72400 33.43600
H  3.91500 3.07700 31.90500
H  9.25000 3.83400 32.43600
H  9.02600 2.59700 33.64900
H  7.14100 4.38900 34.35000
H  8.39300 5.41700 33.88700
H  3.38800 7.71300 28.46100
H  3.07400 6.41100 29.53900
H  2.08200 6.55800 28.12700
H  1.51000 7.04300 25.69900
H  2.38300 7.99700 24.48100
H  2.84000 8.23300 26.15900
H  6.61000 2.87200 22.63900
H  7.54000 0.11800 23.27300
H  4.30600 1.44700 23.20900
H  5.32400 0.07900 22.80600
H  5.19800 1.27900 21.61500
H  8.54500 2.38500 22.11000
H  9.55200 0.95400 22.44500
H  9.24800 3.07700 24.59800
H  9.91000 3.70500 23.21400
H  10.86100 2.45300 23.84900
H  10.70200 -1.79300 26.10400
H  10.90300 -2.41400 27.69500
H  12.07800 -1.24700 27.13800
H  10.35600 1.36100 32.00500
H  8.94700 -2.34900 34.04100
H  8.42400 -0.96200 34.98900
H  10.13300 -1.58200 35.07000
Mg 49.69600 47.09400 43.49100
C  46.45600 47.60200 42.30700
C  49.78400 44.07200 41.78000
C  52.99300 46.80500 44.09100
C  49.82500 50.49000 44.13800
N  48.26900 45.96600 42.29100
C  47.03500 46.36200 41.87600
C  46.35300 45.25600 41.04800
C  47.29200 44.05100 41.27300
C  48.57600 44.71900 41.71600
C  46.97500 42.86900 42.20300
C  45.96100 45.59200 39.54000
C  44.46500 45.25800 39.09800
H  44.21200 44.69100 37.65300
N  51.15600 45.53200 43.26400
C  50.98200 44.38500 42.53700
C  52.17900 43.64700 42.51100
C  53.21400 44.35900 43.22700
C  52.51500 45.60600 43.67500
C  52.31800 42.35200 41.77800
C  54.58500 43.91700 43.39300
O  54.93400 42.81700 42.97100
C  55.66600 44.69300 44.08900
N  51.17800 48.42700 44.18600
C  52.47700 48.09400 44.36800
C  53.36600 49.25900 44.74800
C  52.44400 50.48600 44.47200
C  51.05400 49.77200 44.27800
C  53.95500 49.29900 46.20000
C  53.00000 51.38200 43.35900
C  53.27100 52.87500 43.73300
N  48.38100 48.74900 43.39300
C  48.54200 50.00800 43.82400
C  47.34200 50.67300 43.78900
C  46.35900 49.76100 43.40400
C  47.15000 48.61700 43.01900
C  47.07200 52.09000 44.18900
C  44.96800 49.63300 43.01600
O  43.99400 50.37400 43.06200
C  45.02100 48.15700 42.24400
C  44.02100 47.33500 42.96100
O  44.06800 46.91300 44.14100
O  42.98700 47.00800 42.12100
C  42.03600 46.00900 42.59400
H  49.73800 43.13200 41.22600
H  54.06700 46.63600 44.19100
H  49.82700 51.54600 44.41300
H  45.40700 45.05600 41.55100
H  47.44300 43.55100 40.31700
H  46.50900 42.12600 41.55600
H  46.33100 43.04400 43.06500
H  47.82700 42.35000 42.64200
H  46.74100 45.05000 39.00500
H  46.05500 46.66800 39.38800
H  44.01800 46.25100 39.11400
H  44.07000 44.54000 39.81800
H  52.94900 42.32300 40.88900
H  51.37200 41.87500 41.52400
H  52.86400 41.70500 42.46500
H  56.53500 44.05200 44.23900
H  55.19000 44.90800 45.04600
H  55.91500 45.62600 43.58300
H  54.11900 49.21400 43.96200
H  52.27600 51.14800 45.32100
H  55.02400 49.47800 46.08600
H  53.75800 48.29800 46.58400
H  53.41200 49.97800 46.85800
H  52.28300 51.33100 42.53900
H  53.96900 51.04400 42.99000
H  54.31400 53.01400 44.01700
H  52.55900 53.13500 44.51600
H  53.06800 53.52800 42.88500
H  47.83200 52.64300 43.63600
H  47.03700 52.30000 45.25800
H  46.17800 52.42300 43.66200
H  44.65200 48.05100 41.22300
H  41.34300 46.07300 41.75500
H  41.51000 46.33300 43.49300
H  42.45600 45.00400 42.55800

