158

Mg 8.51200 3.39900 28.31200
C  10.13500 1.75700 31.00800
C  6.57000 4.99400 30.34500
C  6.96700 4.37400 25.45200
C  9.99400 0.68800 26.16700
N  8.35700 3.34500 30.48800
C  9.20200 2.71100 31.39800
C  8.91200 3.32300 32.73400
C  7.55500 4.16600 32.58500
C  7.51200 4.21200 31.05400
C  6.27800 3.39300 33.15300
C  10.23700 4.14700 33.31300
C  10.89500 3.62300 34.58500
H  10.96900 4.61800 35.81100
N  7.13600 4.67300 27.93600
C  6.31300 5.16400 28.95600
C  5.31900 6.07400 28.34300
C  5.47300 5.97800 26.91900
C  6.57000 4.97600 26.74600
C  4.41500 6.98500 29.16700
C  4.75200 6.68000 25.83500
O  4.80000 6.48200 24.61900
C  3.75600 7.69800 26.18400
N  8.56800 2.66500 26.04900
C  7.86900 3.32700 25.10800
C  8.11900 2.73100 23.73500
C  8.97100 1.43700 23.97300
C  9.20800 1.60800 25.50500
C  6.80700 2.43600 22.90900
C  10.27600 1.33200 23.14800
C  10.31200 0.06700 22.24800
N  9.73300 1.68300 28.49200
C  10.26900 0.73600 27.55900
C  11.28400 -0.07900 28.22400
C  11.26200 0.34400 29.57100
C  10.34300 1.36000 29.66000
C  12.12600 -1.11400 27.62600
C  11.82300 0.09400 30.84500
O  12.61700 -0.72700 31.22500
C  11.25000 1.21400 31.81100
C  10.97100 0.39300 32.99900
O  10.05300 -0.39800 33.12200
O  11.91400 0.54500 33.96500
C  11.65000 -0.15000 35.29000
H  6.01400 5.49100 31.14200
H  6.26000 4.70400 24.68800
H  10.44100 -0.19400 25.70200
H  8.72000 2.53700 33.46400
H  7.68600 5.09700 33.13700
H  5.67700 4.03700 33.79500
H  6.49200 2.48700 33.71900
H  5.61100 3.09200 32.34500
H  9.88200 5.14600 33.56400
H  11.01900 4.30900 32.57200
H  11.86900 3.37700 34.16300
H  10.45400 2.68200 34.91400
H  4.58600 8.00200 28.81100
H  4.79500 7.06800 30.18500
H  3.39300 6.62900 29.03600
H  2.88900 7.28000 26.69600
H  3.34600 8.25000 25.33900
H  4.24600 8.50600 26.72800
H  8.54600 3.50100 23.09200
H  8.35300 0.54200 23.89700
H  5.95600 2.86100 23.44000
H  6.59500 1.37200 22.79900
H  6.85900 2.88400 21.91700
H  11.14900 1.33600 23.80100
H  10.48800 2.19500 22.51800
H  10.60600 0.54900 21.31600
H  9.41400 -0.53100 22.08900
H  11.14100 -0.54200 22.60700
H  11.45500 -1.92300 27.33600
H  13.02700 -1.34400 28.19400
H  12.61900 -0.75300 26.72400
H  12.05000 1.94900 31.90100
H  11.41900 0.54500 36.09700
H  12.60600 -0.61400 35.53100
H  10.89400 -0.92600 35.16600
Mg 45.35900 5.51300 48.42700
C  43.03500 8.18000 47.44200
C  42.75900 3.33300 48.13300
C  47.63400 3.08500 48.58600
C  47.80400 7.97700 48.35200
N  43.21900 5.64700 47.69400
C  42.49100 6.86500 47.43300
C  41.05700 6.47300 47.08800
C  40.86700 5.11800 47.72400
C  42.33000 4.68000 48.04600
C  39.90500 4.95700 48.96200
C  40.79400 6.58100 45.51400
C  39.69900 7.57200 45.19000
H  38.77100 7.19000 43.98500
N  45.23700 3.54000 48.34300
C  44.06000 2.72300 48.29000
C  44.37500 1.31900 48.44500
C  45.81000 1.27000 48.60700
C  46.30800 2.65300 48.58900
C  43.34100 0.29300 48.26900
C  46.57100 0.02200 48.79400
O  45.95000 -1.02100 48.92800
C  48.04800 -0.05400 48.87300
N  47.43000 5.56200 48.31200
C  48.20000 4.40800 48.40700
C  49.73400 4.84800 48.56500
C  49.70300 6.42800 48.52000
C  48.24100 6.67400 48.43400
C  50.53300 4.20900 49.75300
C  50.52900 7.12300 47.39100
C  52.00500 7.39500 47.66000
N  45.35700 7.68100 48.15500
C  46.49900 8.51600 48.16600
C  46.22600 9.90700 47.77700
C  44.82400 9.84100 47.55500
C  44.37100 8.47400 47.75200
C  47.17100 11.08000 47.70500
C  43.63000 10.50900 47.22000
O  43.53900 11.67800 46.95200
C  42.39000 9.52700 47.16000
C  41.44400 9.89000 48.21500
O  41.63800 9.79500 49.44600
O  40.27700 10.27200 47.64400
C  39.21900 10.63400 48.59500
H  41.89600 2.66600 48.17500
H  48.40300 2.32000 48.70500
H  48.52200 8.79600 48.26600
H  40.53400 7.20900 47.69800
H  40.48900 4.63000 46.82600
H  39.58100 5.92100 49.35500
H  40.46500 4.41000 49.72100
H  38.97100 4.52900 48.59900
H  40.58300 5.69000 44.92300
H  41.67200 6.99600 45.02000
H  40.18900 8.50000 44.89800
H  39.08300 7.71200 46.07800
H  42.42200 0.57800 47.75800
H  43.08800 -0.13400 49.24000
H  43.76400 -0.52600 47.68700
H  48.27000 -1.10700 49.05000
H  48.27100 0.53400 49.76200
H  48.49900 0.20000 47.91300
H  50.23800 4.47100 47.67500
H  49.97100 6.84700 49.48900
H  50.94200 5.10100 50.22700
H  51.34500 3.60400 49.34900
H  50.07500 3.47600 50.41700
H  50.00100 8.00800 47.03500
H  50.52600 6.43900 46.54300
H  52.66200 6.83300 46.99600
H  52.33900 7.15400 48.66900
H  52.20200 8.46300 47.57200
H  46.77700 11.99900 47.27100
H  48.09000 10.89200 47.15100
H  47.35800 11.25800 48.76400
H  41.95400 9.51400 46.16100
H  38.65100 11.49700 48.24700
H  39.43800 10.70000 49.66100
H  38.45400 9.86200 48.50800

