158

Mg 51.23300 45.28000 42.77100
C  47.93300 45.89800 42.14200
C  50.68700 41.90900 42.01700
C  54.68200 44.84100 42.37100
C  51.87700 48.73400 42.88000
N  49.52800 44.03900 42.12400
C  48.27600 44.53300 41.97700
C  47.28900 43.38400 41.59700
C  48.10800 42.03700 41.85800
C  49.51100 42.68600 42.01700
C  47.65100 41.06000 42.97000
C  46.76900 43.47800 40.13600
C  47.61800 43.95000 38.98100
H  47.60100 43.04400 37.72600
N  52.50300 43.53800 42.40800
C  52.03700 42.25900 42.13500
C  53.24800 41.45000 42.03200
C  54.35500 42.27400 42.29400
C  53.89300 43.63000 42.33700
C  53.16600 40.00300 41.60800
C  55.87600 41.80500 42.52600
O  56.14800 40.60800 42.20200
C  56.94900 42.66300 43.13100
N  52.96000 46.57000 42.71100
C  54.22000 46.11000 42.47600
C  55.13800 47.25200 42.08000
C  54.36500 48.55000 42.61500
C  52.94600 47.89800 42.69100
C  56.63500 47.27000 42.66900
C  54.50200 49.84000 41.71300
C  54.89100 51.11100 42.45600
N  50.16500 46.96200 42.71200
C  50.51400 48.25300 42.82600
C  49.25100 49.06700 42.82900
C  48.23800 48.15700 42.62800
C  48.84500 46.92100 42.41300
C  49.07400 50.44800 43.14400
C  46.78900 48.06000 42.46400
O  45.92100 48.91900 42.56100
C  46.52400 46.57900 42.01000
C  45.48800 46.03000 43.03600
O  44.30200 46.08400 42.87700
O  46.03400 45.42200 44.05000
C  45.19900 45.15400 45.22100
H  50.59200 40.85500 41.74700
H  55.71500 44.56800 42.14500
H  51.98100 49.81800 42.96900
H  46.42700 43.49600 42.25400
H  48.18600 41.34900 41.01600
H  47.17300 40.15700 42.59000
H  47.04500 41.52500 43.74700
H  48.52200 40.75800 43.55300
H  45.88800 44.11800 40.18300
H  46.48900 42.44700 39.92000
H  48.61100 44.07500 39.41300
H  47.12400 44.86600 38.65600
H  53.03200 39.42400 42.52200
H  53.95900 39.59200 40.98300
H  52.34100 39.70400 40.96200
H  57.25700 43.23700 42.25700
H  57.85900 42.13200 43.41200
H  56.65000 43.38200 43.89500
H  55.23900 47.35000 40.99900
H  54.51600 48.78200 43.66900
H  57.33800 47.22400 41.83700
H  56.88300 46.41600 43.30000
H  56.81400 48.13700 43.30400
H  53.56900 49.96100 41.16300
H  55.25700 49.62300 40.95700
H  54.25100 51.95000 42.18400
H  55.86100 51.43200 42.07500
H  55.14300 50.97200 43.50700
H  48.31500 50.87700 42.49000
H  50.02600 50.97500 43.08500
H  48.74400 50.51500 44.18000
H  46.05900 46.59100 41.02400
H  45.24000 45.90400 46.01100
H  45.50300 44.20700 45.66800
H  44.13100 45.19500 45.00700
Mg 43.29900 42.81900 26.00900
C  42.42800 45.41500 28.19600
C  44.63900 41.05600 28.48400
C  44.17000 40.59400 23.65100
C  42.57000 45.16700 23.42600
N  43.44300 43.16500 28.12500
C  42.90600 44.20300 28.88700
C  43.01500 43.95600 30.40800
C  44.01800 42.70100 30.39800
C  44.08100 42.25900 28.90100
C  45.38900 42.87300 31.20600
C  41.53100 43.80000 30.90500
C  41.19100 44.16400 32.31800
H  42.28200 43.93700 33.35300
N  44.35800 41.08400 26.03800
C  44.75600 40.43300 27.22600
C  45.40600 39.20000 26.89500
C  45.12600 38.94500 25.45600
C  44.52700 40.21400 24.94500
C  45.89200 38.39700 28.04800
C  45.47400 37.79800 24.54000
O  45.14400 37.81800 23.36000
C  46.23300 36.69200 25.13800
N  43.49400 42.94900 23.83100
C  43.86300 41.86600 23.12600
C  43.56100 41.97800 21.68600
C  42.77100 43.32300 21.66600
C  42.87700 43.88100 23.06600
C  44.92400 42.04900 20.90900
C  41.31600 43.19100 21.02600
C  40.40200 42.05500 21.52700
N  42.67200 44.86200 25.81300
C  42.46800 45.65400 24.72000
C  42.09800 47.01000 25.12900
C  42.06100 46.96500 26.52500
C  42.41400 45.64200 26.83400
C  41.79700 48.13000 24.18100
C  41.85100 47.72400 27.70700
O  41.54100 48.87900 27.86000
C  42.14100 46.74400 28.89900
C  43.20500 47.18700 29.84400
O  44.41000 47.19600 29.68000
O  42.57900 47.46400 31.00800
C  43.37000 48.01900 32.08500
H  45.14200 40.50700 29.28300
H  44.10400 39.80300 22.90100
H  42.20700 45.80600 22.61900
H  43.59900 44.73000 30.90600
H  43.43200 42.02400 31.01900
H  45.64300 43.87300 31.55700
H  46.10200 42.46800 30.48800
H  45.47100 42.20800 32.06600
H  41.02600 42.86900 30.64800
H  40.84800 44.43700 30.34300
H  40.37800 43.51900 32.65300
H  40.84500 45.19300 32.42100
H  46.52700 38.97100 28.72400
H  46.50500 37.55400 27.72800
H  45.03000 37.92300 28.51600
H  45.60600 36.27900 25.92800
H  47.11900 37.18600 25.53700
H  46.59500 35.89600 24.48700
H  42.93600 41.16500 21.31700
H  43.23800 44.07500 21.03000
H  45.76000 42.01700 21.60700
H  45.02200 42.88900 20.22100
H  45.10700 41.06300 20.48100
H  41.46000 43.29600 19.95100
H  40.85600 44.09200 21.43000
H  39.41900 42.46800 21.75100
H  40.77900 41.54600 22.41400
H  40.23400 41.21600 20.85200
H  42.73800 48.15000 23.63200
H  41.58000 49.01400 24.78200
H  40.95800 47.89000 23.52700
H  41.19300 46.57000 29.40800
H  44.15300 48.71200 31.77600
H  43.75000 47.41300 32.90800
H  42.68100 48.73000 32.54200

