158

Mg 53.25700 23.51700 43.55400
C  50.64200 25.56600 42.94400
C  51.53000 20.95300 42.19400
C  56.15100 21.75900 43.50600
C  55.12000 26.33500 44.36500
N  51.34700 23.40100 42.39100
C  50.36900 24.34700 42.48900
C  49.13100 23.85500 41.68600
C  49.32200 22.24100 41.74600
C  50.85400 22.18300 42.07100
C  48.39600 21.40900 42.69500
C  48.93300 24.47800 40.21200
C  50.17300 24.70000 39.39900
H  50.12500 25.38600 37.97200
N  53.80300 21.53900 43.10900
C  52.87100 20.61800 42.64800
C  53.44800 19.36500 42.80500
C  54.80700 19.47700 43.30700
C  55.04100 20.92500 43.31400
C  52.73200 18.11700 42.33500
C  55.72500 18.39800 43.65600
O  55.25600 17.24000 43.52700
C  57.15100 18.69000 44.23500
N  55.35300 24.05200 43.57100
C  56.36600 23.13300 43.67700
C  57.70100 23.77600 44.09700
C  57.41800 25.28700 44.04400
C  55.85000 25.22500 43.93400
C  58.14400 23.31400 45.53200
C  57.98600 26.09400 42.88100
C  59.13000 27.19300 43.20100
N  52.93100 25.55400 43.82300
C  53.72400 26.56600 44.27800
C  52.91800 27.74800 44.50700
C  51.65200 27.37200 44.07000
C  51.74900 26.06000 43.57700
C  53.36800 29.02100 45.21500
C  50.28300 27.81300 43.84900
O  49.71600 28.86600 44.08800
C  49.58400 26.67200 43.16200
C  49.22000 27.38300 41.94100
O  50.02500 27.83500 41.12500
O  47.90700 27.59200 41.96400
C  47.26700 28.37900 40.89900
H  50.86000 20.14600 41.89100
H  57.08600 21.19900 43.56900
H  55.77400 27.17800 44.60000
H  48.30400 24.21300 42.29900
H  49.17300 21.81200 40.75500
H  48.00000 22.04300 43.48800
H  48.88300 20.68300 43.34600
H  47.56200 21.00700 42.12100
H  48.25500 25.32400 40.10300
H  48.48200 23.68900 39.61000
H  50.75400 23.79000 39.25000
H  50.84900 25.32200 39.98600
H  52.83100 18.13100 41.24900
H  51.71200 18.22200 42.70300
H  53.21300 17.18900 42.64600
H  57.50800 17.76700 44.69200
H  57.06500 19.43500 45.02600
H  57.76200 19.10600 43.43500
H  58.52100 23.43200 43.46600
H  57.79400 25.67800 44.98900
H  59.11600 22.84200 45.38800
H  57.53100 22.63600 46.12500
H  58.29900 24.10200 46.26900
H  57.23500 26.51600 42.21300
H  58.69300 25.47600 42.32700
H  58.86900 27.82500 44.05000
H  59.12000 27.73400 42.25500
H  60.04600 26.64800 43.43200
H  53.44800 29.82300 44.48200
H  54.28500 28.85500 45.78100
H  52.57100 29.31000 45.89900
H  48.74700 26.31300 43.76200
H  46.18100 28.34700 40.99200
H  47.50100 28.02700 39.89400
H  47.55600 29.42200 41.03000
Mg 49.21500 44.80100 43.06800
C  45.86300 45.41000 42.02000
C  48.92800 41.62100 41.79400
C  52.50600 44.66900 43.04000
C  49.43000 48.37500 43.69000
N  47.52900 43.62100 42.10300
C  46.30100 44.08800 41.75300
C  45.55100 43.03500 40.95300
C  46.32100 41.76900 41.29500
C  47.68800 42.35300 41.74200
C  45.66100 40.83100 42.30200
C  45.56800 43.38800 39.46200
C  44.39400 42.76000 38.59700
H  44.77200 41.91900 37.32900
N  50.53200 43.32100 42.65100
C  50.21300 42.06400 42.14700
C  51.35800 41.23800 42.24100
C  52.45500 42.09400 42.51800
C  51.87000 43.44600 42.75900
C  51.34500 39.70700 41.91100
C  53.86900 41.67400 42.81100
O  54.15700 40.45800 42.76400
C  55.03000 42.63100 43.12800
N  50.79100 46.36600 43.20900
C  52.08800 45.95600 43.33700
C  52.95100 47.14100 43.84600
C  52.00200 48.38600 44.09000
C  50.63500 47.67200 43.67900
C  53.87700 46.83300 45.03600
C  52.39100 49.66500 43.21700
C  52.63100 50.95000 43.97700
N  47.89600 46.53600 42.95500
C  48.15500 47.84100 43.30500
C  46.93000 48.59500 43.23500
C  46.03300 47.68700 42.73100
C  46.60700 46.43100 42.62400
C  46.77400 50.08400 43.43500
C  44.68100 47.65700 42.20600
O  43.84600 48.55100 41.94500
C  44.51100 46.03600 41.80100
C  43.31200 45.38900 42.36400
O  42.69300 44.38900 41.88400
O  42.92600 46.08500 43.46900
C  41.60200 45.82500 43.98200
H  48.70500 40.60600 41.46000
H  53.59700 44.63000 43.07300
H  49.48000 49.42200 43.99500
H  44.54300 42.83400 41.31400
H  46.48400 41.19200 40.38500
H  45.49800 39.86300 41.82900
H  44.67000 41.18700 42.58500
H  46.23700 40.67400 43.21300
H  46.49000 43.00000 39.03100
H  45.55300 44.47700 39.42400
H  43.71800 43.57400 38.33500
H  43.85400 42.12400 39.29700
H  51.59200 39.08000 42.76800
H  51.88700 39.50300 40.98800
H  50.37100 39.30100 41.63700
H  56.00600 42.19600 43.34300
H  54.80300 43.26400 43.98600
H  55.19400 43.24400 42.24200
H  53.56800 47.40900 42.98900
H  51.96500 48.62800 45.15200
H  53.99300 47.74600 45.62100
H  54.89400 46.78500 44.64600
H  53.61900 45.86300 45.46200
H  51.50200 49.91200 42.63700
H  53.09500 49.45700 42.41100
H  53.07700 50.64400 44.92300
H  51.65800 51.39900 44.17800
H  53.27600 51.66600 43.46700
H  45.79700 50.16600 43.91200
H  46.76700 50.46000 42.41200
H  47.56800 50.58500 43.98800
H  44.32600 46.02400 40.72700
H  41.54600 44.79900 44.34600
H  40.97400 46.31300 43.23600
H  41.49700 46.36000 44.92500

