158

Mg -1.84300 16.82500 27.11100
C  -2.39100 14.56300 29.96800
C  -2.54200 19.36000 29.33200
C  -1.85700 18.75300 24.56800
C  -1.91000 13.92300 25.10800
N  -2.35200 16.98500 29.42700
C  -2.36700 15.94700 30.34100
C  -2.59300 16.50200 31.79700
C  -2.60500 18.04300 31.59800
C  -2.52000 18.16700 30.00600
C  -3.89500 18.78500 32.20300
C  -1.58600 15.94600 32.88200
C  -1.10500 16.83800 34.03100
H  -0.85000 16.17900 35.37500
N  -2.03600 18.79300 26.99400
C  -2.37900 19.69800 27.96500
C  -2.38000 21.06000 27.40800
C  -2.03100 20.90200 26.03800
C  -2.02100 19.46000 25.80400
C  -2.42100 22.29900 28.23400
C  -1.65100 21.95900 24.99500
O  -1.15600 21.70500 23.90300
C  -1.89200 23.35000 25.24400
N  -1.87500 16.40200 25.12800
C  -1.72300 17.45100 24.18900
C  -1.64300 16.85900 22.71100
C  -1.31800 15.33200 23.04100
C  -1.68300 15.15000 24.53200
C  -2.93600 17.04700 21.85900
C  0.11000 14.85900 22.82800
C  1.20800 15.83500 23.33200
N  -2.05200 14.70800 27.41600
C  -2.17300 13.69700 26.49800
C  -2.45700 12.50100 27.17900
C  -2.46600 12.75800 28.54700
C  -2.30200 14.14200 28.61800
C  -2.57800 11.24200 26.44500
C  -2.76400 12.21600 29.80500
O  -3.03900 11.03300 30.09700
C  -2.58000 13.32000 30.84300
C  -1.33400 12.94000 31.48600
O  -0.20400 13.13700 31.07300
O  -1.66400 12.45700 32.77000
C  -0.65000 12.40400 33.75700
H  -2.58100 20.30400 29.88100
H  -1.78200 19.36500 23.66600
H  -1.86000 13.04300 24.46400
H  -3.58800 16.11400 32.01800
H  -1.72200 18.52500 32.01700
H  -4.45900 18.13800 32.87500
H  -4.58800 19.15400 31.44700
H  -3.56200 19.69800 32.69700
H  -0.69000 15.54500 32.40800
H  -2.08300 15.07600 33.31000
H  -1.85800 17.62200 34.11300
H  -0.23000 17.39400 33.69400
H  -1.47100 22.83200 28.21000
H  -2.83100 22.18300 29.23700
H  -3.23600 22.89000 27.81600
H  -2.80300 23.45400 25.83300
H  -2.05000 23.81800 24.27200
H  -0.96000 23.78700 25.60200
H  -0.82900 17.41100 22.24200
H  -1.91900 14.73300 22.35700
H  -3.58300 17.60500 22.53500
H  -3.21300 16.04700 21.52600
H  -2.71000 17.51800 20.90200
H  0.26700 14.66100 21.76800
H  0.20500 13.89400 23.32400
H  1.52800 16.40100 22.45700
H  2.10300 15.30700 23.66100
H  0.97100 16.54500 24.12500
H  -1.67500 11.21000 25.83500
H  -3.40100 11.48700 25.77400
H  -2.75000 10.42500 27.14600
H  -3.53200 13.39600 31.36800
H  -1.11400 12.78800 34.66500
H  0.26200 12.96700 33.55400
H  -0.18500 11.44000 33.96400
Mg 27.23900 50.39600 26.10000
C  25.07700 51.26400 28.89900
C  29.44900 49.27900 28.45700
C  29.37200 50.07200 23.63200
C  24.85200 51.82600 23.90000
N  27.31800 50.46600 28.39600
C  26.27200 50.69200 29.27600
C  26.59500 50.29100 30.70000
C  28.03100 49.71200 30.54100
C  28.27100 49.79300 29.03200
C  29.18700 50.38200 31.38300
C  25.59700 49.28400 31.29400
C  24.88100 49.74100 32.50900
H  25.78900 50.26200 33.74500
N  29.19500 49.72600 26.04700
C  29.96000 49.29700 27.16500
C  31.23000 48.87000 26.55200
C  31.22600 49.09100 25.18100
C  29.90300 49.61000 24.91800
C  32.29900 48.20400 27.41400
C  32.36900 48.86200 24.17900
O  32.27500 49.30100 23.04700
C  33.66400 48.21700 24.63000
N  27.24700 51.20700 24.09000
C  28.19100 50.70400 23.31400
C  27.71400 50.80400 21.77500
C  26.21400 51.15000 21.88200
C  26.09700 51.41400 23.36000
C  28.54700 51.74000 20.81900
C  25.25600 49.97700 21.48800
C  24.33200 50.46600 20.33300
N  25.39200 51.38600 26.33300
C  24.50100 51.85900 25.33700
C  23.28200 52.33800 25.98400
C  23.48500 52.18700 27.39500
C  24.73900 51.57300 27.57500
C  22.08600 52.98400 25.37000
C  22.90900 52.36200 28.65900
O  21.86300 52.97100 28.92900
C  23.94000 51.83200 29.75200
C  24.38600 52.90800 30.69100
O  25.42100 53.60600 30.61900
O  23.41900 53.07600 31.60200
C  23.86400 53.73300 32.85100
H  30.02100 48.71200 29.19500
H  29.84700 49.70300 22.72100
H  23.99100 52.06400 23.27200
H  26.55800 51.19900 31.30200
H  28.04500 48.66600 30.84900
H  28.81900 50.94100 32.24300
H  29.90600 51.04600 30.90400
H  29.81700 49.55200 31.70300
H  26.02300 48.28800 31.41600
H  24.83600 49.16300 30.52400
H  24.30600 48.94100 32.97600
H  24.16600 50.52300 32.25500
H  32.54600 47.18800 27.10700
H  31.92100 47.98200 28.41200
H  33.16300 48.86700 27.38900
H  33.38500 47.25500 25.05800
H  34.17500 48.82200 25.38000
H  34.21500 47.93700 23.73200
H  27.71800 49.80200 21.34400
H  26.19700 52.13100 21.40900
H  29.53500 51.90800 21.24800
H  27.98600 52.66800 20.70600
H  28.69300 51.21000 19.87800
H  24.65400 49.72200 22.36000
H  25.93600 49.13900 21.33800
H  24.82100 50.40100 19.36100
H  24.05900 51.50500 20.52100
H  23.34900 49.99800 20.27900
H  21.95400 52.80100 24.30400
H  22.09300 54.02400 25.69700
H  21.20300 52.64100 25.91000
H  23.47100 50.97900 30.24300
H  24.40400 54.64800 32.60900
H  24.56700 53.14800 33.44300
H  23.00800 53.97200 33.48200

