158

Mg 29.26100 57.73300 41.31800
C  26.70300 55.70700 40.26100
C  31.46400 55.53900 40.16900
C  31.72700 60.15800 41.67700
C  26.89300 60.28300 42.13900
N  29.06500 55.78600 40.42800
C  27.93900 55.14600 40.04600
C  28.23600 53.83400 39.30000
C  29.79000 53.66100 39.71600
C  30.19600 55.07500 40.10200
C  29.98600 52.70500 40.99100
C  28.01600 53.79100 37.83100
C  28.49000 55.00600 37.01600
H  27.75300 55.25000 35.59000
N  31.27600 57.77300 40.92800
C  32.02400 56.73000 40.46800
C  33.44500 57.09500 40.45100
C  33.55600 58.41900 40.91500
C  32.13900 58.85100 41.18400
C  34.49500 56.08200 40.06000
C  34.90900 59.18100 41.11100
O  35.99500 58.70400 40.79600
C  34.98700 60.52800 41.68600
N  29.33100 59.95500 41.81900
C  30.45400 60.66000 42.01700
C  30.09700 62.11700 42.33200
C  28.57500 62.12200 42.56000
C  28.25400 60.62700 42.31400
C  30.93000 62.67000 43.54000
C  27.76200 63.13000 41.68900
C  26.58100 63.74900 42.44100
N  27.22600 57.99000 41.27400
C  26.41300 59.03500 41.65300
C  25.05800 58.55400 41.57300
C  25.14100 57.32800 41.02000
C  26.45700 57.00000 40.80200
C  23.82700 59.29700 41.94000
C  24.30900 56.22100 40.51200
O  23.11200 56.11200 40.40900
C  25.28400 55.12900 40.00300
C  24.98000 53.89500 40.88400
O  25.23600 53.88100 42.09400
O  24.64300 52.76400 40.17600
C  24.62000 51.50900 40.97000
H  32.22000 54.76400 40.03000
H  32.53400 60.86700 41.87400
H  26.05200 60.97100 42.24300
H  27.65900 53.03200 39.76000
H  30.35400 53.17900 38.91800
H  29.15300 52.07000 41.29100
H  30.40700 53.29300 41.80700
H  30.81200 52.05500 40.70100
H  26.95600 53.64800 37.62100
H  28.64400 53.02400 37.37800
H  29.56400 54.89900 36.86300
H  28.23500 55.85400 37.65200
H  34.13400 55.52200 39.19700
H  34.64400 55.35400 40.85800
H  35.44400 56.51200 39.74100
H  34.55300 61.27200 41.01800
H  35.98600 60.83800 41.99300
H  34.37200 60.62400 42.58000
H  30.28100 62.66200 41.40600
H  28.34900 62.32600 43.60700
H  31.52300 61.92300 44.06900
H  30.46600 63.24600 44.34100
H  31.60000 63.38500 43.06400
H  27.44300 62.65200 40.76300
H  28.45600 63.93600 41.45200
H  25.64500 63.25500 42.18200
H  26.45200 64.82500 42.32300
H  26.69100 63.63000 43.51900
H  23.83600 60.16000 41.27500
H  24.01500 59.70900 42.93100
H  22.93900 58.66600 41.89900
H  25.12000 54.88900 38.95200
H  24.14100 51.63300 41.94100
H  25.62400 51.11000 41.11400
H  24.04800 50.75300 40.43100
Mg -1.86800 33.90100 26.59000
C  -3.66700 32.58800 29.24500
C  -0.26900 35.92200 28.68500
C  -0.62400 35.37300 23.90800
C  -3.90100 31.79200 24.44100
N  -2.01300 34.23300 28.68100
C  -2.71100 33.55000 29.58100
C  -2.41400 34.03400 31.00100
C  -1.34400 35.14500 30.77600
C  -1.18000 35.17200 29.28700
C  -1.68800 36.50800 31.43400
C  -1.93900 32.95900 31.92300
C  -2.66700 32.75400 33.23200
H  -1.79000 32.33100 34.49100
N  -0.52900 35.35700 26.35600
C  0.06700 36.03300 27.40000
C  1.03200 36.92400 26.80900
C  0.92100 36.81900 25.37900
C  -0.08000 35.75600 25.16400
C  1.91000 37.87900 27.58300
C  1.65500 37.60800 24.35900
O  1.45500 37.50800 23.13800
C  2.71500 38.46100 24.80200
N  -2.27200 33.58700 24.40200
C  -1.60900 34.34200 23.53900
C  -1.96700 33.99900 22.10300
C  -2.76500 32.62000 22.30900
C  -3.01200 32.64000 23.78000
C  -2.72100 35.21900 21.32400
C  -2.03900 31.32000 21.88500
C  -1.50000 31.16900 20.43900
N  -3.39700 32.48000 26.78700
C  -4.08600 31.69800 25.85400
C  -4.96800 30.79300 26.54600
C  -4.88700 31.16000 27.92800
C  -3.92100 32.16700 27.93800
C  -5.85800 29.79000 25.90200
C  -5.40400 30.84900 29.21800
O  -6.19900 30.00100 29.62600
C  -4.57900 31.74800 30.17400
C  -5.67400 32.57400 30.84100
O  -6.03700 33.63300 30.48600
O  -6.03900 31.91800 32.02000
C  -7.14300 32.59800 32.76600
H  0.24800 36.49700 29.45600
H  -0.15000 35.73300 22.99200
H  -4.38900 31.10300 23.74900
H  -3.35500 34.47000 31.33600
H  -0.37900 34.70900 31.03600
H  -0.77100 36.91000 31.86500
H  -2.39900 36.37000 32.24800
H  -2.05200 37.22600 30.70000
H  -0.86400 33.02700 32.08700
H  -2.06300 32.07600 31.29700
H  -3.35600 31.94200 32.99800
H  -3.23400 33.66000 33.44400
H  1.64100 37.85100 28.63900
H  1.85300 38.92100 27.26800
H  2.90200 37.43600 27.49100
H  3.45300 37.92000 25.39600
H  2.25000 39.27500 25.35800
H  3.20300 39.02400 24.00700
H  -0.98400 33.83100 21.66200
H  -3.72500 32.65800 21.79400
H  -1.91700 35.52500 20.65400
H  -3.05000 35.98400 22.02700
H  -3.64900 34.86600 20.87400
H  -2.75400 30.52300 22.09000
H  -1.24600 31.13300 22.60900
H  -0.44100 31.42500 20.43000
H  -1.99600 31.84600 19.74300
H  -1.60100 30.09500 20.28800
H  -5.30700 28.85100 25.86000
H  -6.27000 30.08900 24.93900
H  -6.69100 29.60600 26.58100
H  -3.94200 31.13800 30.81400
H  -6.91400 33.63000 33.03100
H  -7.39600 32.00900 33.64700
H  -8.08300 32.67800 32.22000

