158

Mg 1.17300 -2.54100 44.50600
C  4.67100 -2.21200 43.62000
C  0.55500 0.10200 42.47400
C  -2.04400 -3.70700 44.20900
C  2.01000 -5.57900 46.06000
N  2.50700 -1.37300 43.07300
C  3.88000 -1.25100 42.99000
C  4.33600 -0.14800 41.99500
C  3.00600 0.71700 42.01700
C  1.92800 -0.25900 42.54900
C  3.03700 1.99300 42.86000
C  4.77900 -0.60400 40.54500
C  6.19000 -0.07400 40.10500
H  6.29500 0.73700 38.84700
N  -0.57500 -1.85000 43.62500
C  -0.59100 -0.67800 42.86500
C  -1.93900 -0.39400 42.44000
C  -2.77600 -1.44800 42.88700
C  -1.88200 -2.37700 43.64300
C  -2.36200 0.84600 41.53300
C  -4.27300 -1.57500 42.65000
O  -4.89900 -0.63800 42.13100
C  -5.02700 -2.81300 43.02100
N  0.13100 -4.35700 45.11300
C  -1.20600 -4.61800 44.89600
C  -1.66400 -5.98700 45.53300
C  -0.35400 -6.34700 46.35200
C  0.66900 -5.37000 45.81400
C  -2.98000 -5.92000 46.34800
C  0.04000 -7.86800 46.09900
C  0.60100 -8.55200 47.36800
N  2.91200 -3.67900 44.93400
C  3.11800 -4.85000 45.64500
C  4.55300 -5.20200 45.62300
C  5.15000 -4.13300 44.93700
C  4.11200 -3.26900 44.45400
C  5.31200 -6.36700 46.25600
C  6.47200 -3.57100 44.48900
O  7.61700 -3.89700 44.71800
C  6.18300 -2.43000 43.56500
C  6.89500 -1.21100 44.10400
O  6.47200 -0.40400 44.91500
O  8.03100 -1.01400 43.31500
C  8.98100 0.03200 43.72400
H  0.34500 1.06300 41.99900
H  -3.06800 -4.08400 44.21800
H  2.30100 -6.54200 46.48600
H  5.05900 0.43100 42.57000
H  2.73300 0.98400 40.99600
H  2.84500 2.81500 42.17100
H  4.01100 2.19200 43.30600
H  2.24600 2.09400 43.60400
H  4.11900 -0.22800 39.76300
H  4.76200 -1.69000 40.46400
H  6.98600 -0.79200 39.90900
H  6.58800 0.63100 40.83500
H  -3.32000 0.68200 41.03900
H  -1.62500 0.89300 40.73100
H  -2.55600 1.75300 42.10600
H  -4.36500 -3.62900 42.73200
H  -5.91300 -2.77200 42.38800
H  -5.21600 -2.91300 44.09000
H  -1.83700 -6.75000 44.77300
H  -0.51500 -6.11800 47.40500
H  -2.79000 -6.20800 47.38200
H  -3.66300 -6.70200 46.01400
H  -3.49300 -4.97400 46.17400
H  0.79900 -7.82800 45.31900
H  -0.89900 -8.35800 45.84200
H  0.00200 -9.36200 47.78300
H  0.64800 -7.84600 48.19800
H  1.52100 -9.05100 47.06600
H  4.59900 -6.82600 46.94000
H  6.28300 -6.17100 46.71000
H  5.42200 -7.10400 45.46000
H  6.51900 -2.66400 42.55400
H  9.86300 -0.51300 44.06100
H  8.55700 0.75500 44.42100
H  9.33800 0.55400 42.83600
Mg 48.79900 35.65900 28.00500
C  46.81500 33.93900 30.41600
C  48.49100 38.49900 30.04200
C  50.36700 37.35800 25.65900
C  48.12400 33.06000 25.83200
N  47.85000 36.16900 30.00900
C  47.22900 35.22300 30.86000
C  47.12400 35.78700 32.26700
C  47.27800 37.28300 32.06400
C  47.95800 37.35400 30.62100
C  46.07200 38.18300 32.17100
C  48.10700 35.09500 33.25300
C  47.60600 34.82400 34.68400
H  48.00800 35.90200 35.65900
N  49.55300 37.69000 27.97500
C  49.17400 38.64700 28.80400
C  49.92600 39.80600 28.41300
C  50.44900 39.59000 27.06200
C  50.18700 38.15000 26.86100
C  49.96200 41.06700 29.20700
C  51.17100 40.53400 26.01700
O  51.57000 40.05400 24.96400
C  51.34500 41.94400 26.34000
N  49.13100 35.35900 26.06100
C  49.91200 36.11900 25.32400
C  50.24500 35.59000 23.89600
C  49.54600 34.16900 24.09000
C  48.96000 34.11800 25.45100
C  49.70800 36.40500 22.72200
C  50.35400 32.89800 23.78800
C  49.71500 31.96100 22.76900
N  47.72600 33.82100 28.05800
C  47.53700 32.86300 27.07200
C  46.72200 31.74600 27.55300
C  46.43500 32.15700 28.87200
C  47.01800 33.39100 29.13600
C  46.33500 30.46900 26.80000
C  45.68200 31.69000 30.06800
O  45.02100 30.72400 30.37000
C  45.94300 32.82500 31.12400
C  46.59800 32.21700 32.31500
O  47.74800 31.87800 32.25400
O  45.71600 32.07800 33.32600
C  46.30300 31.64000 34.61900
H  48.52400 39.42000 30.62700
H  50.93100 37.78900 24.82900
H  48.00100 32.35200 25.01000
H  46.10300 35.61500 32.60800
H  47.97600 37.64600 32.81900
H  46.15800 38.78100 33.07700
H  45.18500 37.58100 32.36700
H  45.85800 38.79800 31.29700
H  49.01000 35.70600 33.25100
H  48.41300 34.12200 32.86800
H  48.07700 33.86900 34.91500
H  46.52600 34.67500 34.68200
H  50.92400 41.25400 29.68500
H  49.25100 41.28100 30.00500
H  49.75000 41.83600 28.46400
H  50.35200 42.37700 26.21800
H  51.90700 42.24800 25.45700
H  51.84200 42.01000 27.30800
H  51.29200 35.47700 23.61200
H  48.69200 34.07700 23.41900
H  50.49800 36.39800 21.97100
H  49.51800 37.43500 23.02400
H  48.79300 36.01900 22.27400
H  50.43500 32.28300 24.68500
H  51.37900 33.20200 23.57600
H  49.71700 32.43600 21.78800
H  48.75900 31.56300 23.11100
H  50.26900 31.07200 22.46900
H  46.23900 29.61400 27.46900
H  47.04000 30.16100 26.02700
H  45.47000 30.68100 26.17200
H  44.98200 33.16600 31.51000
H  45.53200 30.89600 34.82000
H  46.18800 32.42700 35.36500
H  47.31800 31.24700 34.55600

