158

Mg 17.39600 -1.02300 27.34700
C  16.26800 1.11200 29.85500
C  19.25300 -2.64700 29.88100
C  18.84800 -2.70300 24.99600
C  15.70200 1.06600 24.99800
N  17.63200 -0.85000 29.64200
C  17.11900 0.16200 30.38800
C  17.42800 -0.03500 31.90200
C  18.54500 -1.14100 31.82900
C  18.53700 -1.51800 30.39300
C  19.90900 -0.78000 32.37200
C  16.19300 -0.45500 32.80600
C  16.54000 -0.47400 34.29900
H  17.78600 0.16500 34.86600
N  18.83500 -2.52600 27.40700
C  19.36800 -3.19000 28.53300
C  20.11200 -4.33400 28.10000
C  19.94700 -4.38400 26.67000
C  19.24400 -3.14000 26.28400
C  20.82000 -5.31700 28.97500
C  20.48500 -5.37600 25.59300
O  20.40500 -5.20000 24.38300
C  21.24000 -6.55300 26.14900
N  17.48600 -0.65700 25.35000
C  18.09500 -1.59000 24.57200
C  17.84200 -1.32600 23.04700
C  16.88100 -0.05400 23.08000
C  16.66400 0.19500 24.56600
C  19.03400 -1.24300 22.17600
C  15.66500 -0.41000 22.21100
C  14.94500 0.72600 21.58300
N  16.07300 0.65800 27.39200
C  15.46900 1.32400 26.36500
C  14.70300 2.39200 26.88800
C  14.96700 2.36700 28.23200
C  15.81600 1.27600 28.52300
C  13.75500 3.33200 26.15300
C  14.76500 3.04100 29.49600
O  13.97800 3.95100 29.75400
C  15.43900 2.23200 30.57100
C  16.24600 3.16600 31.42300
O  17.43600 3.35700 31.25000
O  15.56000 3.72800 32.51200
C  16.31200 4.47700 33.45800
H  19.75800 -3.12300 30.72300
H  19.15800 -3.26400 24.11200
H  15.20500 1.71500 24.27400
H  17.87300 0.92100 32.17500
H  18.27800 -2.05200 32.36500
H  19.87600 0.08800 33.02900
H  20.52100 -0.44600 31.53300
H  20.26300 -1.57000 33.03400
H  15.82300 -1.43200 32.49500
H  15.44500 0.31500 32.61400
H  16.45300 -1.52500 34.57600
H  15.74700 -0.01400 34.88800
H  21.85900 -5.13900 28.69700
H  20.46700 -6.31600 28.71800
H  20.59400 -5.01600 29.99800
H  22.07600 -6.24100 26.77500
H  21.62800 -7.20100 25.36300
H  20.47800 -7.11100 26.69300
H  17.33500 -2.23900 22.73500
H  17.43400 0.83500 22.77500
H  18.87400 -0.47700 21.41700
H  19.14900 -2.23600 21.74100
H  19.83600 -1.03100 22.88300
H  14.99600 -0.94400 22.88700
H  15.87000 -1.04000 21.34600
H  13.89200 0.50500 21.40400
H  15.46000 0.84300 20.63000
H  15.15100 1.67200 22.08400
H  13.06000 2.85600 25.46100
H  14.32300 4.17600 25.76200
H  13.12900 3.65900 26.98300
H  14.59800 1.86200 31.15700
H  16.52200 5.44900 33.01100
H  17.23600 4.01900 33.81200
H  15.58000 4.69100 34.23700
Mg 29.98000 57.70900 40.03300
C  27.00100 55.82200 39.02700
C  31.94800 55.24600 38.77600
C  32.54400 59.95800 39.85600
C  27.67300 60.60200 40.20800
N  29.46000 55.77500 39.04700
C  28.23100 55.13000 38.88100
C  28.51400 53.62500 38.52900
C  30.07500 53.52500 38.26200
C  30.53600 54.91700 38.78700
C  30.79100 52.39400 39.04200
C  27.74500 53.07700 37.24700
C  27.50900 53.98100 36.01800
H  28.12900 53.82900 34.64700
N  31.99000 57.54600 39.60700
C  32.60200 56.43200 39.08900
C  34.01700 56.69900 38.86800
C  34.20000 58.05900 39.09800
C  32.88100 58.59700 39.52900
C  34.95700 55.58700 38.29300
C  35.49900 58.78300 38.87500
O  36.55700 58.20400 38.53000
C  35.65900 60.24300 39.12300
N  30.02700 60.03800 39.77600
C  31.30000 60.57100 39.98000
C  31.10900 62.06800 40.22200
C  29.55500 62.19800 40.48300
C  28.98600 60.93100 40.08000
C  32.10800 62.72700 41.31100
C  28.90600 63.44300 39.72600
C  28.22000 64.43000 40.64800
N  27.76700 58.18100 39.88200
C  27.07700 59.34300 40.00100
C  25.73900 59.05900 39.95500
C  25.63600 57.69500 39.52000
C  26.89400 57.18700 39.52800
C  24.63600 59.99700 40.19200
C  24.70300 56.66200 39.13200
O  23.49300 56.75000 39.01800
C  25.48100 55.45500 38.79500
C  25.04900 54.27500 39.65500
O  25.47400 54.05200 40.79300
O  24.07600 53.50500 39.06900
C  23.23000 52.63600 39.79600
H  32.62000 54.48500 38.37400
H  33.35500 60.66600 40.03400
H  26.92900 61.33800 40.52000
H  28.26900 53.00100 39.38900
H  30.25900 53.44100 37.19100
H  30.19900 51.68500 39.62000
H  31.46700 52.81400 39.78800
H  31.38200 51.79600 38.34900
H  26.78300 52.71000 37.60500
H  28.33100 52.18600 37.02000
H  27.78900 54.98300 36.34400
H  26.42200 53.95900 35.94200
H  35.13800 55.78400 37.23600
H  34.58200 54.58700 38.51200
H  35.86700 55.65900 38.88800
H  36.71800 60.43800 38.95300
H  35.45600 60.34400 40.18900
H  34.94500 60.76800 38.48800
H  31.18700 62.69200 39.33200
H  29.34600 62.21600 41.55300
H  33.05300 62.92000 40.80200
H  32.29800 62.09800 42.18000
H  31.59100 63.60500 41.69800
H  28.13000 63.11400 39.03600
H  29.58200 63.99100 39.06900
H  28.28300 65.44200 40.24900
H  28.56700 64.41400 41.68100
H  27.15000 64.22500 40.61900
H  24.76700 60.76400 40.95500
H  23.75300 59.43900 40.50300
H  24.55000 60.58600 39.27900
H  25.31700 55.24600 37.73800
H  23.74000 51.67900 39.89900
H  22.26000 52.55100 39.30700
H  23.03100 53.07500 40.77400

