158

Mg 7.98800 53.00200 40.99700
C  7.64400 49.55400 40.63600
C  11.17900 52.70200 39.91500
C  8.03300 56.34300 40.65100
C  4.62100 53.11100 41.86500
N  9.13500 51.31400 40.08900
C  8.89700 49.97200 40.15000
C  9.99400 49.19600 39.50700
C  11.22600 50.11900 39.91900
C  10.48800 51.50700 39.94200
C  12.05000 49.81900 41.24400
C  9.84700 49.09800 37.89600
C  9.96800 47.70000 37.27100
H  8.78500 47.20800 36.31400
N  9.44200 54.44000 40.33100
C  10.69800 54.07800 39.96800
C  11.45900 55.24200 39.75500
C  10.56900 56.37500 39.91200
C  9.30500 55.76500 40.38800
C  12.97600 55.23300 39.27900
C  11.02200 57.81400 39.63100
O  12.17200 58.02500 39.19700
C  10.12700 59.05200 39.86600
N  6.56900 54.54600 41.24600
C  6.80100 55.81700 40.89700
C  5.60200 56.72500 41.14500
C  4.46100 55.69800 41.45600
C  5.24700 54.39200 41.54900
C  5.87200 57.71200 42.27600
C  3.27900 55.63700 40.49400
C  3.70700 55.10500 39.17700
N  6.43100 51.64000 41.27500
C  5.16000 51.82200 41.77600
C  4.50300 50.59300 42.00300
C  5.49700 49.65500 41.59200
C  6.59300 50.36500 41.14000
C  3.11800 50.41800 42.61500
C  5.82600 48.23800 41.61100
O  5.26600 47.28200 42.10900
C  7.18700 48.17800 40.93500
C  7.07000 47.43800 39.61800
O  6.68800 47.86800 38.52500
O  7.35000 46.10200 39.85200
C  6.88900 45.08800 38.90200
H  12.20900 52.44000 39.66500
H  7.99200 57.40800 40.41200
H  3.58900 53.19700 42.21300
H  10.05400 48.19900 39.94400
H  11.94900 50.02200 39.10900
H  11.50000 49.09500 41.84500
H  12.23800 50.69800 41.86100
H  12.93900 49.39900 40.77300
H  10.56300 49.77200 37.42700
H  8.86300 49.50100 37.65400
H  10.11200 46.95200 38.05100
H  10.74100 47.64400 36.50500
H  12.99400 55.92200 38.43400
H  13.41200 54.24900 39.10500
H  13.51000 55.62800 40.14300
H  9.49900 58.96900 40.75200
H  9.46000 59.12400 39.00700
H  10.69000 59.98400 39.89000
H  5.29400 57.15800 40.19300
H  4.14600 55.93000 42.47300
H  6.70000 57.38600 42.90600
H  4.95700 57.81000 42.85900
H  6.26900 58.66100 41.91600
H  2.84900 56.58700 40.17500
H  2.39900 55.12700 40.88400
H  3.15400 55.53600 38.34200
H  3.62100 54.01900 39.22500
H  4.75400 55.34000 38.98900
H  2.49200 51.19400 42.17600
H  3.18400 50.54600 43.69600
H  2.63600 49.46300 42.40800
H  7.73300 47.64100 41.71100
H  7.76500 44.78400 38.33000
H  6.13400 45.36600 38.16700
H  6.53200 44.16200 39.35300
Mg -10.95400 37.25100 42.63400
C  -8.93800 34.97600 41.57300
C  -8.82000 39.76800 41.23100
C  -13.45100 39.52100 42.83400
C  -13.24100 34.73400 43.64800
N  -9.25600 37.40100 41.39000
C  -8.57400 36.22900 41.14200
C  -7.26600 36.52000 40.29400
C  -7.07100 38.10600 40.57200
C  -8.46100 38.45700 41.07400
C  -5.96500 38.56000 41.54400
C  -7.59400 36.01000 38.82000
C  -6.54500 35.34500 37.99100
H  -6.08300 36.10700 36.75300
N  -11.04000 39.36800 42.31100
C  -10.08400 40.19300 41.67300
C  -10.59300 41.52000 41.69400
C  -11.88300 41.52800 42.27200
C  -12.22500 40.12100 42.55700
C  -9.70600 42.65900 41.15900
C  -12.85300 42.74300 42.60900
O  -12.61200 43.82900 42.08900
C  -14.10300 42.55500 43.41600
N  -13.12200 37.09600 43.09200
C  -13.90100 38.21200 42.96900
C  -15.37000 37.78900 43.34900
C  -15.25400 36.26300 43.79900
C  -13.81200 35.97300 43.47600
C  -16.00100 38.63600 44.55100
C  -16.31900 35.29900 43.20800
C  -15.86300 34.44900 42.01100
N  -11.11400 35.26800 42.59300
C  -11.97000 34.39800 43.16900
C  -11.35500 33.07400 43.16500
C  -10.16400 33.26800 42.44500
C  -10.07500 34.63700 42.15600
C  -11.91100 31.75600 43.63900
C  -9.00800 32.53100 41.93500
O  -8.76700 31.29400 41.98500
C  -8.18300 33.66300 41.31900
C  -6.91600 33.64900 42.08600
O  -6.83100 33.97500 43.27300
O  -5.94000 33.07200 41.35700
C  -4.77100 32.62000 42.14000
H  -8.04800 40.50500 41.00200
H  -14.25400 40.19600 42.53100
H  -13.88000 33.94400 44.04700
H  -6.45900 35.93100 40.73100
H  -7.03900 38.70600 39.66200
H  -6.36600 39.11100 42.39500
H  -5.36300 39.30200 41.01900
H  -5.53500 37.68300 42.02800
H  -7.98500 36.91700 38.35900
H  -8.44700 35.33700 38.89900
H  -6.85300 34.32800 37.74600
H  -5.65900 35.20900 38.61000
H  -9.70100 42.45400 40.08900
H  -8.71200 42.69700 41.60400
H  -10.14100 43.65500 41.23900
H  -14.44100 43.49300 43.85800
H  -13.90200 41.78700 44.16300
H  -14.87300 42.12300 42.77700
H  -16.02200 37.79500 42.47600
H  -15.26600 36.06200 44.87000
H  -15.22200 39.32600 44.87700
H  -16.38500 37.97500 45.32800
H  -16.81400 39.20000 44.09400
H  -17.14300 36.00100 43.08300
H  -16.50600 34.55200 43.97900
H  -15.43800 33.55700 42.47100
H  -15.18900 34.90600 41.28700
H  -16.73500 34.14600 41.43000
H  -11.15200 30.97400 43.65600
H  -12.72100 31.53800 42.94400
H  -12.36200 31.76000 44.63200
H  -7.96500 33.41100 40.28200
H  -4.45900 31.64300 41.77200
H  -5.11900 32.57600 43.17200
H  -3.97800 33.33400 41.91800

