158

Mg 26.96900 51.55300 25.81200
C  25.05500 52.62400 28.46100
C  29.21900 50.17600 28.08700
C  28.55400 49.98400 23.31400
C  24.87400 53.07500 23.62000
N  27.03500 51.34300 28.01200
C  26.12100 51.85300 28.89500
C  26.44000 51.41000 30.28900
C  27.86600 50.89700 30.15800
C  28.06800 50.81300 28.65100
C  28.91300 51.79600 30.73400
C  25.31100 50.38000 30.77400
C  24.62500 50.63600 32.15400
H  25.57000 50.99900 33.29700
N  28.69800 50.29400 25.68800
C  29.50900 49.90100 26.73800
C  30.60400 49.09100 26.27200
C  30.38100 48.98400 24.82400
C  29.18000 49.79200 24.54900
C  31.72900 48.60700 27.21100
C  31.14600 48.23000 23.80800
O  30.82000 48.21000 22.63500
C  32.32900 47.40200 24.21000
N  26.89600 51.68900 23.72500
C  27.57500 50.88600 22.90500
C  27.13200 51.06100 21.43500
C  25.78800 51.82100 21.62700
C  25.87300 52.24700 23.04700
C  28.22600 51.95900 20.69900
C  24.56000 50.91600 21.45300
C  23.56600 51.46200 20.39000
N  25.38300 52.71200 25.93700
C  24.58700 53.33000 25.00200
C  23.42900 54.06000 25.60000
C  23.64800 53.78300 26.96600
C  24.81200 52.96800 27.12100
C  22.31700 54.71700 24.89300
C  23.02200 54.02200 28.20400
O  22.06500 54.72200 28.47800
C  23.91700 53.34300 29.26300
C  24.49000 54.30000 30.16900
O  25.20400 55.25600 29.84800
O  23.90400 54.19700 31.39100
C  24.50300 55.05400 32.42400
H  29.82700 49.79000 28.90900
H  28.93300 49.49000 22.41700
H  24.13700 53.45800 22.91200
H  26.39900 52.29700 30.92200
H  27.96400 49.86400 30.49300
H  29.56500 52.19000 29.95500
H  29.43500 51.18000 31.46700
H  28.47300 52.60600 31.31600
H  25.75300 49.38400 30.74100
H  24.53600 50.38100 30.00800
H  24.07800 49.74100 32.45300
H  23.85400 51.38400 31.97100
H  32.12900 47.59400 27.23100
H  31.59000 48.79200 28.27600
H  32.52100 49.35400 27.15400
H  32.14000 46.73700 25.05300
H  33.04000 48.18400 24.47400
H  32.75900 46.82800 23.38900
H  27.14200 50.08000 20.96000
H  25.63100 52.67400 20.96700
H  28.95800 52.17700 21.47700
H  27.92200 52.97300 20.44100
H  28.58500 51.48000 19.78800
H  24.00300 50.89300 22.38900
H  24.92700 49.94700 21.11400
H  23.60000 50.84600 19.49100
H  23.75100 52.51700 20.18900
H  22.61500 51.43200 20.92100
H  21.34000 54.28200 25.10200
H  22.42300 54.92900 23.82900
H  22.14500 55.70100 25.32900
H  23.35900 52.64300 29.88400
H  25.24900 54.44900 32.93700
H  23.71900 55.02800 33.18100
H  24.76300 56.07100 32.12900
Mg 6.29700 54.53800 40.50300
C  5.55700 51.10000 40.48200
C  9.46200 53.96700 39.43900
C  6.50800 57.77900 39.99400
C  2.59000 55.06200 40.73500
N  7.34000 52.76600 39.95500
C  6.80800 51.48600 40.02800
C  7.89700 50.51900 39.61100
C  9.24700 51.34800 39.62200
C  8.70300 52.77400 39.73300
C  10.30300 51.15000 40.69900
C  7.64700 49.84200 38.24100
C  6.91200 50.61400 37.05500
H  5.99100 49.90200 36.07600
N  7.77500 55.75200 39.76900
C  9.03300 55.33500 39.39700
C  9.86000 56.51500 39.13100
C  9.01500 57.62800 39.18300
C  7.70300 57.09200 39.70300
C  11.35800 56.38400 38.83100
C  9.45000 59.01700 38.92700
O  10.61000 59.26800 38.51800
C  8.53800 60.09300 39.16900
N  4.74400 56.11100 40.13400
C  5.18400 57.35400 40.21500
C  4.00200 58.41100 40.40300
C  2.74800 57.57700 40.25400
C  3.40600 56.17600 40.36000
C  4.08900 59.42000 41.60000
C  1.88400 57.73800 38.94900
C  2.20000 56.82700 37.73800
N  4.45800 53.36700 40.72000
C  3.16200 53.76400 40.86600
C  2.45000 52.53600 41.15700
C  3.30800 51.46300 41.13900
C  4.52300 52.02000 40.80300
C  0.92200 52.40100 41.36300
C  3.47300 50.04200 41.28300
O  2.65400 49.17800 41.55600
C  4.91500 49.74400 40.79100
C  4.83900 48.89100 39.63600
O  4.42900 49.14700 38.50900
O  5.16000 47.53900 40.03800
C  5.10500 46.49300 38.99800
H  10.48500 53.74800 39.12700
H  6.60200 58.86600 40.04700
H  1.54400 55.28600 40.95700
H  8.01600 49.69900 40.32000
H  9.71700 51.22900 38.64600
H  10.44500 52.06100 41.28000
H  11.27300 50.82700 40.32100
H  9.86400 50.44800 41.40700
H  7.13500 48.89300 38.39700
H  8.61000 49.47800 37.88300
H  7.61800 50.80600 36.24700
H  6.40600 51.52800 37.36400
H  11.63100 55.42200 38.39900
H  11.89500 56.44800 39.77800
H  11.67200 57.19500 38.17400
H  7.70000 59.84700 38.51600
H  8.96100 60.96600 38.67100
H  8.52100 60.16600 40.25600
H  4.00300 59.07300 39.53800
H  2.06100 57.49800 41.09700
H  3.18900 59.42600 42.21600
H  4.31700 60.39500 41.16800
H  4.83200 59.07600 42.32000
H  1.96100 58.76900 38.60400
H  0.83600 57.81900 39.23900
H  2.52500 57.42200 36.88500
H  1.36700 56.22800 37.36900
H  3.11200 56.24300 37.86500
H  0.40600 53.36000 41.33200
H  0.74300 51.90500 42.31700
H  0.36500 51.80800 40.63700
H  5.55800 49.29600 41.54900
H  5.43900 46.88700 38.03800
H  4.12000 46.04100 38.88100
H  5.80900 45.72700 39.32400

