158

Mg 54.09600 24.76900 44.61200
C  51.45600 27.08100 43.81400
C  51.88000 22.41200 43.55200
C  56.71800 22.79400 44.44600
C  56.18000 27.51200 45.37300
N  51.90300 24.82400 43.53900
C  50.96900 25.85700 43.48000
C  49.60100 25.33700 42.89200
C  49.72100 23.81800 43.30500
C  51.27200 23.62100 43.48400
C  48.86900 23.42100 44.49600
C  49.41400 25.50700 41.31900
C  47.96200 25.39500 40.91300
H  47.65600 25.31200 39.48200
N  54.24400 22.80600 44.07900
C  53.20600 21.97000 43.78900
C  53.75200 20.68100 43.53400
C  55.16400 20.78200 43.78700
C  55.45100 22.20700 44.05600
C  52.89000 19.31700 43.35000
C  56.07300 19.60200 43.82200
O  55.76100 18.45500 43.58600
C  57.52700 19.76300 44.08500
N  56.23300 25.11700 44.90900
C  57.06100 24.09900 44.85700
C  58.44100 24.59400 45.32300
C  58.21800 26.09000 45.80000
C  56.79800 26.24500 45.27000
C  59.08100 23.71600 46.41100
C  59.35300 26.97900 45.38500
C  59.15700 27.83900 44.11300
N  53.93600 26.85900 44.59100
C  54.79600 27.79200 45.12100
C  54.06100 29.03200 45.32400
C  52.78200 28.76400 44.76900
C  52.74600 27.45700 44.34200
C  54.55500 30.34500 45.88200
C  51.46500 29.36800 44.62700
O  51.08800 30.52200 44.91500
C  50.62700 28.32500 43.83900
C  50.36200 28.92400 42.52300
O  51.22400 29.49600 41.85500
O  49.02600 28.96800 42.25700
C  48.68900 29.58300 40.96200
H  51.26300 21.52400 43.40200
H  57.57600 22.11900 44.46100
H  56.72600 28.40700 45.67800
H  48.89100 25.94600 43.45200
H  49.51500 23.07500 42.53500
H  48.25900 22.53000 44.34500
H  48.17700 24.18100 44.85900
H  49.49100 22.99700 45.28400
H  50.02900 24.75900 40.81800
H  49.85500 26.45700 41.01500
H  47.48400 26.26600 41.36100
H  47.59500 24.55800 41.50800
H  53.36600 18.48700 43.87100
H  52.82900 19.02900 42.30100
H  51.95700 19.53700 43.86800
H  57.81600 20.51100 43.34600
H  58.08300 18.85600 43.85000
H  57.72600 20.02400 45.12400
H  59.24300 24.56800 44.58500
H  58.23000 25.97200 46.88400
H  58.50000 22.79500 46.44000
H  59.12500 24.22200 47.37500
H  60.11700 23.48100 46.16600
H  60.26600 26.38700 45.32000
H  59.51300 27.69100 46.19500
H  58.38400 27.40600 43.47700
H  60.08700 28.11300 43.61600
H  58.94200 28.78700 44.60600
H  55.59200 30.38600 46.21200
H  53.93800 30.54500 46.75800
H  54.44000 31.15100 45.15700
H  49.67000 28.12100 44.31900
H  47.99200 28.89600 40.48200
H  49.57000 29.81600 40.36300
H  48.08200 30.48800 40.95200
Mg 10.27600 47.06000 25.82500
C  8.21100 47.15200 28.65200
C  12.68800 48.62100 27.76100
C  11.97300 47.60500 22.97200
C  7.46200 46.03400 23.89800
N  10.34200 47.90800 27.95300
C  9.45000 47.76200 28.95800
C  9.98700 48.32600 30.27500
C  11.34100 48.98800 29.84000
C  11.46300 48.46600 28.43300
C  11.25200 50.57100 29.83400
C  10.02100 47.32900 31.43400
C  10.67600 47.87500 32.76000
H  9.85800 47.87100 34.03500
N  12.19200 47.80900 25.47200
C  13.05200 48.29900 26.39500
C  14.35000 48.55300 25.70200
C  14.17100 48.20100 24.31000
C  12.73000 47.83100 24.18100
C  15.63100 49.16900 26.48600
C  15.11200 48.36000 23.16600
O  14.91900 47.89200 22.03600
C  16.47900 48.92200 23.42200
N  9.71000 46.92300 23.67300
C  10.69500 47.06400 22.75400
C  10.04200 46.79700 21.34200
C  8.78000 46.01300 21.69400
C  8.63700 46.22000 23.21800
C  9.90500 48.25000 20.67400
C  8.63700 44.42900 21.22800
C  8.35500 43.46000 22.35900
N  8.24200 46.71100 26.15500
C  7.13700 46.31500 25.32800
C  5.95200 46.26800 26.07000
C  6.39200 46.56300 27.38700
C  7.75500 46.75200 27.39200
C  4.53200 45.96100 25.62800
C  5.88300 46.74300 28.73600
O  4.72400 46.52500 29.13500
C  7.12900 47.02300 29.59900
C  7.38100 45.85600 30.50100
O  7.94400 44.81300 30.16100
O  6.70900 46.13800 31.69900
C  6.85900 45.14500 32.73500
H  13.48900 49.17300 28.25700
H  12.57100 47.52100 22.06200
H  6.63900 45.45300 23.47600
H  9.25700 48.98800 30.74200
H  12.21200 48.61000 30.37500
H  10.42200 50.86900 30.47400
H  11.04500 50.99300 28.85100
H  12.12900 51.04100 30.28000
H  10.55400 46.44100 31.09400
H  9.10700 46.96500 31.90400
H  10.98400 48.91200 32.63200
H  11.65500 47.46900 33.01100
H  16.15400 49.97800 25.97500
H  16.35100 48.43800 26.85300
H  15.30700 49.56800 27.44700
H  17.02700 48.51900 24.27400
H  16.42500 50.00700 23.34100
H  16.99400 48.68000 22.49300
H  10.77400 46.24100 20.75700
H  7.96300 46.50000 21.16100
H  10.39800 48.15000 19.70700
H  10.39100 49.05800 21.22100
H  8.85900 48.53300 20.56100
H  9.58500 44.11700 20.79100
H  7.84800 44.32600 20.48300
H  9.07900 42.64500 22.37000
H  7.35700 43.08300 22.13600
H  8.39400 43.81500 23.38900
H  4.26000 45.03700 26.13900
H  4.51100 45.75800 24.55700
H  3.77100 46.72800 25.76900
H  7.00800 47.84700 30.30200
H  6.59400 44.10300 32.56000
H  6.17000 45.52400 33.49000
H  7.89300 45.21800 33.07300

