158

Mg -1.92600 17.37900 25.96100
C  -2.58300 14.96800 28.57000
C  -2.30000 19.82100 28.30000
C  -2.11600 19.37900 23.38900
C  -1.83400 14.65500 23.70800
N  -2.38400 17.35000 28.17200
C  -2.37300 16.24200 29.03600
C  -2.50300 16.67500 30.49500
C  -2.59000 18.22200 30.39100
C  -2.45200 18.50800 28.87000
C  -3.83600 19.01400 31.08400
C  -1.23900 16.19900 31.24800
C  -0.88400 16.81100 32.57700
H  -0.51400 15.98800 33.77800
N  -2.12800 19.36700 25.85300
C  -2.26500 20.16100 26.92000
C  -2.25600 21.47900 26.39700
C  -2.39400 21.37500 25.01500
C  -2.22500 20.03800 24.65800
C  -2.23200 22.74200 27.38100
C  -2.63800 22.54000 23.94400
O  -2.83900 22.37700 22.69700
C  -2.57900 23.89800 24.42100
N  -1.85700 17.01600 23.92300
C  -1.91700 18.06900 23.05700
C  -1.88100 17.58300 21.59100
C  -1.52600 16.11800 21.66800
C  -1.62300 15.92100 23.23100
C  -3.10200 17.85700 20.72700
C  -0.13400 15.69900 21.14600
C  -0.13100 14.67000 20.04000
N  -2.12500 15.21700 26.10200
C  -2.11900 14.24300 25.06200
C  -2.48300 12.94300 25.57800
C  -2.66900 13.17000 26.98600
C  -2.48000 14.55000 27.17400
C  -2.70500 11.65600 24.93000
C  -2.93700 12.52500 28.21900
O  -3.18700 11.37200 28.48700
C  -2.98700 13.63900 29.26400
C  -2.07100 13.20600 30.38000
O  -0.88500 13.36000 30.39000
O  -2.66700 12.44400 31.31600
C  -1.79300 11.77200 32.31500
H  -2.32600 20.53900 29.12300
H  -2.19800 20.00600 22.49900
H  -1.74400 13.75100 23.10300
H  -3.42500 16.23300 30.87300
H  -1.71700 18.72100 30.81100
H  -3.58700 19.71400 31.88200
H  -4.45800 18.22600 31.50800
H  -4.59900 19.42000 30.42000
H  -0.39600 15.97200 30.59500
H  -1.53900 15.23300 31.65600
H  -1.53400 17.66300 32.77600
H  0.07900 17.23400 32.29100
H  -2.04700 22.44000 28.41200
H  -3.16700 23.28800 27.25900
H  -1.51900 23.50600 27.06900
H  -3.38900 24.12500 25.11500
H  -2.98200 24.53800 23.63600
H  -1.62700 24.31300 24.75000
H  -1.00800 18.14400 21.25900
H  -2.26000 15.44300 21.22900
H  -2.81300 18.64300 20.02900
H  -3.92100 18.19300 21.36300
H  -3.46000 16.94100 20.25700
H  0.49000 15.23900 21.91200
H  0.41700 16.61000 20.91300
H  0.73900 14.85200 19.40900
H  -1.00400 14.63200 19.38800
H  -0.11300 13.64400 20.40800
H  -3.78600 11.55800 24.82900
H  -2.29100 10.88200 25.57600
H  -2.27900 11.70000 23.92700
H  -3.93500 13.73100 29.79300
H  -1.32400 10.95500 31.76900
H  -2.41500 11.43200 33.14300
H  -1.01100 12.41400 32.72200
Mg 26.67000 49.98500 26.95100
C  24.79600 51.15600 29.70100
C  29.12600 49.24700 29.19500
C  28.52200 49.31400 24.25100
C  24.16000 51.22000 24.90500
N  26.87200 50.18800 29.18900
C  26.02700 50.64600 30.10000
C  26.42600 50.23200 31.55600
C  27.92900 49.69500 31.34800
C  28.01400 49.79400 29.82100
C  29.04300 50.53400 32.05500
C  25.41900 49.21600 32.12000
C  24.45500 49.73500 33.23400
H  24.37600 49.15000 34.56900
N  28.62700 49.46900 26.74700
C  29.49700 49.18300 27.78600
C  30.75900 48.80400 27.15300
C  30.62900 48.82500 25.74800
C  29.18900 49.19500 25.53300
C  31.94200 48.42600 27.95300
C  31.65200 48.63100 24.66700
O  31.33300 48.76800 23.45900
C  33.08400 48.17700 25.06200
N  26.37300 50.25600 24.84200
C  27.26000 49.78300 23.95200
C  26.63700 49.77000 22.50400
C  25.25600 50.44200 22.69200
C  25.23400 50.64400 24.23600
C  27.50500 50.39500 21.32800
C  24.18000 49.43100 22.23600
C  23.57300 49.76900 20.80300
N  24.85300 50.91000 27.18700
C  23.98800 51.45800 26.22400
C  22.85200 52.12500 26.85200
C  23.12500 51.95800 28.19500
C  24.32100 51.22700 28.33800
C  21.74900 52.85900 26.10800
C  22.63000 52.28400 29.53300
O  21.58700 52.85300 29.86400
C  23.61400 51.65700 30.52300
C  23.93200 52.69900 31.59800
O  24.77100 53.57200 31.41900
O  23.05300 52.64200 32.65100
C  23.04200 53.82000 33.48100
H  29.82300 48.77300 29.88900
H  29.19100 49.20600 23.39400
H  23.44500 51.62200 24.18400
H  26.46500 51.14400 32.15100
H  27.99200 48.67300 31.72000
H  28.55100 51.04000 32.88500
H  29.47400 51.27800 31.38400
H  29.86000 49.91600 32.42700
H  25.84200 48.31100 32.55500
H  24.73100 48.92100 31.32800
H  23.48200 49.54200 32.78100
H  24.49200 50.82000 33.33200
H  32.67500 49.21400 27.77900
H  32.27900 47.44800 27.60900
H  31.73900 48.43600 29.02400
H  33.20200 47.51700 25.92100
H  33.47100 49.15800 25.34000
H  33.67400 47.83000 24.21400
H  26.51900 48.75400 22.13000
H  25.20300 51.37700 22.13500
H  28.31100 50.89600 21.86400
H  26.83900 51.05400 20.77100
H  27.75700 49.61200 20.61300
H  23.39700 49.41500 22.99400
H  24.40500 48.36600 22.18100
H  23.48500 48.89600 20.15600
H  24.12000 50.60800 20.37400
H  22.58600 50.19700 20.97600
H  22.12200 53.76400 25.62900
H  20.87200 53.02800 26.73300
H  21.48300 52.19800 25.28300
H  22.95000 50.86100 30.85900
H  22.17000 53.80900 34.13500
H  22.92000 54.75200 32.92900
H  23.91900 53.93200 34.11800

