158

Mg -1.30800 17.71500 25.98100
C  -1.92500 15.73400 28.60800
C  -2.03500 20.44700 28.05500
C  -0.76200 19.82300 23.41900
C  -1.40300 15.02700 23.87100
N  -1.79900 18.00400 28.12800
C  -1.89000 17.03900 29.03900
C  -2.18000 17.58000 30.43300
C  -2.57900 19.11600 30.14900
C  -2.14200 19.19800 28.68000
C  -4.09200 19.40200 30.22900
C  -1.09000 17.41600 31.41700
C  -1.50300 16.81400 32.76400
H  -0.23000 16.31300 33.51300
N  -1.17700 19.76400 25.81600
C  -1.55800 20.70900 26.76000
C  -1.36000 22.03100 26.20300
C  -0.82100 21.91600 24.90400
C  -0.82700 20.44300 24.66700
C  -1.61900 23.33400 26.94700
C  -0.44200 22.98300 23.92600
O  0.03600 22.75900 22.82600
C  -0.56900 24.39900 24.27300
N  -1.26100 17.44300 23.88900
C  -0.98100 18.45800 23.06500
C  -0.85200 17.89700 21.55900
C  -0.71600 16.34900 21.78900
C  -1.14500 16.23800 23.28700
C  -1.95300 18.36300 20.57400
C  0.62900 15.68200 21.35900
C  1.72000 15.70200 22.42200
N  -1.61000 15.76300 26.15400
C  -1.65700 14.77900 25.19600
C  -1.85800 13.52400 25.87200
C  -1.92200 13.84700 27.21800
C  -1.86400 15.20400 27.29700
C  -1.96300 12.22200 25.19500
C  -2.07000 13.31200 28.47000
O  -2.17500 12.07500 28.72600
C  -2.31300 14.50400 29.40600
C  -1.64700 14.12200 30.63500
O  -0.47400 14.19600 30.90000
O  -2.63200 13.50800 31.43300
C  -2.19100 12.95200 32.69300
H  -2.29900 21.29000 28.69600
H  -0.72400 20.52100 22.58000
H  -1.22100 14.16300 23.22900
H  -2.98300 16.95300 30.82000
H  -2.11000 19.81400 30.84200
H  -4.38400 20.25500 29.61600
H  -4.40100 19.61700 31.25200
H  -4.62700 18.56000 29.79000
H  -0.66300 18.38400 31.67600
H  -0.26800 16.84100 30.99100
H  -2.28000 16.07200 32.58400
H  -1.89900 17.66500 33.31900
H  -0.70700 23.89300 27.16100
H  -2.14900 23.17500 27.88600
H  -2.29800 23.95600 26.36400
H  0.03400 24.46200 25.17800
H  -1.59600 24.74500 24.38300
H  -0.15200 25.04400 23.50000
H  0.14400 18.16000 21.20200
H  -1.51400 15.78500 21.30500
H  -2.57000 18.95400 21.25100
H  -2.60600 17.58800 20.17100
H  -1.54500 19.04600 19.82900
H  1.16400 16.05600 20.48600
H  0.44900 14.65400 21.04500
H  1.56900 16.42600 23.22200
H  2.67100 15.94100 21.94600
H  1.80800 14.69500 22.83200
H  -1.66800 11.41600 25.86700
H  -1.32400 12.32700 24.31800
H  -2.98800 12.06900 24.85500
H  -3.38400 14.62200 29.57500
H  -3.05300 12.45000 33.13400
H  -1.86100 13.82200 33.26100
H  -1.29600 12.33100 32.66000
Mg 6.11400 53.67200 41.72600
C  5.67400 50.31500 40.87400
C  9.25100 53.56000 40.51000
C  6.10100 57.05300 41.58800
C  2.57100 53.83100 42.57800
N  7.17200 52.09900 40.58300
C  6.90900 50.78100 40.43700
C  8.02400 50.05000 39.91200
C  9.25500 51.00000 40.16700
C  8.54700 52.33000 40.46900
C  10.26000 50.45400 41.32600
C  7.93200 49.58300 38.43500
C  7.14700 50.45800 37.41200
H  7.18700 49.95600 35.95200
N  7.53600 55.13200 41.16900
C  8.80100 54.86900 40.78100
C  9.55300 56.08500 40.64700
C  8.73700 57.14100 41.12100
C  7.39300 56.46500 41.35700
C  10.92500 56.09600 40.01900
C  9.10100 58.62100 41.23600
O  10.25700 58.95100 41.17400
C  8.07400 59.60000 41.56500
N  4.52200 55.24200 42.02100
C  4.87200 56.50600 41.87900
C  3.61200 57.39100 42.13600
C  2.51100 56.38700 42.63000
C  3.18100 55.04900 42.30500
C  3.80400 58.73300 42.90400
C  1.05000 56.64800 42.20900
C  0.00800 56.29000 43.27400
N  4.49600 52.36800 41.90900
C  3.17900 52.58200 42.30500
C  2.61300 51.22500 42.47200
C  3.48700 50.33800 41.87900
C  4.64400 51.10000 41.50700
C  1.38200 50.87000 43.36500
C  3.76000 48.92800 41.57500
O  3.05300 47.99100 41.89300
C  5.14300 48.86600 40.88700
C  5.02800 48.09100 39.59600
O  4.44800 48.46100 38.60600
O  5.60700 46.81200 39.72400
C  5.45900 45.95600 38.59900
H  10.29500 53.47800 40.19900
H  6.08600 58.13400 41.43300
H  1.52300 53.92700 42.86900
H  8.11900 49.13300 40.49400
H  9.95600 51.09000 39.33700
H  10.42600 51.25700 42.04400
H  11.23900 50.23700 40.89800
H  9.99000 49.56000 41.88800
H  7.37100 48.66000 38.28900
H  8.95800 49.36600 38.13900
H  7.67600 51.41000 37.45900
H  6.14800 50.78600 37.69800
H  10.94500 56.11900 38.92900
H  11.40400 55.18400 40.37600
H  11.47300 56.95300 40.41200
H  8.60800 60.53000 41.76000
H  7.70800 59.27100 42.53800
H  7.34000 59.70900 40.76700
H  3.41400 57.79700 41.14400
H  2.67900 56.59400 43.68700
H  3.38600 59.58100 42.36100
H  4.86500 58.97800 42.94200
H  3.49000 58.69500 43.94700
H  0.80000 56.00500 41.36600
H  1.14300 57.67500 41.85400
H  -0.56200 57.20900 43.40400
H  0.55800 56.05500 44.18500
H  -0.70700 55.53700 42.94100
H  0.94000 49.98300 42.91200
H  0.64900 51.67000 43.46900
H  1.76200 50.63200 44.35800
H  5.79700 48.24400 41.49800
H  4.95100 45.04600 38.91800
H  6.44300 45.61900 38.27100
H  4.94200 46.36300 37.73000

