158

Mg 25.47600 1.83100 29.67100
C  27.71200 1.69300 32.54300
C  23.00800 2.02500 31.85800
C  23.47200 1.45000 27.07000
C  28.24700 0.74400 27.74100
N  25.35400 2.00700 31.96300
C  26.39400 2.00000 32.91800
C  25.87900 2.36600 34.30300
C  24.30700 2.32800 34.04400
C  24.14700 2.14700 32.54500
C  23.53400 1.28300 34.87500
C  26.37000 3.72100 34.86800
C  27.39000 3.73600 36.06000
H  26.93600 4.57600 37.37500
N  23.54400 1.77400 29.46800
C  22.65100 1.90100 30.51800
C  21.28900 1.77500 30.01800
C  21.39400 1.66800 28.60100
C  22.83800 1.60500 28.30000
C  20.12700 2.02800 30.94400
C  20.35800 1.49700 27.50100
O  20.58700 1.26300 26.32200
C  18.93600 1.61400 27.85900
N  25.79100 1.18500 27.65300
C  24.81700 1.35900 26.73800
C  25.38400 1.24500 25.32900
C  26.90700 1.05900 25.51900
C  27.00600 0.93300 27.07300
C  24.72000 0.24100 24.33000
C  27.65200 2.41600 24.98900
C  27.65900 3.74400 25.84200
N  27.52700 1.45600 29.99100
C  28.49800 0.94800 29.08800
C  29.79100 0.82800 29.77100
C  29.46400 0.97400 31.09200
C  28.10600 1.35100 31.21800
C  31.07400 0.54600 29.00600
C  30.09500 0.93900 32.42900
O  31.21600 0.66100 32.75300
C  28.96800 1.47700 33.39400
C  28.78600 0.50100 34.52700
O  28.08100 -0.51300 34.49100
O  29.46900 0.98200 35.64800
C  29.30900 0.05900 36.75800
H  22.17000 2.09100 32.55600
H  22.82900 1.46500 26.18800
H  29.17200 0.66100 27.16600
H  26.09200 1.51500 34.95000
H  23.77600 3.22900 34.35200
H  22.45400 1.42900 34.87000
H  24.02200 1.10100 35.83300
H  23.51000 0.35600 34.30300
H  25.55300 4.42900 35.00300
H  26.85800 4.19300 34.01500
H  28.37100 4.13400 35.80100
H  27.49900 2.71100 36.41600
H  19.93700 3.10100 30.92800
H  20.25300 1.68000 31.97000
H  19.20700 1.60100 30.54500
H  18.33300 1.27400 27.01800
H  18.75000 2.64900 28.14700
H  18.82300 0.92100 28.69300
H  25.20600 2.26600 24.99200
H  27.40900 0.19000 25.09400
H  24.02700 -0.35300 24.92500
H  25.40700 -0.44800 23.83800
H  24.20200 0.81800 23.56400
H  27.24600 2.71900 24.02400
H  28.71000 2.20000 24.83700
H  27.07000 3.52400 26.73300
H  27.23600 4.56700 25.26800
H  28.59900 4.03400 26.31100
H  31.04600 0.10700 28.00800
H  31.73600 -0.02100 29.66000
H  31.57800 1.50400 28.87200
H  29.19600 2.45800 33.81100
H  29.32200 -0.96600 36.38900
H  28.47000 0.39300 37.36900
H  30.19700 0.11400 37.38800
Mg 6.58600 53.21100 40.81300
C  6.09000 49.78800 40.26900
C  9.81100 52.93000 39.93300
C  6.86800 56.66900 40.99300
C  3.07500 53.55000 41.14400
N  7.85400 51.54900 39.92200
C  7.43800 50.24100 39.95900
C  8.66100 49.42100 39.89100
C  9.87200 50.37400 40.08100
C  9.18800 51.73900 39.97900
C  10.70300 50.20900 41.42400
C  8.87200 48.51200 38.67000
C  8.88000 49.17800 37.29000
H  7.75300 48.75900 36.30600
N  8.15800 54.62600 40.54700
C  9.34900 54.27700 40.04200
C  10.16300 55.43200 39.78900
C  9.35500 56.51200 40.18200
C  8.04600 55.98100 40.63400
C  11.59400 55.37000 39.18500
C  9.74000 57.93300 40.12500
O  10.78800 58.21200 39.65100
C  8.98700 59.12100 40.68200
N  5.12900 54.84000 41.01900
C  5.52800 56.13500 41.06200
C  4.38300 57.06200 41.30100
C  3.18500 56.12400 41.10100
C  3.84100 54.73400 41.12500
C  4.47500 57.83600 42.65100
C  2.25000 56.29800 39.88300
C  0.74200 56.06500 40.14500
N  4.90200 51.98200 40.82900
C  3.55100 52.21100 41.04800
C  2.73100 50.95300 40.95500
C  3.72400 50.05700 40.70900
C  4.98900 50.67300 40.53300
C  1.33100 50.68500 41.08200
C  3.99100 48.62800 40.56100
O  3.24600 47.63100 40.64100
C  5.47100 48.37000 40.28400
C  5.44300 47.55500 38.96500
O  4.90900 47.91300 37.99800
O  6.16000 46.36500 39.07300
C  5.89000 45.36600 38.02600
H  10.89600 52.83900 39.84800
H  6.78800 57.75800 40.96100
H  1.98300 53.57100 41.15100
H  8.54300 48.79400 40.77400
H  10.67600 50.15000 39.38100
H  11.03100 51.08800 41.97800
H  11.59700 49.65600 41.13400
H  10.10400 49.67100 42.15900
H  8.06400 47.78600 38.75500
H  9.77900 47.91700 38.77900
H  9.83500 49.05600 36.77800
H  8.72500 50.23500 37.50600
H  11.63500 55.89000 38.22800
H  11.93900 54.33800 39.12800
H  12.23800 55.81500 39.94400
H  9.61800 60.01000 40.70800
H  8.80000 58.85500 41.72200
H  8.03000 59.32800 40.20300
H  4.21100 57.80500 40.52300
H  2.62900 56.07500 42.03700
H  4.65600 58.86700 42.34800
H  5.23300 57.50800 43.36200
H  3.45500 57.68600 43.00700
H  2.58300 55.74000 39.00800
H  2.33300 57.32100 39.51700
H  0.62200 56.06100 41.22800
H  0.52400 55.13700 39.61600
H  0.21400 56.96900 39.84200
H  1.17300 49.84800 40.40100
H  0.86000 51.64700 40.88100
H  1.14200 50.42700 42.12400
H  5.70800 47.63500 41.05300
H  4.81900 45.29300 37.83800
H  6.31900 44.39500 38.27200
H  6.34000 45.72500 37.10000

