158

Mg 43.78600 41.76600 26.48400
C  42.73700 44.18000 28.83000
C  44.73900 39.79200 29.06900
C  44.77800 39.59500 24.22800
C  43.17900 44.24200 23.99000
N  43.89100 42.12200 28.71700
C  43.25200 43.07700 29.45200
C  43.15200 42.64500 30.96100
C  44.11400 41.43600 31.00700
C  44.37400 41.13400 29.50100
C  45.44800 41.66700 31.83700
C  41.63300 42.56900 31.37400
C  41.27700 41.70300 32.56900
H  40.61600 42.32400 33.84700
N  44.67700 39.97300 26.64900
C  44.95800 39.26400 27.79400
C  45.40300 37.90800 27.43900
C  45.52500 37.89000 26.05200
C  45.02100 39.15200 25.55500
C  45.74200 36.73400 28.48700
C  45.98000 36.73200 25.14500
O  45.88600 36.70100 23.91000
C  46.55400 35.46600 25.79100
N  43.92900 41.91200 24.34700
C  44.38600 40.87300 23.64800
C  44.33500 41.13700 22.12700
C  43.79400 42.64400 22.09600
C  43.60600 42.99200 23.52200
C  45.75300 41.02300 21.38000
C  42.52300 42.89300 21.20300
C  42.66100 43.98900 20.28000
N  43.08000 43.69900 26.33700
C  42.90000 44.58800 25.29100
C  42.32700 45.83300 25.76100
C  42.24900 45.67900 27.14700
C  42.77100 44.43100 27.46900
C  42.01100 46.93400 24.92800
C  41.90600 46.46700 28.40400
O  41.48000 47.56400 28.56400
C  42.11700 45.37500 29.55500
C  42.96500 45.99100 30.55500
O  44.11200 46.40900 30.41900
O  42.15500 46.25700 31.72400
C  42.82400 46.89500 32.87900
H  45.05100 39.04900 29.80600
H  45.02400 38.89300 23.42800
H  43.08800 45.05600 23.26800
H  43.54800 43.52500 31.46800
H  43.67300 40.55300 31.47100
H  46.34100 41.33300 31.30900
H  45.32500 40.99900 32.69000
H  45.52500 42.68900 32.21000
H  41.04100 42.14300 30.56400
H  41.37400 43.61600 31.53000
H  42.07500 41.04800 32.92000
H  40.55800 40.94600 32.25400
H  44.96600 35.98400 28.64000
H  45.85500 37.32300 29.39700
H  46.76000 36.35900 28.37700
H  46.93400 34.86500 24.96500
H  45.79000 34.95400 26.37500
H  47.40500 35.62800 26.45300
H  43.59100 40.49300 21.65900
H  44.61300 43.28900 21.77800
H  46.52800 41.38700 22.05500
H  45.77300 41.59100 20.45000
H  45.79600 39.96900 21.10800
H  41.76400 43.23100 21.90800
H  42.18200 41.99500 20.68800
H  43.64200 44.06600 19.81100
H  42.29100 44.90700 20.73600
H  42.02200 43.73900 19.43300
H  42.97800 47.43100 24.84400
H  41.39100 47.62200 25.50200
H  41.58400 46.65100 23.96600
H  41.12700 45.17800 29.96500
H  42.73900 46.29000 33.78200
H  42.55100 47.92600 33.10400
H  43.89100 46.93900 32.65900
Mg -1.86800 34.07900 26.89800
C  -3.89900 32.43300 29.48000
C  -0.35300 35.86000 29.46600
C  -0.42800 35.84400 24.57300
C  -3.93800 32.48100 24.53800
N  -2.20600 34.14300 29.18600
C  -3.00200 33.38700 30.03600
C  -2.70700 33.65300 31.50800
C  -1.77700 34.96300 31.40700
C  -1.40500 34.99000 29.92500
C  -2.38100 36.40600 31.92900
C  -2.13600 32.37100 32.13600
C  -2.96200 31.93000 33.30500
H  -2.14900 31.71400 34.60600
N  -0.45300 35.57400 26.98700
C  0.07900 36.10700 28.06900
C  1.14800 37.04500 27.71500
C  1.10400 37.07100 26.28900
C  -0.03800 36.20200 25.89000
C  1.99400 37.79300 28.68900
C  1.99500 37.80300 25.34100
O  1.67800 38.04400 24.17700
C  3.31600 38.31900 25.82300
N  -2.24100 34.21900 24.85100
C  -1.45400 35.02000 24.11900
C  -1.86500 34.87600 22.59300
C  -2.69100 33.61700 22.60400
C  -2.99700 33.39800 24.07900
C  -2.55100 36.11300 22.01100
C  -1.97200 32.47300 21.94000
C  -0.81200 31.72900 22.62100
N  -3.51200 32.68500 26.96100
C  -4.19800 32.12500 25.87100
C  -5.19900 31.22900 26.42400
C  -5.12500 31.33600 27.77800
C  -4.06600 32.26600 28.09800
C  -6.19700 30.41000 25.72800
C  -5.67500 30.82600 29.01300
O  -6.47100 29.92500 29.21800
C  -4.95800 31.59600 30.12500
C  -5.99900 32.37900 30.93100
O  -6.51900 33.46300 30.67400
O  -6.32600 31.72200 32.01800
C  -7.39500 32.24400 32.90100
H  0.25300 36.40000 30.19700
H  0.03000 36.45800 23.79400
H  -4.58200 31.97200 23.81800
H  -3.58200 34.04700 32.02600
H  -0.84300 34.71700 31.91200
H  -2.57600 37.08800 31.10100
H  -1.74000 36.89500 32.66300
H  -3.38900 36.25000 32.31200
H  -1.13700 32.39900 32.57200
H  -2.16600 31.48900 31.49600
H  -3.60100 31.05600 33.18100
H  -3.63700 32.76100 33.51000
H  1.42800 37.96800 29.60500
H  2.54500 38.69000 28.41000
H  2.68900 36.98900 28.93200
H  3.04500 39.19500 26.41300
H  3.96400 38.63800 25.00700
H  3.77100 37.66100 26.56300
H  -0.87700 34.71800 22.16000
H  -3.67500 33.63800 22.13600
H  -3.23400 35.65700 21.29500
H  -1.81600 36.74700 21.51500
H  -3.03400 36.61800 22.84700
H  -1.54700 32.85300 21.01100
H  -2.76700 31.76100 21.71700
H  -0.42800 32.49700 23.29200
H  -0.09300 31.33800 21.90100
H  -1.16200 30.86700 23.18800
H  -7.23300 30.65500 25.96100
H  -6.15800 29.35600 26.00500
H  -6.05200 30.52500 24.65400
H  -4.52500 30.84700 30.78700
H  -8.23600 32.69000 32.36800
H  -7.01900 32.96200 33.62900
H  -7.77200 31.35200 33.40000

