158

Mg 26.86900 50.76800 26.75600
C  24.89400 51.77400 29.57300
C  29.15100 49.69400 28.81000
C  28.94400 50.60400 24.03600
C  24.66800 52.64600 24.79900
N  26.97700 50.83400 28.97800
C  26.09500 51.15400 29.93800
C  26.56400 50.70800 31.33300
C  27.91900 50.00900 30.98100
C  28.01500 50.07700 29.42800
C  29.09700 50.67500 31.68400
C  25.58200 49.67900 32.02500
C  24.83100 50.18200 33.31000
H  24.82200 49.38200 34.58800
N  28.72500 50.10400 26.45700
C  29.51500 49.63900 27.43900
C  30.73400 49.07400 26.85600
C  30.73400 49.41000 25.44800
C  29.45700 50.11000 25.23400
C  31.80300 48.30200 27.60700
C  31.75000 48.98800 24.33400
O  31.60700 49.37200 23.14200
C  32.89500 48.02100 24.69100
N  26.66900 51.29500 24.62500
C  27.66900 51.09200 23.72900
C  27.19000 51.47900 22.28400
C  25.71400 52.09700 22.50200
C  25.68000 52.10300 24.08000
C  28.23900 52.39700 21.55900
C  24.57000 51.22200 22.00600
C  23.33500 51.93400 21.19000
N  25.12700 51.76700 27.04500
C  24.41100 52.49800 26.15900
C  23.26900 53.10700 26.75100
C  23.38200 52.85200 28.11600
C  24.55700 52.05100 28.24900
C  22.27500 54.05100 26.08000
C  22.94900 53.18100 29.46600
O  22.10900 53.95100 29.91200
C  23.80500 52.31200 30.44600
C  24.19900 53.36700 31.46400
O  25.22000 53.94700 31.45300
O  23.22200 53.45700 32.49100
C  23.42100 54.50500 33.57500
H  29.85200 49.14300 29.44000
H  29.56700 50.44700 23.15300
H  23.90900 53.10800 24.16500
H  26.65000 51.67400 31.83200
H  27.92100 48.93000 31.13600
H  29.64200 49.91900 32.24900
H  28.61700 51.30700 32.43100
H  29.76800 51.25000 31.04600
H  26.11700 48.77000 32.30200
H  24.81500 49.49700 31.27300
H  23.80200 50.37400 33.00500
H  25.24800 51.08000 33.76800
H  31.66800 48.16300 28.67900
H  32.73300 48.87100 27.60200
H  31.91000 47.30500 27.18000
H  33.47500 48.47900 25.49200
H  33.48900 47.79700 23.80500
H  32.61700 47.00500 24.97100
H  27.19400 50.54500 21.72300
H  25.54200 53.13100 22.20400
H  29.00900 52.70000 22.26800
H  27.69100 53.24900 21.15600
H  28.68800 51.91800 20.68900
H  24.17500 50.55700 22.77300
H  24.94400 50.55900 21.22500
H  22.44700 51.30300 21.21000
H  23.69800 51.93500 20.16200
H  23.09700 52.95100 21.50200
H  22.66900 55.06100 25.96500
H  21.38200 54.14100 26.69900
H  22.14900 53.58900 25.10100
H  23.19000 51.54900 30.92300
H  24.04400 54.00400 34.31600
H  22.45500 54.84400 33.94900
H  24.00100 55.32800 33.15700
Mg -5.25000 25.55400 25.43900
C  -3.89100 26.64300 28.43400
C  -7.25900 23.40600 27.24900
C  -6.07800 24.03000 22.57800
C  -2.51300 27.09300 23.79700
N  -5.43000 25.04400 27.62900
C  -4.91700 25.72900 28.67900
C  -5.49500 25.20000 30.01500
C  -6.39500 24.02200 29.64100
C  -6.42400 24.19600 28.07400
C  -5.89800 22.59700 29.97300
C  -6.12000 26.30900 31.00600
C  -5.92400 26.06300 32.53300
H  -5.47200 24.76100 33.19100
N  -6.65800 24.07800 25.01200
C  -7.34500 23.36300 25.87700
C  -8.27700 22.58400 25.18600
C  -8.04400 22.86500 23.78100
C  -6.84300 23.68900 23.73600
C  -9.43100 21.64800 25.77200
C  -8.68300 22.24400 22.50800
O  -8.34000 22.45200 21.36600
C  -9.84200 21.36300 22.67200
N  -4.44200 25.59500 23.44400
C  -5.04100 24.89900 22.38900
C  -4.17600 25.10300 21.11400
C  -3.18000 26.21000 21.50200
C  -3.36200 26.30300 23.03500
C  -3.57100 23.80200 20.61500
C  -3.34000 27.62100 20.80200
C  -2.46600 28.00100 19.59600
N  -3.64900 26.92100 25.91800
C  -2.55800 27.47200 25.17600
C  -1.71100 28.22500 26.05000
C  -2.21100 27.90400 27.38000
C  -3.34400 27.14200 27.20800
C  -0.56400 29.10600 25.67400
C  -1.96000 28.06500 28.80600
O  -1.02900 28.60700 29.39000
C  -3.07100 27.27000 29.57100
C  -2.43000 26.25900 30.57600
O  -1.89200 25.16000 30.25300
O  -2.43400 26.82100 31.82300
C  -1.67100 26.09700 32.83700
H  -8.02500 22.84800 27.79100
H  -6.29200 23.58700 21.60300
H  -1.69400 27.65300 23.33900
H  -4.64700 24.85000 30.60300
H  -7.34700 24.26600 30.11300
H  -5.80200 21.85800 29.17800
H  -6.66400 22.22500 30.65400
H  -4.97800 22.59700 30.55700
H  -7.19600 26.30900 30.82900
H  -5.58800 27.24500 30.84100
H  -6.87300 26.32600 32.99900
H  -5.23500 26.79800 32.95100
H  -9.62300 21.65500 26.84500
H  -9.34300 20.62400 25.40900
H  -10.34100 22.05300 25.33000
H  -10.62400 21.88400 23.22500
H  -9.51700 20.41100 23.09200
H  -10.31400 21.13200 21.71600
H  -4.87400 25.49100 20.37200
H  -2.20300 25.88000 21.15000
H  -2.52300 23.71100 20.89900
H  -3.75300 23.73400 19.54300
H  -4.04300 22.90600 21.01800
H  -3.20000 28.48600 21.45100
H  -4.36300 27.65100 20.42600
H  -2.06200 29.01300 19.58900
H  -2.94700 27.76200 18.64700
H  -1.62000 27.31700 19.51500
H  -0.34900 28.85400 24.63500
H  0.23400 28.77800 26.34000
H  -0.75700 30.17700 25.74300
H  -3.69900 27.99400 30.08900
H  -0.79300 26.71700 33.02100
H  -1.24800 25.13900 32.53600
H  -2.29700 26.05200 33.72800

