158

Mg 42.70600 4.83400 47.71800
C  41.00000 7.94000 47.29900
C  39.78900 3.19200 47.43900
C  44.51000 2.02700 47.16400
C  45.79800 6.76200 47.37600
N  40.59000 5.49000 47.39000
C  40.12600 6.73500 47.30700
C  38.54000 6.80400 47.52600
C  38.18100 5.29700 47.75200
C  39.59200 4.59500 47.50500
C  37.52000 4.84600 49.07300
C  37.74700 7.55800 46.39000
C  38.09200 7.05100 44.91800
H  38.50400 8.08900 43.92400
N  42.25200 2.83500 47.52300
C  40.96200 2.33300 47.46700
C  40.98400 0.91200 47.47500
C  42.35600 0.54200 47.22000
C  43.15500 1.78200 47.28800
C  39.66700 0.12300 47.60500
C  42.73000 -0.83600 47.01900
O  41.95300 -1.78600 46.96200
C  44.11600 -1.12000 46.84700
N  44.81700 4.48100 47.17100
C  45.25500 3.17400 47.15100
C  46.79400 3.13400 47.13100
C  47.18500 4.65800 47.08300
C  45.85500 5.41200 47.16600
C  47.42400 2.34900 48.33700
C  48.06900 5.05400 45.82300
C  49.51300 5.11200 45.97600
N  43.34500 6.92100 47.46900
C  44.63600 7.53300 47.34500
C  44.41300 9.02700 47.26800
C  43.02200 9.20000 47.34400
C  42.45700 7.89400 47.33100
C  45.44400 9.93500 47.11500
C  41.97200 10.21100 47.24300
O  41.98700 11.40700 47.12100
C  40.63300 9.37800 47.31700
C  39.91800 9.84800 48.55700
O  40.16300 9.47000 49.67300
O  38.95800 10.78800 48.17600
C  38.10700 11.42300 49.18300
H  38.86200 2.62000 47.35300
H  45.25700 1.23200 47.20400
H  46.71200 7.35300 47.29500
H  38.43200 7.37600 48.44800
H  37.56500 4.92300 46.93500
H  37.10400 5.60700 49.73300
H  38.27800 4.27200 49.60500
H  36.74500 4.10300 48.88600
H  38.05000 8.60400 46.44200
H  36.68200 7.39200 46.55000
H  37.22200 6.56800 44.47300
H  38.86500 6.28800 45.00500
H  39.14400 0.21300 46.65300
H  39.00700 0.47800 48.39800
H  39.57100 -0.95500 47.73400
H  44.66600 -0.66800 47.67200
H  44.54500 -0.74800 45.91700
H  44.26400 -2.19100 46.98200
H  47.13600 2.65700 46.21300
H  47.77700 4.82600 47.98200
H  46.71300 2.15600 49.14000
H  48.27600 2.91700 48.71200
H  47.72800 1.35600 48.00300
H  47.69200 6.03900 45.55000
H  47.81300 4.33600 45.04400
H  49.80700 4.97300 47.01700
H  49.99500 6.05700 45.72600
H  50.10000 4.44600 45.34300
H  46.03000 9.97100 48.03400
H  45.09100 10.91600 46.79700
H  46.07000 9.61300 46.28200
H  39.93200 9.66500 46.53400
H  37.83600 12.46000 48.98100
H  38.56500 11.33300 50.16800
H  37.20300 10.87100 49.43800
Mg -6.10900 24.59200 25.51100
C  -4.35800 25.78400 28.25100
C  -8.00500 22.68400 27.58000
C  -7.63000 23.14400 22.83100
C  -4.08100 26.45400 23.50100
N  -6.22300 24.26100 27.73700
C  -5.40700 24.90000 28.65300
C  -5.78300 24.52900 30.09700
C  -6.87800 23.44300 29.89900
C  -7.14800 23.48300 28.36200
C  -6.63000 22.01500 30.49200
C  -6.28300 25.77200 30.95400
C  -5.80500 25.68100 32.43000
H  -5.66600 24.31900 33.12300
N  -7.61300 23.18900 25.23300
C  -8.26900 22.58400 26.18400
C  -9.34500 21.68500 25.62300
C  -9.20200 21.78100 24.19100
C  -8.10100 22.71200 24.03900
C  -10.42000 21.00200 26.48500
C  -9.94200 21.06700 23.09000
O  -9.69100 21.29200 21.91600
C  -11.14400 20.20000 23.43700
N  -5.85300 24.65100 23.43500
C  -6.68400 24.10200 22.49200
C  -6.31600 24.52600 21.07200
C  -5.30900 25.74900 21.31900
C  -5.02600 25.63700 22.82800
C  -5.76200 23.42600 20.14400
C  -5.89700 27.12400 20.88900
C  -5.22400 27.75300 19.60900
N  -4.53500 25.87600 25.69900
C  -3.78800 26.61600 24.80300
C  -2.80800 27.50700 25.54700
C  -3.01800 27.17200 26.87100
C  -4.02100 26.22300 26.90000
C  -1.67300 28.38000 24.89200
C  -2.51000 27.31000 28.16800
O  -1.48400 27.91100 28.42600
C  -3.31700 26.44900 29.15800
C  -2.36900 25.42100 29.78300
O  -2.07100 24.30500 29.32800
O  -1.71000 25.98900 30.84900
C  -1.07100 25.09400 31.84700
H  -8.55000 21.89800 28.10600
H  -8.11900 22.91400 21.88200
H  -3.59000 27.24900 22.93600
H  -4.83900 24.06600 30.38500
H  -7.68000 23.87800 30.49600
H  -5.65500 21.95100 30.97400
H  -6.57000 21.23700 29.73100
H  -7.39500 21.65500 31.17900
H  -7.37200 25.81700 30.94200
H  -5.97500 26.76100 30.61400
H  -6.55900 26.26600 32.95600
H  -4.80700 26.11900 32.45500
H  -10.29900 19.94400 26.25100
H  -11.44600 21.26600 26.22600
H  -10.28900 21.17100 27.55400
H  -10.68800 19.42600 24.05500
H  -11.55400 19.79900 22.51000
H  -11.81000 20.83900 24.01700
H  -7.22800 24.92600 20.63000
H  -4.39100 25.55800 20.76300
H  -6.39400 22.53900 20.11600
H  -4.79700 23.01000 20.43200
H  -5.58100 23.87900 19.16800
H  -5.58900 27.84500 21.64500
H  -6.96900 27.21300 20.71200
H  -6.01800 27.96600 18.89200
H  -4.44500 27.07100 19.27000
H  -4.69900 28.68200 19.83200
H  -1.11500 29.01300 25.58200
H  -2.14100 29.11300 24.23500
H  -0.98900 27.79100 24.28100
H  -3.72300 27.11500 29.91900
H  -1.84000 24.38600 32.15800
H  -0.84000 25.69000 32.73000
H  -0.21800 24.63700 31.34600

