158

Mg 47.92200 34.19400 26.80600
C  46.14800 32.93000 29.60900
C  48.68600 37.00000 28.58200
C  48.91000 35.76600 23.92600
C  46.89100 31.50700 24.98300
N  47.49800 34.76100 28.85200
C  46.85000 34.08600 29.88200
C  46.97600 34.78400 31.18900
C  47.36700 36.22100 30.68300
C  47.94700 36.02700 29.26400
C  46.21600 37.27800 30.77800
C  48.02700 34.16800 32.19500
C  47.69700 34.36400 33.62400
H  46.71900 35.45300 34.08900
N  48.65800 36.13800 26.36900
C  48.99400 37.05400 27.27200
C  49.60100 38.21000 26.59900
C  49.60900 37.92900 25.17800
C  48.93900 36.57400 25.09100
C  50.09500 39.38400 27.31600
C  50.22500 38.71100 24.11100
O  50.24000 38.25200 22.95800
C  51.01500 39.98700 24.32500
N  47.80800 33.71200 24.73800
C  48.37900 34.46700 23.74600
C  48.40700 33.73000 22.45900
C  47.65000 32.37900 22.64800
C  47.47900 32.49500 24.19000
C  47.90500 34.52500 21.25200
C  48.49100 31.12300 22.30100
C  49.60600 30.67100 23.22500
N  46.84100 32.45000 27.21400
C  46.50500 31.42100 26.35700
C  45.80000 30.40900 27.08800
C  45.53300 31.02600 28.35500
C  46.23200 32.23900 28.41000
C  45.23800 29.16500 26.63200
C  44.78000 30.82600 29.53700
O  44.06600 29.84800 29.85500
C  45.03500 32.13700 30.40000
C  45.32300 31.74700 31.78700
O  46.33900 31.19200 32.15300
O  44.22600 32.19800 32.59600
C  44.38000 31.85300 34.03100
H  48.87900 37.85700 29.23100
H  49.56400 36.10400 23.11900
H  46.67100 30.58300 24.44400
H  45.96000 34.72600 31.57900
H  48.08900 36.58000 31.41700
H  45.28900 36.92000 31.22500
H  45.90000 37.48400 29.75500
H  46.50600 38.23100 31.22000
H  49.06500 34.47000 32.05000
H  48.12300 33.08300 32.17100
H  48.63200 34.60800 34.12900
H  47.22000 33.47300 34.03100
H  49.68800 40.27900 26.84700
H  51.18300 39.33600 27.26500
H  49.89000 39.43500 28.38600
H  51.29700 40.46500 23.38700
H  51.90300 39.70600 24.89200
H  50.53600 40.68500 25.01200
H  49.45900 33.51400 22.27100
H  46.77000 32.54900 22.02900
H  46.95200 34.11500 20.91900
H  48.75800 34.64700 20.58400
H  47.65100 35.53300 21.58000
H  48.90800 31.29800 21.31000
H  47.73500 30.35500 22.46300
H  49.92200 31.46600 23.90100
H  50.53800 30.39200 22.73300
H  49.30200 29.79100 23.79100
H  45.46100 28.44000 27.41500
H  45.64800 28.87200 25.66500
H  44.15800 29.26900 26.52600
H  44.08400 32.66900 30.41600
H  43.72400 31.01000 34.25000
H  44.01700 32.70900 34.60000
H  45.37100 31.59900 34.40700
Mg -10.56100 16.11100 41.97900
C  -7.25700 15.00600 41.56300
C  -9.54900 19.16800 40.62800
C  -13.82300 17.06100 41.98200
C  -11.44200 12.76200 42.43700
N  -8.60300 16.88100 41.08800
C  -7.38700 16.29300 41.09900
C  -6.27900 17.24300 40.63300
C  -7.01700 18.63200 40.50700
C  -8.46700 18.23500 40.69700
C  -6.46300 19.68700 41.54100
C  -5.71400 16.74600 39.28600
C  -4.30600 17.34500 38.95200
H  -4.14400 18.27900 37.68000
N  -11.53300 17.89700 41.48000
C  -10.93700 19.01100 40.91700
C  -11.92100 20.09500 40.78500
C  -13.17700 19.49800 41.08900
C  -12.86700 18.08800 41.53600
C  -11.58200 21.60100 40.46700
C  -14.44800 20.29200 41.17400
O  -14.55100 21.49500 40.90400
C  -15.75100 19.54700 41.30400
N  -12.42300 15.07800 42.23200
C  -13.63700 15.70200 42.29600
C  -14.76100 14.69900 42.44800
C  -13.99300 13.36900 42.65800
C  -12.51500 13.73800 42.44600
C  -15.84900 15.00200 43.43100
C  -14.56400 12.16600 41.78800
C  -14.90700 10.95600 42.58500
N  -9.63100 14.25300 42.07600
C  -10.06600 12.96500 42.33300
C  -8.98600 12.09500 42.42300
C  -7.81000 12.81400 42.21400
C  -8.26900 14.12400 41.99400
C  -9.05500 10.57100 42.62100
C  -6.28900 12.88300 42.19300
O  -5.39300 12.08600 42.47300
C  -5.92300 14.33300 41.79800
C  -5.08100 14.80900 42.91500
O  -5.45800 15.17000 44.02200
O  -3.76300 14.78900 42.41300
C  -2.62600 15.26300 43.33800
H  -9.22500 20.19700 40.45800
H  -14.88000 17.29900 42.11700
H  -11.63500 11.68800 42.48500
H  -5.40900 17.34600 41.28100
H  -6.88400 19.22400 39.60100
H  -5.37700 19.60000 41.55100
H  -6.86900 19.42500 42.51800
H  -6.71100 20.70900 41.25300
H  -6.40900 17.13600 38.54300
H  -5.77600 15.68400 39.04500
H  -3.67800 16.47500 38.76100
H  -3.90800 18.01900 39.71100
H  -11.09100 21.59100 39.49400
H  -10.85400 21.90800 41.21800
H  -12.40300 22.31700 40.42600
H  -16.55000 20.13300 40.85000
H  -16.00100 19.49200 42.36400
H  -15.74800 18.57200 40.81700
H  -15.16200 14.69000 41.43500
H  -13.89600 13.18000 43.72700
H  -15.48400 15.89300 43.94300
H  -15.90100 14.14600 44.10300
H  -16.77200 15.05900 42.85400
H  -13.71200 11.86700 41.17700
H  -15.38600 12.43600 41.12500
H  -15.31300 11.24100 43.55500
H  -14.09100 10.24100 42.68800
H  -15.81900 10.51200 42.18700
H  -8.55700 10.21000 43.52100
H  -8.50500 10.12200 41.79400
H  -10.08100 10.26700 42.41300
H  -5.33300 14.37000 40.88200
H  -2.06900 16.06300 42.85100
H  -1.97200 14.44900 43.64900
H  -3.09200 15.59900 44.26500

