158

Mg 2.75000 -0.77700 44.04300
C  5.88800 0.69700 43.57000
C  1.51600 2.00400 42.16100
C  -0.31400 -2.27800 43.82900
C  4.00000 -3.60700 45.25300
N  3.67100 1.07400 42.85000
C  4.95100 1.50500 42.90100
C  5.19800 2.87000 42.31900
C  3.77900 3.37500 42.04100
C  2.94200 2.07500 42.33800
C  3.38400 4.63000 42.83300
C  6.17200 2.94500 41.11600
C  6.12200 1.81200 40.03500
H  5.97700 2.04900 38.44900
N  0.91900 -0.26900 43.04200
C  0.58900 0.94600 42.45400
C  -0.80400 0.95400 42.09700
C  -1.30800 -0.32400 42.48100
C  -0.18800 -1.05800 43.17600
C  -1.46900 2.05700 41.43000
C  -2.65700 -0.78400 42.12300
O  -3.40800 -0.13100 41.42900
C  -3.20900 -2.14600 42.52300
N  1.94000 -2.77500 44.41600
C  0.65100 -3.13500 44.36600
C  0.35700 -4.42600 45.07500
C  1.78300 -4.90800 45.45700
C  2.60500 -3.69600 45.03000
C  -0.59200 -4.36600 46.28400
C  2.27800 -6.29300 44.95600
C  2.94900 -7.23900 45.87300
N  4.48400 -1.31500 44.50800
C  4.90300 -2.51600 45.01200
C  6.35800 -2.45900 45.22900
C  6.78900 -1.14000 44.70200
C  5.61600 -0.58600 44.17300
C  7.17700 -3.60400 45.93100
C  7.91000 -0.31600 44.44500
O  9.05800 -0.47400 44.72900
C  7.36700 0.97600 43.79600
C  7.43600 2.01000 44.84100
O  6.71200 2.21000 45.74800
O  8.46600 2.83300 44.57000
C  8.84700 3.87000 45.61600
H  1.17500 2.92400 41.68200
H  -1.29700 -2.75300 43.83900
H  4.46100 -4.50300 45.67400
H  5.71000 3.48100 43.06200
H  3.70400 3.63200 40.98500
H  2.55800 4.48500 43.52900
H  3.10800 5.40300 42.11600
H  4.15200 5.02000 43.50100
H  7.09200 2.99800 41.69800
H  6.03000 3.92900 40.66900
H  5.33500 1.09900 40.27900
H  7.07400 1.29100 40.14300
H  -1.54500 1.76700 40.38200
H  -1.00400 3.03900 41.50100
H  -2.39900 2.15000 41.99100
H  -4.22300 -2.17100 42.12400
H  -3.40500 -2.08800 43.59400
H  -2.63600 -2.99300 42.14700
H  -0.01400 -5.19700 44.39900
H  1.90300 -4.80900 46.53500
H  -0.03000 -4.43700 47.21400
H  -1.41000 -5.08600 46.26500
H  -1.11800 -3.41200 46.24900
H  2.90100 -6.19800 44.06700
H  1.37300 -6.74100 44.54500
H  3.89300 -7.60400 45.46700
H  2.30100 -8.10500 46.00500
H  3.15400 -6.75500 46.82800
H  8.07900 -3.21900 46.40800
H  7.47100 -4.36300 45.20600
H  6.67100 -4.10600 46.75600
H  7.86500 1.22200 42.85900
H  8.41700 4.85700 45.44600
H  9.93500 3.88800 45.68100
H  8.44500 3.50800 46.56200
Mg 40.76100 10.14100 29.73600
C  42.95000 10.95700 32.38400
C  38.54500 8.86300 32.07500
C  38.89300 9.07700 27.27400
C  43.45100 10.75800 27.51100
N  40.86100 9.92000 31.97100
C  41.78300 10.45600 32.87000
C  41.24500 10.47800 34.31600
C  39.98800 9.54600 34.16800
C  39.72000 9.42000 32.61400
C  39.92800 8.28400 34.97700
C  41.12600 11.92300 34.86200
C  40.17200 12.25800 36.06400
H  40.88500 12.71000 37.34000
N  38.89400 9.20000 29.69500
C  38.17700 8.76500 30.74100
C  36.90700 8.28800 30.24500
C  37.02500 8.33700 28.81700
C  38.29200 8.96900 28.53900
C  35.76200 7.82200 31.19900
C  36.04000 7.95200 27.73300
O  36.21100 8.15100 26.51200
C  34.71400 7.30900 28.07700
N  41.14200 9.86000 27.73700
C  40.21400 9.43400 26.87900
C  40.66800 9.41100 25.40600
C  41.98800 10.20900 25.58300
C  42.23300 10.27400 27.04300
C  40.84700 7.93500 24.89200
C  42.07700 11.54700 24.77300
C  41.27700 12.63800 25.36700
N  42.83100 10.67500 29.88700
C  43.76200 10.94100 28.91100
C  44.99100 11.43400 29.45500
C  44.66600 11.50000 30.85900
C  43.35200 11.03300 31.01900
C  46.33400 11.72900 28.72100
C  45.19900 11.87500 32.15800
O  46.26000 12.36900 32.37900
C  44.06300 11.58900 33.20600
C  44.63000 10.81500 34.29800
O  45.14300 9.67900 34.09600
O  44.56900 11.53800 35.53100
C  45.23800 10.92600 36.65100
H  37.81400 8.51800 32.80900
H  38.37900 8.76500 26.36200
H  44.31600 10.98600 26.88500
H  41.94600 9.93000 34.94600
H  39.14000 10.11400 34.55000
H  40.16600 7.40600 34.37700
H  38.87200 8.32800 35.24400
H  40.52400 8.38300 35.88400
H  40.87400 12.69000 34.13000
H  42.06400 12.19800 35.34400
H  39.74000 11.30300 36.36400
H  39.32300 12.91900 35.88700
H  35.98200 7.88000 32.26500
H  35.42400 6.80500 31.00000
H  34.94200 8.50400 30.97700
H  34.08200 7.89200 28.74700
H  34.90600 6.31300 28.47600
H  34.25400 7.18800 27.09700
H  39.88000 9.89800 24.83200
H  42.85900 9.61300 25.30800
H  41.62500 7.76000 24.14900
H  39.99500 7.85000 24.21700
H  40.92500 7.25400 25.74000
H  41.57200 11.22900 23.86100
H  43.12600 11.84100 24.77900
H  41.95100 13.46000 25.60800
H  40.72600 12.39700 26.27600
H  40.56300 12.97800 24.61600
H  46.43000 12.81100 28.63100
H  46.29500 11.32100 27.71100
H  47.22100 11.36300 29.23900
H  43.86200 12.56800 33.64100
H  44.74000 10.04300 37.05100
H  45.23900 11.72500 37.39300
H  46.25500 10.72000 36.31800

