158

Mg 50.64700 45.10700 42.51900
C  47.34300 45.71800 41.33400
C  50.17300 41.84500 41.32200
C  53.76800 44.73500 42.88700
C  50.79300 48.53200 43.16100
N  48.92300 43.95200 41.44900
C  47.65200 44.40000 41.15100
C  46.81900 43.28100 40.47000
C  47.57200 41.99100 41.01100
C  49.03000 42.61100 41.23100
C  47.08300 41.26400 42.31100
C  46.59600 43.45300 38.95400
C  45.17100 43.31700 38.48000
H  44.84700 42.33700 37.33400
N  51.81900 43.45500 42.25600
C  51.44900 42.19300 41.82800
C  52.60400 41.36300 41.84700
C  53.66300 42.13400 42.39600
C  53.13600 43.52600 42.52700
C  52.53100 39.90500 41.45700
C  55.01900 41.62500 42.69700
O  55.21600 40.41800 42.72800
C  56.25500 42.52400 43.04800
N  52.07800 46.47500 42.78400
C  53.38200 46.04000 43.04800
C  54.26100 47.23800 43.38200
C  53.30900 48.39100 43.65100
C  51.92300 47.73200 43.24900
C  55.19600 46.93300 44.59800
C  53.48400 49.73600 42.90200
C  53.26700 51.06100 43.71600
N  49.40100 46.79200 42.32200
C  49.61100 48.12300 42.66900
C  48.46400 48.92800 42.37100
C  47.52800 48.01900 41.83100
C  48.13400 46.72300 41.84300
C  48.17900 50.43800 42.68600
C  46.20200 47.87600 41.37200
O  45.27800 48.70700 41.25600
C  46.07700 46.41800 40.95600
C  44.88700 45.88200 41.71600
O  44.96300 45.28500 42.78600
O  43.69800 46.13000 41.13400
C  42.55900 45.34700 41.62500
H  49.87300 40.83100 41.04900
H  54.85800 44.72700 42.95800
H  50.75200 49.60200 43.37200
H  45.87000 43.38800 40.99600
H  47.69600 41.23900 40.23200
H  47.81500 41.35600 43.11300
H  46.96900 40.18600 42.19800
H  46.05600 41.60900 42.43000
H  47.15300 42.57900 38.61600
H  47.03500 44.37500 38.57500
H  44.85500 44.30800 38.15400
H  44.61500 43.06800 39.38400
H  53.32300 39.54500 40.80100
H  51.63700 39.57100 40.93000
H  52.44100 39.42100 42.43000
H  56.20900 42.99400 44.03100
H  56.32900 43.23800 42.22800
H  57.11700 41.85600 43.07800
H  54.86100 47.30600 42.47400
H  53.29200 48.57400 44.72500
H  55.01600 46.04100 45.19800
H  55.13900 47.83800 45.20300
H  56.24000 46.87100 44.29000
H  52.74900 49.68900 42.09800
H  54.51300 49.65900 42.55100
H  52.98300 50.82000 44.74000
H  52.40800 51.64000 43.37900
H  54.12200 51.73300 43.78900
H  47.16400 50.56300 43.06100
H  48.27100 50.99300 41.75300
H  48.86500 50.86100 43.42000
H  45.93300 46.31400 39.88000
H  41.72800 45.32400 40.92100
H  42.12400 45.65300 42.57700
H  42.97200 44.35200 41.79500
Mg 5.23800 54.33400 40.72400
C  4.87800 50.81200 40.41800
C  8.48200 53.97500 39.71100
C  5.41900 57.67400 40.45400
C  1.77700 54.53500 41.15100
N  6.50300 52.62600 39.97000
C  6.18000 51.27900 40.05300
C  7.45000 50.36400 39.80700
C  8.59500 51.38600 39.88200
C  7.77900 52.72300 39.90600
C  9.65900 51.43300 41.04300
C  7.42700 49.56000 38.38900
C  6.46100 50.08800 37.21700
H  7.03800 50.72300 35.95200
N  6.77200 55.62400 40.32900
C  8.03800 55.31400 39.91700
C  8.77000 56.48900 39.62000
C  7.97500 57.56200 40.15200
C  6.63600 56.97800 40.34300
C  10.19200 56.42900 39.15900
C  8.45200 59.02400 40.35100
O  9.55900 59.38800 40.06200
C  7.65700 59.97200 41.18900
N  3.81400 55.86400 40.52300
C  4.08900 57.21400 40.55700
C  2.89600 58.09600 40.76500
C  1.83000 57.03000 41.03500
C  2.49500 55.70200 40.85400
C  3.06200 59.23800 41.80200
C  0.55100 57.10300 40.12500
C  -0.77100 57.36300 40.86200
N  3.56300 52.98400 40.80600
C  2.24100 53.17700 41.11700
C  1.56800 51.93400 41.36200
C  2.56700 50.94500 41.14900
C  3.74400 51.62300 40.73000
C  0.11700 51.89100 41.49700
C  2.80200 49.55500 40.98900
O  2.01600 48.56400 41.05100
C  4.29500 49.43200 40.53000
C  4.17800 48.75800 39.21500
O  3.66400 49.25100 38.21600
O  4.55900 47.44000 39.31900
C  4.24900 46.52100 38.19900
H  9.55800 53.87800 39.54900
H  5.60900 58.74200 40.33600
H  0.73800 54.62000 41.47700
H  7.52300 49.67800 40.65100
H  9.14800 51.45900 38.94500
H  9.55700 52.37200 41.58800
H  10.67300 51.31300 40.66300
H  9.53500 50.61500 41.75300
H  7.10600 48.56700 38.70400
H  8.44100 49.40400 38.02200
H  5.73800 50.78400 37.64300
H  5.96800 49.19100 36.84200
H  10.42300 57.42300 38.77600
H  10.33300 55.69300 38.36800
H  10.78800 56.18700 40.03900
H  7.16000 59.51700 42.04500
H  6.90300 60.43800 40.55500
H  8.25300 60.75300 41.66100
H  2.71400 58.60700 39.82000
H  1.59000 57.05000 42.09800
H  2.19800 59.16700 42.46300
H  3.04300 60.16300 41.22700
H  3.91200 59.16300 42.48100
H  0.43400 56.17700 39.56100
H  0.64800 57.90400 39.39200
H  -1.33800 58.08000 40.26900
H  -0.63700 57.69900 41.89100
H  -1.37800 56.46500 40.97600
H  -0.39800 52.73000 41.02900
H  -0.09400 51.89000 42.56600
H  -0.24600 50.89000 41.26400
H  4.91100 48.94900 41.28900
H  5.17400 45.95300 38.09900
H  4.04300 47.07600 37.28300
H  3.45400 45.81300 38.43300

