158

Mg 16.84300 52.24800 26.44100
C  18.53800 50.72400 29.20600
C  14.35300 53.15600 28.51200
C  15.07100 53.20500 23.73200
C  19.32900 50.74900 24.32700
N  16.60900 52.09000 28.56500
C  17.44500 51.49200 29.51300
C  17.00100 51.94100 30.91900
C  15.53600 52.43600 30.72000
C  15.49900 52.61600 29.18600
C  14.37900 51.58600 31.23700
C  18.01500 52.86000 31.58000
C  18.27500 52.55000 33.08600
H  17.29000 51.50700 33.79100
N  15.08500 53.18800 26.18900
C  14.18000 53.49300 27.15000
C  13.07800 54.25600 26.59200
C  13.24300 54.28900 25.16100
C  14.53800 53.56800 24.97700
C  11.81900 54.65700 27.32000
C  12.45400 54.86500 24.05500
O  12.80700 54.81800 22.85900
C  11.03700 55.46600 24.30000
N  17.19600 52.02900 24.39300
C  16.29200 52.55000 23.45400
C  16.77900 52.35400 22.04200
C  18.17700 51.60600 22.21200
C  18.26100 51.47500 23.76000
C  15.78200 51.53500 21.21700
C  19.41900 52.18200 21.54300
C  20.05800 53.49300 22.19100
N  18.53600 50.94900 26.57300
C  19.44800 50.42300 25.65500
C  20.40100 49.55900 26.27200
C  20.00500 49.59200 27.65100
C  19.00300 50.53800 27.83400
C  21.52900 48.77500 25.70200
C  20.43600 49.14200 28.98600
O  21.23600 48.33400 29.40200
C  19.56600 49.94800 30.03200
C  18.89200 49.05500 31.05300
O  17.82900 48.50300 30.89100
O  19.78900 48.80100 32.05100
C  19.43400 47.82600 33.07800
H  13.58100 53.36600 29.25600
H  14.52200 53.53500 22.84700
H  19.84600 50.27700 23.48900
H  17.02500 50.96900 31.41200
H  15.50300 53.38600 31.25400
H  14.74600 50.65500 31.66900
H  13.61200 51.37900 30.49100
H  13.83000 52.19000 31.96000
H  17.69900 53.87300 31.33400
H  18.94900 52.66000 31.05400
H  18.30000 53.54100 33.53900
H  19.29200 52.17300 33.19600
H  11.06800 53.89700 27.10400
H  11.42400 55.57400 26.88400
H  12.03400 54.81700 28.37700
H  11.11600 56.40600 24.84500
H  10.57500 54.70300 24.92600
H  10.37700 55.59400 23.44200
H  17.07200 53.27400 21.53600
H  18.05300 50.58000 21.86700
H  14.90100 52.05400 20.83800
H  15.39200 50.73200 21.84300
H  16.19900 51.25100 20.25100
H  19.10300 52.41900 20.52700
H  20.11900 51.35500 21.42700
H  19.40700 54.15400 22.76400
H  20.51600 54.05500 21.37700
H  20.88600 53.26900 22.86300
H  21.43300 48.86400 24.62000
H  21.48200 47.71400 25.94900
H  22.38200 49.25900 26.17700
H  20.24200 50.60500 30.58000
H  18.37000 47.92900 33.29000
H  20.10600 48.02200 33.91400
H  19.67500 46.82600 32.71600
Mg -5.89900 25.17400 26.38400
C  -4.61100 26.64500 29.38700
C  -7.66500 23.08200 28.55800
C  -6.60700 23.49400 23.65400
C  -3.93400 27.42300 24.55800
N  -6.14000 24.96200 28.75800
C  -5.53200 25.69500 29.71400
C  -6.02500 25.28200 31.12000
C  -6.70200 23.94300 30.77100
C  -6.97800 24.00400 29.31600
C  -5.85900 22.65000 31.14300
C  -6.88900 26.40200 31.68600
C  -7.27700 26.51300 33.17600
H  -6.81000 25.52700 34.26400
N  -7.16200 23.62100 26.08700
C  -7.78900 22.86400 27.06100
C  -8.73200 21.95000 26.33200
C  -8.34700 21.96000 25.02900
C  -7.31600 23.04900 24.87400
C  -9.78200 21.00200 27.06200
C  -8.86200 21.12500 23.89900
O  -8.45500 21.33400 22.78900
C  -9.94000 20.07500 24.03700
N  -5.20100 25.30400 24.45600
C  -5.67800 24.47100 23.45900
C  -5.05000 24.89300 22.08700
C  -4.50300 26.26200 22.37600
C  -4.51300 26.32900 23.92400
C  -4.27700 23.72000 21.39300
C  -5.46100 27.37800 21.76200
C  -5.21100 27.81800 20.27600
N  -4.50300 26.75700 26.86400
C  -3.79100 27.56100 25.98200
C  -2.89000 28.45300 26.72700
C  -3.20400 28.17800 28.08200
C  -4.17100 27.11300 28.09300
C  -1.82500 29.44300 26.15500
C  -2.81700 28.48100 29.46800
O  -1.91300 29.20300 29.93800
C  -3.82400 27.64100 30.37500
C  -3.00900 26.97400 31.39900
O  -2.16400 26.09100 31.26700
O  -3.42400 27.42100 32.62100
C  -2.96700 26.78800 33.78700
H  -8.19000 22.28700 29.09200
H  -6.73000 22.84900 22.78200
H  -3.38700 28.19600 24.01500
H  -5.13400 25.14300 31.73200
H  -7.64400 23.82700 31.30600
H  -5.65000 22.13800 30.20400
H  -6.48300 22.13700 31.87500
H  -4.91800 22.87400 31.64400
H  -7.76200 26.33800 31.03700
H  -6.38100 27.34700 31.49200
H  -8.36100 26.45100 33.27000
H  -6.97000 27.51900 33.46200
H  -10.80100 21.29600 26.81000
H  -9.74500 21.08900 28.14800
H  -9.69800 19.94300 26.81900
H  -9.47300 19.37000 24.72500
H  -10.13700 19.52400 23.11800
H  -10.81500 20.59300 24.43100
H  -5.91400 24.99200 21.43000
H  -3.49700 26.36600 21.97000
H  -3.21300 23.95700 21.40300
H  -4.68800 23.45300 20.42000
H  -4.37800 22.85000 22.04100
H  -5.41000 28.31700 22.31300
H  -6.50000 27.05800 21.84900
H  -4.67400 27.01400 19.77200
H  -4.49700 28.63200 20.39500
H  -6.10400 28.03400 19.68900
H  -1.43600 28.86200 25.31900
H  -1.01800 29.63000 26.86400
H  -2.25000 30.39600 25.83900
H  -4.43700 28.40400 30.85400
H  -1.90400 27.02700 33.79300
H  -3.08400 25.70800 33.69500
H  -3.38300 27.18000 34.71500

