158

Mg 1.29900 -1.10600 44.15700
C  4.36600 0.11800 43.20800
C  -0.20300 1.55700 42.64400
C  -1.72400 -2.50900 44.74800
C  2.93200 -4.02400 45.28900
N  2.08600 0.59700 42.90300
C  3.34600 0.95500 42.69400
C  3.49600 2.15000 41.78000
C  2.01700 2.75800 41.86600
C  1.22700 1.53700 42.47300
C  1.87800 3.95600 42.94900
C  4.00000 1.89300 40.26200
C  3.69800 0.48700 39.67700
H  3.38000 0.24300 38.24600
N  -0.74200 -0.54700 43.66400
C  -1.16300 0.60000 43.07400
C  -2.59900 0.63200 43.11000
C  -2.97800 -0.46900 43.90300
C  -1.80500 -1.22700 44.13700
C  -3.35200 1.79000 42.43400
C  -4.41400 -0.75800 44.31100
O  -5.31600 -0.05900 43.83100
C  -4.82400 -1.86500 45.18600
N  0.76600 -3.09900 44.80100
C  -0.55100 -3.33200 45.01600
C  -0.77600 -4.78200 45.69500
C  0.69300 -5.30400 45.61200
C  1.53400 -4.07900 45.14200
C  -1.39400 -4.75900 47.05600
C  0.93300 -6.58800 44.81000
C  0.85700 -7.85500 45.65000
N  3.25700 -1.80500 44.30800
C  3.80900 -2.97200 44.81300
C  5.29200 -2.94700 44.75900
C  5.52900 -1.74200 44.16200
C  4.28000 -1.14400 43.89600
C  6.31100 -3.94600 45.30600
C  6.63800 -0.81800 43.71600
O  7.89300 -0.91600 43.74200
C  5.85900 0.36400 43.03100
C  6.35800 1.64200 43.70500
O  5.91900 2.11400 44.71800
O  7.44300 2.16100 42.93500
C  8.04900 3.46800 43.31500
H  -0.65700 2.38100 42.09000
H  -2.66300 -2.92300 45.12100
H  3.44700 -4.85900 45.76800
H  4.20300 2.91800 42.09500
H  1.50600 3.00500 40.93500
H  1.56900 4.85000 42.40800
H  2.77900 4.12900 43.53800
H  1.24900 3.75400 43.81600
H  5.03200 2.15900 40.03200
H  3.28400 2.45000 39.65800
H  2.89300 0.00500 40.23100
H  4.55800 -0.15900 39.85300
H  -4.30900 2.01800 42.90300
H  -3.44200 1.65400 41.35600
H  -2.71300 2.67300 42.46300
H  -5.89300 -1.75700 45.37200
H  -4.28300 -2.02500 46.11800
H  -4.73300 -2.72600 44.52300
H  -1.35200 -5.35000 44.96400
H  1.12600 -5.37000 46.61100
H  -1.78900 -5.75700 47.24600
H  -2.21500 -4.04400 47.00300
H  -0.70300 -4.37700 47.80700
H  1.86800 -6.54900 44.25100
H  0.09600 -6.58700 44.11300
H  1.05800 -8.67800 44.96500
H  -0.09300 -7.97800 46.17000
H  1.56800 -7.87900 46.47700
H  5.96000 -4.94400 45.04500
H  6.53200 -3.87600 46.37200
H  7.17200 -3.69700 44.68700
H  6.15200 0.42400 41.98300
H  7.91800 3.68400 44.37500
H  7.51900 4.21800 42.72700
H  9.09500 3.60400 43.04200
Mg 34.83600 2.52100 29.29300
C  32.89300 3.59400 31.92200
C  37.61300 2.41000 31.56600
C  36.98400 1.98900 26.76400
C  32.33400 3.39900 27.09800
N  35.20200 3.03300 31.49300
C  34.16000 3.34400 32.33600
C  34.67700 3.28600 33.76300
C  36.22700 3.15400 33.57400
C  36.40700 2.86200 32.09900
C  37.00500 4.43000 34.00400
C  33.98100 2.10800 34.52900
C  33.83200 2.36900 36.06400
H  34.86700 3.22100 36.91600
N  37.02300 2.08600 29.22800
C  37.92800 2.01100 30.21100
C  39.19300 1.50400 29.73400
C  39.00700 1.26100 28.37300
C  37.64400 1.75100 28.07700
C  40.44400 1.49800 30.56800
C  39.96500 0.69400 27.31800
O  39.61100 0.57000 26.14500
C  41.33500 0.27600 27.71900
N  34.61000 2.50200 27.20400
C  35.69200 2.28500 26.32200
C  35.17300 2.29100 24.89200
C  33.68400 2.69500 25.00900
C  33.49800 2.88500 26.52400
C  36.02100 3.09000 23.84400
C  32.65100 1.76200 24.39800
C  32.22400 0.53200 25.21500
N  32.92000 3.15600 29.45900
C  32.04700 3.48400 28.48800
C  30.78800 3.85200 29.06400
C  31.03000 3.88100 30.47200
C  32.38800 3.56900 30.61200
C  29.63700 4.25200 28.28800
C  30.50000 4.12600 31.76300
O  29.39600 4.41400 32.14600
C  31.66200 3.91000 32.82100
C  31.77800 5.19800 33.53900
O  32.19300 6.26600 33.06800
O  31.15500 5.14100 34.73200
C  31.45800 6.21000 35.66800
H  38.44700 2.22100 32.24500
H  37.44300 1.90500 25.77700
H  31.64000 3.64400 26.29200
H  34.49300 4.22400 34.28700
H  36.56700 2.22400 34.03000
H  36.39400 5.14400 34.55500
H  37.32500 4.92500 33.08700
H  37.85000 4.23300 34.66400
H  34.55600 1.19900 34.35100
H  33.00800 1.90300 34.08200
H  33.61700 1.47900 36.65400
H  32.92100 2.96700 36.03100
H  41.04500 2.30100 30.14000
H  41.09900 0.62900 30.50800
H  40.25500 1.77900 31.60400
H  41.62300 0.94500 28.53000
H  41.85400 0.34500 26.76200
H  41.29000 -0.78800 27.95300
H  35.23100 1.24200 24.60200
H  33.56000 3.68600 24.57300
H  36.31300 2.37700 23.07200
H  36.86400 3.66900 24.21900
H  35.29100 3.81500 23.48500
H  33.16700 1.31500 23.54800
H  31.74300 2.29700 24.11800
H  32.36900 0.66900 26.28600
H  32.90500 -0.27200 24.93500
H  31.20900 0.22700 24.96000
H  29.43100 5.23300 28.71800
H  28.74400 3.63200 28.35600
H  29.77400 4.43200 27.22200
H  31.25000 3.17200 33.50900
H  32.47000 6.61500 35.70600
H  31.19100 5.92600 36.68600
H  30.88000 7.11400 35.47500

