158

Mg 45.62000 3.70600 46.97800
C  43.26300 6.25900 46.55000
C  43.09500 1.47600 46.91500
C  47.86200 1.30400 47.17500
C  48.09400 6.08800 46.46300
N  43.47400 3.90400 46.67100
C  42.67800 4.99500 46.69700
C  41.23000 4.58800 46.63000
C  41.26500 3.09000 47.15600
C  42.71200 2.80000 46.85700
C  40.78200 2.91900 48.59200
C  40.64900 4.64100 45.18300
C  39.51700 5.63600 44.81700
H  39.82500 6.52500 43.60500
N  45.47600 1.67300 47.01300
C  44.37400 0.91700 47.02600
C  44.69400 -0.48700 47.16300
C  46.11500 -0.56800 47.26600
C  46.54800 0.83500 47.08700
C  43.63300 -1.57700 46.99200
C  46.98700 -1.91500 47.32800
O  46.39200 -3.00600 47.27600
C  48.52700 -1.88200 47.45100
N  47.61200 3.68300 46.68100
C  48.33400 2.65200 47.02800
C  49.83600 2.85800 47.30300
C  49.88900 4.29800 46.68000
C  48.48600 4.77800 46.53600
C  50.15400 2.69100 48.80600
C  50.77000 4.58900 45.40600
C  49.95900 4.74300 44.10200
N  45.71700 5.77400 46.62500
C  46.76200 6.62600 46.44400
C  46.33900 8.02400 46.36700
C  44.96000 7.91600 46.35200
C  44.65000 6.52100 46.52400
C  47.32100 9.20200 46.26000
C  43.64000 8.63600 46.41700
O  43.47200 9.81900 46.33600
C  42.56800 7.67300 46.53500
C  41.75000 7.91300 47.84900
O  42.03200 7.44500 48.94500
O  40.61500 8.52900 47.49600
C  39.61800 8.89200 48.48600
H  42.26600 0.79300 47.11300
H  48.65700 0.61600 47.47100
H  48.84200 6.87400 46.58400
H  40.74800 5.17200 47.41300
H  40.59400 2.46700 46.56400
H  39.89100 2.29600 48.50700
H  40.46100 3.85000 49.06000
H  41.49100 2.45000 49.27400
H  40.33400 3.64800 44.86200
H  41.54300 4.96300 44.64900
H  39.38000 6.25000 45.70700
H  38.67500 4.94800 44.74500
H  43.65700 -1.87300 45.94400
H  42.69600 -1.16400 47.36700
H  44.00600 -2.39300 47.61100
H  48.72800 -1.40400 48.40900
H  49.02800 -1.37100 46.62800
H  48.84800 -2.92300 47.41400
H  50.42000 2.14500 46.72100
H  50.30000 4.86700 47.51400
H  50.81300 1.82300 48.83100
H  49.21000 2.55700 49.33400
H  50.80700 3.54200 48.99900
H  51.50500 3.80600 45.22000
H  51.25900 5.55000 45.57000
H  50.61900 4.68900 43.23600
H  49.52000 5.74000 44.14400
H  49.21000 3.96000 43.98900
H  47.44500 9.51100 47.29800
H  46.71800 9.91200 45.69500
H  48.17800 9.30200 45.59400
H  41.79500 7.73400 45.76900
H  39.67800 9.96600 48.65900
H  39.64900 8.35900 49.43600
H  38.67600 8.67900 47.98000
Mg 26.44200 50.39600 27.80600
C  24.20200 51.71000 30.18700
C  28.57300 49.52900 30.41700
C  28.58100 49.29300 25.52300
C  24.33400 51.65800 25.26400
N  26.41200 50.70300 30.06800
C  25.36900 51.17200 30.86200
C  25.71600 51.02700 32.40800
C  27.15800 50.40400 32.33500
C  27.40600 50.16200 30.82100
C  28.35500 51.19400 33.00000
C  24.67500 50.16000 33.17200
C  24.31700 50.59700 34.52200
H  25.40600 50.88000 35.51600
N  28.33400 49.52400 27.98400
C  29.04600 49.24300 29.10100
C  30.35600 48.70800 28.79400
C  30.34500 48.55800 27.36500
C  29.00200 49.09600 26.91400
C  31.27300 48.16200 29.88300
C  31.35900 47.95900 26.47600
O  31.05400 47.78700 25.31600
C  32.75400 47.54200 26.97800
N  26.52700 50.61400 25.73700
C  27.50300 49.99000 25.00200
C  27.13500 50.05300 23.41900
C  25.73000 50.60100 23.36800
C  25.49500 50.97000 24.85000
C  28.17400 50.89000 22.62100
C  24.72000 49.46400 22.89600
C  23.55300 49.99300 21.98500
N  24.59300 51.34800 27.68000
C  23.94500 51.85200 26.58600
C  22.73200 52.47200 27.01200
C  22.78400 52.42200 28.40300
C  23.99400 51.74700 28.79300
C  21.67400 53.00000 26.06300
C  22.09200 52.82100 29.67600
O  21.06900 53.49600 29.88100
C  22.98400 52.38900 30.81000
C  23.29100 53.51200 31.66900
O  23.92100 54.49200 31.29300
O  22.90500 53.19000 33.00100
C  23.11700 54.25700 33.96500
H  29.31900 49.23000 31.15700
H  29.32000 49.11100 24.74000
H  23.65000 52.07200 24.52000
H  25.89000 52.03800 32.77600
H  27.12000 49.45000 32.86100
H  28.81500 50.52600 33.72800
H  27.82900 52.05400 33.41500
H  28.97300 51.56800 32.18300
H  24.93400 49.11300 33.32600
H  23.78300 50.19700 32.54700
H  23.56800 49.92400 34.93800
H  23.81400 51.56400 34.54800
H  32.30200 48.44000 29.65900
H  31.18300 47.07700 29.81900
H  31.14600 48.64100 30.85400
H  32.68200 46.58500 27.49400
H  33.30300 48.30900 27.52500
H  33.38100 47.36800 26.10400
H  27.17500 49.03800 23.02300
H  25.72600 51.41200 22.64000
H  29.22000 50.87000 22.92800
H  28.02500 51.96600 22.70700
H  28.19400 50.52800 21.59300
H  24.20400 48.93000 23.69400
H  25.23600 48.69200 22.32400
H  23.82200 50.83400 21.34600
H  22.68200 50.12800 22.62600
H  23.21000 49.15300 21.38100
H  20.94300 53.56000 26.64600
H  21.22800 52.11200 25.61600
H  22.09500 53.49400 25.18700
H  22.44100 51.66800 31.42100
H  24.11000 54.21700 34.41200
H  22.34900 54.13400 34.72700
H  22.89100 55.19600 33.45800

