158

Mg 0.96200 7.31700 27.06800
C  1.31000 9.78800 29.49600
C  1.29300 5.02100 29.49900
C  0.79400 4.95500 24.55200
C  1.18400 9.74700 24.56700
N  1.31600 7.39000 29.29000
C  1.24700 8.50400 30.05400
C  1.11400 8.10300 31.61200
C  1.43600 6.61000 31.56300
C  1.33800 6.30300 30.03400
C  2.67900 6.00800 32.27200
C  -0.38000 8.44900 32.03500
C  -0.68800 8.58900 33.54000
H  0.39600 8.57600 34.59100
N  1.10700 5.30300 26.97700
C  1.17600 4.56900 28.13100
C  1.14300 3.23100 27.72600
C  1.16600 3.07700 26.33900
C  1.02800 4.47400 25.90700
C  1.30800 2.18200 28.73000
C  1.22100 1.90200 25.37000
O  1.31400 2.06600 24.16500
C  1.26500 0.46700 25.85600
N  1.08300 7.36300 24.83000
C  0.84300 6.25100 24.03700
C  0.41500 6.66700 22.63800
C  0.63100 8.21800 22.56900
C  0.97300 8.47000 24.03100
C  1.09800 5.82300 21.56000
C  -0.56300 9.02200 22.00200
C  -0.26000 10.46300 21.53100
N  1.18900 9.31100 27.00200
C  1.34800 10.13400 25.90700
C  1.55100 11.46500 26.38000
C  1.61100 11.36400 27.80800
C  1.38800 10.04300 28.09100
C  1.83000 12.64800 25.48700
C  1.85200 12.14900 28.97300
O  2.03100 13.34500 29.13100
C  1.57200 11.12700 30.13900
C  2.76700 11.14000 31.02100
O  3.92900 10.88400 30.69400
O  2.30700 11.38500 32.31800
C  3.31300 11.62600 33.43000
H  1.28500 4.26400 30.28600
H  0.70400 4.30500 23.68000
H  1.21500 10.52100 23.79600
H  1.84400 8.61000 32.24300
H  0.67000 6.04900 32.09800
H  2.48100 5.25200 33.03200
H  3.31900 6.76500 32.72600
H  3.28800 5.62500 31.45300
H  -0.92700 7.60300 31.62000
H  -0.67300 9.31900 31.44800
H  -1.40600 7.79400 33.74300
H  -1.22200 9.54000 33.56100
H  1.82700 1.31200 28.32700
H  0.40000 1.95400 29.28800
H  2.01800 2.48400 29.49900
H  2.29900 0.39700 26.19400
H  1.04200 -0.21700 25.03800
H  0.53200 0.46300 26.66300
H  -0.64700 6.42100 22.64000
H  1.35200 8.54000 21.81700
H  0.39400 5.12600 21.10600
H  1.88900 5.19500 21.97100
H  1.45900 6.56000 20.84300
H  -1.19100 9.19300 22.87600
H  -1.18000 8.40400 21.35000
H  -0.77700 10.64200 20.58800
H  0.80300 10.62200 21.34900
H  -0.65300 11.22200 22.20800
H  0.87300 12.87400 25.01800
H  2.50800 12.35900 24.68400
H  2.19200 13.54400 25.99100
H  0.70400 11.49900 30.68300
H  3.21200 10.74900 34.06900
H  3.14200 12.48500 34.07900
H  4.32500 11.65900 33.02500
Mg -5.97700 25.19400 26.01900
C  -4.63000 26.51100 29.16400
C  -7.65500 22.83800 27.97100
C  -6.48700 23.60000 23.38400
C  -3.81300 27.48700 24.50100
N  -6.10600 24.73600 28.30300
C  -5.47600 25.38400 29.34700
C  -5.92500 24.83100 30.79300
C  -6.64400 23.44300 30.29300
C  -6.88000 23.65400 28.76000
C  -5.86500 22.18000 30.64600
C  -6.74500 25.96000 31.47600
C  -6.65100 26.15500 32.99400
H  -6.07800 24.98400 33.77600
N  -7.15300 23.56300 25.64300
C  -7.80700 22.70800 26.54400
C  -8.51800 21.76600 25.85000
C  -8.23800 21.90300 24.43500
C  -7.26500 23.02800 24.43200
C  -9.44000 20.78000 26.57700
C  -8.75000 21.14100 23.27900
O  -8.30300 21.43300 22.14000
C  -9.86900 20.16300 23.42200
N  -5.33200 25.57700 24.24500
C  -5.63300 24.71100 23.25000
C  -4.91700 25.03600 21.89100
C  -4.22500 26.40200 22.33800
C  -4.51000 26.55700 23.81100
C  -3.92900 23.92700 21.47000
C  -4.74600 27.54000 21.41700
C  -3.73400 28.56000 20.93400
N  -4.66500 26.81900 26.67900
C  -3.95300 27.68700 25.88600
C  -3.24700 28.64500 26.71200
C  -3.42400 28.22300 27.99500
C  -4.30200 27.08000 27.92200
C  -2.42300 29.75900 26.09200
C  -3.09200 28.48200 29.35900
O  -2.44000 29.33400 29.89400
C  -3.93300 27.41300 30.17100
C  -2.99300 26.65500 31.07400
O  -2.19300 25.82400 30.70800
O  -3.16700 26.94100 32.37200
C  -2.34200 26.39500 33.38300
H  -8.14800 22.14200 28.65300
H  -6.56100 23.03500 22.45300
H  -3.27500 28.23300 23.91300
H  -4.99900 24.58100 31.31000
H  -7.58200 23.35000 30.84000
H  -4.88800 22.38500 31.08300
H  -5.74000 21.60400 29.72800
H  -6.47000 21.55800 31.30500
H  -7.80600 25.78100 31.30300
H  -6.45100 26.95600 31.14600
H  -7.67200 26.30200 33.34500
H  -5.98400 26.98600 33.22100
H  -10.50400 20.86600 26.35600
H  -9.38900 20.73900 27.66500
H  -9.03900 19.79800 26.32700
H  -9.59800 19.36900 24.11700
H  -9.99900 19.68300 22.45200
H  -10.77200 20.66300 23.77000
H  -5.72000 25.17500 21.16700
H  -3.15600 26.33900 22.13200
H  -4.09500 23.74500 20.40800
H  -4.10100 22.99500 22.00900
H  -2.91600 24.30300 21.61700
H  -5.41400 28.17100 22.00400
H  -5.22100 27.24400 20.48200
H  -4.15800 29.56300 20.98600
H  -3.41300 28.23300 19.94500
H  -2.95300 28.53700 21.69300
H  -2.99200 30.33200 25.36000
H  -1.56400 29.31900 25.58500
H  -2.09200 30.39000 26.91800
H  -4.59200 28.02400 30.78900
H  -1.96900 25.41700 33.07900
H  -2.78700 26.11100 34.33700
H  -1.50000 27.04900 33.60900

