158

Mg 40.66500 8.41300 28.84900
C  42.56100 9.45700 31.65500
C  38.63700 6.73200 31.20300
C  39.11700 7.01700 26.32000
C  43.09500 9.63900 26.70500
N  40.67900 8.04800 31.15500
C  41.43700 8.77200 32.04800
C  40.98400 8.64400 33.46700
C  39.84100 7.57800 33.31000
C  39.66100 7.43900 31.77900
C  40.21000 6.23600 33.92100
C  40.57000 9.91300 34.15200
C  39.63800 9.90900 35.38800
H  40.12600 10.87200 36.47700
N  39.01000 7.18000 28.77300
C  38.35800 6.55700 29.79700
C  37.41400 5.67300 29.27900
C  37.39400 5.84200 27.80700
C  38.55000 6.69200 27.58200
C  36.39500 4.88400 30.03800
C  36.40800 5.18400 26.83500
O  36.50000 5.31000 25.62600
C  35.11600 4.44800 27.35200
N  41.07800 8.31200 26.77200
C  40.26300 7.70800 25.87000
C  40.78700 7.81800 24.41500
C  42.10300 8.59700 24.62800
C  42.16300 8.85900 26.14400
C  40.83800 6.36500 23.78000
C  42.28200 9.85500 23.78900
C  41.24800 10.90000 23.78400
N  42.41000 9.42700 29.08300
C  43.32000 9.84400 28.12800
C  44.46500 10.41800 28.84100
C  44.14700 10.42300 30.18200
C  42.93300 9.76100 30.31300
C  45.59700 10.93400 28.19200
C  44.58700 10.75400 31.49800
O  45.57900 11.34000 31.82800
C  43.59500 10.24600 32.47900
C  44.19200 9.45100 33.55000
O  44.43900 8.26500 33.54100
O  44.51100 10.32300 34.55000
C  44.98000 9.75800 35.79100
H  38.02700 6.23000 31.95600
H  38.54000 6.59900 25.49300
H  43.87600 9.95100 26.00800
H  41.87400 8.29000 33.98600
H  38.92100 7.96100 33.75300
H  39.87200 5.33800 33.40300
H  39.72600 6.07200 34.88400
H  41.25000 6.15300 34.23800
H  39.97000 10.44900 33.41700
H  41.39200 10.54700 34.48500
H  39.68800 8.89300 35.77900
H  38.62100 10.21600 35.14800
H  36.66600 4.99400 31.08800
H  36.43900 3.82000 29.80500
H  35.41900 5.33100 29.84500
H  34.53900 5.09700 28.00900
H  35.43200 3.48900 27.76200
H  34.42100 4.28500 26.52800
H  40.01100 8.49300 24.05300
H  42.86900 7.82500 24.56100
H  40.11500 6.30000 22.96700
H  40.65200 5.51300 24.43300
H  41.77500 6.17900 23.25700
H  42.24500 9.58600 22.73400
H  43.18800 10.42700 23.98900
H  41.77700 11.84500 23.90800
H  40.78600 10.63400 24.73400
H  40.49900 10.94100 22.99300
H  46.07000 11.42300 29.04400
H  45.46100 11.59800 27.33800
H  46.26600 10.09400 28.00800
H  42.99100 11.02900 32.93800
H  44.26400 10.07700 36.54900
H  45.94800 10.15500 36.09800
H  44.96900 8.66900 35.76400
Mg 47.57400 33.84100 26.74900
C  45.71400 32.69000 29.64000
C  48.25500 36.74200 28.65100
C  48.71500 35.37500 24.04900
C  46.40500 31.27700 24.90400
N  46.97800 34.67100 28.89300
C  46.36300 33.94600 29.86500
C  46.60400 34.64900 31.25800
C  47.07900 36.15400 30.85100
C  47.52100 35.84500 29.43500
C  45.98100 37.30900 30.88700
C  47.74500 33.87000 31.97600
C  48.04000 34.14600 33.47200
H  46.96200 35.04300 34.20400
N  48.34900 35.70300 26.40100
C  48.56500 36.77600 27.32000
C  49.28200 37.83800 26.64100
C  49.45800 37.45300 25.29200
C  48.86800 36.10300 25.18300
C  49.77000 39.11700 27.33100
C  50.05100 38.22200 24.10500
O  50.19300 37.74700 23.02400
C  50.40400 39.73000 24.24800
N  47.67800 33.36700 24.84000
C  48.17100 34.14900 23.83700
C  48.27700 33.38700 22.53100
C  47.64500 32.06000 22.81400
C  47.18500 32.21200 24.28900
C  47.82400 34.02400 21.19100
C  48.67400 30.91600 22.63100
C  49.49800 30.12400 23.69300
N  46.47200 32.23500 27.21600
C  46.02900 31.31600 26.31600
C  45.10200 30.39700 26.96400
C  45.00200 30.93800 28.26100
C  45.74000 32.09700 28.34300
C  44.39400 29.27100 26.29400
C  44.33500 30.69900 29.50600
O  43.55300 29.80200 29.81400
C  44.77900 31.83600 30.50600
C  45.54000 31.14500 31.56400
O  46.66300 30.64200 31.48400
O  44.79300 31.14500 32.67500
C  45.34100 30.30700 33.79400
H  48.44700 37.64800 29.22900
H  49.07500 35.77300 23.09800
H  46.02900 30.42100 24.34100
H  45.69800 34.67700 31.86400
H  47.88400 36.39600 31.54500
H  45.06600 36.91600 31.33100
H  45.85600 37.84800 29.94800
H  46.30800 38.04800 31.61900
H  48.62300 34.22100 31.43300
H  47.72500 32.79000 31.83100
H  48.99000 34.67900 33.51400
H  48.19100 33.20200 33.99600
H  50.80500 39.35500 27.08500
H  49.74000 38.94500 28.40700
H  49.03600 39.88900 27.10400
H  50.88400 39.98100 23.30200
H  51.07700 39.90500 25.08700
H  49.52300 40.36700 24.32100
H  49.36200 33.34800 22.44200
H  46.70400 31.83200 22.31400
H  46.98100 34.68500 21.39400
H  47.56900 33.30100 20.41600
H  48.61700 34.61700 20.73500
H  49.43300 31.25600 21.92700
H  48.17900 30.13300 22.05600
H  49.21800 30.59600 24.63500
H  50.57000 30.24700 23.53600
H  49.17700 29.08500 23.62400
H  43.41600 29.13600 26.75700
H  45.08600 28.49400 26.62000
H  44.22400 29.44100 25.23100
H  43.88900 32.40900 30.76900
H  46.40700 30.34800 34.02100
H  45.17300 29.23000 33.77000
H  44.91700 30.76100 34.68900

