158

Mg 2.79300 -1.31300 43.87800
C  6.08300 -0.40900 43.31600
C  1.83100 1.42100 42.13800
C  -0.22000 -2.72100 43.74800
C  3.92200 -4.37300 45.45800
N  3.86500 0.39200 42.98900
C  5.22400 0.59200 42.88600
C  5.60100 1.90100 42.19300
C  4.16400 2.50700 41.83100
C  3.15900 1.48400 42.50300
C  3.84100 3.99100 42.10900
C  6.41800 1.59000 40.85400
C  7.32900 2.68200 40.34900
H  7.27500 3.02700 38.86300
N  0.99700 -0.65400 43.03800
C  0.79600 0.48200 42.31800
C  -0.64000 0.53100 41.99100
C  -1.26300 -0.58800 42.60500
C  -0.16400 -1.41400 43.12000
C  -1.20800 1.72200 41.14600
C  -2.74100 -0.87400 42.46700
O  -3.46600 -0.02800 41.95600
C  -3.45200 -2.03900 42.94600
N  2.00900 -3.40000 44.44900
C  0.69500 -3.58800 44.37700
C  0.24300 -4.98400 45.03500
C  1.59900 -5.42800 45.60400
C  2.53900 -4.32400 45.26200
C  -0.92000 -4.83000 46.07000
C  2.23600 -6.88000 45.18100
C  2.83800 -7.71100 46.29100
N  4.63500 -2.32500 44.31600
C  4.97400 -3.53600 45.01100
C  6.42400 -3.65300 45.00800
C  6.89600 -2.45800 44.38400
C  5.76200 -1.68200 43.99600
C  7.22200 -4.72500 45.60700
C  8.15600 -1.72900 43.98200
O  9.34900 -1.93700 44.20500
C  7.64500 -0.38600 43.28500
C  8.28500 0.78500 43.97300
O  8.19300 0.96300 45.16600
O  8.99600 1.66600 43.11500
C  9.54300 2.77900 43.87700
H  1.48500 2.17400 41.42600
H  -1.19900 -3.20400 43.74200
H  4.25200 -5.18200 46.11300
H  6.16800 2.50100 42.90500
H  3.91500 2.34900 40.78200
H  3.07400 4.00100 42.88300
H  3.45900 4.36700 41.15900
H  4.72800 4.54800 42.41100
H  5.64400 1.62700 40.08700
H  6.83200 0.58700 40.95200
H  8.35700 2.59500 40.70000
H  6.80900 3.48400 40.87200
H  -1.20000 1.49100 40.08100
H  -0.54500 2.55300 41.38700
H  -2.23800 2.02200 41.33500
H  -4.52300 -1.84900 43.01700
H  -3.06600 -2.15200 43.95900
H  -3.12000 -2.83800 42.28300
H  -0.10600 -5.66900 44.26200
H  1.56700 -5.38700 46.69300
H  -1.78500 -5.34000 45.64500
H  -1.34600 -3.83100 46.16700
H  -0.71900 -5.19700 47.07600
H  2.98900 -6.70500 44.41300
H  1.49800 -7.43700 44.60300
H  2.32600 -8.66500 46.41700
H  2.75000 -7.20800 47.25400
H  3.90800 -7.90300 46.21400
H  7.42400 -5.56600 44.94300
H  6.69700 -5.07200 46.49700
H  8.21200 -4.43300 45.95900
H  7.98200 -0.27400 42.25400
H  10.35400 3.22500 43.30000
H  9.92400 2.47500 44.85300
H  8.74800 3.47100 44.15300
Mg 46.58000 16.39100 28.34400
C  44.34100 16.18600 30.95100
C  48.71200 18.08700 30.46500
C  48.62900 16.78600 25.74300
C  44.34200 14.67400 26.21000
N  46.42300 17.26900 30.46500
C  45.46200 16.97700 31.33100
C  45.78500 17.42500 32.73100
C  47.23100 18.03000 32.55000
C  47.51000 17.79100 31.06700
C  47.38700 19.58400 32.95200
C  45.73000 16.29700 33.78900
C  46.25300 16.73900 35.15200
H  46.11200 18.18500 35.65200
N  48.42200 17.15600 28.09900
C  49.16900 17.76300 29.09600
C  50.54500 18.13900 28.57400
C  50.51600 17.84600 27.21400
C  49.13600 17.25400 26.95800
C  51.73300 18.49000 29.43600
C  51.54300 18.04400 26.17600
O  51.36000 17.60200 25.06500
C  52.89200 18.59300 26.42200
N  46.28200 16.04200 26.22300
C  47.37000 16.22400 25.45500
C  47.01400 15.92600 24.01200
C  45.76700 15.06300 24.13000
C  45.43800 15.23200 25.58300
C  46.78000 17.23900 23.25500
C  45.98000 13.59500 23.60200
C  46.45400 12.61200 24.66200
N  44.66500 15.75400 28.47800
C  43.89200 14.99700 27.53300
C  42.62700 14.57800 28.14400
C  42.78500 15.05100 29.50300
C  44.03300 15.69000 29.63400
C  41.35000 13.95600 27.49700
C  42.05800 15.18700 30.82300
O  40.89700 14.92600 31.12200
C  43.11900 15.76800 31.78900
C  42.51600 17.00700 32.40300
O  42.46400 18.14100 31.82100
O  42.21500 16.72300 33.69300
C  41.70100 17.85000 34.54300
H  49.48700 18.47800 31.12800
H  49.19500 16.91100 24.81700
H  43.61400 14.07800 25.65600
H  45.12800 18.20000 33.12700
H  47.98900 17.42200 33.04400
H  46.69700 19.95600 33.71000
H  47.34200 20.20500 32.05700
H  48.39200 19.70700 33.35600
H  46.32900 15.45500 33.44200
H  44.75500 15.82800 33.92500
H  47.31600 16.54600 35.29400
H  45.85800 16.01300 35.86300
H  52.54500 17.78400 29.26100
H  51.48600 18.65500 30.48500
H  52.09200 19.45400 29.07700
H  52.90600 19.56200 26.92000
H  53.42000 18.59700 25.46900
H  53.39300 17.89600 27.09300
H  47.88200 15.41300 23.59900
H  44.98700 15.51200 23.51500
H  47.71400 17.79900 23.22200
H  45.97800 17.79500 23.74200
H  46.57100 16.92200 22.23300
H  46.62700 13.56300 22.72600
H  45.06100 13.17700 23.19100
H  47.50800 12.35200 24.56600
H  45.95200 11.66500 24.46700
H  46.18900 12.94900 25.66400
H  41.24100 14.14100 26.42900
H  40.52800 14.33700 28.10400
H  41.43700 12.87000 27.53800
H  43.23700 14.99000 32.54400
H  40.66700 18.07800 34.28300
H  42.22200 18.80600 34.59400
H  41.97600 17.51700 35.54400

