158

Mg 46.12400 24.41600 28.58900
C  46.99800 26.71600 31.11600
C  45.83900 22.02400 30.99600
C  45.50500 22.18700 26.07800
C  47.21000 26.74300 26.24000
N  46.19800 24.46200 30.78200
C  46.53500 25.51200 31.56800
C  46.42900 25.12400 33.04300
C  46.52900 23.51700 33.03500
C  46.10600 23.30400 31.51400
C  47.92300 22.92900 33.44700
C  45.12800 25.69100 33.61500
C  45.37700 26.84000 34.64800
H  44.68700 26.75500 35.99000
N  45.58000 22.39800 28.59200
C  45.54300 21.57400 29.72800
C  45.29500 20.18600 29.27100
C  45.33300 20.23100 27.79000
C  45.46200 21.60300 27.40200
C  45.39300 19.00300 30.18500
C  45.38900 18.99600 26.82000
O  45.44600 19.07800 25.59400
C  45.48900 17.65500 27.41200
N  46.38600 24.42300 26.52800
C  45.96200 23.48200 25.69800
C  46.17600 23.80800 24.19300
C  46.49800 25.28700 24.30500
C  46.71100 25.50900 25.74900
C  47.30500 22.83000 23.67600
C  45.37400 26.14300 23.74500
C  45.72400 27.39000 23.00500
N  47.02300 26.25900 28.58900
C  47.34300 27.11300 27.56000
C  47.67600 28.42700 28.04900
C  47.57600 28.30400 29.45600
C  47.18800 26.98600 29.71100
C  48.17500 29.52500 27.25000
C  47.77400 28.96200 30.78700
O  48.30400 30.04500 30.95000
C  47.37400 27.98400 31.91500
C  48.66000 27.74000 32.75100
O  49.60500 27.29700 32.25000
O  48.56400 28.17900 34.05300
C  49.78000 28.07200 34.85500
H  45.82700 21.30100 31.81400
H  45.24600 21.54100 25.23700
H  47.47900 27.42100 25.42700
H  47.29400 25.52300 33.57200
H  45.77200 23.06100 33.67300
H  48.30000 22.34700 32.60600
H  47.69400 22.40500 34.37500
H  48.63300 23.75400 33.51500
H  44.48100 24.94800 34.08200
H  44.54600 26.01700 32.75300
H  44.83400 27.69600 34.24700
H  46.45600 26.94600 34.76900
H  45.49400 19.30600 31.22800
H  46.31500 18.42700 30.11000
H  44.49000 18.39400 30.16400
H  46.46800 17.56400 27.88200
H  45.46800 16.88100 26.64400
H  44.63800 17.43600 28.05700
H  45.17900 23.64800 23.78200
H  47.41800 25.50900 23.76400
H  48.22300 23.41000 23.58900
H  47.04100 22.60000 22.64400
H  47.31700 21.92100 24.27800
H  44.66000 26.34200 24.54400
H  44.90900 25.58500 22.93300
H  45.59500 27.30300 21.92600
H  46.80400 27.52400 23.07500
H  45.20200 28.24900 23.42600
H  47.71300 29.45900 26.26500
H  49.25900 29.50000 27.14200
H  47.82200 30.43100 27.74200
H  46.56800 28.22800 32.60700
H  49.57100 27.56200 35.79500
H  50.02900 29.11800 35.03200
H  50.59800 27.60600 34.30700
Mg 46.98800 34.02800 27.05700
C  44.77400 32.90000 29.57600
C  47.49900 36.81300 28.93300
C  48.50500 35.41500 24.31600
C  46.10700 31.26500 25.10400
N  46.25400 34.69400 28.95900
C  45.56600 33.98400 29.88800
C  45.63900 34.63200 31.28700
C  46.26400 36.10000 30.96100
C  46.62800 35.87800 29.53000
C  45.45900 37.38200 31.28100
C  46.61300 33.77500 32.13800
C  47.05000 34.26300 33.50400
H  46.08400 35.19300 34.20300
N  47.91800 35.86500 26.67600
C  48.09600 36.84600 27.62100
C  48.88500 37.94500 27.07100
C  49.13600 37.51400 25.67200
C  48.48200 36.24900 25.49600
C  49.32700 39.23400 27.84500
C  49.77400 38.33200 24.63400
O  49.84100 37.94200 23.48900
C  50.36000 39.75600 24.92300
N  47.06000 33.53400 24.96300
C  47.82800 34.13900 24.06600
C  48.03700 33.38400 22.73500
C  47.39500 32.02300 23.03000
C  46.82400 32.21800 24.50300
C  47.58700 34.10700 21.47500
C  48.27800 30.78700 22.77500
C  49.56900 30.48600 23.59800
N  45.65900 32.41900 27.17900
C  45.50300 31.32300 26.39000
C  44.64200 30.38500 27.03100
C  44.24100 31.00700 28.20400
C  44.92900 32.17500 28.31400
C  44.17100 28.99600 26.50200
C  43.38300 30.93100 29.37100
O  42.63700 29.97300 29.44000
C  43.66900 32.12400 30.28700
C  44.09400 31.49000 31.52700
O  44.77700 30.45900 31.64500
O  43.54300 32.12700 32.63700
C  43.74500 31.38300 33.93100
H  47.73400 37.67600 29.56000
H  49.03900 35.70200 23.40800
H  46.01200 30.38600 24.46400
H  44.60700 34.71500 31.63000
H  47.12100 36.19200 31.62800
H  44.45500 37.11100 31.60900
H  45.39500 37.96300 30.36100
H  45.86800 38.06600 32.02400
H  47.48800 33.80000 31.48900
H  46.21800 32.76900 32.28200
H  48.00800 34.70800 33.23400
H  47.38600 33.49800 34.20300
H  50.37500 38.99600 28.02800
H  48.94500 39.15800 28.86300
H  49.15400 40.24400 27.47300
H  49.45700 40.27200 25.24800
H  50.81700 40.17300 24.02500
H  51.12200 39.65700 25.69600
H  49.11400 33.52700 22.81400
H  46.42500 32.05000 22.53300
H  48.48400 34.62600 21.13900
H  46.84300 34.87400 21.69000
H  47.32000 33.36000 20.72700
H  48.53400 31.09700 21.76100
H  47.65800 29.90900 22.59600
H  50.28600 31.24200 23.27700
H  49.98600 29.49300 23.43300
H  49.19300 30.54100 24.61900
H  44.62500 28.18400 27.07000
H  44.49700 29.09000 25.46600
H  43.11900 28.73800 26.38400
H  42.74200 32.68800 30.39100
H  44.40900 31.90500 34.61900
H  43.84900 30.29900 33.96100
H  42.71900 31.52500 34.27100

