158

Mg 46.93800 24.88600 28.19100
C  47.53900 27.16000 30.80900
C  46.75300 22.39500 30.42200
C  45.99700 23.03000 25.66200
C  47.49000 27.65700 25.83000
N  46.83400 24.83400 30.32200
C  47.11900 25.83100 31.23700
C  47.05200 25.34200 32.67300
C  46.75200 23.80100 32.51700
C  46.82100 23.63600 30.99800
C  47.78100 22.93900 33.32700
C  46.03700 26.19600 33.46300
C  46.59800 27.15100 34.49500
H  46.14300 27.05500 35.96100
N  46.39500 23.01900 28.04100
C  46.53000 22.08700 29.05000
C  46.20500 20.78500 28.54200
C  45.78500 20.94300 27.19600
C  45.98200 22.37000 26.94600
C  46.24800 19.49000 29.34600
C  45.11500 19.98000 26.20400
O  44.84400 20.28000 25.05600
C  44.71000 18.57500 26.61000
N  47.08500 25.20300 25.92500
C  46.57700 24.23100 25.11800
C  46.40600 24.72900 23.68100
C  46.80800 26.22600 23.71900
C  47.18300 26.45100 25.24100
C  47.26000 23.79200 22.71200
C  45.62500 27.09100 23.29400
C  45.80000 27.88900 21.96500
N  47.48700 26.93500 28.23300
C  47.72300 27.88700 27.21100
C  48.13400 29.11500 27.85100
C  48.11800 28.90900 29.21100
C  47.66900 27.53000 29.42500
C  48.36000 30.45600 27.12500
C  48.34400 29.48500 30.52100
O  48.79600 30.60200 30.80000
C  47.95600 28.38300 31.59200
C  49.05800 28.22800 32.55300
O  50.00100 27.51000 32.39300
O  48.93400 29.22400 33.52500
C  49.96500 29.26300 34.54200
H  46.89900 21.48800 31.01300
H  45.63500 22.44800 24.81100
H  47.52800 28.61300 25.30400
H  48.06700 25.48700 33.04300
H  45.77200 23.49100 32.87900
H  48.49300 22.47600 32.64400
H  47.14000 22.18900 33.79100
H  48.43500 23.48000 34.01100
H  45.36800 25.49400 33.96000
H  45.52200 26.71300 32.65300
H  46.36600 28.13300 34.08200
H  47.65900 27.03900 34.71800
H  46.20900 18.65500 28.64700
H  45.36700 19.31300 29.96300
H  47.08200 19.55200 30.04600
H  44.40200 18.56800 27.65500
H  45.60800 17.96500 26.50700
H  43.98900 18.11000 25.93700
H  45.35400 24.66100 23.40300
H  47.68300 26.49100 23.12500
H  48.20700 24.33000 22.66700
H  46.92700 23.85500 21.67600
H  47.35100 22.77000 23.07900
H  45.37000 27.88500 23.99500
H  44.71400 26.50400 23.17400
H  45.47400 27.24900 21.14500
H  46.86500 28.11900 21.92700
H  45.31400 28.86200 22.03300
H  49.04700 30.94700 27.81500
H  47.52500 31.14300 26.99200
H  48.74000 30.30800 26.11500
H  47.11100 28.80300 32.13700
H  50.95500 28.94900 34.21200
H  49.71300 28.60800 35.37700
H  49.92100 30.33400 34.73900
Mg 5.88500 54.52500 40.99100
C  5.54000 50.98100 40.95300
C  9.12500 53.97200 39.75200
C  6.32800 57.80100 40.44700
C  2.63000 54.85000 41.68000
N  7.06700 52.73300 40.14300
C  6.71800 51.38600 40.31600
C  7.91400 50.44600 39.95000
C  9.10300 51.50500 40.05800
C  8.39700 52.82100 39.96200
C  10.18100 51.22200 41.19100
C  7.68700 49.80100 38.53600
C  8.18000 50.62200 37.29200
H  7.44100 50.33400 35.97100
N  7.40800 55.69900 40.03500
C  8.69800 55.26500 39.66900
C  9.48900 56.38300 39.20700
C  8.69300 57.50800 39.49400
C  7.36400 57.03000 39.98900
C  10.97900 56.39900 38.79400
C  9.11900 59.02000 39.39400
O  10.23200 59.31500 38.94700
C  8.12500 60.19500 39.65900
N  4.63300 56.12500 40.94100
C  5.05800 57.35800 40.95000
C  4.10500 58.28400 41.79900
C  2.86500 57.39000 41.96500
C  3.37300 56.05800 41.48600
C  4.74600 58.73600 43.16000
C  1.61100 57.99400 41.29900
C  0.26300 57.49300 41.79600
N  4.32000 53.19700 41.22300
C  3.05400 53.52500 41.61500
C  2.39000 52.24800 42.00100
C  3.38900 51.21000 41.84200
C  4.47900 51.89500 41.33500
C  0.96100 52.18400 42.40500
C  3.63700 49.81100 41.94500
O  2.93700 48.89200 42.33300
C  5.07000 49.55600 41.29000
C  4.86300 48.70000 40.10800
O  4.25000 48.95900 39.06800
O  5.45200 47.47100 40.37300
C  5.38900 46.51500 39.27900
H  10.16300 53.77200 39.47700
H  6.36400 58.86500 40.69300
H  1.61300 55.09700 41.99200
H  7.98000 49.68500 40.72700
H  9.75500 51.51900 39.18400
H  11.14900 51.00700 40.73900
H  9.81900 50.40100 41.80900
H  10.47700 52.04600 41.84000
H  6.60600 49.88000 38.42100
H  7.93000 48.74200 38.61700
H  9.25500 50.51600 37.14400
H  7.97200 51.67300 37.49500
H  11.38100 55.42700 38.50700
H  11.47300 56.71100 39.71400
H  10.96500 56.99900 37.88300
H  8.62500 61.09900 39.31200
H  7.93300 60.35100 40.72100
H  7.20100 59.96500 39.12900
H  3.93700 59.21200 41.25200
H  2.60000 57.24600 43.01200
H  5.66700 58.22700 43.44300
H  3.95800 58.61300 43.90300
H  5.00300 59.79500 43.12400
H  1.73100 57.94800 40.21700
H  1.63700 59.03200 41.63100
H  -0.40100 58.28400 42.14500
H  0.37000 56.77300 42.60800
H  -0.27100 56.99300 40.98800
H  0.98100 52.37000 43.47900
H  0.61200 51.17300 42.19300
H  0.29500 52.87600 41.89100
H  5.82800 49.17600 41.97500
H  5.60200 45.57700 39.79300
H  6.05100 46.74900 38.44600
H  4.33900 46.43900 38.99900

