158

Mg 35.85500 1.38700 29.55400
C  33.78500 2.22100 32.17100
C  38.54800 1.54700 31.63700
C  37.70200 0.93300 26.87700
C  33.01400 2.11300 27.32500
N  36.04100 1.69700 31.64100
C  35.09600 1.90800 32.59900
C  35.68600 2.14100 33.98600
C  37.21300 2.09000 33.73100
C  37.28800 1.82100 32.24900
C  37.99700 3.33900 34.27600
C  35.19100 1.01900 34.97200
C  34.83100 1.49100 36.43800
H  35.60800 2.66000 36.94700
N  37.84900 1.11900 29.25300
C  38.80900 1.25800 30.26400
C  40.09300 0.96900 29.71000
C  39.84800 0.67700 28.33200
C  38.38800 0.85200 28.12100
C  41.44800 1.09500 30.47300
C  40.86800 0.45900 27.20400
O  40.55500 0.29700 26.03100
C  42.31400 0.43500 27.54700
N  35.47100 1.58000 27.43500
C  36.43000 1.26700 26.55100
C  35.92500 1.24300 25.09900
C  34.43500 1.54100 25.29400
C  34.24700 1.77400 26.73100
C  36.54200 2.18600 24.05100
C  33.48500 0.35800 24.82500
C  33.23500 -0.79100 25.87100
N  33.86300 2.11800 29.61200
C  32.82400 2.30900 28.70400
C  31.62800 2.66800 29.43600
C  31.98500 2.61500 30.77300
C  33.35100 2.29800 30.80600
C  30.45700 3.01400 28.81500
C  31.54500 2.94100 32.10400
O  30.48700 3.45900 32.44700
C  32.66800 2.66000 33.10600
C  32.97700 3.85200 33.81800
O  33.44000 4.88100 33.32500
O  32.62400 3.67000 35.12000
C  32.34800 4.81000 35.93600
H  39.38100 1.58300 32.34200
H  38.25400 0.66400 25.97400
H  32.12800 2.38500 26.74700
H  35.34800 3.15600 34.19500
H  37.60200 1.23400 34.28300
H  38.63100 3.14900 35.14200
H  37.34300 4.15400 34.58400
H  38.60600 3.86900 33.54400
H  36.05000 0.37000 35.14400
H  34.41300 0.49600 34.41600
H  34.94500 0.70000 37.17900
H  33.74900 1.62400 36.42400
H  41.27400 1.27600 31.53400
H  42.05100 1.95000 30.16500
H  42.01000 0.16100 30.45600
H  42.40300 -0.33500 28.31300
H  42.60100 1.33300 28.09300
H  42.81600 0.19900 26.60800
H  36.15600 0.19600 24.90700
H  34.19000 2.46500 24.76900
H  37.21900 2.94800 24.43600
H  35.86700 2.72300 23.38500
H  37.13800 1.61600 23.33900
H  34.10000 -0.20700 24.12400
H  32.53800 0.70600 24.41200
H  33.45000 -0.62700 26.92600
H  33.99400 -1.55000 25.67800
H  32.26500 -1.26900 25.73500
H  30.65600 3.82300 28.11200
H  29.74700 3.43700 29.52600
H  30.17700 2.06500 28.35800
H  32.42900 1.83300 33.77400
H  32.97400 4.68400 36.81900
H  31.29700 4.81500 36.22600
H  32.57600 5.78900 35.51300
Mg 34.29500 49.36600 25.46100
C  34.83700 47.76000 28.53300
C  32.56400 51.86800 27.19500
C  33.76300 50.93100 22.48400
C  35.86700 46.62600 23.84600
N  33.72700 49.73100 27.58700
C  34.11200 48.95900 28.69400
C  33.72300 49.67400 29.98300
C  32.79400 50.87400 29.53100
C  33.04700 50.82600 28.00300
C  31.33300 50.76700 29.94000
C  34.93000 50.15200 30.85300
C  34.57100 51.19700 31.90100
H  33.29000 50.99800 32.71400
N  33.29500 51.15000 24.89200
C  32.80500 52.09300 25.82000
C  32.24200 53.21300 25.02700
C  32.47400 52.92500 23.66500
C  33.24600 51.65200 23.62900
C  31.54100 54.32600 25.65600
C  31.99600 53.77100 22.50500
O  32.36600 53.51000 21.39400
C  31.15500 54.97200 22.65800
N  34.69300 48.82400 23.42500
C  34.40400 49.69400 22.38800
C  34.89700 49.04400 21.01000
C  35.69300 47.74500 21.51100
C  35.36800 47.66600 22.97500
C  33.78300 48.75000 19.87200
C  37.19900 47.67800 21.11800
C  38.20100 48.56400 21.92900
N  35.18800 47.54500 26.00600
C  35.75200 46.51800 25.19500
C  36.18300 45.48700 26.01800
C  35.83600 45.91200 27.36600
C  35.24100 47.18000 27.29600
C  36.76700 44.20100 25.66400
C  35.77100 45.47000 28.73800
O  36.13100 44.39900 29.25600
C  35.26200 46.72400 29.51600
C  34.18600 46.42600 30.42500
O  32.95300 46.48200 30.20300
O  34.65300 45.81200 31.56700
C  33.71400 45.42300 32.66500
H  32.04600 52.66600 27.73000
H  33.62100 51.36000 21.49000
H  36.39800 45.81400 23.34500
H  33.26100 48.85900 30.54100
H  33.10900 51.83200 29.94500
H  31.09400 49.91200 30.57200
H  30.66500 50.81700 29.08000
H  31.04800 51.62500 30.54900
H  35.79500 50.48000 30.27500
H  35.23500 49.24900 31.38200
H  34.59800 52.20900 31.49900
H  35.41600 51.11200 32.58400
H  32.02100 55.27800 25.42800
H  31.46100 54.30800 26.74300
H  30.48900 54.28400 25.37100
H  31.68300 55.76100 23.19300
H  30.26200 54.82300 23.26500
H  31.03700 55.39800 21.66200
H  35.53200 49.73600 20.45600
H  35.20100 46.86500 21.09700
H  32.88300 48.94600 20.45500
H  33.81600 47.73000 19.49100
H  33.90700 49.51000 19.10100
H  37.39600 48.02100 20.10300
H  37.52000 46.63600 21.10800
H  38.91100 47.88700 22.40400
H  37.54000 49.09000 22.61800
H  38.74700 49.34800 21.40500
H  37.42800 43.79700 26.43000
H  37.33900 44.23600 24.73600
H  35.95500 43.49100 25.50600
H  36.15300 46.90400 30.11800
H  33.60400 44.34200 32.74100
H  32.65800 45.60700 32.46800
H  34.09900 45.88300 33.57600

