158

Mg 0.79200 7.25400 26.90600
C  1.45400 9.14200 29.68600
C  1.19100 4.38300 28.69500
C  0.99100 5.57600 24.01300
C  1.23700 10.33500 25.06800
N  1.34500 6.87700 28.90400
C  1.29300 7.75900 29.93100
C  1.21700 7.07500 31.25400
C  1.46200 5.58800 30.93700
C  1.34500 5.60000 29.41400
C  2.80200 4.89800 31.43500
C  -0.09200 7.38400 32.03800
C  0.05300 7.70800 33.50400
H  1.26600 7.10300 34.24400
N  0.88400 5.21000 26.41800
C  1.01800 4.13500 27.30000
C  0.96800 2.87300 26.54700
C  1.00700 3.23000 25.10400
C  0.96200 4.71100 25.12600
C  0.91000 1.57900 27.35400
C  1.04900 2.36600 23.98600
O  0.91700 2.78500 22.81400
C  1.18100 0.88300 24.15100
N  0.98800 7.88500 24.79800
C  0.98100 6.97200 23.79300
C  0.89300 7.60800 22.38300
C  0.93800 9.14100 22.78800
C  0.99900 9.12200 24.33600
C  1.97300 7.22900 21.38300
C  -0.30000 10.01800 22.33500
C  -0.04900 11.12000 21.32200
N  1.09700 9.30700 27.24100
C  1.31900 10.39500 26.39200
C  1.55600 11.62000 27.22400
C  1.66500 11.15300 28.50700
C  1.40300 9.74200 28.44000
C  1.59900 13.00500 26.75200
C  1.93100 11.49900 29.90600
O  2.28300 12.59300 30.36200
C  1.62400 10.27700 30.74500
C  2.66900 10.19300 31.73000
O  3.71400 9.68100 31.63000
O  2.29200 11.06300 32.69000
C  3.33700 11.35100 33.75300
H  1.33400 3.53700 29.37000
H  1.11600 5.09100 23.04200
H  1.45200 11.21600 24.46000
H  2.10100 7.42300 31.78800
H  0.69000 4.92400 31.32600
H  3.38300 5.58100 32.05500
H  3.45800 4.66400 30.59600
H  2.54000 4.02000 32.02500
H  -0.82300 6.58500 31.91700
H  -0.63700 8.15600 31.49600
H  -0.79700 7.31800 34.06200
H  0.06500 8.78600 33.66600
H  1.10700 1.76400 28.41000
H  1.84000 1.06900 27.10600
H  0.00100 0.99500 27.20900
H  0.32300 0.48700 24.69300
H  2.16900 0.63000 24.53500
H  1.14100 0.47600 23.14000
H  -0.08000 7.33200 21.97700
H  1.87100 9.59600 22.45600
H  2.80000 6.98500 22.05000
H  2.05800 8.14200 20.79400
H  1.58100 6.39300 20.80400
H  -0.85300 10.28200 23.23600
H  -1.01800 9.31700 21.91000
H  -0.51400 10.84900 20.37400
H  1.03000 11.14400 21.16600
H  -0.49800 12.06100 21.63900
H  1.70100 12.97600 25.66700
H  2.41500 13.55100 27.22700
H  0.63800 13.47100 26.97200
H  0.68500 10.56600 31.21700
H  2.90500 11.80700 34.64400
H  3.96100 12.10200 33.27000
H  3.80500 10.41500 34.06000
Mg 43.27900 3.88700 47.09900
C  41.36000 6.84900 47.09400
C  40.29000 2.11600 46.74700
C  45.01600 1.20800 46.25400
C  46.08400 6.00600 46.50100
N  41.09000 4.49800 46.94500
C  40.51400 5.72300 47.06200
C  38.96800 5.66400 47.08200
C  38.79900 4.10500 47.11800
C  40.15700 3.47400 46.88300
C  38.15300 3.58800 48.43200
C  38.26200 6.36800 45.86300
C  39.19600 6.92100 44.76000
H  38.80600 6.38900 43.36100
N  42.75300 1.87000 46.85600
C  41.49000 1.31400 46.69700
C  41.54600 -0.04300 46.42700
C  42.95200 -0.39800 46.32500
C  43.63800 0.86800 46.53400
C  40.34200 -0.89300 46.22500
C  43.44100 -1.89200 46.07400
O  42.63500 -2.82800 45.86200
C  44.85500 -2.29600 46.03300
N  45.21600 3.65600 46.36100
C  45.71800 2.39400 46.16400
C  47.15400 2.49400 45.68000
C  47.54700 3.97800 45.98200
C  46.18400 4.64600 46.29800
C  48.02500 1.46500 46.39800
C  48.53500 4.71300 44.99000
C  49.87800 4.95600 45.62300
N  43.70400 6.04600 46.75800
C  44.94500 6.72300 46.65300
C  44.65300 8.18700 46.75000
C  43.26800 8.26400 46.97000
C  42.74300 6.94700 46.97300
C  45.75600 9.23800 46.65800
C  42.19700 9.17100 47.29600
O  42.22400 10.39100 47.34900
C  40.91600 8.28900 47.31200
C  40.08900 8.54100 48.49600
O  40.10800 7.81700 49.46000
O  39.28000 9.59700 48.33200
C  38.28800 10.07800 49.27000
H  39.28800 1.70900 46.59900
H  45.53400 0.30400 45.92900
H  47.03300 6.53400 46.61600
H  38.65800 6.13000 48.01800
H  38.21500 3.64000 46.32400
H  37.72500 4.40900 49.00600
H  38.93200 3.14500 49.05300
H  37.39100 2.85400 48.17100
H  37.72200 7.23800 46.23700
H  37.52700 5.73500 45.36600
H  40.23600 6.60600 44.84300
H  39.06500 8.00300 44.77700
H  39.85000 -0.80100 45.25700
H  39.55800 -0.62800 46.93500
H  40.46400 -1.94800 46.46800
H  45.44600 -1.88200 46.85000
H  45.16400 -1.94400 45.04900
H  44.99100 -3.37700 46.03700
H  47.16700 2.30400 44.60700
H  48.02600 3.81400 46.94700
H  48.90400 1.91400 46.86000
H  48.26900 0.79300 45.57500
H  47.51000 0.99800 47.23700
H  48.16800 5.71100 44.75000
H  48.52700 4.20900 44.02300
H  50.62000 4.47900 44.98200
H  49.95400 4.49100 46.60500
H  49.98000 6.03300 45.75500
H  46.13200 9.48600 47.65000
H  45.39900 10.20500 46.30400
H  46.58600 8.89600 46.04000
H  40.30000 8.64100 46.48400
H  38.28200 9.43100 50.14700
H  37.38300 10.03500 48.66400
H  38.58200 11.10000 49.51200

