158

Mg -2.05500 17.13500 26.10800
C  -2.17700 14.97800 28.90300
C  -2.92100 19.78200 28.24600
C  -2.67800 19.11700 23.48200
C  -2.07000 14.31400 24.10300
N  -2.45200 17.32800 28.35200
C  -2.32300 16.35800 29.32900
C  -2.60500 16.93400 30.73800
C  -3.11000 18.36800 30.40200
C  -2.82900 18.54400 28.87900
C  -4.64200 18.59300 30.69800
C  -1.53900 16.88500 31.89200
C  -1.72100 15.85600 33.04200
H  -2.14700 16.44900 34.42700
N  -2.38600 19.15700 25.92300
C  -2.64800 20.11200 26.87800
C  -2.64000 21.41900 26.29500
C  -2.49900 21.22500 24.90400
C  -2.52300 19.75300 24.69300
C  -2.79000 22.76300 27.07700
C  -2.30700 22.16400 23.85500
O  -2.33400 21.92700 22.64100
C  -1.90400 23.63600 24.20600
N  -2.45500 16.72700 24.08000
C  -2.72100 17.72900 23.21000
C  -2.90700 17.24600 21.74100
C  -2.48300 15.71500 21.93500
C  -2.31600 15.52700 23.47600
C  -4.36700 17.30300 21.21500
C  -1.32200 15.17500 21.07800
C  0.07200 15.61500 21.54900
N  -1.97600 15.11000 26.37600
C  -1.85300 14.05200 25.46700
C  -1.61800 12.75700 26.13500
C  -1.84300 13.13100 27.44100
C  -2.04400 14.49100 27.57100
C  -1.60600 11.31600 25.70300
C  -2.00400 12.53000 28.66800
O  -2.04900 11.32400 29.00400
C  -2.30700 13.72100 29.68500
C  -1.28100 13.50600 30.74400
O  -0.16000 13.89100 30.77500
O  -1.83200 12.59000 31.66600
C  -0.97100 12.18800 32.79000
H  -2.99300 20.53500 29.03400
H  -2.85600 19.65200 22.54700
H  -1.86400 13.48100 23.42800
H  -3.46800 16.35600 31.07000
H  -2.60400 19.16200 30.95100
H  -4.73300 19.57400 31.16500
H  -5.08000 17.79300 31.29400
H  -5.24100 18.73600 29.79800
H  -1.48700 17.89500 32.29900
H  -0.52600 16.62500 31.58700
H  -0.77000 15.35200 33.21400
H  -2.41000 15.03000 32.87000
H  -3.00900 22.57900 28.12800
H  -3.65900 23.32000 26.72800
H  -1.97800 23.49100 27.06700
H  -2.78800 24.12100 24.62000
H  -1.75500 24.20500 23.28900
H  -1.02000 23.63400 24.84400
H  -2.32700 17.77500 20.98400
H  -3.31500 15.07900 21.63300
H  -4.29900 17.61800 20.17400
H  -4.97600 18.09800 21.64500
H  -4.94400 16.38400 21.32300
H  -1.43300 15.43100 20.02400
H  -1.48100 14.10300 21.18900
H  0.57100 14.69200 21.84500
H  0.01600 16.25700 22.42800
H  0.64100 16.15300 20.79100
H  -1.15700 11.14800 24.72400
H  -2.64900 11.01100 25.60900
H  -0.99300 10.88000 26.49100
H  -3.35300 13.77700 29.98700
H  -0.88200 12.99600 33.51700
H  0.01500 11.94200 32.39700
H  -1.39000 11.27800 33.22000
Mg 40.86700 41.22700 27.20500
C  40.24100 43.55600 29.80200
C  41.39000 38.92500 29.67900
C  42.17300 39.21000 24.92900
C  40.68300 43.81000 24.92100
N  40.79000 41.29800 29.44700
C  40.33400 42.25000 30.26500
C  40.26000 41.84600 31.76000
C  40.69200 40.35800 31.67500
C  41.01300 40.16000 30.17900
C  41.98900 39.93700 32.53500
C  38.91100 42.18500 32.50200
C  38.40900 41.21000 33.52400
H  37.87500 41.86000 34.68900
N  41.61400 39.30400 27.29400
C  41.68800 38.48000 28.35900
C  42.33000 37.21800 28.04900
C  42.63300 37.32300 26.69700
C  42.19700 38.68000 26.25500
C  42.59100 36.07600 29.03900
C  43.25200 36.22400 25.78500
O  43.66800 36.35000 24.62900
C  43.39500 34.90800 26.32800
N  41.43500 41.48900 25.19500
C  41.86800 40.46100 24.38800
C  42.01100 40.92000 22.89500
C  41.39100 42.37700 22.98900
C  41.14900 42.57900 24.44300
C  43.36900 40.88000 22.30400
C  40.17700 42.53700 22.10300
C  38.84600 41.83400 22.63700
N  40.40900 43.22400 27.26900
C  40.47100 44.17200 26.28700
C  40.15700 45.46200 26.82800
C  40.06600 45.28600 28.23300
C  40.23000 43.89400 28.40600
C  40.02000 46.75300 26.08900
C  39.80900 45.86100 29.45700
O  39.60300 47.01100 29.81700
C  39.90300 44.77300 30.58800
C  41.01400 45.14000 31.48800
O  42.19500 45.32100 31.25500
O  40.50500 45.27300 32.76400
C  41.42700 45.69500 33.82100
H  41.53200 38.20400 30.48700
H  42.67300 38.50900 24.25700
H  40.73200 44.50300 24.07800
H  41.09500 42.29600 32.29800
H  39.86400 39.69200 31.91700
H  41.68900 39.02200 33.04600
H  42.26900 40.70700 33.25500
H  42.85800 39.75900 31.90200
H  38.07300 42.24800 31.80900
H  39.02600 43.16900 32.95600
H  39.25600 40.62000 33.87300
H  37.71500 40.51100 33.05700
H  42.54000 36.39800 30.08000
H  43.50600 35.49400 28.92700
H  41.88000 35.26500 28.88200
H  42.52700 34.54900 26.88100
H  44.18000 35.06100 27.06900
H  43.61600 34.11200 25.61700
H  41.40400 40.30600 22.23000
H  42.18100 43.06700 22.69400
H  43.39200 41.75900 21.66100
H  43.37800 40.02000 21.63300
H  44.15800 40.83400 23.05500
H  40.40700 41.94900 21.21500
H  40.01000 43.59000 21.87900
H  38.57800 41.09700 21.88000
H  38.05900 42.53000 22.92500
H  39.05300 41.32500 23.57800
H  39.70900 46.55900 25.06300
H  41.01700 47.19300 26.10800
H  39.35400 47.51800 26.48900
H  39.00600 44.70200 31.20400
H  41.98200 46.57300 33.49000
H  42.20100 44.93000 33.88800
H  40.96800 45.92900 34.78100

