158

Mg 0.49600 7.57300 26.10300
C  1.36200 9.46900 28.84700
C  0.65000 4.81900 28.25700
C  0.57000 5.52300 23.41300
C  1.31800 10.33800 23.97100
N  1.24900 7.19400 28.33700
C  1.03900 8.14800 29.22900
C  1.07100 7.60600 30.61800
C  1.10800 6.11200 30.38400
C  1.02700 6.01400 28.86300
C  2.33300 5.23700 30.83900
C  -0.16300 8.10600 31.39800
C  0.06900 8.17000 32.90500
H  1.28700 7.37300 33.51800
N  0.27300 5.52700 25.88000
C  0.28000 4.57600 26.88400
C  -0.12700 3.34300 26.30000
C  -0.11300 3.45700 24.89800
C  0.32800 4.85500 24.66100
C  -0.55100 2.18000 27.09000
C  -0.34200 2.36100 23.75400
O  -0.08500 2.53100 22.57500
C  -0.93700 1.15000 24.22200
N  0.97800 7.97600 23.96100
C  0.72200 6.94200 23.11500
C  0.59400 7.50800 21.67900
C  0.68300 9.05100 21.87700
C  1.03100 9.13100 23.31700
C  1.67500 7.02100 20.65500
C  -0.59700 9.81800 21.51300
C  -0.40000 11.01300 20.61200
N  1.12800 9.46800 26.32900
C  1.35300 10.51700 25.37200
C  1.63200 11.76500 26.09300
C  1.65300 11.30500 27.43500
C  1.35500 9.99200 27.54400
C  1.89100 13.17700 25.54200
C  1.78500 11.83100 28.79600
O  1.98000 12.95900 29.22100
C  1.59100 10.62600 29.79600
C  2.73000 10.46200 30.69900
O  3.80700 9.89000 30.46400
O  2.40300 11.11500 31.86500
C  3.44800 10.83400 32.89100
H  0.59800 4.03300 29.01300
H  0.31600 4.87000 22.57500
H  1.41500 11.27000 23.41100
H  2.00500 7.83000 31.13300
H  0.16700 5.69500 30.74400
H  2.79100 4.64900 30.04300
H  1.98200 4.61600 31.66300
H  3.16500 5.89600 31.08700
H  -0.96800 7.37700 31.30800
H  -0.47200 9.01100 30.87500
H  -0.84300 7.78000 33.35700
H  0.04800 9.18500 33.30200
H  -1.49800 1.73000 26.79400
H  -0.61100 2.48500 28.13500
H  0.30400 1.50300 27.09400
H  -1.11900 0.54400 23.33400
H  -1.93100 1.36400 24.61300
H  -0.26200 0.65600 24.92000
H  -0.39500 7.21600 21.32600
H  1.47100 9.45600 21.24300
H  1.37400 6.13000 20.10300
H  2.62200 6.92000 21.18400
H  1.85100 7.76000 19.87400
H  -0.93700 10.26700 22.44700
H  -1.39100 9.16300 21.15400
H  -0.80300 10.87400 19.60900
H  0.66300 11.25000 20.58000
H  -0.91900 11.92400 20.91200
H  2.92100 13.31900 25.21400
H  1.68200 13.96200 26.26900
H  1.25100 13.45600 24.70500
H  0.74800 10.99800 30.37800
H  2.98900 11.22300 33.80000
H  4.37000 11.34300 32.60900
H  3.47500 9.74400 32.90900
Mg 17.28000 -1.74200 29.52700
C  15.82400 0.75500 31.45500
C  18.83600 -3.05400 32.24900
C  18.66500 -4.13700 27.52900
C  15.71700 -0.19100 26.77300
N  17.28900 -1.21300 31.55600
C  16.60600 -0.19700 32.15100
C  16.77300 -0.25000 33.71700
C  17.96800 -1.22200 33.92100
C  18.08200 -1.88400 32.52900
C  19.28700 -0.45600 34.38100
C  15.46300 -0.83400 34.35700
C  15.32300 -0.62800 35.94000
H  16.49400 0.07300 36.75100
N  18.49300 -3.37800 29.88300
C  19.02300 -3.76100 31.09700
C  19.83400 -4.96000 30.94500
C  19.81000 -5.27200 29.55300
C  19.03500 -4.25900 28.93000
C  20.54400 -5.66000 32.22500
C  20.41400 -6.47900 28.87800
O  20.29300 -6.76500 27.69100
C  21.23100 -7.40400 29.73300
N  17.15600 -2.11100 27.45400
C  17.79500 -3.24700 26.86500
C  17.50100 -3.29200 25.38400
C  16.36100 -2.17100 25.26900
C  16.47800 -1.40200 26.58000
C  18.74000 -3.12700 24.43800
C  14.99600 -2.64400 24.96000
C  14.30800 -1.69700 23.91300
N  16.05300 -0.02900 29.09400
C  15.52900 0.49200 27.97500
C  14.70700 1.62700 28.19400
C  14.82300 1.81600 29.60200
C  15.63000 0.76400 30.07800
C  13.97100 2.48000 27.22400
C  14.37700 2.58300 30.71300
O  13.69500 3.60400 30.80000
C  14.95500 1.82700 31.98800
C  15.75000 2.91000 32.75000
O  16.62900 3.54800 32.25200
O  15.26800 3.07300 34.00100
C  15.90600 4.06300 34.90100
H  19.08800 -3.47500 33.22500
H  19.13200 -4.82000 26.81700
H  15.37800 0.20400 25.81300
H  17.06900 0.73900 34.06800
H  17.60100 -1.95900 34.63600
H  19.12200 0.62200 34.36300
H  20.07400 -0.72600 33.67700
H  19.51900 -0.83100 35.37800
H  15.50000 -1.90700 34.16700
H  14.52600 -0.39500 34.01400
H  15.15500 -1.63000 36.33700
H  14.51100 0.07200 36.13600
H  20.27000 -6.71300 32.28700
H  20.28400 -5.20400 33.18100
H  21.60900 -5.43400 32.17000
H  22.08200 -6.94700 30.23900
H  21.73500 -8.10000 29.06300
H  20.65100 -7.95200 30.47500
H  17.00100 -4.24600 25.21100
H  16.76700 -1.49900 24.51200
H  19.57700 -3.14000 25.13500
H  18.70300 -2.17400 23.91100
H  18.73700 -3.91500 23.68500
H  14.30400 -2.71900 25.79800
H  14.95000 -3.64100 24.52100
H  13.67900 -0.91600 24.34100
H  13.68500 -2.20200 23.17500
H  15.10300 -1.16100 23.39400
H  13.75100 1.92200 26.31400
H  14.63400 3.34300 27.15400
H  13.05400 2.78900 27.72400
H  14.14100 1.40100 32.57400
H  15.47400 5.06300 34.93900
H  16.99200 4.10800 34.83000
H  15.69800 3.70700 35.91000

