158

Mg 45.30500 3.92000 47.45700
C  43.15300 6.43200 46.74500
C  42.73800 1.72400 47.25900
C  47.58500 1.48000 47.61100
C  47.99500 6.25000 47.40400
N  43.22600 4.06600 47.09100
C  42.54300 5.20000 46.73800
C  41.01300 4.91700 46.71000
C  40.90800 3.45200 46.98700
C  42.40500 3.05000 47.11400
C  40.00400 2.99900 48.14100
C  40.33600 5.31900 45.33900
C  39.25700 6.43000 45.42700
H  39.27700 7.53300 44.29200
N  45.17700 1.84400 47.41000
C  44.03600 1.10100 47.30500
C  44.31900 -0.30600 47.29100
C  45.71000 -0.41800 47.45200
C  46.21400 1.00100 47.47200
C  43.28000 -1.47400 47.18400
C  46.40700 -1.68200 47.61100
O  45.84400 -2.76100 47.55800
C  47.78900 -1.74300 48.02000
N  47.51300 3.86100 47.57200
C  48.17900 2.73100 47.71400
C  49.69800 2.89100 47.43000
C  49.84200 4.42100 47.58500
C  48.40500 4.90000 47.40600
C  50.67700 2.13200 48.44800
C  50.89800 5.07500 46.67000
C  51.72100 6.22400 47.21600
N  45.57000 5.98800 47.09400
C  46.68700 6.75500 47.25300
C  46.25800 8.17100 47.09700
C  44.86300 8.07700 46.97400
C  44.52600 6.78200 46.97700
C  47.14800 9.47900 47.05100
C  43.60400 8.81600 46.84000
O  43.43400 10.02800 46.85200
C  42.45900 7.75500 46.72200
C  41.48800 7.97200 47.83100
O  41.45300 7.40300 48.92300
O  40.66700 8.96700 47.55000
C  39.74300 9.62700 48.44300
H  41.92100 1.03700 47.02700
H  48.31800 0.67300 47.56000
H  48.88000 6.88500 47.33000
H  40.41100 5.37200 47.49600
H  40.71900 2.88300 46.07600
H  39.19700 3.71000 48.31900
H  40.66100 2.92800 49.00800
H  39.53000 2.05700 47.86500
H  39.89000 4.51400 44.75500
H  41.15400 5.71700 44.73900
H  39.29100 6.93300 46.39300
H  38.32600 5.86700 45.36300
H  43.61400 -2.11000 46.36400
H  42.28900 -1.06300 46.99400
H  43.24400 -2.05300 48.10600
H  48.06800 -2.74800 48.33400
H  48.08400 -1.10500 48.85400
H  48.42100 -1.57700 47.14800
H  49.85300 2.63900 46.38100
H  49.92400 4.74500 48.62300
H  51.54600 2.70700 48.76800
H  50.98600 1.17100 48.03800
H  50.01200 2.03900 49.30600
H  50.35300 5.59700 45.88300
H  51.56600 4.35200 46.20200
H  51.39300 7.19100 46.83500
H  52.74700 6.00200 46.92300
H  51.70700 6.25800 48.30600
H  46.93000 9.98600 46.11100
H  48.21500 9.28200 47.14800
H  46.81300 10.15700 47.83600
H  41.86200 7.74700 45.80900
H  39.67300 10.70100 48.27100
H  40.08700 9.39500 49.45100
H  38.73000 9.27400 48.24900
Mg 54.69700 23.75900 44.49600
C  52.15800 25.87100 43.35800
C  52.78300 21.07600 43.57500
C  57.40000 21.90400 45.01100
C  56.33100 26.56900 45.81700
N  52.73100 23.56900 43.39900
C  51.90400 24.54300 43.07100
C  50.59200 23.93400 42.47300
C  50.60000 22.40900 43.11800
C  52.10800 22.32000 43.35700
C  49.76600 22.21900 44.40800
C  50.54800 23.97700 40.85100
C  49.12700 24.05700 40.35700
H  48.74600 23.71800 38.93300
N  55.06000 21.83000 44.07500
C  54.15800 20.83000 43.71200
C  54.72000 19.47800 43.79300
C  56.07000 19.68100 44.31000
C  56.26600 21.19300 44.45100
C  53.89000 18.22800 43.38700
C  57.00800 18.50000 44.71600
O  56.70400 17.30800 44.71200
C  58.49400 18.86400 45.06400
N  56.69700 24.26500 45.09900
C  57.61200 23.33100 45.28700
C  58.90700 23.95300 45.84300
C  58.44800 25.37400 46.29000
C  57.07600 25.43300 45.75900
C  59.54600 23.16100 46.97400
C  59.42400 26.52800 45.87700
C  59.84900 27.41200 47.02400
N  54.40700 25.83700 44.57900
C  55.11900 26.85800 45.15700
C  54.37100 28.07400 45.10500
C  53.22300 27.78600 44.29300
C  53.29700 26.39600 44.01900
C  54.75700 29.36400 45.59200
C  51.99400 28.31900 43.82100
O  51.49800 29.47900 43.94000
C  51.29900 27.13800 43.14100
C  51.02200 27.45500 41.70400
O  51.87500 27.54200 40.83800
O  49.69700 27.60300 41.41500
C  49.53500 27.96500 40.00100
H  52.06800 20.25500 43.49100
H  58.30100 21.34400 45.27200
H  56.94200 27.36600 46.24600
H  49.74500 24.57200 42.72500
H  50.38300 21.63300 42.38400
H  50.45700 22.10100 45.24400
H  49.13500 21.33100 44.43700
H  49.10400 23.08000 44.49700
H  50.97800 23.03200 40.52100
H  51.14500 24.81400 40.49100
H  48.91400 25.12600 40.35900
H  48.58600 23.48900 41.11400
H  53.42700 18.48700 42.43500
H  53.07400 17.90400 44.03300
H  54.48300 17.36600 43.08000
H  58.90000 19.54000 44.31100
H  59.15000 18.00000 44.96700
H  58.49900 19.13000 46.12100
H  59.56300 24.02100 44.97500
H  58.36900 25.38500 47.37700
H  60.28200 22.45800 46.58300
H  58.83200 22.51300 47.48300
H  59.95300 23.87500 47.69000
H  58.85900 27.03700 45.09600
H  60.39100 26.08900 45.63100
H  60.65200 27.00100 47.63600
H  58.94400 27.59900 47.60200
H  60.12400 28.37100 46.58600
H  55.81600 29.31600 45.84700
H  54.29700 29.78800 46.48500
H  54.68300 30.15000 44.84100
H  50.35800 26.92200 43.64700
H  49.66000 29.03700 39.84800
H  48.50800 27.70100 39.74900
H  50.17500 27.35700 39.36300

