158

Mg 36.02500 48.31000 26.01300
C  36.30600 46.25300 29.01400
C  34.97100 50.94000 28.07500
C  34.89000 49.84300 23.39200
C  36.31300 45.31900 24.22200
N  35.68300 48.60700 28.32200
C  36.04700 47.64200 29.29000
C  35.86100 48.27300 30.67300
C  35.40300 49.72200 30.35300
C  35.30200 49.80600 28.80500
C  34.02500 50.12000 31.01400
C  37.10800 48.13400 31.64400
C  36.83100 47.63100 33.04500
H  36.46100 48.60300 34.13700
N  35.26900 50.21500 25.76300
C  34.91000 51.15400 26.70800
C  34.67900 52.36500 26.14000
C  34.62200 52.09400 24.71500
C  34.93100 50.63200 24.54500
C  34.52600 53.67100 26.92100
C  34.29800 52.97100 23.53800
O  34.28800 52.52100 22.39900
C  33.89500 54.44300 23.83000
N  35.68200 47.67400 24.06800
C  35.20700 48.53000 23.16900
C  35.13800 47.90900 21.74600
C  35.61500 46.44500 22.01400
C  35.87900 46.48200 23.49900
C  33.71900 48.02700 21.10900
C  36.93700 45.97100 21.17600
C  38.32400 46.09600 21.82700
N  36.42600 46.26400 26.43700
C  36.56200 45.22800 25.60500
C  36.87900 44.02500 26.38400
C  36.75100 44.39100 27.70900
C  36.49800 45.75600 27.69400
C  37.20000 42.60900 25.89300
C  36.77800 43.90500 29.08000
O  36.85300 42.73300 29.53000
C  36.47700 45.12600 29.98400
C  35.16000 44.82500 30.62700
O  34.05100 45.12600 30.17000
O  35.39100 44.33000 31.85000
C  34.32900 44.15700 32.79700
H  34.72100 51.81700 28.67500
H  34.65200 50.34300 22.45100
H  36.32800 44.35400 23.71100
H  35.06300 47.70000 31.14500
H  36.12700 50.42800 30.76000
H  34.35800 50.83600 31.76500
H  33.57500 49.25500 31.50100
H  33.38200 50.59700 30.27400
H  37.64700 49.08000 31.69100
H  37.82900 47.39300 31.30000
H  37.76300 47.12500 33.29500
H  36.07200 46.84900 33.03600
H  33.49600 53.77400 27.26000
H  34.72800 54.56900 26.33800
H  35.16700 53.74600 27.79900
H  34.76400 55.05800 24.06200
H  33.13100 54.41000 24.60800
H  33.35800 54.81100 22.95600
H  35.75700 48.37800 20.98100
H  34.80200 45.75200 21.79600
H  33.57600 47.01600 20.72800
H  33.81800 48.72500 20.27700
H  33.00500 48.22600 21.90800
H  37.03700 46.58900 20.28400
H  36.78300 44.91900 20.94000
H  38.18900 46.83000 22.62200
H  39.08100 46.40100 21.10400
H  38.51400 45.12300 22.28000
H  38.20900 42.43200 26.26500
H  37.36400 42.44100 24.82800
H  36.52800 41.90800 26.38700
H  37.35100 45.27500 30.61800
H  34.42200 44.97600 33.51000
H  34.57100 43.24800 33.34800
H  33.29900 44.20500 32.44300
Mg 26.36400 49.89600 27.11600
C  24.29500 51.18200 29.62700
C  28.59800 49.29700 29.66800
C  28.55100 48.82200 24.84700
C  24.30200 51.08300 24.62500
N  26.37800 50.09600 29.38600
C  25.43500 50.63400 30.17000
C  25.68500 50.36000 31.65300
C  27.21100 50.12600 31.56800
C  27.41300 49.68700 30.09400
C  28.06900 51.34400 32.02300
C  24.99100 49.25100 32.41000
C  24.42100 49.41200 33.82600
H  25.45000 49.89300 34.91600
N  28.32300 49.25600 27.19900
C  29.02100 48.94000 28.35000
C  30.35900 48.55000 27.99000
C  30.38700 48.36300 26.58300
C  29.06600 48.79400 26.11700
C  31.45900 48.38600 28.97500
C  31.52100 47.82200 25.69400
O  31.44100 47.76000 24.45900
C  32.85300 47.39600 26.28900
N  26.45200 50.06600 25.01700
C  27.35500 49.31700 24.32200
C  27.02200 49.20400 22.82300
C  25.52300 49.70900 22.81100
C  25.34200 50.25000 24.28700
C  27.88800 50.15700 22.00800
C  24.38200 48.57800 22.56000
C  23.20400 48.97500 21.68000
N  24.57500 50.98100 27.04700
C  23.81000 51.44100 25.94800
C  22.62500 52.16700 26.49000
C  22.84600 52.12000 27.90200
C  23.99100 51.37500 28.23100
C  21.54800 52.90400 25.65200
C  22.24600 52.46300 29.20600
O  21.21700 53.09000 29.42900
C  23.15300 51.86100 30.40700
C  23.68400 53.02000 31.20200
O  24.70900 53.65400 30.90100
O  22.97100 53.18000 32.33300
C  23.51700 54.13900 33.33000
H  29.41100 49.19600 30.38900
H  29.17300 48.58400 23.98200
H  23.57600 51.46500 23.90400
H  25.50800 51.24700 32.26100
H  27.53100 49.24400 32.12300
H  27.40100 52.07900 32.47300
H  28.48600 51.82100 31.13600
H  28.84600 51.09800 32.74700
H  25.68100 48.40800 32.42900
H  24.10800 48.96700 31.83900
H  23.99500 48.47800 34.19100
H  23.84900 50.33500 33.91700
H  31.78900 47.35700 29.11800
H  31.27500 48.73900 29.99000
H  32.29800 48.95300 28.57300
H  33.39300 48.21000 26.77200
H  33.53400 47.09500 25.49200
H  32.67600 46.47500 26.84400
H  27.03800 48.20400 22.39000
H  25.38700 50.44900 22.02300
H  28.78300 50.47200 22.54600
H  27.44200 51.10900 21.72200
H  28.17100 49.69500 21.06300
H  24.04400 48.26000 23.54700
H  24.82600 47.71400 22.06600
H  23.37500 49.91800 21.16100
H  22.33700 49.05000 22.33700
H  23.13700 48.10000 21.03400
H  21.79100 53.08300 24.60400
H  21.64900 53.89500 26.09500
H  20.64100 52.30500 25.57900
H  22.68100 51.08200 31.00600
H  24.39900 53.62100 33.70800
H  22.66700 54.35300 33.97700
H  23.90400 55.02300 32.82200

