158

Mg 16.25000 51.81300 24.91500
C  18.33200 51.03200 27.50700
C  13.85600 52.54800 27.12300
C  14.30800 52.39700 22.26700
C  18.85300 50.96500 22.72300
N  16.10900 51.76500 27.07000
C  17.12400 51.47800 27.93700
C  16.66100 51.67000 29.38600
C  15.10400 51.94900 29.28900
C  14.99000 52.06300 27.77900
C  14.22900 50.82400 29.79800
C  17.38800 52.84000 30.18000
C  17.51000 52.72700 31.80000
H  16.69400 51.67600 32.61700
N  14.40600 52.38500 24.71800
C  13.55000 52.71900 25.74100
C  12.32400 53.14800 25.18900
C  12.40700 53.11800 23.73700
C  13.73800 52.66100 23.51700
C  11.20200 53.50900 26.10300
C  11.29900 53.34500 22.64600
O  11.41400 53.09900 21.44200
C  9.92400 53.92000 23.06700
N  16.54300 51.63200 22.79000
C  15.57200 51.86600 21.90000
C  16.00000 51.60000 20.45300
C  17.55800 51.46500 20.68000
C  17.70500 51.40700 22.12300
C  15.20300 50.47700 19.83800
C  18.43400 52.63500 20.01100
C  19.63300 52.09400 19.20600
N  18.20300 51.20100 25.02700
C  19.17100 50.89300 24.08100
C  20.44200 50.55200 24.69900
C  20.09700 50.53200 26.09100
C  18.79300 50.96600 26.20200
C  21.75200 50.21100 24.05700
C  20.65100 50.28200 27.42100
O  21.74900 49.94200 27.82600
C  19.51000 50.69700 28.40900
C  19.22400 49.58500 29.32700
O  18.70400 48.53500 29.00100
O  19.70200 49.88600 30.53400
C  19.57000 48.89800 31.66100
H  13.02600 52.87600 27.75400
H  13.74200 52.57300 21.35100
H  19.69400 50.91500 22.02900
H  16.85200 50.71200 29.87000
H  14.79100 52.89000 29.74100
H  14.58900 49.95300 30.34700
H  13.58200 50.51900 28.97600
H  13.54700 51.31800 30.49100
H  16.98100 53.82100 29.93600
H  18.36200 52.84500 29.69100
H  17.09600 53.67600 32.14000
H  18.56900 52.69400 32.05400
H  10.51700 54.25600 25.70200
H  11.58500 53.92800 27.03400
H  10.60500 52.60200 26.19500
H  10.06900 54.84500 23.62500
H  9.42900 53.13800 23.64400
H  9.32600 54.05000 22.16500
H  15.66000 52.43400 19.83900
H  17.76600 50.50000 20.21700
H  14.61000 51.00200 19.09000
H  14.60500 49.90200 20.54500
H  15.90800 49.84300 19.30100
H  18.85300 53.25800 20.80100
H  17.72700 53.21200 19.41600
H  19.58200 52.64800 18.26900
H  19.51700 51.01300 19.12500
H  20.61300 52.31700 19.62700
H  21.87300 50.67600 23.07800
H  21.63800 49.15000 23.83400
H  22.58900 50.49500 24.69400
H  19.88400 51.45700 29.09500
H  19.67700 49.31600 32.66300
H  20.32000 48.10700 31.63800
H  18.62700 48.35500 31.71700
Mg -4.93900 25.15000 25.82600
C  -3.17300 26.68700 28.53900
C  -6.15900 22.95200 28.17700
C  -6.58500 23.67400 23.34900
C  -3.43600 27.40600 23.68600
N  -4.85700 25.00900 28.14400
C  -4.04400 25.72000 28.98200
C  -4.40400 25.39400 30.41600
C  -5.13500 24.00600 30.30300
C  -5.31800 23.93600 28.74900
C  -4.44600 22.81700 31.00600
C  -5.12900 26.50100 31.15200
C  -4.74000 26.80900 32.68500
H  -4.47700 25.47400 33.39400
N  -6.15300 23.47000 25.74900
C  -6.51800 22.74800 26.83200
C  -7.47100 21.74900 26.36200
C  -7.68000 21.95200 24.93700
C  -6.81700 23.07100 24.61300
C  -8.08100 20.64300 27.24200
C  -8.48600 21.20500 23.93700
O  -8.38600 21.39400 22.72200
C  -9.24100 20.02600 24.33800
N  -4.75500 25.34200 23.78400
C  -5.63800 24.66000 22.98400
C  -5.70800 25.26200 21.52700
C  -4.71000 26.45100 21.61600
C  -4.27200 26.40200 23.11000
C  -5.37500 24.28000 20.37800
C  -5.25200 27.89200 21.37400
C  -6.20600 28.20500 20.12900
N  -3.52100 26.68400 26.02900
C  -3.04200 27.49500 25.00300
C  -2.08400 28.42400 25.63600
C  -2.14300 28.12400 26.95900
C  -3.01700 27.11100 27.22200
C  -1.28200 29.48800 24.94600
C  -1.63200 28.50700 28.30300
O  -0.88900 29.43200 28.59800
C  -2.30000 27.58300 29.34100
C  -1.27000 26.79900 30.10000
O  -0.35700 26.15600 29.60000
O  -1.37300 26.86200 31.45700
C  -0.44100 26.08700 32.27700
H  -6.64500 22.32300 28.92500
H  -7.23200 23.24400 22.58100
H  -2.93900 28.11300 23.01800
H  -3.44800 25.34300 30.93600
H  -6.10800 24.01800 30.79300
H  -5.13500 22.32600 31.69300
H  -3.48700 22.97500 31.50000
H  -4.23300 22.02200 30.29100
H  -6.19100 26.26600 31.08700
H  -4.94400 27.49200 30.73700
H  -5.61800 27.27900 33.12900
H  -3.89900 27.48500 32.83900
H  -9.17000 20.65500 27.20300
H  -7.91900 20.78900 28.31000
H  -7.69600 19.68300 26.89800
H  -8.47300 19.36500 24.73900
H  -9.61000 19.50000 23.45700
H  -9.96700 20.29700 25.10400
H  -6.72500 25.61200 21.34700
H  -3.86600 26.15700 20.99100
H  -4.62700 23.62200 20.82000
H  -4.99900 24.70100 19.44500
H  -6.16500 23.57800 20.11400
H  -4.38100 28.52200 21.19800
H  -5.81700 28.41500 22.14600
H  -6.39700 27.29000 19.56800
H  -5.67800 28.86900 19.44500
H  -7.14900 28.67200 20.41300
H  -1.89700 29.92700 24.16000
H  -0.45000 29.03800 24.40600
H  -0.89900 30.31800 25.54000
H  -2.82100 28.23900 30.03700
H  0.48300 26.66400 32.33100
H  -0.14700 25.15000 31.80500
H  -0.75000 25.90000 33.30500

