158

Mg 49.66600 47.78900 43.32300
C  46.35200 48.36200 42.27200
C  49.81100 44.80900 41.38400
C  53.09600 47.65300 43.79700
C  49.81900 51.01400 44.44400
N  48.24500 46.79100 41.88100
C  46.96500 47.22300 41.73800
C  46.38900 46.16200 40.78800
C  47.31000 44.83200 40.82400
C  48.55700 45.50600 41.40500
C  46.79600 43.67800 41.72200
C  46.20700 46.64100 39.33800
C  44.78900 46.46700 38.73300
H  44.56000 45.46300 37.60800
N  51.23400 46.46100 42.66100
C  51.06100 45.23200 41.98000
C  52.29600 44.54100 41.93200
C  53.23600 45.27600 42.73800
C  52.55300 46.51800 43.12700
C  52.29300 43.09700 41.34900
C  54.63800 44.80800 43.16800
O  54.99300 43.71900 42.79900
C  55.58200 45.67300 43.95800
N  51.38000 49.17600 43.89200
C  52.54900 48.80000 44.28900
C  53.31100 49.85100 45.07600
C  52.21700 50.91600 45.40600
C  51.03600 50.39200 44.52000
C  54.15100 49.33500 46.29300
C  52.66100 52.39100 45.03000
C  52.26800 53.54600 45.99600
N  48.40300 49.30600 43.54000
C  48.53600 50.58000 44.05500
C  47.29900 51.35300 44.04700
C  46.35200 50.45900 43.38800
C  47.10200 49.28100 43.05000
C  46.89500 52.67200 44.74600
C  44.95600 50.22700 43.04500
O  44.00600 50.97600 43.20500
C  44.99900 48.95500 42.17300
C  43.84700 48.04500 42.70700
O  43.50300 47.94700 43.87300
O  43.31700 47.30500 41.69100
C  42.26800 46.37300 41.99000
H  49.79400 43.79500 40.97800
H  54.16600 47.59800 44.00700
H  49.87600 51.99200 44.92600
H  45.38400 45.98500 41.17100
H  47.42800 44.38600 39.83600
H  47.14800 42.76600 41.24000
H  45.71100 43.59000 41.76700
H  47.24000 43.69700 42.71700
H  46.96000 46.13500 38.73400
H  46.51500 47.68600 39.32300
H  44.51900 47.45100 38.35200
H  44.01300 46.15400 39.43200
H  51.65100 42.53400 42.02600
H  53.31800 42.74500 41.22800
H  51.87700 43.21400 40.34800
H  55.82800 46.55700 43.36900
H  56.41300 45.00400 44.18300
H  55.01800 45.83800 44.87600
H  54.11300 50.19600 44.42200
H  51.98800 50.88700 46.47100
H  53.97000 48.26000 46.26100
H  53.60200 49.74100 47.14200
H  55.20000 49.59000 46.14200
H  52.54500 52.65400 43.97900
H  53.74400 52.29400 45.10400
H  53.13300 53.92700 46.53800
H  51.54400 53.13300 46.69800
H  51.77700 54.38000 45.49400
H  46.16800 52.60300 45.55500
H  46.37400 53.27100 43.99800
H  47.74500 53.23400 45.13200
H  44.75600 49.26300 41.15600
H  41.30400 46.82800 42.21800
H  42.60800 45.65400 42.73400
H  42.18300 45.82600 41.05100
Mg -5.57600 25.08400 25.92100
C  -4.04000 26.41800 28.81800
C  -7.52000 23.03200 27.98300
C  -6.81300 23.67100 23.23700
C  -3.46200 27.09400 24.03900
N  -5.91900 24.96000 28.11300
C  -5.11100 25.57500 29.11600
C  -5.53000 25.00200 30.47500
C  -6.35500 23.73200 30.09100
C  -6.69400 23.94400 28.64600
C  -5.48000 22.38300 30.14600
C  -6.44600 26.04100 31.20900
C  -6.45900 26.11100 32.73100
H  -5.48500 25.17900 33.50200
N  -7.05400 23.65600 25.62200
C  -7.77100 22.91700 26.58100
C  -8.67500 22.04700 25.97400
C  -8.40200 22.06900 24.60300
C  -7.43600 23.12900 24.45600
C  -9.58000 21.14000 26.81100
C  -9.00200 21.20000 23.55000
O  -8.56800 21.29800 22.37100
C  -10.15600 20.33100 23.78600
N  -5.16000 25.34700 23.96500
C  -5.86400 24.63400 23.02200
C  -5.35200 24.98300 21.59700
C  -4.48900 26.26400 21.89800
C  -4.35300 26.26200 23.38900
C  -4.53200 23.84100 20.98900
C  -5.27200 27.50600 21.33600
C  -4.38400 28.24200 20.30400
N  -3.99800 26.42800 26.30200
C  -3.23500 27.23100 25.41400
C  -2.34500 28.06700 26.16400
C  -2.59400 27.79000 27.50600
C  -3.62900 26.77500 27.52900
C  -1.28700 29.02200 25.63500
C  -2.26700 28.10800 28.80300
O  -1.53500 28.95800 29.30300
C  -3.14200 27.13100 29.74800
C  -2.35700 26.27900 30.66100
O  -2.03400 25.15300 30.38700
O  -1.88900 27.02000 31.76900
C  -0.85900 26.42100 32.56300
H  -8.09500 22.45300 28.70900
H  -7.29200 23.30600 22.32600
H  -2.72600 27.49000 23.33600
H  -4.60800 24.82700 31.02900
H  -7.27800 23.67400 30.66800
H  -4.49700 22.57400 30.57600
H  -5.23600 21.97700 29.16400
H  -5.97000 21.60300 30.72900
H  -7.46600 25.80700 30.90500
H  -6.12200 27.02600 30.87100
H  -7.50200 25.86500 32.92800
H  -6.27300 27.14100 33.03400
H  -10.63500 21.28200 26.57800
H  -9.43500 21.27600 27.88300
H  -9.36900 20.08500 26.63800
H  -9.90500 19.43300 24.35100
H  -10.58600 20.02600 22.83200
H  -10.93300 20.90000 24.29600
H  -6.13400 25.13500 20.85300
H  -3.44200 26.25100 21.59300
H  -3.53900 23.92400 21.43100
H  -4.41900 23.84900 19.90500
H  -5.01000 22.90300 21.27100
H  -5.51900 28.30000 22.04100
H  -6.19500 27.11700 20.90800
H  -3.89800 29.14800 20.66600
H  -5.01300 28.62100 19.49900
H  -3.66000 27.60900 19.79100
H  -1.16100 28.80800 24.57400
H  -0.31600 28.92700 26.12200
H  -1.66200 29.97500 26.00800
H  -3.69700 27.84200 30.36000
H  -0.28000 27.25900 32.95200
H  -0.16800 25.83500 31.95800
H  -1.30600 25.91400 33.41800

