158

Mg 23.50300 -6.57700 46.17000
C  25.93000 -4.40800 44.97800
C  21.20500 -4.92900 44.06700
C  21.19400 -8.84700 46.99800
C  25.89700 -8.38200 47.86300
N  23.69800 -5.07900 44.41400
C  24.75900 -4.21100 44.30700
C  24.42000 -3.11600 43.23400
C  22.83100 -3.14700 43.32600
C  22.56400 -4.47900 43.97600
C  22.16400 -1.88100 44.11200
C  25.15800 -3.33700 41.88300
C  26.01400 -2.16100 41.30900
H  25.41800 -1.37600 40.24200
N  21.44800 -6.84300 45.68800
C  20.74300 -6.00800 44.86200
C  19.37700 -6.46800 44.79900
C  19.28400 -7.63100 45.58900
C  20.64200 -7.87600 46.16400
C  18.28500 -5.92600 43.80800
C  18.04000 -8.56500 45.77400
O  16.96500 -8.27600 45.36400
C  18.14800 -9.97600 46.43300
N  23.59400 -8.39600 47.21700
C  22.45900 -9.13700 47.47200
C  22.84000 -10.44900 48.19600
C  24.45500 -10.32400 48.48100
C  24.64400 -8.93300 47.95000
C  22.03500 -10.97200 49.46100
C  25.29500 -11.39800 47.87400
C  26.57700 -11.81700 48.59100
N  25.43000 -6.47900 46.46400
C  26.32200 -7.25000 47.17400
C  27.66000 -6.72600 47.01400
C  27.53400 -5.54100 46.26200
C  26.17400 -5.45000 45.85800
C  28.86200 -7.27400 47.53700
C  28.32700 -4.37800 45.82800
O  29.47400 -3.98900 45.97000
C  27.27500 -3.60000 44.94000
C  27.24300 -2.24100 45.49100
O  26.51400 -1.80700 46.37900
O  28.19900 -1.51600 44.85000
C  28.20800 -0.02400 45.16200
H  20.49100 -4.24100 43.60900
H  20.63000 -9.71600 47.34500
H  26.69400 -8.91500 48.38500
H  24.77600 -2.12100 43.50200
H  22.35600 -3.15400 42.34500
H  22.83600 -1.07200 43.82600
H  22.11900 -2.00300 45.19400
H  21.20100 -1.59900 43.68600
H  24.46500 -3.69600 41.12200
H  25.79500 -4.21000 42.03000
H  26.86900 -2.73100 40.94600
H  26.46000 -1.49700 42.04900
H  18.24800 -6.32700 42.79500
H  18.40600 -4.85100 43.67200
H  17.27200 -6.04500 44.19300
H  17.24900 -10.58700 46.35800
H  18.43000 -9.79900 47.47000
H  18.95600 -10.47500 45.89800
H  22.75000 -11.17600 47.38900
H  24.58800 -10.40000 49.56000
H  22.69700 -11.11400 50.31400
H  21.55400 -11.93200 49.27800
H  21.26700 -10.26600 49.77700
H  25.51100 -11.00800 46.88000
H  24.71600 -12.31500 47.76100
H  27.34200 -11.21300 48.10400
H  26.71100 -12.89900 48.56000
H  26.56300 -11.47100 49.62400
H  28.80200 -7.54500 48.59100
H  29.69000 -6.58700 47.36300
H  29.08900 -8.16100 46.94600
H  27.65700 -3.51100 43.92300
H  28.91700 0.42200 44.46500
H  28.53300 0.20100 46.17700
H  27.23100 0.45300 45.07300
Mg 42.80900 3.99800 46.49600
C  41.11200 7.10200 46.66000
C  39.89000 2.35400 46.42300
C  44.64400 1.23000 45.76000
C  45.81400 5.96600 45.99700
N  40.74800 4.69500 46.61200
C  40.22400 5.97400 46.72200
C  38.70900 5.89300 46.97400
C  38.45800 4.41900 47.11000
C  39.77800 3.69900 46.68400
C  37.89600 3.94200 48.53400
C  37.80300 6.61900 45.91200
C  37.96600 6.11500 44.42200
H  37.99400 7.18900 43.32700
N  42.33300 2.10000 46.16000
C  41.04000 1.59900 46.17000
C  41.11500 0.08700 45.93800
C  42.48100 -0.18300 45.77000
C  43.20500 1.03500 45.96900
C  39.88500 -0.73500 45.82100
C  43.01700 -1.55500 45.45400
O  42.23500 -2.50500 45.57000
C  44.48300 -1.90700 44.94600
N  44.93500 3.68600 45.79400
C  45.41800 2.39400 45.67900
C  46.97900 2.37000 45.56500
C  47.33000 3.89100 45.34500
C  45.95600 4.57600 45.80300
C  47.60100 1.72500 46.86200
C  47.84400 4.29900 43.98800
C  49.40500 4.48000 43.84100
N  43.40500 6.09300 46.26300
C  44.64200 6.72100 46.10800
C  44.50500 8.08600 46.22600
C  43.11300 8.30000 46.50500
C  42.47800 7.05600 46.46300
C  45.56900 9.14600 46.22800
C  42.09200 9.30600 46.67700
O  42.23300 10.52100 46.78500
C  40.73100 8.53800 46.79500
C  39.98900 8.81000 48.01300
O  40.08100 8.19800 49.10800
O  39.03100 9.75100 47.64900
C  37.93700 9.95800 48.65400
H  38.89500 1.90400 46.41300
H  45.23400 0.31300 45.72200
H  46.79300 6.44200 46.08000
H  38.46800 6.30000 47.95600
H  37.65200 4.12800 46.43700
H  36.90600 3.53500 48.33000
H  37.73500 4.83000 49.14500
H  38.53400 3.21500 49.03600
H  38.06700 7.67500 45.85900
H  36.76800 6.50200 46.23200
H  37.26400 5.34200 44.11000
H  38.96900 5.71000 44.28600
H  38.98200 -0.13600 45.70600
H  39.88100 -1.34100 46.72700
H  39.98900 -1.43000 44.98800
H  45.19800 -1.98700 45.76400
H  44.84100 -1.11800 44.28500
H  44.61800 -2.81300 44.35400
H  47.34400 1.80600 44.70600
H  48.18000 4.02300 46.01400
H  48.33700 2.37000 47.34100
H  48.06200 0.80300 46.50700
H  46.79600 1.44900 47.54300
H  47.32200 5.18600 43.62900
H  47.56600 3.62000 43.18200
H  49.91900 4.53000 44.80100
H  49.52100 5.48000 43.42200
H  49.77000 3.70400 43.16900
H  46.20400 8.94100 45.36600
H  46.23900 8.96300 47.06800
H  45.22600 10.18000 46.25100
H  40.15900 8.87100 45.92900
H  38.53500 10.46200 49.41300
H  37.59900 9.00900 49.06900
H  37.21100 10.53100 48.07700

