158

Mg -10.28300 39.37000 42.31000
C  -9.07100 36.09400 41.64200
C  -7.37200 40.62100 40.75600
C  -11.74800 42.30000 42.25900
C  -13.34500 37.89100 43.09500
N  -8.54300 38.44400 41.20800
C  -8.21700 37.10000 41.10300
C  -6.92900 36.87700 40.40800
C  -6.24900 38.19600 40.59600
C  -7.43900 39.18300 40.90800
C  -5.23200 38.29000 41.75200
C  -7.05500 36.36400 38.96000
C  -6.08800 35.26900 38.50300
H  -5.10100 35.50800 37.39000
N  -9.60000 41.24900 41.70800
C  -8.40700 41.57400 40.99500
C  -8.37000 42.96500 40.57900
C  -9.60000 43.50400 41.09000
C  -10.36700 42.33000 41.75200
C  -7.26000 43.66300 39.73700
C  -10.03000 44.94700 41.06600
O  -9.20200 45.74600 40.72600
C  -11.34000 45.41000 41.39400
N  -12.29100 39.99700 42.67500
C  -12.61100 41.27400 42.65200
C  -14.11000 41.51200 42.86600
C  -14.65900 40.03900 43.24600
C  -13.32700 39.31100 43.09600
C  -14.34100 42.67900 43.96800
C  -15.77000 39.47000 42.27900
C  -16.72300 38.45300 42.83800
N  -11.04200 37.42000 42.55800
C  -12.30900 36.96800 42.85800
C  -12.29400 35.54000 43.07900
C  -11.03000 35.18900 42.61300
C  -10.33700 36.34000 42.32500
C  -13.38900 34.66600 43.43100
C  -10.12900 34.05300 42.37800
O  -10.23900 32.88200 42.59100
C  -8.89200 34.64400 41.71300
C  -7.73700 34.20300 42.52500
O  -7.57900 34.39600 43.75100
O  -6.81800 33.48200 41.73600
C  -5.57100 33.08300 42.37200
H  -6.46200 41.05400 40.33500
H  -12.36400 43.20100 42.26700
H  -14.27500 37.50600 43.51900
H  -6.40200 36.12100 40.99100
H  -5.73800 38.40000 39.65500
H  -5.25400 37.32100 42.25300
H  -5.60400 39.03900 42.45100
H  -4.20400 38.41000 41.40900
H  -6.87400 37.22000 38.31000
H  -8.00600 35.88200 38.73000
H  -6.73500 34.46700 38.14900
H  -5.64800 34.76500 39.36400
H  -7.83000 44.13300 38.93500
H  -6.47500 43.00100 39.37200
H  -6.81700 44.51500 40.25300
H  -12.12700 44.86000 40.87800
H  -11.50200 46.47700 41.23500
H  -11.33600 45.26500 42.47400
H  -14.46000 41.76000 41.86400
H  -14.94400 40.15500 44.29100
H  -13.39400 43.05000 44.35800
H  -14.80200 42.33200 44.89300
H  -14.87400 43.55400 43.59500
H  -15.34000 38.97700 41.40700
H  -16.41000 40.27500 41.91700
H  -17.01400 37.69600 42.11000
H  -17.68400 38.86600 43.14300
H  -16.37300 37.87800 43.69500
H  -14.01100 35.19100 44.15600
H  -13.11500 33.69700 43.84600
H  -13.87400 34.43800 42.48100
H  -8.81200 34.22100 40.71100
H  -5.22600 32.33700 41.65600
H  -5.62800 32.63100 43.36100
H  -4.82700 33.87600 42.29500
Mg -1.40400 34.67000 26.76900
C  -2.91100 32.59300 29.23000
C  -0.36600 36.67900 29.32300
C  -0.58200 36.94500 24.52200
C  -2.97300 32.70300 24.36400
N  -1.66000 34.65900 29.00600
C  -2.27400 33.71200 29.82100
C  -1.98100 34.00800 31.32700
C  -1.24600 35.40200 31.29800
C  -1.16600 35.67400 29.77300
C  -1.98900 36.46600 32.16400
C  -1.25800 32.85000 32.04900
C  -2.01200 32.21200 33.22000
H  -1.16900 31.71800 34.36200
N  -0.55700 36.54600 26.91600
C  -0.09400 37.12800 28.02000
C  0.60800 38.35500 27.68000
C  0.59300 38.44400 26.28500
C  -0.21700 37.29500 25.82500
C  1.40700 39.16700 28.69600
C  1.23100 39.51500 25.37300
O  1.03000 39.53000 24.15500
C  2.14600 40.55400 25.99100
N  -2.02800 34.90300 24.79800
C  -1.47300 35.89300 24.07800
C  -1.75900 35.74000 22.57300
C  -2.25200 34.21400 22.51900
C  -2.39900 33.86600 24.00400
C  -2.77700 36.81100 21.94500
C  -1.40600 33.27900 21.70200
C  0.07100 33.15000 22.14300
N  -2.75500 33.00000 26.73800
C  -3.14900 32.29200 25.69400
C  -3.92300 31.17300 26.16800
C  -3.81100 31.17100 27.57300
C  -3.11200 32.35300 27.88600
C  -4.60900 30.18000 25.25500
C  -4.11500 30.50900 28.79500
O  -4.66800 29.45200 28.99300
C  -3.56400 31.38300 29.92200
C  -4.74100 31.63300 30.82700
O  -5.47600 32.63600 30.78300
O  -4.79600 30.64400 31.71700
C  -5.69500 30.80700 32.79900
H  0.01700 37.19400 30.20700
H  -0.24100 37.64300 23.75500
H  -3.24600 32.11200 23.48800
H  -2.98400 34.21300 31.70200
H  -0.22300 35.34000 31.66800
H  -2.79800 36.99000 31.65600
H  -1.24000 37.13900 32.58200
H  -2.42500 36.01200 33.05400
H  -0.28500 33.24300 32.34600
H  -1.00000 32.00100 31.41700
H  -2.38000 31.31400 32.72300
H  -2.86200 32.78200 33.59400
H  0.91000 40.13600 28.74800
H  2.44200 39.33400 28.39800
H  1.33700 38.68100 29.66900
H  2.38600 41.38500 25.32700
H  3.05400 40.03100 26.29200
H  1.58300 41.06500 26.77200
H  -0.84100 35.91700 22.01200
H  -3.25600 34.16400 22.09800
H  -3.52400 36.57500 21.18700
H  -2.17700 37.50500 21.35700
H  -3.20700 37.34400 22.79200
H  -1.43500 33.60500 20.66200
H  -1.73100 32.26500 21.93800
H  0.65700 33.18100 21.22400
H  0.21200 32.24100 22.72800
H  0.40000 33.86500 22.89700
H  -4.46900 30.40100 24.19700
H  -5.67900 30.32200 25.40700
H  -4.19000 29.20400 25.49900
H  -2.80900 30.77700 30.42300
H  -6.71100 31.04500 32.48200
H  -5.39300 31.51700 33.56900
H  -5.71500 29.82800 33.27700

