158

Mg 17.26400 52.13900 26.86400
C  19.08600 50.57400 29.42500
C  14.90200 52.97900 29.13000
C  15.58200 53.49900 24.33200
C  19.50800 50.77300 24.55900
N  16.97200 51.79100 29.05900
C  17.99800 51.27700 29.91200
C  17.46900 51.24400 31.38800
C  15.93400 51.66200 31.18300
C  15.92100 52.17100 29.70300
C  14.98200 50.43600 31.40400
C  18.26600 52.24900 32.32300
C  17.63700 52.72300 33.67700
H  16.63400 51.88800 34.44300
N  15.51000 53.21200 26.73100
C  14.64800 53.44100 27.80100
C  13.55800 54.32900 27.34500
C  13.84900 54.60200 25.94600
C  14.97000 53.70400 25.57600
C  12.35000 54.77900 28.22100
C  13.10600 55.57000 24.94800
O  13.58200 55.93200 23.88400
C  11.96300 56.28400 25.41400
N  17.41300 51.93700 24.72100
C  16.59200 52.66700 23.91500
C  17.05400 52.67600 22.48500
C  18.47700 51.94800 22.61900
C  18.49200 51.55100 24.03300
C  16.06400 51.90900 21.52300
C  19.68500 52.90800 22.21200
C  20.92100 52.34000 21.43900
N  18.89300 50.82700 26.94600
C  19.72700 50.44300 25.93500
C  20.83500 49.71500 26.49500
C  20.67300 49.70800 27.91200
C  19.46200 50.41500 28.09700
C  21.84000 49.09600 25.77200
C  21.16400 49.34000 29.11900
O  22.20100 48.77100 29.47400
C  20.18100 49.94600 30.21700
C  19.74400 48.83200 31.06600
O  19.43600 47.71400 30.61800
O  19.84000 49.24900 32.38400
C  19.10800 48.31300 33.24700
H  14.08200 53.12300 29.83500
H  15.02600 54.09500 23.60500
H  20.26800 50.44000 23.84800
H  17.43100 50.22100 31.76200
H  15.57400 52.44500 31.85100
H  14.11900 50.83700 31.93500
H  15.31100 49.72800 32.16500
H  14.72700 49.86900 30.50800
H  18.39200 53.06100 31.60700
H  19.26000 51.83500 32.49300
H  17.29500 53.75100 33.56100
H  18.49200 52.91600 34.32300
H  11.48700 54.12300 28.10800
H  12.20300 55.83600 28.00000
H  12.63700 54.83300 29.27100
H  11.53500 56.58300 24.45700
H  12.26300 57.12800 26.03500
H  11.25700 55.65600 25.95700
H  17.14800 53.75500 22.36200
H  18.56700 50.94400 22.20500
H  16.59900 51.07600 21.06700
H  15.75400 52.58300 20.72500
H  15.17600 51.59900 22.07400
H  19.97700 53.24400 23.20700
H  19.42800 53.81100 21.65900
H  21.82200 52.42900 22.04500
H  21.17600 52.94000 20.56500
H  20.64100 51.31900 21.17900
H  21.45500 48.18900 25.30500
H  22.70100 49.11100 26.43900
H  22.11900 49.75700 24.95200
H  20.62900 50.71600 30.84600
H  18.92800 48.78700 34.21200
H  19.59400 47.35500 33.43500
H  18.10200 48.16400 32.85500
Mg -11.40700 16.32400 41.85000
C  -8.49800 14.42100 41.40700
C  -9.83800 18.84800 40.09200
C  -14.44200 17.88300 41.33200
C  -13.04900 13.49400 42.98900
N  -9.36600 16.50200 40.66400
C  -8.34300 15.64500 40.75100
C  -7.01300 16.26100 40.25600
C  -7.47100 17.75000 39.98200
C  -8.98300 17.71300 40.27400
C  -6.67300 18.85000 40.84200
C  -6.54100 15.50000 38.93700
C  -5.07000 15.24000 38.78800
H  -4.29000 15.81200 37.53300
N  -11.96100 18.20500 40.98000
C  -11.15800 19.12100 40.38600
C  -11.91300 20.27800 40.07200
C  -13.28200 20.01600 40.38400
C  -13.26500 18.70200 40.97700
C  -11.27900 21.46600 39.46400
C  -14.45600 20.94900 40.05400
O  -14.29700 22.09500 39.60400
C  -16.00300 20.58000 40.39000
N  -13.43000 15.77000 42.11100
C  -14.51500 16.57900 41.83900
C  -15.85700 15.87300 42.09200
C  -15.36800 14.69800 43.00000
C  -13.84100 14.62000 42.70400
C  -16.91500 16.74900 42.75800
C  -16.17600 13.39300 42.78000
C  -16.63900 12.67300 44.09700
N  -10.94200 14.39300 42.21900
C  -11.66600 13.35600 42.71800
C  -10.82600 12.11300 42.91300
C  -9.61300 12.54400 42.37000
C  -9.69400 13.85600 41.94900
C  -11.25200 10.78100 43.46900
C  -8.27100 12.11200 42.24200
O  -7.69500 11.09500 42.63800
C  -7.43300 13.27000 41.54100
C  -6.25900 13.70700 42.27500
O  -6.23000 14.00700 43.46600
O  -5.15000 13.78200 41.39400
C  -3.94900 14.33300 42.04400
H  -9.24400 19.68300 39.71400
H  -15.43100 18.27100 41.07700
H  -13.46900 12.60000 43.45700
H  -6.27000 16.42300 41.03700
H  -7.36300 17.98300 38.92300
H  -7.19000 18.85900 41.80100
H  -6.77000 19.80900 40.33400
H  -5.64100 18.50700 40.90900
H  -6.91300 16.05500 38.07600
H  -7.16000 14.61400 38.79800
H  -4.97500 14.15700 38.70300
H  -4.44700 15.64300 39.58600
H  -11.94300 21.90600 38.72000
H  -10.40700 21.39300 38.81400
H  -11.18800 22.19200 40.27200
H  -16.67800 21.42400 40.24900
H  -15.99500 20.31800 41.44800
H  -16.27600 19.81700 39.66100
H  -16.27700 15.42400 41.19200
H  -15.41500 14.93900 44.06200
H  -16.60500 17.78200 42.91300
H  -17.20500 16.40900 43.75200
H  -17.78200 16.70700 42.10000
H  -15.48300 12.75800 42.22800
H  -17.01500 13.60900 42.11900
H  -16.17000 11.69200 44.01700
H  -17.70800 12.72400 44.29900
H  -16.08700 13.09700 44.93600
H  -11.75200 10.91600 44.42800
H  -10.42100 10.11400 43.69800
H  -12.01300 10.33100 42.83100
H  -7.22600 13.03400 40.49700
H  -4.04500 15.41300 41.94000
H  -3.06400 13.94200 41.54200
H  -3.93600 13.94100 43.06100

