158

Mg -0.46000 7.30200 26.30000
C  0.37600 9.64700 28.80800
C  -0.16700 4.88900 28.73900
C  -0.73000 5.16800 23.76400
C  -0.32000 9.96500 23.90400
N  -0.03800 7.28100 28.52400
C  0.34600 8.32500 29.29400
C  0.34800 7.94600 30.77500
C  0.44200 6.34400 30.70300
C  0.11900 6.13300 29.20300
C  1.84300 5.73800 31.13500
C  -0.88500 8.55700 31.49500
C  -0.56100 9.29700 32.85000
H  0.70900 9.01600 33.59800
N  -0.49500 5.39400 26.29300
C  -0.35900 4.51100 27.37100
C  -0.59000 3.18400 26.90000
C  -0.78600 3.23300 25.46000
C  -0.70800 4.65300 25.10400
C  -0.60700 1.91200 27.76400
C  -1.03400 2.05500 24.41800
O  -1.15700 2.21700 23.18100
C  -1.34900 0.62600 24.88500
N  -0.47500 7.61900 24.05700
C  -0.71400 6.50600 23.28500
C  -0.92700 6.88800 21.87900
C  -1.10000 8.47100 21.93800
C  -0.64300 8.74500 23.37100
C  0.24500 6.41600 20.96000
C  -2.52200 9.00000 21.55200
C  -3.28700 9.82500 22.63900
N  -0.03700 9.36400 26.28600
C  -0.03300 10.29500 25.26600
C  0.47100 11.60500 25.82000
C  0.55100 11.41100 27.16000
C  0.26700 10.01900 27.44500
C  0.72600 12.85200 25.09500
C  0.75600 12.04200 28.41400
O  0.94900 13.22000 28.70300
C  0.58100 10.94400 29.60900
C  1.92500 10.95800 30.26600
O  3.04200 10.63300 29.83600
O  1.77800 11.40400 31.57800
C  3.02500 11.73600 32.31100
H  -0.10100 4.10600 29.49700
H  -0.91800 4.41000 23.00200
H  -0.40200 10.80700 23.21400
H  1.33500 8.33200 31.03100
H  -0.32000 5.80000 31.26200
H  2.54300 5.81100 30.30300
H  1.79300 4.70500 31.48000
H  2.04700 6.36900 32.00000
H  -1.62700 7.79300 31.72700
H  -1.36600 9.27800 30.83400
H  -1.48100 9.32000 33.43400
H  -0.46800 10.34200 32.55400
H  -1.62900 1.56400 27.91700
H  -0.33500 2.04000 28.81100
H  0.04300 1.15200 27.33100
H  -2.14700 0.61200 25.62700
H  -0.46400 0.12800 25.28100
H  -1.66500 -0.02500 24.07000
H  -1.83300 6.40600 21.50900
H  -0.31000 8.86200 21.29700
H  1.02400 6.03900 21.62200
H  0.61200 7.22500 20.32900
H  -0.04800 5.54800 20.36800
H  -3.11500 8.13000 21.27000
H  -2.46800 9.67400 20.69700
H  -3.13100 9.30400 23.58400
H  -4.35700 9.67300 22.49600
H  -3.00400 10.87700 22.65200
H  1.17100 12.72000 24.10900
H  1.34400 13.53800 25.67400
H  -0.28300 13.25600 25.01000
H  -0.18400 11.25500 30.32000
H  2.83700 12.30300 33.22300
H  3.60400 12.38700 31.65600
H  3.68200 10.88600 32.49500
Mg 48.67300 35.41400 28.25800
C  46.78400 33.82200 30.91000
C  48.44900 38.33400 30.27100
C  49.97900 37.14400 25.86700
C  48.15100 32.56400 26.30600
N  47.80400 35.85900 30.41800
C  47.27000 35.04700 31.34100
C  47.16700 35.70700 32.71100
C  47.26300 37.23600 32.35500
C  47.97600 37.17700 30.87500
C  45.88900 37.99400 32.23200
C  48.14800 35.02700 33.76700
C  49.35800 35.85900 34.17200
H  49.36000 36.41100 35.54000
N  49.34400 37.40500 28.17000
C  49.19800 38.45400 29.09900
C  49.98400 39.51900 28.56500
C  50.38500 39.24600 27.26000
C  49.84600 37.91300 27.01400
C  50.20400 40.79700 29.32000
C  51.20500 39.96900 26.12100
O  51.25400 39.59000 24.93500
C  51.89900 41.17000 26.49700
N  48.99500 34.93100 26.38100
C  49.49100 35.87300 25.52400
C  49.67600 35.26000 24.05400
C  49.38200 33.75700 24.34500
C  48.73600 33.72800 25.74000
C  48.68300 35.92500 23.04000
C  50.67000 32.86000 24.26400
C  51.05400 32.46000 22.79800
N  47.67800 33.57700 28.53100
C  47.70400 32.44000 27.66500
C  47.01200 31.35000 28.32800
C  46.60800 31.87100 29.58500
C  46.95400 33.19500 29.68900
C  46.64800 29.99100 27.75000
C  45.85000 31.57300 30.77300
O  45.11700 30.62500 31.08200
C  45.88400 32.89000 31.55000
C  46.05100 32.63200 32.99900
O  46.90900 31.98300 33.55000
O  44.86800 33.02900 33.63400
C  44.64800 32.67200 35.04100
H  48.31300 39.31200 30.73700
H  50.28300 37.59900 24.92200
H  47.98600 31.64800 25.73600
H  46.21900 35.56200 33.22800
H  47.90700 37.77800 33.04800
H  45.56900 38.22300 33.24800
H  45.22300 37.31900 31.69400
H  46.24500 38.83500 31.63700
H  48.42000 34.07200 33.31800
H  47.63400 34.82500 34.70600
H  49.55500 36.56200 33.36300
H  50.27500 35.27200 34.12100
H  50.70400 40.49100 30.23800
H  49.27300 41.31400 29.55300
H  50.78900 41.56000 28.80700
H  52.59400 41.46800 25.71200
H  52.48200 40.90300 27.37900
H  51.14700 41.94700 26.63700
H  50.68600 35.44600 23.68800
H  48.61900 33.37800 23.66500
H  49.15800 36.25800 22.11700
H  48.17000 36.80700 23.42400
H  47.99000 35.27700 22.50300
H  50.58100 31.99600 24.92300
H  51.43100 33.52800 24.66800
H  50.32500 32.90900 22.12400
H  51.19400 31.39300 22.62600
H  52.06800 32.82200 22.62600
H  47.32300 29.83100 26.90900
H  45.66500 30.11900 27.29800
H  46.52300 29.22000 28.51100
H  44.89700 33.34200 31.45800
H  43.57800 32.65200 35.25100
H  45.12300 33.42400 35.67100
H  45.20500 31.77200 35.30100

