158

Mg -2.41700 16.94300 26.58700
C  -2.82900 14.90000 29.55900
C  -3.54700 19.59200 28.48900
C  -2.51100 18.63400 23.80900
C  -2.34300 13.78700 24.77600
N  -3.23100 17.19200 28.78300
C  -3.19100 16.26400 29.82000
C  -3.74500 16.92200 31.10400
C  -3.96400 18.43700 30.68900
C  -3.52900 18.43400 29.22500
C  -5.43700 18.93400 30.91700
C  -2.94600 16.63200 32.40200
C  -3.01400 17.52800 33.69000
H  -2.65800 16.92300 35.07000
N  -2.88500 18.91300 26.26100
C  -3.21300 19.90100 27.12400
C  -3.24800 21.11900 26.49200
C  -3.03300 20.87400 25.07600
C  -2.75500 19.47200 24.98900
C  -3.42500 22.40300 27.13200
C  -2.94700 21.88700 23.87000
O  -2.63900 21.54900 22.73800
C  -3.19200 23.31200 24.14400
N  -2.39800 16.30500 24.61000
C  -2.26100 17.24800 23.59500
C  -2.23400 16.56300 22.20800
C  -1.90300 15.06400 22.59600
C  -2.28200 15.01700 24.08000
C  -3.70900 16.74500 21.61300
C  -0.39200 14.74100 22.35100
C  0.72600 15.42100 23.16300
N  -2.45300 14.80600 26.99000
C  -2.37800 13.75700 26.15700
C  -2.34600 12.59800 26.98000
C  -2.58700 12.99700 28.26500
C  -2.67400 14.33200 28.26500
C  -2.31800 11.22300 26.52800
C  -2.71000 12.49500 29.58100
O  -2.65300 11.35000 29.94400
C  -2.97600 13.71600 30.52200
C  -1.99000 13.60700 31.59600
O  -0.92900 14.20200 31.56400
O  -2.49000 12.97000 32.72100
C  -1.62700 12.90900 33.91800
H  -3.88000 20.43800 29.09300
H  -2.37100 19.27700 22.93700
H  -2.29200 12.91700 24.11800
H  -4.67800 16.36900 31.21300
H  -3.31200 19.15500 31.18600
H  -5.88800 18.37300 31.73500
H  -6.04200 18.71000 30.03800
H  -5.42100 20.02300 30.95500
H  -1.90800 16.58400 32.07300
H  -3.28400 15.64300 32.71000
H  -4.05800 17.83900 33.74000
H  -2.32200 18.33900 33.46200
H  -3.63700 22.23800 28.18800
H  -4.15900 23.08600 26.70300
H  -2.49100 22.96400 27.08900
H  -3.18600 23.86600 23.20500
H  -2.44600 23.70900 24.83300
H  -4.15700 23.60200 24.55900
H  -1.42000 16.99500 21.62800
H  -2.52700 14.35300 22.05500
H  -3.51500 17.18200 20.63300
H  -4.44900 17.38900 22.08900
H  -4.23200 15.80200 21.45500
H  -0.18200 14.96800 21.30600
H  -0.21100 13.66800 22.41600
H  1.31000 16.11900 22.56400
H  1.43400 14.66800 23.51000
H  0.20500 15.86300 24.01200
H  -1.67600 11.05100 25.66400
H  -3.31300 10.79300 26.41500
H  -1.82500 10.63100 27.30000
H  -3.97100 13.67300 30.96300
H  -0.66800 12.45800 33.66500
H  -2.08900 12.28800 34.68500
H  -1.38800 13.91700 34.25700
Mg 16.66400 -1.42500 27.70400
C  15.81900 0.39700 30.56600
C  18.87200 -3.25800 29.58800
C  17.76400 -2.94900 24.85300
C  14.75300 0.67900 25.72800
N  17.34100 -1.34400 29.79900
C  16.92400 -0.42500 30.76300
C  17.52300 -0.67600 32.12500
C  18.60300 -1.77500 31.66400
C  18.24100 -2.24600 30.31700
C  20.00900 -1.19300 31.75000
C  16.50500 -1.28000 33.14100
C  16.23400 -0.54200 34.49500
H  17.54400 0.00500 35.09700
N  18.04500 -2.98000 27.30900
C  18.74000 -3.62100 28.25200
C  19.39600 -4.76900 27.56600
C  19.20800 -4.61200 26.13200
C  18.30400 -3.47800 26.04400
C  20.19600 -5.83800 28.27300
C  19.75000 -5.36800 24.94400
O  19.53200 -5.10000 23.78100
C  20.52000 -6.62600 25.10400
N  16.51000 -0.99900 25.66200
C  16.93900 -1.82300 24.67500
C  16.51900 -1.26400 23.28900
C  15.49600 -0.14900 23.58100
C  15.52700 -0.18200 25.11800
C  17.72100 -0.77000 22.47800
C  14.09200 -0.32300 22.90400
C  14.07800 -0.35300 21.38200
N  15.42600 0.21300 28.05900
C  14.70900 0.93500 27.08900
C  13.89600 1.84600 27.80900
C  14.33500 1.70300 29.20200
C  15.21100 0.64300 29.28900
C  12.76600 2.81400 27.31700
C  14.13400 2.19500 30.53500
O  13.28300 3.01300 30.94200
C  15.08100 1.37800 31.43600
C  15.92900 2.48600 31.95700
O  16.81400 3.03800 31.35000
O  15.27200 2.88400 33.11200
C  15.70500 4.13800 33.62800
H  19.53400 -3.88800 30.18600
H  17.89400 -3.37900 23.85800
H  13.99800 1.17500 25.11500
H  17.93100 0.26200 32.50200
H  18.52500 -2.69100 32.24900
H  20.07500 -0.32500 32.40600
H  20.45200 -0.95600 30.78200
H  20.74300 -1.82100 32.25400
H  16.78300 -2.32000 33.31600
H  15.53000 -1.19900 32.66100
H  15.83800 -1.29100 35.18100
H  15.42700 0.18000 34.37500
H  19.98400 -6.86700 27.98200
H  20.00000 -5.87300 29.34400
H  21.25400 -5.66200 28.08100
H  20.89300 -7.02300 24.15900
H  19.77100 -7.29700 25.52300
H  21.30700 -6.51400 25.85000
H  16.01000 -2.11000 22.82800
H  15.86900 0.82000 23.24900
H  17.75800 0.31100 22.34200
H  17.75000 -1.32300 21.53900
H  18.65600 -1.11300 22.92000
H  13.44300 0.50500 23.18800
H  13.66500 -1.29300 23.15900
H  13.12700 -0.07100 20.93200
H  14.28800 -1.36700 21.04000
H  14.89000 0.26700 21.00200
H  12.72200 3.74100 27.88900
H  11.75800 2.40600 27.38200
H  12.89600 3.15700 26.29100
H  14.61600 0.91200 32.30500
H  15.01800 4.98000 33.54000
H  16.71400 4.37800 33.29200
H  15.77500 3.90500 34.69100

