158

Mg 2.80600 -3.20900 45.07600
C  5.72500 -1.14000 44.37900
C  1.08200 -1.32000 42.97400
C  0.64400 -5.50900 45.45300
C  5.29600 -5.34800 46.75100
N  3.44900 -1.36800 43.82000
C  4.62100 -0.79100 43.61300
C  4.55200 0.36400 42.57900
C  2.99100 0.27300 42.14200
C  2.40500 -0.84000 43.09000
C  2.25500 1.62500 42.27100
C  5.47100 0.21100 41.31300
C  6.53600 1.28100 41.12000
H  6.60800 1.93600 39.77900
N  1.03300 -3.32200 44.35200
C  0.41700 -2.43500 43.52800
C  -0.89200 -3.01900 43.11300
C  -1.02100 -4.24900 43.83200
C  0.24600 -4.47900 44.61100
C  -1.85700 -2.30800 42.17400
C  -2.25100 -5.19600 43.67300
O  -3.18400 -4.83400 42.93000
C  -2.29200 -6.54600 44.18700
N  3.00200 -5.24800 45.99900
C  1.80800 -5.88500 46.13300
C  1.96800 -7.12200 47.06900
C  3.49700 -7.20200 47.22300
C  4.02200 -5.83700 46.63100
C  1.06400 -7.07500 48.35600
C  4.09700 -8.40100 46.37400
C  3.68300 -9.71500 46.91900
N  4.99500 -3.18700 45.69400
C  5.76000 -4.10100 46.38600
C  7.07500 -3.65100 46.59500
C  7.10500 -2.41100 45.87600
C  5.85500 -2.22700 45.24800
C  8.35300 -4.28400 47.40500
C  7.92200 -1.30900 45.51400
O  9.10100 -1.05100 45.67800
C  7.06500 -0.46000 44.43000
C  6.97800 0.95600 44.89900
O  7.61000 1.88600 44.46100
O  6.09500 1.01800 45.93900
C  5.88100 2.28500 46.63800
H  0.44300 -0.68100 42.36100
H  -0.17800 -6.17000 45.73400
H  6.03300 -5.99400 47.23200
H  4.84800 1.23000 43.17200
H  2.80900 -0.12600 41.14400
H  1.81200 1.98800 41.34400
H  2.90200 2.40900 42.66500
H  1.52800 1.46400 43.06700
H  4.87100 0.14000 40.40600
H  6.03300 -0.72200 41.37200
H  7.50000 0.91400 41.47100
H  6.20400 2.11400 41.73900
H  -1.53500 -1.29200 41.94700
H  -2.86700 -2.34400 42.58200
H  -1.72500 -2.85100 41.23800
H  -1.29300 -6.94300 44.00500
H  -3.07500 -7.06500 43.63400
H  -2.45900 -6.56400 45.26400
H  1.53700 -7.87600 46.41000
H  3.85400 -7.20100 48.25200
H  0.83600 -6.00900 48.35400
H  1.67900 -7.30600 49.22600
H  0.14800 -7.65300 48.23400
H  5.17900 -8.29600 46.45800
H  3.79000 -8.47300 45.33100
H  2.93400 -9.61000 47.70300
H  4.50300 -10.31600 47.31400
H  3.30700 -10.23900 46.04000
H  8.43000 -5.31000 47.04600
H  8.16800 -4.30700 48.47900
H  9.25000 -3.68400 47.25200
H  7.50100 -0.35000 43.43700
H  5.49500 1.91700 47.58900
H  5.32000 3.09300 46.17000
H  6.84700 2.74800 46.83900
Mg 34.94800 2.72800 30.00100
C  32.77000 3.61800 32.57900
C  37.49700 2.94100 32.13200
C  36.89200 2.57600 27.29800
C  32.17800 3.14900 27.80500
N  35.08000 3.33200 32.10600
C  34.10700 3.43900 33.02500
C  34.69300 3.44500 34.45600
C  36.21500 3.51600 34.25800
C  36.28300 3.18700 32.71600
C  36.91300 4.84800 34.55200
C  34.19400 2.13500 35.16900
C  34.04800 2.24600 36.71200
H  34.86600 3.37200 37.36300
N  37.02100 2.68300 29.80500
C  37.87400 2.70400 30.78100
C  39.20800 2.36700 30.18300
C  39.00000 2.26500 28.78900
C  37.54700 2.47200 28.53300
C  40.42000 2.28900 31.07000
C  40.13600 2.15700 27.65100
O  39.88500 2.31600 26.46200
C  41.60200 1.82000 28.05700
N  34.52100 2.97700 27.88300
C  35.56700 2.80800 26.95300
C  34.98400 2.85600 25.52300
C  33.42500 2.68500 25.70800
C  33.34100 2.93700 27.22700
C  35.35000 4.11300 24.65300
C  32.96900 1.28800 25.35400
C  32.83000 0.10900 26.38700
N  32.88500 3.25000 30.13600
C  31.95200 3.32000 29.15400
C  30.67400 3.63900 29.73000
C  30.86000 3.79900 31.10900
C  32.26100 3.52600 31.27100
C  29.35500 4.00700 29.07600
C  30.32700 4.10200 32.44400
O  29.17000 4.44700 32.69800
C  31.49100 3.81000 33.44000
C  31.66200 4.98600 34.35200
O  32.19300 6.01800 34.00300
O  31.13900 4.83000 35.62100
C  31.29800 5.93800 36.60800
H  38.34700 3.02000 32.81300
H  37.58800 2.42100 26.47200
H  31.30500 3.25000 27.15600
H  34.28700 4.35500 34.90000
H  36.61100 2.66300 34.80800
H  37.62300 4.84700 35.37900
H  36.11400 5.58400 34.63900
H  37.37900 5.25000 33.65200
H  34.85800 1.34100 34.82800
H  33.23300 1.80700 34.77400
H  34.41500 1.34000 37.19500
H  33.01300 2.41000 37.01100
H  40.17400 2.59200 32.08700
H  41.19000 2.96000 30.68900
H  40.69700 1.23600 31.12100
H  41.59500 0.88400 28.61400
H  42.19500 2.62300 28.49500
H  41.98500 1.60300 27.06000
H  35.52100 2.00600 25.10100
H  32.83600 3.47000 25.23200
H  35.92400 3.88100 23.75600
H  36.03500 4.78000 25.17600
H  34.49900 4.66300 24.25100
H  33.67500 0.93700 24.60300
H  31.98500 1.28900 24.88600
H  33.49800 0.28300 27.23100
H  32.99400 -0.84100 25.87800
H  31.80600 0.11000 26.76000
H  28.95200 4.80600 29.69900
H  28.78700 3.09900 28.87600
H  29.46200 4.45200 28.08600
H  31.24000 2.97100 34.08800
H  31.72800 6.88000 36.27000
H  31.97300 5.46400 37.32100
H  30.39300 6.13200 37.18500

