158

Mg 9.48500 47.59800 26.40100
C  7.70400 47.74100 29.37400
C  12.19600 48.79300 27.91000
C  11.17600 47.86300 23.35800
C  6.45500 47.12300 24.66200
N  9.81800 48.37100 28.40900
C  9.03700 48.14900 29.51200
C  9.90800 48.33100 30.76900
C  11.17800 49.14500 30.21200
C  11.08300 48.79100 28.70400
C  11.33300 50.64400 30.58400
C  10.35100 46.98300 31.41500
C  10.99500 47.11000 32.86400
H  10.29900 46.36300 34.01100
N  11.51200 48.05100 25.76300
C  12.45400 48.48400 26.57900
C  13.69100 48.63500 25.82400
C  13.41400 48.29100 24.49500
C  11.97200 47.99300 24.52100
C  15.03100 48.92600 26.50500
C  14.36500 48.29400 23.24200
O  13.97700 48.11500 22.04800
C  15.78400 48.31800 23.46800
N  8.87400 47.66500 24.37100
C  9.74800 47.65600 23.35100
C  9.04000 47.30900 22.01400
C  7.63100 46.91600 22.34800
C  7.66200 47.25800 23.90800
C  9.04700 48.60600 21.14500
C  7.38800 45.38100 22.09200
C  7.88800 44.34900 23.12700
N  7.45600 47.41900 26.89200
C  6.37200 47.17900 26.08700
C  5.17800 47.18800 26.86700
C  5.61200 47.35400 28.19200
C  7.01700 47.49100 28.16100
C  3.75400 47.04400 26.41000
C  5.22100 47.49100 29.58200
O  4.13800 47.56400 30.21900
C  6.58900 47.60200 30.35800
C  6.63400 46.43600 31.21400
O  7.02600 45.31800 30.98700
O  6.13200 46.79000 32.45100
C  6.17600 45.75300 33.47100
H  13.03700 49.21800 28.46300
H  11.60700 47.70100 22.36800
H  5.56400 46.61400 24.28900
H  9.47600 48.93500 31.56700
H  12.06500 48.65200 30.60900
H  12.19200 50.77500 31.24100
H  10.41000 50.92000 31.09500
H  11.39100 51.16000 29.62600
H  11.05200 46.41200 30.80600
H  9.44400 46.38200 31.49100
H  11.09600 48.17200 33.09000
H  12.01800 46.73500 32.89900
H  15.39100 49.95000 26.40300
H  15.82900 48.34800 26.03900
H  14.92700 48.71300 27.56900
H  16.27300 48.14100 22.51000
H  15.94400 47.35100 23.94400
H  16.09700 49.19100 24.04100
H  9.56900 46.54100 21.44900
H  6.90800 47.51100 21.78900
H  9.42400 49.41600 21.77000
H  8.10600 48.84500 20.64800
H  9.67600 48.52700 20.25800
H  7.81900 45.06900 21.14000
H  6.30300 45.36200 21.98900
H  8.48800 44.71700 23.96000
H  8.39900 43.60900 22.51200
H  7.04800 43.79600 23.54700
H  3.16500 47.01900 27.32700
H  3.72400 46.14300 25.79700
H  3.45300 47.91000 25.82100
H  6.49600 48.56000 30.87000
H  5.51500 45.93000 34.32000
H  7.22000 45.65700 33.77100
H  5.87600 44.75600 33.14900
Mg -5.79800 25.40400 26.14800
C  -4.40300 26.73700 29.12100
C  -7.45000 23.08200 27.93100
C  -6.32000 23.85100 23.27800
C  -3.42600 27.49700 24.34200
N  -5.74100 24.93500 28.21200
C  -5.33600 25.66800 29.24300
C  -5.89300 25.13800 30.56800
C  -6.63900 23.88600 30.22600
C  -6.64900 23.95100 28.71200
C  -5.89700 22.57600 30.68500
C  -6.73200 26.24800 31.29300
C  -6.38600 26.39800 32.82100
H  -5.68500 25.26400 33.52700
N  -6.93500 23.79100 25.63100
C  -7.57400 22.99200 26.52600
C  -8.36600 22.09900 25.78000
C  -8.13900 22.32300 24.39400
C  -7.12400 23.39300 24.36000
C  -9.28400 21.02800 26.41100
C  -8.78700 21.70500 23.21700
O  -8.59000 22.09600 22.06500
C  -9.60200 20.39600 23.32000
N  -4.87400 25.57700 24.08000
C  -5.32800 24.78800 23.12700
C  -4.63800 25.06700 21.73200
C  -3.88800 26.38400 22.02100
C  -4.04200 26.47800 23.54200
C  -3.85400 23.80300 21.23400
C  -4.52200 27.60700 21.35900
C  -3.95700 27.95000 19.96100
N  -4.36100 26.94100 26.60000
C  -3.43700 27.63700 25.75700
C  -2.58600 28.47700 26.57000
C  -2.95900 28.15300 27.85100
C  -3.97700 27.23500 27.85600
C  -1.69400 29.45400 26.03500
C  -2.65700 28.42300 29.33600
O  -1.84500 29.19100 29.84000
C  -3.62000 27.41900 30.19700
C  -2.70700 26.57400 30.89000
O  -2.10100 25.56500 30.51100
O  -2.51800 27.20900 32.13800
C  -1.47300 26.63900 32.97200
H  -8.13100 22.49800 28.55300
H  -6.44500 23.21100 22.40200
H  -2.68200 28.12100 23.84200
H  -5.04600 24.69700 31.09300
H  -7.66600 23.79900 30.58200
H  -5.34100 22.62400 31.62200
H  -5.08400 22.22700 30.04900
H  -6.63500 21.77400 30.68300
H  -7.76900 25.91300 31.29900
H  -6.64100 27.21000 30.78800
H  -7.35300 26.53100 33.30500
H  -5.74300 27.23700 33.08700
H  -10.25400 21.05700 25.91500
H  -9.49500 21.21800 27.46300
H  -8.84500 20.03100 26.41100
H  -9.09200 19.76900 24.05200
H  -9.72800 19.82100 22.40300
H  -10.60600 20.72400 23.59000
H  -5.44600 25.22300 21.01700
H  -2.86400 26.24200 21.67700
H  -2.77900 23.98200 21.20800
H  -4.23900 23.55800 20.24400
H  -4.07700 22.94300 21.86500
H  -4.35100 28.47000 22.00300
H  -5.56100 27.50100 21.04700
H  -3.51200 27.09200 19.45600
H  -3.20500 28.69800 20.21400
H  -4.69500 28.48400 19.36200
H  -0.69800 29.45100 26.47700
H  -2.14000 30.44800 26.06600
H  -1.45200 29.33000 24.98000
H  -4.27300 27.99500 30.85300
H  -1.81700 26.38500 33.97500
H  -0.69300 27.35600 33.22800
H  -0.90100 25.80200 32.57100

