158

Mg 49.14000 35.98500 27.83700
C  47.10100 34.25700 30.12000
C  49.58100 38.46200 30.39800
C  50.72300 37.96600 25.58800
C  48.49800 33.58600 25.48300
N  48.41900 36.31100 29.94200
C  47.79600 35.35200 30.70100
C  47.82700 35.68300 32.18800
C  48.23400 37.20100 32.22900
C  48.66400 37.44300 30.72100
C  47.06200 38.05600 32.74900
C  48.71800 34.71100 32.93100
C  48.57400 34.49600 34.45400
H  47.79300 35.57900 35.30100
N  50.06000 37.88300 28.00100
C  50.18100 38.72600 29.12000
C  50.96900 39.80100 28.77000
C  51.42700 39.64500 27.45200
C  50.67900 38.42200 26.96100
C  51.19000 40.99400 29.71100
C  52.21000 40.62500 26.56700
O  52.42300 40.24800 25.42200
C  52.66500 42.02500 26.96900
N  49.43300 35.88100 25.73100
C  50.15400 36.76900 25.03600
C  50.31400 36.30100 23.54400
C  49.80800 34.79300 23.56900
C  49.19900 34.70300 24.99100
C  49.58000 37.12900 22.51900
C  50.83500 33.73500 23.24400
C  50.53100 32.81900 22.03400
N  47.99700 34.26300 27.70100
C  47.76500 33.33300 26.62600
C  46.91200 32.19100 27.09300
C  46.58200 32.62600 28.41400
C  47.28400 33.84800 28.73600
C  46.61100 30.91100 26.36700
C  45.76300 32.34300 29.58100
O  45.03700 31.37500 29.76000
C  45.98900 33.36400 30.65300
C  46.15500 32.70300 32.00000
O  46.96000 31.82600 32.30600
O  45.28300 33.21600 32.86400
C  44.98800 32.43900 34.09100
H  49.87200 39.06500 31.26000
H  51.25400 38.42500 24.75100
H  48.53700 32.81900 24.70700
H  46.86200 35.52900 32.66900
H  49.07900 37.36800 32.89800
H  47.36900 38.50900 33.69100
H  46.22700 37.41100 33.02500
H  46.82900 38.81400 32.00100
H  49.76200 35.02300 32.90200
H  48.66200 33.74400 32.43000
H  49.57700 34.43800 34.87700
H  47.98400 33.64100 34.78500
H  52.19600 41.38700 29.56200
H  51.07000 40.84300 30.78400
H  50.47900 41.75500 29.38700
H  51.79400 42.56800 27.33800
H  52.77600 42.46200 25.97700
H  53.60100 42.15400 27.51200
H  51.36400 36.32000 23.25200
H  48.97000 34.70300 22.87800
H  49.40000 38.14500 22.87000
H  48.65500 36.64300 22.20700
H  50.16100 37.24500 21.60400
H  51.02800 33.06000 24.07900
H  51.85000 34.08300 23.05100
H  49.73100 33.20400 21.40200
H  50.33100 31.77300 22.27000
H  51.47600 32.85000 21.49300
H  47.30900 30.13100 26.67300
H  46.67800 31.00800 25.28300
H  45.62400 30.52200 26.61700
H  45.10400 33.99900 30.69400
H  44.22000 31.68500 33.91400
H  44.62400 33.01600 34.94000
H  45.88600 31.92600 34.43400
Mg 17.42100 51.88700 25.75700
C  19.06300 50.55000 28.48300
C  15.10300 53.11300 27.85600
C  15.75700 52.72400 23.11300
C  19.93500 50.40400 23.66900
N  17.06200 51.66400 27.90800
C  17.92100 51.21000 28.86600
C  17.40400 51.45900 30.29700
C  16.04100 52.20000 30.07600
C  16.09900 52.41100 28.50400
C  14.69900 51.46200 30.47800
C  18.36600 52.12100 31.39300
C  18.72000 51.37100 32.70300
H  17.82400 51.83100 33.85500
N  15.70600 52.91000 25.46300
C  14.94500 53.35500 26.46000
C  13.77400 54.09100 25.87300
C  13.93400 54.01100 24.47300
C  15.19700 53.25000 24.28900
C  12.77700 54.79300 26.79500
C  13.18800 54.57000 23.29800
O  13.59600 54.45600 22.17900
C  11.83600 55.25300 23.47900
N  17.75800 51.48800 23.65100
C  16.89200 52.07900 22.78100
C  17.33300 51.85200 21.27100
C  18.71300 51.06900 21.52000
C  18.82100 50.98300 23.01500
C  16.34800 50.93600 20.55800
C  19.98900 51.64500 20.80700
C  20.77100 52.91100 21.31300
N  19.18100 50.67600 25.96400
C  20.11200 50.19600 25.02300
C  21.10100 49.45800 25.71300
C  20.79200 49.54000 27.11100
C  19.56500 50.29500 27.15100
C  22.34900 48.76900 25.19100
C  21.21900 49.23300 28.40900
O  22.22600 48.59000 28.75000
C  20.09800 49.85700 29.37400
C  19.42700 48.69600 30.07100
O  18.53300 48.02900 29.66700
O  20.12900 48.45400 31.23800
C  19.49200 47.46300 32.16500
H  14.30300 53.56000 28.44900
H  15.38400 53.01300 22.12800
H  20.76500 50.02400 23.06900
H  17.16700 50.50900 30.77500
H  16.06100 53.24700 30.38100
H  14.08300 52.20500 30.98400
H  14.86800 50.56700 31.07600
H  14.27600 51.17200 29.51600
H  17.88500 53.06400 31.65100
H  19.39200 52.27800 31.06000
H  19.73500 51.48800 33.08300
H  18.46500 50.32800 32.51900
H  12.51800 55.70500 26.25700
H  13.19300 55.14400 27.73900
H  11.88200 54.20300 26.99200
H  11.08600 54.81500 22.81900
H  12.00200 56.29100 23.18800
H  11.45300 55.09800 24.48700
H  17.55600 52.82300 20.82900
H  18.56000 50.06300 21.13000
H  15.40400 50.96800 21.10100
H  16.69700 49.90300 20.53300
H  16.17700 51.19700 19.51400
H  19.73100 51.80600 19.76000
H  20.61500 50.75600 20.87400
H  20.74300 53.69900 20.56000
H  21.79600 52.54900 21.39500
H  20.40700 53.25400 22.28200
H  22.23700 47.72500 25.48300
H  23.21500 49.25800 25.63700
H  22.38700 48.80500 24.10200
H  20.52700 50.52700 30.11900
H  19.67800 46.49400 31.70200
H  18.41800 47.61100 32.27600
H  19.95600 47.42200 33.15000

