158

Mg -2.33600 17.72200 26.26400
C  -2.70400 15.42200 28.89600
C  -2.31200 20.17700 28.60100
C  -2.26300 20.01800 23.69200
C  -2.09100 15.16700 23.96600
N  -2.45100 17.80800 28.51700
C  -2.65000 16.72400 29.34100
C  -2.66800 17.21200 30.88500
C  -2.62200 18.77400 30.72300
C  -2.45400 18.95900 29.21400
C  -3.89900 19.52500 31.28000
C  -1.49400 16.55800 31.73300
C  -1.07600 17.24100 33.00500
H  -0.96300 16.50300 34.35200
N  -2.30000 19.76000 26.11700
C  -2.29000 20.59000 27.18200
C  -2.31300 21.98900 26.75900
C  -2.23300 21.97600 25.35500
C  -2.25400 20.54900 24.98900
C  -2.52900 23.11600 27.67100
C  -2.00600 23.16200 24.35300
O  -1.87600 22.93900 23.15100
C  -1.92500 24.59100 24.85900
N  -2.32400 17.61400 24.16000
C  -2.40700 18.68200 23.34900
C  -2.45200 18.25600 21.89800
C  -2.19400 16.76000 21.94900
C  -2.12900 16.46900 23.43200
C  -3.88300 18.53700 21.33100
C  -0.93800 16.35000 21.23700
C  0.42200 16.69400 21.79100
N  -2.56300 15.67000 26.30600
C  -2.41000 14.73800 25.26500
C  -2.42700 13.46400 25.84000
C  -2.59800 13.65000 27.23000
C  -2.56600 15.03000 27.50800
C  -2.34800 12.13300 25.02200
C  -2.73800 12.92300 28.44900
O  -2.78600 11.68800 28.54500
C  -2.79100 14.07500 29.57100
C  -1.57600 13.73100 30.32800
O  -0.44200 13.95400 30.00400
O  -1.82700 13.03200 31.47000
C  -0.72300 12.71100 32.37900
H  -2.13200 20.98800 29.30900
H  -2.22100 20.67500 22.82000
H  -2.08400 14.41000 23.17900
H  -3.64000 16.92200 31.28400
H  -1.79300 19.32600 31.16600
H  -3.56800 20.43400 31.78300
H  -4.47500 18.81000 31.86700
H  -4.48400 19.93700 30.45700
H  -0.61500 16.25500 31.16400
H  -2.02800 15.72400 32.18800
H  -1.72200 18.05900 33.32500
H  -0.15200 17.77900 32.79500
H  -1.65800 23.77100 27.65900
H  -2.74100 22.77900 28.68500
H  -3.37100 23.71200 27.31700
H  -1.07900 24.60800 25.54600
H  -2.88900 24.80900 25.31800
H  -1.66800 25.28900 24.06100
H  -1.70600 18.88200 21.40900
H  -3.00500 16.10800 21.62300
H  -4.31700 17.65300 20.86300
H  -3.88200 19.30400 20.55700
H  -4.66400 18.92600 21.98500
H  -0.94900 16.69100 20.20100
H  -1.07500 15.26900 21.19100
H  1.00700 17.00500 20.92400
H  0.91200 15.76800 22.09000
H  0.47500 17.54900 22.46500
H  -2.61100 12.30200 23.97800
H  -2.97900 11.36200 25.46500
H  -1.32100 11.79700 24.87800
H  -3.68500 13.87700 30.16300
H  -1.12900 12.24800 33.27800
H  -0.35800 13.69100 32.68700
H  -0.00800 11.98800 31.98600
Mg 40.60500 8.84300 28.96500
C  42.60300 10.23200 31.67400
C  38.78600 7.29700 31.53200
C  38.87300 7.72200 26.63200
C  43.12600 9.97900 26.79300
N  40.65300 8.89000 31.34000
C  41.44200 9.60500 32.17700
C  40.91300 9.62100 33.56100
C  39.90400 8.40700 33.49600
C  39.76800 8.13800 32.03400
C  40.21000 7.10500 34.32500
C  40.28800 11.08300 33.79100
C  39.56700 11.30400 35.18300
H  39.96500 12.48400 36.00800
N  39.03700 7.68400 29.02500
C  38.40800 7.13100 30.16200
C  37.18700 6.47600 29.78600
C  37.15600 6.54300 28.30700
C  38.37000 7.33400 27.92500
C  36.11100 5.96500 30.76300
C  36.24900 5.89000 27.31700
O  36.28300 6.12000 26.13000
C  35.23200 4.77000 27.91600
N  41.10200 8.71400 26.94400
C  40.03700 8.34300 26.15800
C  40.34700 8.61700 24.73900
C  41.66200 9.44900 24.82700
C  41.98900 9.38200 26.26200
C  40.46600 7.24200 23.85500
C  41.46200 10.94100 24.33600
C  40.43800 11.86700 25.10300
N  42.43500 9.78100 29.13800
C  43.37700 10.13400 28.16200
C  44.57300 10.77300 28.76300
C  44.23900 10.86600 30.06400
C  42.94100 10.31600 30.25900
C  45.76200 11.24900 28.10900
C  44.79300 11.35600 31.33500
O  45.85000 11.84400 31.65700
C  43.71000 10.94200 32.42900
C  44.38800 9.99100 33.41900
O  44.73000 8.83200 33.13800
O  44.52700 10.63000 34.56600
C  45.08500 9.80400 35.63100
H  38.20500 6.73000 32.26300
H  38.34900 7.41200 25.72600
H  43.97800 10.39400 26.25100
H  41.57300 9.33600 34.38000
H  38.98300 8.75300 33.96600
H  40.49600 6.18600 33.81300
H  39.44400 6.92000 35.07900
H  41.14000 7.32300 34.84900
H  39.57800 11.27000 32.98500
H  41.11800 11.78800 33.73800
H  39.62100 10.33500 35.68000
H  38.54600 11.55400 34.89600
H  36.06700 6.43700 31.74400
H  36.31400 4.92200 31.00700
H  35.08000 5.86200 30.42300
H  35.83000 4.23200 28.65200
H  34.94600 4.07500 27.12600
H  34.41800 5.27700 28.43200
H  39.55800 9.24200 24.32200
H  42.37700 8.89100 24.22200
H  40.52900 6.36900 24.50400
H  41.42900 7.37700 23.36300
H  39.69500 7.09400 23.09900
H  41.20000 11.00100 23.28000
H  42.48200 11.32100 24.28500
H  40.90300 12.83900 25.27000
H  40.29000 11.33900 26.04400
H  39.54600 11.84900 24.47700
H  46.33000 11.87100 28.80100
H  45.62700 11.72900 27.14000
H  46.47600 10.45500 27.89100
H  43.43600 11.88900 32.89400
H  45.66500 10.38900 36.34600
H  45.84100 9.07800 35.33300
H  44.30100 9.34500 36.23300

