158

Mg 48.48300 34.77000 26.53500
C  46.60400 33.58300 29.19400
C  48.96500 37.62900 28.28500
C  50.17200 36.04300 23.84900
C  47.84300 31.88300 24.75500
N  47.92300 35.39700 28.56200
C  47.14100 34.82900 29.48700
C  46.86200 35.72900 30.74500
C  47.47500 37.10200 30.28800
C  48.19300 36.70500 28.98200
C  46.55200 38.30200 30.02800
C  47.35000 35.07900 32.05400
C  47.89300 35.89800 33.25900
H  47.01300 36.37800 34.36600
N  49.51800 36.58400 26.13300
C  49.60500 37.60000 27.03900
C  50.52200 38.59000 26.52200
C  50.98200 38.08100 25.24000
C  50.24100 36.87100 25.05900
C  50.91600 39.81100 27.29300
C  51.93600 38.62000 24.34500
O  52.32000 38.01600 23.33600
C  52.70900 39.97800 24.64600
N  48.78500 34.14700 24.56400
C  49.50200 34.89000 23.62400
C  50.02400 33.99500 22.45800
C  49.36200 32.58800 22.81500
C  48.60600 32.86600 24.12200
C  49.70600 34.58000 21.09800
C  50.41900 31.43800 22.95300
C  50.34500 30.29100 21.90900
N  47.46500 33.04500 26.88000
C  47.22900 31.92600 26.05100
C  46.43300 30.92500 26.87500
C  46.13200 31.60000 28.08200
C  46.78900 32.83200 28.04900
C  46.06200 29.60500 26.35700
C  45.39100 31.47800 29.32900
O  44.69700 30.57300 29.78900
C  45.54900 32.90800 30.04000
C  45.85000 32.46200 31.44800
O  46.78500 31.67000 31.67200
O  44.87900 32.87700 32.33900
C  44.83600 31.95800 33.53300
H  49.00100 38.58800 28.80800
H  50.82300 36.34100 23.02400
H  47.89500 30.91900 24.24500
H  45.78900 35.89900 30.82800
H  48.14400 37.50000 31.05100
H  45.61700 38.29300 30.58800
H  46.31200 38.28800 28.96500
H  47.09600 39.24300 30.11600
H  47.99700 34.21400 31.91000
H  46.49600 34.69500 32.61100
H  48.33500 36.85700 32.99100
H  48.76500 35.37500 33.65200
H  51.99200 39.80200 27.46700
H  50.36000 40.02200 28.20700
H  50.78800 40.72200 26.70900
H  51.90800 40.71400 24.71800
H  53.36100 40.18600 23.79700
H  53.34500 39.87200 25.52500
H  51.08300 33.80500 22.63200
H  48.51400 32.42400 22.15000
H  49.40100 33.71300 20.51200
H  50.49800 35.08600 20.54800
H  48.79500 35.17800 21.07100
H  50.31400 31.19600 24.01100
H  51.44300 31.81200 22.96300
H  51.15400 30.34400 21.18100
H  49.40200 30.30300 21.36300
H  50.40900 29.30800 22.37500
H  45.77800 29.68200 25.30700
H  45.24900 29.08000 26.85700
H  47.00100 29.05300 26.41300
H  44.64700 33.50000 30.19800
H  45.47500 32.41600 34.28900
H  45.10400 30.96300 33.17800
H  43.83200 31.93700 33.95600
Mg -1.32800 34.91500 27.53900
C  -3.35500 33.18600 29.83600
C  -0.50300 37.13400 30.14600
C  0.31600 36.75400 25.21600
C  -2.67400 32.94000 24.95800
N  -1.83900 35.03700 29.77100
C  -2.58100 34.20000 30.43700
C  -2.47800 34.46500 31.91500
C  -1.95200 35.94200 31.90700
C  -1.23600 36.01900 30.60000
C  -3.02200 37.08200 32.04400
C  -1.64400 33.32400 32.60900
C  -2.47700 32.67500 33.70600
H  -1.82700 32.25100 35.02700
N  -0.34700 36.76500 27.64500
C  -0.11800 37.50800 28.78500
C  0.72000 38.63700 28.46100
C  1.05900 38.56100 27.04700
C  0.34800 37.31000 26.57000
C  1.12100 39.72900 29.41100
C  1.85100 39.42000 26.12200
O  2.12400 39.16800 24.91100
C  2.47600 40.56000 26.66700
N  -1.05300 34.74100 25.49200
C  -0.31000 35.60600 24.67000
C  -0.19800 35.18100 23.22800
C  -1.03000 33.82600 23.18900
C  -1.66700 33.84700 24.64900
C  -0.61100 36.23300 22.12000
C  -0.30200 32.50900 22.98700
C  -1.01400 31.35900 22.18800
N  -2.64800 33.34700 27.36400
C  -3.11900 32.69100 26.27200
C  -4.05100 31.59100 26.66000
C  -4.15800 31.77000 28.06100
C  -3.32100 32.84100 28.45000
C  -4.76100 30.55100 25.77300
C  -4.78200 31.25100 29.24700
O  -5.60400 30.30700 29.32500
C  -4.28300 32.12500 30.48200
C  -5.56900 32.74100 31.04400
O  -6.11800 33.77900 30.76000
O  -5.83700 32.03800 32.21800
C  -6.57400 32.59100 33.33200
H  -0.36300 37.87800 30.93400
H  0.83300 37.25200 24.39300
H  -3.07800 32.30400 24.16900
H  -3.53000 34.55400 32.18600
H  -1.15100 36.02700 32.64100
H  -3.91300 36.49300 32.26100
H  -3.00300 37.82300 31.24500
H  -2.74200 37.65400 32.92900
H  -0.78000 33.78600 33.08700
H  -1.27500 32.54700 31.94000
H  -2.67900 31.68500 33.29800
H  -3.42800 33.11300 34.00700
H  0.44300 39.81200 30.26000
H  1.24300 40.72200 28.97800
H  2.15400 39.48600 29.66000
H  3.22700 41.01300 26.02000
H  3.12900 40.18600 27.45600
H  1.71200 41.30400 26.89300
H  0.85700 34.99900 23.02300
H  -1.82300 33.91500 22.44600
H  -1.38400 35.85300 21.45100
H  0.26800 36.35600 21.48800
H  -1.05400 37.13700 22.53800
H  -0.06400 32.02400 23.93400
H  0.58800 32.63500 22.37000
H  -2.00500 31.72600 21.92000
H  -1.03100 30.40200 22.70900
H  -0.56200 31.23800 21.20300
H  -4.67000 29.71700 26.46900
H  -4.23600 30.40400 24.83000
H  -5.82700 30.75500 25.66400
H  -3.83400 31.39000 31.14900
H  -5.89600 32.81500 34.15500
H  -7.28700 31.88800 33.76200
H  -7.07800 33.50300 33.01200

