158

Mg 24.30300 -5.47800 45.69800
C  26.52900 -3.25000 44.19100
C  21.88300 -4.52500 43.45200
C  22.46100 -8.13700 46.58400
C  27.10200 -6.74100 47.58400
N  24.18700 -3.98200 44.04400
C  25.30900 -3.29600 43.54000
C  24.87200 -2.46900 42.30700
C  23.32200 -2.78300 42.16600
C  23.07900 -3.85300 43.29200
C  22.36100 -1.63300 42.52000
C  25.68100 -2.82600 40.98000
C  26.27900 -1.57800 40.24500
H  25.79900 -1.19000 38.89500
N  22.35300 -6.06300 45.26600
C  21.52700 -5.60900 44.26900
C  20.25300 -6.40000 44.35400
C  20.40200 -7.29800 45.32100
C  21.74400 -7.16500 45.78200
C  19.10500 -6.20800 43.42100
C  19.32800 -8.29400 45.75600
O  18.22500 -8.29300 45.22300
C  19.49400 -9.39600 46.88500
N  24.76000 -7.20000 46.88700
C  23.83100 -8.23100 47.00500
C  24.46900 -9.48000 47.60600
C  25.78800 -8.90300 48.25300
C  25.96600 -7.58900 47.49700
C  23.64300 -10.16800 48.80500
C  27.04600 -9.86800 48.11200
C  27.65100 -10.40600 49.40700
N  26.36700 -5.06600 46.00000
C  27.33700 -5.51000 46.87000
C  28.58000 -4.86300 46.57200
C  28.26300 -3.98000 45.54400
C  26.91500 -4.11500 45.24600
C  29.86100 -5.22900 47.12200
C  28.84400 -3.00300 44.68900
O  30.06100 -2.69700 44.60100
C  27.68700 -2.44200 43.83900
C  27.69400 -0.94600 44.12000
O  27.20000 -0.42400 45.10400
O  28.38600 -0.25700 43.14200
C  28.80900 1.12900 43.29600
H  21.15400 -4.29900 42.67100
H  21.86700 -9.04400 46.71300
H  28.02500 -7.06000 48.07200
H  25.06000 -1.42300 42.55000
H  23.10600 -3.15200 41.16300
H  22.69400 -0.69500 42.07400
H  22.41500 -1.38400 43.57900
H  21.40000 -1.92300 42.09600
H  25.08900 -3.37800 40.25000
H  26.48700 -3.45400 41.36000
H  27.35900 -1.70400 40.16900
H  26.02500 -0.78600 40.95100
H  18.99500 -7.11900 42.83400
H  19.43500 -5.38400 42.78800
H  18.26500 -5.87000 44.02700
H  18.47500 -9.48000 47.26200
H  20.07700 -8.92800 47.67900
H  19.84900 -10.37300 46.55800
H  24.81200 -10.09200 46.77200
H  25.61600 -8.70600 49.31100
H  23.15800 -11.10700 48.53700
H  22.96200 -9.37900 49.12500
H  24.33700 -10.31400 49.63200
H  27.80900 -9.41500 47.48000
H  26.75200 -10.71900 47.49800
H  27.45300 -9.79000 50.28400
H  28.70200 -10.67500 49.30600
H  27.20800 -11.32300 49.79500
H  29.85700 -4.87300 48.15200
H  30.66800 -4.62400 46.70900
H  30.14100 -6.26700 46.93900
H  28.04900 -2.59000 42.82100
H  27.95900 1.74200 42.99300
H  29.62400 1.43100 42.63900
H  29.17800 1.61100 44.20000
Mg 16.96300 52.62200 26.84200
C  19.04100 51.17500 29.10600
C  14.62900 53.26900 29.44800
C  14.69300 53.97800 24.57500
C  19.03900 51.73000 24.33900
N  16.82100 52.15000 28.91400
C  17.91500 51.82000 29.65300
C  17.69900 52.10200 31.16300
C  16.18700 52.40200 31.32000
C  15.78400 52.56000 29.78700
C  15.33900 51.32800 32.14900
C  18.60600 53.14500 31.71700
C  18.90400 53.10300 33.21200
H  17.99700 52.39100 34.27500
N  15.02100 53.60200 27.02600
C  14.23300 53.74200 28.14800
C  13.02500 54.47800 27.84100
C  13.16000 54.87900 26.46300
C  14.34200 54.12500 25.98200
C  11.95000 54.82700 28.85400
C  12.32600 55.84700 25.66400
O  12.43600 55.96500 24.47800
C  11.16000 56.45100 26.36800
N  16.80000 52.73500 24.77100
C  15.81700 53.38900 24.03800
C  16.04100 53.16800 22.55400
C  17.55800 52.91200 22.45300
C  17.86900 52.48100 23.95500
C  15.04800 52.09200 22.00200
C  18.43400 54.11100 22.06400
C  18.60200 54.31100 20.59100
N  18.56600 51.52900 26.65400
C  19.37600 51.24300 25.59900
C  20.53900 50.42500 25.98300
C  20.46700 50.41400 27.34400
C  19.25900 51.12300 27.70700
C  21.56200 49.69500 24.99800
C  21.06200 49.94100 28.60900
O  22.06800 49.22900 28.67700
C  20.22900 50.51100 29.88700
C  19.83200 49.52500 30.91000
O  19.10000 48.57700 30.77900
O  20.32900 49.97100 32.15400
C  19.99300 49.04200 33.27200
H  14.12800 53.61100 30.35600
H  14.01400 54.41600 23.84000
H  19.80200 51.60100 23.56800
H  17.93400 51.19000 31.71200
H  16.06400 53.40500 31.73000
H  14.67700 50.85400 31.42400
H  14.71000 51.87700 32.85000
H  15.99500 50.63300 32.67200
H  18.24700 54.13700 31.44400
H  19.62200 53.21800 31.33100
H  18.69500 54.13400 33.49500
H  19.93800 52.77300 33.31600
H  11.88100 54.11900 29.67900
H  10.92400 54.80300 28.48600
H  12.14000 55.81400 29.27700
H  10.74900 57.22300 25.71800
H  11.37600 56.87100 27.35100
H  10.48000 55.61200 26.51300
H  15.79400 54.13300 22.11100
H  17.65500 52.04400 21.80100
H  15.65000 51.31700 21.52700
H  14.47300 52.67500 21.28200
H  14.35700 51.62900 22.70500
H  19.40900 53.98100 22.53500
H  18.02600 55.05800 22.41700
H  18.73300 55.34300 20.26500
H  17.72200 53.78100 20.22800
H  19.50500 53.78400 20.28200
H  21.11100 49.57700 24.01300
H  21.73600 48.72200 25.45700
H  22.52200 50.21200 24.96600
H  20.61800 51.36200 30.44400
H  20.58800 48.13500 33.15600
H  18.93700 48.77600 33.24600
H  20.24300 49.51700 34.22000

