158

Mg 0.98700 8.06600 26.80800
C  1.46700 9.89600 29.83800
C  0.30700 5.31900 28.64100
C  0.42700 6.64900 23.95000
C  1.82500 11.17900 25.05600
N  0.91800 7.67100 28.98000
C  0.99800 8.51400 30.01300
C  0.59100 7.85800 31.32300
C  0.86700 6.35600 30.98700
C  0.75700 6.40900 29.43300
C  2.23600 5.82200 31.42600
C  -0.84600 8.11700 31.77600
C  -1.20500 8.49100 33.31800
H  -0.03500 8.48200 34.28600
N  0.47400 6.24900 26.39700
C  0.11600 5.25500 27.23800
C  -0.46500 4.14000 26.52200
C  -0.43500 4.50100 25.21000
C  0.12300 5.84200 25.15300
C  -0.92600 2.79200 27.05000
C  -0.89600 3.70100 23.95000
O  -0.70600 4.19800 22.89600
C  -1.61400 2.36800 24.04400
N  1.25200 8.79300 24.77800
C  0.95500 7.95900 23.78800
C  1.44400 8.50300 22.43200
C  1.45100 10.02300 22.78400
C  1.57700 10.00500 24.31300
C  2.90300 7.83700 22.09000
C  0.14600 10.69200 22.45400
C  0.20100 12.23100 22.10900
N  1.75500 10.06600 27.23000
C  2.06200 11.12500 26.47700
C  2.47700 12.29300 27.28200
C  2.17400 11.84300 28.62200
C  1.82800 10.50600 28.52400
C  2.86900 13.69000 26.68600
C  2.21500 12.27200 29.96400
O  2.53400 13.36000 30.35500
C  1.61300 11.01400 30.83200
C  2.63600 10.81300 31.92800
O  3.68400 10.20400 31.85000
O  2.17400 11.41900 33.07300
C  3.19600 11.52800 34.12600
H  0.20500 4.42600 29.26100
H  0.48600 6.17300 22.96900
H  1.96300 12.12800 24.53300
H  1.20000 8.28000 32.12200
H  0.04100 5.78300 31.40900
H  2.96900 6.58100 31.70000
H  2.57500 5.35400 30.50200
H  2.19600 5.14100 32.27600
H  -1.43300 7.22300 31.56200
H  -1.22500 8.82000 31.03400
H  -2.05400 7.85400 33.56600
H  -1.49800 9.52900 33.16200
H  -1.86600 2.42000 26.64100
H  -0.98100 2.74800 28.13700
H  -0.23900 1.98100 26.80500
H  -1.09100 1.74100 24.76500
H  -1.73400 1.87100 23.08100
H  -2.53300 2.66800 24.54800
H  0.81100 8.19700 21.59800
H  2.28200 10.44700 22.21900
H  3.51600 8.12700 22.94300
H  3.27200 8.46800 21.28100
H  2.66700 6.80200 21.84200
H  -0.50200 10.54400 23.31800
H  -0.25000 10.23500 21.54700
H  1.16500 12.60200 21.76200
H  0.01500 12.83300 22.99800
H  -0.49100 12.53000 21.32100
H  2.11000 14.05300 25.99300
H  3.77800 13.63200 26.08700
H  3.09700 14.39100 27.48900
H  0.62300 11.19200 31.25000
H  3.45600 12.58700 34.14800
H  4.13100 11.03700 33.85800
H  2.84000 11.09500 35.06100
Mg -2.02100 34.81800 27.12000
C  -3.81100 33.48800 29.83900
C  -0.27500 36.84100 29.18300
C  -1.35300 36.83500 24.51200
C  -3.92200 32.72900 24.95600
N  -1.96500 34.98300 29.25900
C  -2.84800 34.44100 30.22100
C  -2.49100 34.97600 31.63200
C  -1.33600 35.98300 31.40300
C  -1.13100 35.91800 29.86800
C  -1.62400 37.46200 31.91900
C  -2.23400 33.93900 32.69000
C  -2.99500 34.16400 33.96300
H  -2.34100 33.83400 35.30600
N  -0.72400 36.43600 26.77400
C  -0.04000 37.05600 27.77000
C  0.69200 38.19300 27.25200
C  0.32600 38.23200 25.88300
C  -0.62000 37.13600 25.64200
C  1.55800 39.12300 28.06400
C  0.83000 39.18100 24.77400
O  0.57200 39.02700 23.61800
C  1.68400 40.31600 25.11700
N  -2.58200 34.77500 25.07900
C  -2.07600 35.68100 24.18400
C  -2.55100 35.34200 22.70100
C  -2.82700 33.79800 22.86800
C  -3.12400 33.74600 24.39100
C  -3.88500 36.17800 22.37400
C  -1.71300 32.90800 22.43900
C  -1.50500 32.36800 20.96700
N  -3.58200 33.39300 27.33500
C  -4.21300 32.66100 26.33300
C  -5.11400 31.70600 26.95000
C  -5.03400 31.96900 28.38700
C  -4.08800 33.03000 28.53300
C  -5.86100 30.57700 26.17800
C  -5.49500 31.62300 29.67400
O  -6.32400 30.81100 30.09000
C  -4.79500 32.62000 30.61300
C  -5.79500 33.43500 31.34500
O  -6.17100 34.53500 31.04700
O  -6.22300 32.75900 32.44400
C  -7.20800 33.39800 33.28000
H  0.22800 37.54900 29.84600
H  -1.07000 37.41200 23.62800
H  -4.39300 32.03800 24.25400
H  -3.39400 35.55100 31.83700
H  -0.43500 35.64900 31.91800
H  -1.80500 38.20300 31.14000
H  -0.81500 37.94300 32.46700
H  -2.53000 37.40200 32.52200
H  -1.19700 33.69600 32.92400
H  -2.59000 32.99800 32.27200
H  -3.87400 33.52600 33.86500
H  -3.37800 35.17600 34.09200
H  1.13700 40.10900 27.86600
H  2.58700 39.24100 27.72400
H  1.40700 39.01700 29.13900
H  2.52700 40.05800 25.75800
H  1.01800 41.08100 25.51600
H  2.11200 40.66500 24.17700
H  -1.82700 35.57200 21.92000
H  -3.66500 33.47500 22.25000
H  -3.67000 36.79500 21.50100
H  -4.14600 36.94900 23.09900
H  -4.77300 35.56300 22.22700
H  -1.86800 32.00800 23.03300
H  -0.73300 33.31300 22.69300
H  -1.89800 31.35200 20.92400
H  -0.44500 32.35700 20.71300
H  -2.01400 32.98400 20.22600
H  -6.86900 30.54100 26.59000
H  -5.44200 29.57800 26.30400
H  -5.82200 30.77100 25.10600
H  -4.19100 32.05500 31.32200
H  -8.19900 33.25300 32.84800
H  -7.09700 34.48200 33.25800
H  -7.23600 32.96600 34.28100

