158

Mg 36.29500 2.61500 30.33000
C  33.86100 3.43000 32.80800
C  38.61600 2.64100 32.71100
C  38.50400 2.17800 27.93400
C  33.72400 2.87100 27.89400
N  36.18700 2.84600 32.48100
C  35.13500 3.23000 33.29600
C  35.58500 3.21200 34.81400
C  37.08100 3.03900 34.72100
C  37.31000 2.78300 33.24300
C  38.02200 4.26400 35.21200
C  34.83000 2.12200 35.71400
C  34.04400 2.73700 36.84800
H  34.54900 3.96300 37.61900
N  38.33200 2.50300 30.29100
C  39.13000 2.49700 31.41000
C  40.46700 2.20700 30.99900
C  40.54400 2.12700 29.61200
C  39.07900 2.28200 29.17300
C  41.58900 1.94200 32.00900
C  41.66400 1.92500 28.68200
O  41.49600 1.75800 27.45600
C  43.03000 2.37200 29.18500
N  36.08700 2.48700 28.20400
C  37.19300 2.22000 27.43800
C  36.87500 2.21200 25.98400
C  35.26200 2.26300 26.05000
C  34.96600 2.49400 27.44900
C  37.42200 3.37400 25.08100
C  34.34800 1.23600 25.39400
C  35.02000 -0.16800 25.13400
N  34.24500 3.03100 30.27100
C  33.36300 3.21600 29.22000
C  32.09200 3.56600 29.73400
C  32.24000 3.73500 31.12100
C  33.54600 3.24600 31.42100
C  30.92500 3.94600 28.87300
C  31.55500 3.99000 32.36900
O  30.43300 4.43900 32.58400
C  32.56400 3.83800 33.57700
C  32.50100 5.16500 34.15300
O  32.98900 6.14200 33.63600
O  31.87600 5.02800 35.35300
C  31.51300 6.29500 36.01600
H  39.37700 2.48200 33.47800
H  39.30700 2.19600 27.19400
H  32.92500 2.79400 27.15400
H  35.33500 4.13800 35.33100
H  37.44200 2.25300 35.38400
H  37.39200 5.03200 35.66100
H  38.63600 4.83400 34.51400
H  38.71500 3.93500 35.98600
H  35.40800 1.24100 35.99300
H  34.08700 1.77100 34.99800
H  34.04000 1.95400 37.60700
H  33.00100 2.83700 36.54600
H  42.10400 2.90000 32.07700
H  42.33300 1.24200 31.63000
H  41.32200 1.53200 32.98300
H  43.61600 2.53000 28.27900
H  43.41900 1.48600 29.68700
H  42.88500 3.16300 29.92100
H  37.16200 1.29800 25.46300
H  35.00000 3.22500 25.60800
H  38.01400 4.01300 25.73600
H  36.57600 3.87200 24.60600
H  38.10900 2.98600 24.32900
H  34.09100 1.61200 24.40400
H  33.38400 1.16700 25.89800
H  34.38300 -0.83100 25.72000
H  36.00500 -0.31400 25.57700
H  35.08700 -0.48600 24.09400
H  30.12800 3.20300 28.84500
H  31.37400 4.09500 27.89100
H  30.53500 4.85700 29.32800
H  32.14500 3.00500 34.14000
H  30.90400 6.92600 35.36800
H  32.36900 6.96400 36.10000
H  31.06400 6.01800 36.97000
Mg 42.09500 40.32400 26.83400
C  41.37700 42.88600 29.24800
C  43.74900 38.65600 29.37700
C  43.16100 38.32200 24.52400
C  40.79500 42.57200 24.46200
N  42.53300 40.73400 29.08800
C  42.04500 41.76100 29.81100
C  42.07300 41.41400 31.28700
C  42.96400 40.15500 31.37800
C  43.14000 39.79400 29.83100
C  44.38900 40.38900 31.94100
C  40.63300 41.20400 31.95700
C  40.50500 42.16600 33.21000
H  39.73500 41.62600 34.44500
N  43.09500 38.64100 26.93300
C  43.65300 38.10000 28.08300
C  44.20800 36.78800 27.71600
C  44.08100 36.69300 26.28300
C  43.42700 37.90400 25.82600
C  44.79900 35.85100 28.69600
C  44.57200 35.59500 25.39700
O  44.47900 35.64100 24.14600
C  45.26900 34.44500 26.06700
N  41.95100 40.43500 24.77400
C  42.44600 39.44800 24.00800
C  42.13100 39.77800 22.45700
C  41.49100 41.16000 22.42200
C  41.39700 41.41700 23.95500
C  43.36600 39.59800 21.45100
C  40.10000 41.14000 21.69700
C  39.62300 42.44900 20.99400
N  41.18600 42.29500 26.80300
C  40.61800 43.01800 25.77100
C  40.11800 44.25000 26.23500
C  40.40200 44.21700 27.61000
C  41.07900 43.01200 27.87400
C  39.65300 45.44400 25.39100
C  40.26100 45.03600 28.81600
O  39.80900 46.17500 28.92500
C  40.79900 44.04800 29.92200
C  41.73000 44.87900 30.76500
O  42.97600 44.92100 30.75100
O  40.91800 45.42200 31.75200
C  41.59400 45.93200 32.98400
H  44.14200 38.13700 30.25300
H  43.41900 37.70300 23.66300
H  40.40900 43.16100 23.62700
H  42.58300 42.14000 31.92000
H  42.47500 39.30500 31.85400
H  44.88400 39.42000 32.00200
H  44.45300 40.86400 32.92000
H  44.98400 40.96000 31.22900
H  40.45500 40.15800 32.20700
H  39.95100 41.50600 31.16200
H  40.05800 43.08100 32.82400
H  41.41900 42.57500 33.64200
H  45.88500 35.90300 28.62300
H  44.46800 34.82800 28.52000
H  44.45300 36.11800 29.69500
H  46.21800 34.76600 26.49600
H  45.30700 33.70700 25.26600
H  44.62500 33.85900 26.72200
H  41.38600 39.03800 22.16500
H  42.17600 41.87600 21.96800
H  44.22400 39.75100 22.10700
H  43.53000 40.30100 20.63500
H  43.41500 38.54600 21.16800
H  39.32300 40.78400 22.37300
H  40.16900 40.38400 20.91500
H  38.67900 42.70300 21.47700
H  39.52100 42.14700 19.95200
H  40.35000 43.23600 21.19100
H  39.06300 46.05900 26.07000
H  39.09200 45.15800 24.50100
H  40.52100 45.98400 25.01100
H  40.06100 43.59800 30.58600
H  42.68400 45.94800 33.00100
H  41.24500 45.35400 33.84000
H  41.29100 46.95500 33.20400

