158

Mg -12.77100 38.88600 41.84700
C  -10.67200 35.97300 41.47800
C  -10.07200 40.72400 40.71600
C  -14.68100 41.65000 42.19200
C  -15.43800 36.84200 42.20900
N  -10.66700 38.35700 40.90900
C  -10.04100 37.13000 40.94600
C  -8.59700 37.24100 40.45300
C  -8.39000 38.74400 40.40500
C  -9.75900 39.33800 40.71300
C  -7.39300 39.29000 41.40700
C  -8.54600 36.59000 39.00200
C  -7.46700 35.51300 38.83500
H  -7.14000 34.85700 37.43200
N  -12.41600 40.91400 41.47100
C  -11.28300 41.47900 40.98200
C  -11.45100 42.91100 40.97300
C  -12.74400 43.23100 41.47100
C  -13.39000 41.92200 41.69400
C  -10.37700 43.83200 40.50600
C  -13.23500 44.66900 41.76700
O  -12.53800 45.64000 41.45400
C  -14.54500 44.97400 42.38700
N  -14.76100 39.21200 42.13500
C  -15.29600 40.37800 42.55500
C  -16.72300 40.19900 43.16500
C  -17.04800 38.66800 42.82600
C  -15.65900 38.18000 42.38100
C  -16.82600 40.73000 44.64200
C  -18.16000 38.52600 41.68400
C  -17.74500 38.62100 40.19400
N  -13.04900 36.83200 41.82300
C  -14.21700 36.15500 42.00200
C  -13.96700 34.70700 42.17800
C  -12.56600 34.59700 41.98600
C  -12.02200 35.91000 41.75700
C  -14.97700 33.67700 42.48600
C  -11.45200 33.69200 41.98900
O  -11.36400 32.55500 42.38200
C  -10.08700 34.54800 41.64100
C  -9.17200 34.40000 42.72000
O  -9.35300 34.61100 43.86200
O  -8.06500 33.73500 42.17400
C  -6.93300 33.66900 43.08300
H  -9.13900 41.23400 40.46600
H  -15.39500 42.45500 42.37600
H  -16.29700 36.19300 42.39100
H  -7.91700 36.68400 41.09800
H  -8.12900 39.06700 39.39700
H  -7.86600 39.77500 42.26100
H  -6.78500 40.00000 40.84700
H  -6.71100 38.52300 41.77400
H  -8.45100 37.24000 38.13200
H  -9.55000 36.17800 38.90600
H  -7.82400 34.70400 39.47300
H  -6.56100 35.90300 39.29800
H  -10.20900 44.68300 41.16700
H  -10.63100 44.19700 39.51100
H  -9.44300 43.28900 40.36500
H  -14.77000 44.45700 43.31900
H  -15.25900 44.79600 41.58300
H  -14.57900 45.99400 42.77000
H  -17.45400 40.80600 42.63100
H  -17.30900 38.08600 43.70900
H  -16.91900 39.86400 45.29700
H  -17.53800 41.52000 44.88300
H  -15.84300 41.18400 44.76400
H  -18.94700 39.27400 41.78600
H  -18.65300 37.56000 41.79100
H  -17.71800 37.59200 39.83700
H  -16.85800 39.19500 39.92700
H  -18.49600 39.11800 39.57900
H  -15.62300 33.93200 43.32600
H  -14.64500 32.69000 42.81000
H  -15.68500 33.34700 41.72500
H  -9.71100 34.16200 40.69400
H  -6.49000 32.67400 43.02800
H  -7.09800 33.87200 44.14100
H  -6.19400 34.42100 42.80500
Mg -6.13300 25.35300 25.05000
C  -4.59500 26.62800 28.05600
C  -7.91200 23.16100 27.08500
C  -7.52400 24.07400 22.24100
C  -4.13500 27.59700 23.23300
N  -6.24700 24.92000 27.32600
C  -5.62600 25.67100 28.29400
C  -6.08500 25.26200 29.64500
C  -6.95400 23.94400 29.27900
C  -6.94400 23.89000 27.79800
C  -6.40600 22.68400 29.92600
C  -6.88500 26.34600 30.44800
C  -6.72100 26.44300 31.94700
H  -6.02300 25.37300 32.76600
N  -7.54400 23.82900 24.73700
C  -8.12300 23.03400 25.71800
C  -8.95300 22.03400 25.05300
C  -8.90000 22.25200 23.65500
C  -7.95400 23.42600 23.46700
C  -9.75100 21.02000 25.92600
C  -9.69600 21.66700 22.54600
O  -9.57600 22.08300 21.36000
C  -10.52600 20.53200 22.76100
N  -5.77500 25.69600 23.03800
C  -6.56200 25.07000 22.07400
C  -6.17500 25.68000 20.66100
C  -5.17800 26.83800 20.97300
C  -4.94700 26.69800 22.50400
C  -5.42200 24.65600 19.75000
C  -5.75700 28.33500 20.71700
C  -4.94200 29.14100 19.69700
N  -4.70500 26.81100 25.47600
C  -3.92300 27.59000 24.62500
C  -3.07900 28.37500 25.36500
C  -3.38100 28.09900 26.69800
C  -4.30000 27.10000 26.74700
C  -2.01500 29.22600 24.74300
C  -3.01700 28.45400 28.09900
O  -2.23600 29.29900 28.51000
C  -3.82600 27.48000 29.00700
C  -2.78800 26.81100 29.80500
O  -1.91000 26.04100 29.43300
O  -2.93900 27.15600 31.10800
C  -1.96500 26.67700 32.07400
H  -8.36900 22.51200 27.83500
H  -7.93400 23.73100 21.28900
H  -3.59400 28.31700 22.61500
H  -5.22900 25.08200 30.29500
H  -7.98000 24.05400 29.63100
H  -5.41300 22.82700 30.35200
H  -6.35000 21.85600 29.21900
H  -7.16300 22.34300 30.63200
H  -7.95900 26.24600 30.28900
H  -6.59600 27.31800 30.04900
H  -7.69300 26.47200 32.44000
H  -6.20400 27.37500 32.17500
H  -9.56700 19.98900 25.62600
H  -10.82200 21.05700 25.72700
H  -9.72700 21.17100 27.00500
H  -11.22700 20.72000 23.57500
H  -9.90900 19.68900 23.07200
H  -11.19800 20.21600 21.96300
H  -7.00200 25.95100 20.00500
H  -4.19200 26.69800 20.53000
H  -6.09100 23.89300 19.35200
H  -4.77500 24.12000 20.44400
H  -4.80000 25.24500 19.07600
H  -5.99600 28.92900 21.59900
H  -6.70500 28.15500 20.21100
H  -5.57900 29.31200 18.82900
H  -4.07600 28.57600 19.35000
H  -4.66400 30.11700 20.09400
H  -1.39000 29.57600 25.56400
H  -2.46200 30.15000 24.37400
H  -1.34100 28.73500 24.04100
H  -4.45400 28.09700 29.65000
H  -1.50100 25.73200 31.79100
H  -2.53000 26.44500 32.97700
H  -1.14100 27.38000 32.19600

