158

Mg 25.95900 0.12400 28.69900
C  27.71200 -0.36000 31.72300
C  23.04400 0.52700 30.59300
C  24.22500 0.43700 25.77800
C  28.81800 -0.69700 27.02500
N  25.47800 -0.01400 30.86800
C  26.42000 0.02700 31.91600
C  25.77300 0.34700 33.25700
C  24.18400 0.29900 32.87800
C  24.21700 0.25100 31.34200
C  23.30500 -0.85500 33.56000
C  26.34600 1.62100 34.00600
C  26.99200 1.38100 35.37700
H  26.67700 2.30600 36.55200
N  23.98100 0.45300 28.25400
C  22.89900 0.57000 29.19000
C  21.69400 0.86200 28.42200
C  21.98700 0.80000 27.01900
C  23.43800 0.59100 26.95900
C  20.38900 1.17600 29.11900
C  21.09500 1.04300 25.77200
O  21.43900 0.86900 24.58200
C  19.58500 1.40900 25.99300
N  26.45500 -0.15300 26.74000
C  25.53700 -0.07300 25.68400
C  26.22200 -0.55200 24.42900
C  27.78300 -0.60400 24.80200
C  27.69800 -0.41300 26.26600
C  25.76100 -1.87900 23.86000
C  28.69300 0.51000 24.13300
C  29.99300 -0.03200 23.52800
N  27.98000 -0.47600 29.22900
C  29.01900 -0.74200 28.43900
C  30.24100 -0.96800 29.25300
C  29.77300 -0.82400 30.54300
C  28.36800 -0.57200 30.47300
C  31.63400 -1.16900 28.77400
C  30.08700 -0.87200 31.97700
O  31.15200 -1.14100 32.57300
C  28.74700 -0.45800 32.71800
C  28.45800 -1.50200 33.82500
O  27.90400 -2.54400 33.69800
O  29.22200 -1.23300 34.95800
C  29.11300 -2.14500 36.09400
H  22.15900 0.78200 31.18000
H  23.72500 0.56100 24.81500
H  29.70200 -0.91400 26.42200
H  26.01700 -0.58900 33.75800
H  23.74800 1.22100 33.26400
H  22.77700 -1.47700 32.83800
H  22.52400 -0.21300 33.96900
H  23.86800 -1.42800 34.29700
H  25.49700 2.26100 34.24800
H  27.02100 2.13600 33.32200
H  28.06100 1.48500 35.19100
H  26.73200 0.36800 35.68400
H  20.29300 2.26100 29.14600
H  20.46600 0.86400 30.16100
H  19.58400 0.73400 28.53300
H  19.07000 0.64100 26.57100
H  19.15000 1.57900 25.00800
H  19.62100 2.36100 26.52200
H  26.16200 0.21300 23.65400
H  28.28400 -1.56900 24.71800
H  24.80000 -2.22800 24.23900
H  26.53900 -2.63000 23.99400
H  25.63800 -1.85200 22.77700
H  29.05300 1.28400 24.81000
H  28.17500 0.99400 23.30500
H  29.94600 -0.52000 22.55400
H  30.53700 -0.77700 24.10800
H  30.69100 0.80500 23.55500
H  31.87600 -2.15100 29.18000
H  32.42900 -0.48400 29.06900
H  31.73100 -1.25300 27.69200
H  28.92800 0.49600 33.21500
H  30.05000 -2.18400 36.65000
H  28.76900 -3.14300 35.82300
H  28.35300 -1.69600 36.73300
Mg -1.50800 34.35000 26.62900
C  -2.89300 32.66600 29.31600
C  0.12000 36.35900 28.69900
C  -0.67500 36.26300 23.87300
C  -3.54800 32.37500 24.35600
N  -1.46200 34.55900 28.77500
C  -2.07500 33.72600 29.69100
C  -1.66900 34.00100 31.12200
C  -0.75500 35.26900 30.93500
C  -0.65400 35.44300 29.40100
C  -1.24200 36.64000 31.60600
C  -1.02200 32.83900 31.97200
C  -1.51200 32.69400 33.42500
H  -0.46200 32.56500 34.51100
N  -0.33100 36.03900 26.32700
C  0.22700 36.70700 27.35800
C  1.20300 37.66000 26.75000
C  1.05600 37.63700 25.32200
C  -0.06600 36.64100 25.12300
C  2.04900 38.58900 27.55000
C  1.79900 38.30000 24.21100
O  1.48400 38.14900 23.05800
C  3.01200 39.21500 24.57500
N  -1.98200 34.31200 24.40200
C  -1.58700 35.24500 23.50100
C  -2.23300 35.04000 22.14600
C  -3.03600 33.70900 22.35300
C  -2.82700 33.44800 23.82100
C  -3.08200 36.29000 21.73200
C  -2.68500 32.48600 21.45900
C  -1.44900 31.68500 21.85700
N  -2.91800 32.80600 26.73300
C  -3.51100 32.02200 25.75700
C  -4.29700 30.97400 26.37200
C  -4.05300 31.19100 27.71400
C  -3.22000 32.32000 27.91600
C  -5.14800 29.90100 25.73100
C  -4.38700 30.74900 28.96600
O  -5.15300 29.87300 29.30100
C  -3.58800 31.57200 30.11200
C  -4.54300 32.11000 31.07500
O  -4.99000 33.20900 30.99600
O  -4.77300 31.23100 32.09000
C  -5.51700 31.68000 33.24600
H  0.76000 36.89500 29.40300
H  -0.63500 36.98300 23.05300
H  -4.18200 31.83700 23.64800
H  -2.52100 34.39700 31.67400
H  0.21600 35.01300 31.35900
H  -2.09000 36.45300 32.26400
H  -1.51400 37.33600 30.81200
H  -0.40700 36.93300 32.24300
H  0.05400 32.93600 32.11600
H  -1.25700 32.01600 31.29700
H  -2.23800 31.88800 33.53500
H  -2.00100 33.65600 33.57900
H  3.04500 38.14700 27.58500
H  1.63200 38.75100 28.54300
H  1.99500 39.53900 27.01900
H  3.66100 38.50700 25.09100
H  2.75500 40.11200 25.13900
H  3.42800 39.44900 23.59600
H  -1.45200 34.83700 21.41400
H  -4.10200 33.83600 22.16300
H  -2.91300 37.03200 22.51200
H  -4.16000 36.13300 21.70000
H  -2.63300 36.74800 20.85100
H  -2.44300 33.05200 20.55900
H  -3.64100 31.99100 21.28700
H  -1.70900 30.64100 22.03200
H  -1.06300 32.04200 22.81200
H  -0.74400 31.74200 21.02700
H  -4.56800 29.58500 24.86400
H  -6.19200 30.21000 25.67600
H  -5.13400 29.13900 26.51000
H  -2.94200 30.89200 30.66600
H  -4.95700 32.41200 33.82800
H  -5.77300 30.86500 33.92300
H  -6.40800 32.28100 33.06400

