158

Mg 35.74000 3.58200 30.15300
C  33.14300 4.09000 32.63700
C  37.97600 3.38100 32.70800
C  37.95800 2.81100 27.82700
C  33.30300 3.98600 27.59900
N  35.56400 3.94000 32.44900
C  34.44200 4.01500 33.19200
C  34.83500 3.95900 34.74800
C  36.39100 4.08600 34.69400
C  36.72300 3.69300 33.21300
C  37.08100 5.43400 35.14100
C  34.41900 2.65600 35.39900
C  33.74700 2.71000 36.76400
H  34.31600 3.72000 37.70000
N  37.75200 3.18500 30.31200
C  38.52800 3.21000 31.45300
C  39.88800 2.98600 30.98000
C  39.84600 2.61400 29.57500
C  38.45500 2.88700 29.17100
C  41.14100 3.12500 31.85300
C  40.91900 2.12500 28.62500
O  40.67100 2.02900 27.43100
C  42.38700 1.99500 29.06500
N  35.75500 3.71700 27.98600
C  36.79500 3.16400 27.22900
C  36.37100 2.90400 25.75200
C  34.85100 3.21100 25.79000
C  34.59000 3.65600 27.23400
C  37.13500 3.80700 24.81500
C  34.11100 1.87900 25.52600
C  33.09000 1.82700 24.37700
N  33.67600 4.07300 30.09400
C  32.80500 4.15700 28.96800
C  31.41900 4.33100 29.42400
C  31.50400 4.35800 30.83000
C  32.86600 4.15800 31.19100
C  30.16300 4.29000 28.52600
C  30.74500 4.39500 32.12100
O  29.55200 4.53900 32.24800
C  31.80500 4.23700 33.30400
C  31.71300 5.46500 34.13500
O  32.17700 6.54700 33.83200
O  31.24100 5.07000 35.33900
C  31.17600 6.08500 36.38700
H  38.74300 3.27600 33.47800
H  38.60300 2.57800 26.97700
H  32.48400 3.94300 26.87800
H  34.37000 4.81800 35.23200
H  36.82900 3.33400 35.35000
H  37.91200 5.71800 34.49600
H  37.50200 5.37500 36.14500
H  36.34400 6.23800 35.15700
H  35.28700 1.99800 35.44300
H  33.83200 2.17000 34.62000
H  33.87200 1.69900 37.15100
H  32.67600 2.84900 36.61500
H  41.49800 2.11800 32.06800
H  40.95500 3.66500 32.78100
H  41.94500 3.60200 31.29200
H  43.07600 1.58200 28.32800
H  42.28800 1.40300 29.97500
H  42.67700 3.01800 29.30600
H  36.63900 1.87800 25.50100
H  34.49100 3.99900 25.12900
H  36.45700 4.39500 24.19600
H  37.64200 3.12200 24.13600
H  37.81300 4.49100 25.32500
H  33.60500 1.50300 26.41500
H  34.72500 1.03100 25.22300
H  32.98100 2.75000 23.80700
H  32.16400 1.40700 24.77000
H  33.37200 1.15700 23.56500
H  30.09900 5.27400 28.06200
H  29.23200 4.20200 29.08700
H  30.26000 3.46400 27.82100
H  31.65900 3.40100 33.98800
H  30.47900 6.84700 36.03700
H  32.13600 6.57500 36.54900
H  30.69100 5.69000 37.28000
Mg 47.39900 25.32500 28.48200
C  48.08200 27.38800 31.22000
C  47.04400 22.75000 30.70300
C  46.99900 23.26900 25.86600
C  48.13900 27.82500 26.30700
N  47.74000 25.06600 30.73600
C  47.73200 26.12400 31.62100
C  47.43400 25.61600 33.00700
C  47.18800 24.06200 32.87000
C  47.39600 23.89100 31.37200
C  48.17500 23.23600 33.76600
C  46.25900 26.40300 33.75600
C  45.86400 26.00700 35.17200
H  45.96300 27.08300 36.24000
N  46.96400 23.34300 28.30900
C  46.87300 22.42100 29.31700
C  46.54500 21.05900 28.83900
C  46.42300 21.23200 27.37500
C  46.71800 22.69900 27.15400
C  46.51700 19.75600 29.67000
C  46.06300 20.21400 26.34000
O  46.13600 20.41900 25.15200
C  45.62500 18.84500 26.85300
N  47.58000 25.53400 26.35900
C  47.47600 24.51300 25.51900
C  47.59500 24.96300 24.05900
C  47.72500 26.52300 24.25600
C  47.80800 26.64000 25.73700
C  48.72000 24.36600 23.24800
C  46.52700 27.26900 23.59400
C  46.98100 28.59800 22.90800
N  48.10300 27.19600 28.68200
C  48.39000 28.08900 27.65200
C  48.84100 29.37000 28.30600
C  48.70200 29.12700 29.71400
C  48.24400 27.78500 29.82800
C  49.52200 30.48800 27.62300
C  48.88700 29.74500 31.04400
O  49.37000 30.79700 31.42100
C  48.25800 28.69800 32.02600
C  49.23900 28.44000 33.12600
O  50.36800 28.04700 32.92700
O  48.75000 28.81200 34.38700
C  49.55000 28.36400 35.54300
H  46.83200 21.98200 31.45000
H  46.76900 22.58100 25.05000
H  48.39100 28.58200 25.56100
H  48.31000 25.77300 33.63700
H  46.14300 23.87800 33.12300
H  47.69100 22.31900 34.10400
H  48.43400 23.69200 34.72200
H  49.07200 23.01800 33.18800
H  45.37400 26.40800 33.12000
H  46.56500 27.44900 33.74200
H  46.50300 25.16200 35.42800
H  44.88200 25.57300 34.98300
H  45.54300 19.45000 30.05100
H  47.17500 19.82200 30.53700
H  46.93300 18.96300 29.04800
H  45.08300 18.36700 26.03700
H  44.93300 18.89300 27.69400
H  46.50900 18.23200 27.03300
H  46.63200 24.61700 23.68300
H  48.63700 26.84900 23.75700
H  49.45900 25.16300 23.15800
H  48.40200 23.94400 22.29500
H  49.15800 23.57800 23.86100
H  45.80300 27.36800 24.40300
H  46.05400 26.74700 22.76200
H  48.04700 28.82400 22.90000
H  46.47300 29.48900 23.27600
H  46.75400 28.56100 21.84300
H  50.39200 30.81300 28.19400
H  48.89300 31.34100 27.87700
H  49.65900 30.20000 26.58100
H  47.38600 29.11600 32.53000
H  50.40900 29.01100 35.71800
H  49.98000 27.37400 35.38800
H  48.93700 28.37100 36.44400

