158

Mg -2.26600 18.51300 27.16500
C  -2.96300 16.24000 29.88600
C  -3.22100 21.02400 29.25500
C  -1.96500 20.40800 24.45200
C  -2.21300 15.60800 25.07500
N  -3.07600 18.59100 29.34200
C  -3.10000 17.59400 30.26700
C  -3.45000 18.08000 31.62900
C  -3.67900 19.61600 31.38700
C  -3.30900 19.74200 29.90700
C  -5.01800 20.30100 31.70100
C  -2.34600 17.91100 32.68600
C  -2.80600 17.23200 34.01300
H  -1.73300 17.21600 35.15300
N  -2.47600 20.40700 26.90700
C  -2.85700 21.32300 27.87600
C  -2.79100 22.64600 27.20200
C  -2.22800 22.48800 25.89500
C  -2.26800 21.05700 25.67500
C  -3.16700 23.88500 28.03900
C  -1.69700 23.58800 24.98900
O  -1.36300 23.36900 23.80700
C  -1.57600 25.01700 25.49500
N  -2.08200 18.06200 25.07700
C  -1.90900 19.03600 24.18900
C  -1.88100 18.36300 22.79700
C  -1.63600 16.91000 23.07300
C  -2.11000 16.85200 24.44700
C  -3.22400 18.58300 22.07100
C  -0.19800 16.32500 22.91700
C  0.92000 17.20900 23.64500
N  -2.54900 16.38900 27.34300
C  -2.41800 15.37600 26.35200
C  -2.71700 14.07600 27.09100
C  -2.87000 14.38000 28.44400
C  -2.81200 15.75600 28.54600
C  -2.85800 12.80200 26.35600
C  -3.04100 13.80700 29.77900
O  -3.22800 12.66200 30.05300
C  -3.15000 15.02300 30.79000
C  -2.06200 14.87100 31.76200
O  -0.94200 15.37300 31.71500
O  -2.37900 13.97500 32.69600
C  -1.34000 13.68500 33.66800
H  -3.49900 21.87800 29.87600
H  -1.90000 20.93300 23.49700
H  -2.03700 14.66200 24.55900
H  -4.38600 17.55100 31.80200
H  -2.85700 20.15000 31.86300
H  -5.59500 19.69200 32.39700
H  -5.76100 20.30900 30.90300
H  -4.86400 21.28100 32.15400
H  -2.15100 18.91100 33.07200
H  -1.42700 17.53200 32.23900
H  -3.34100 16.29300 33.87500
H  -3.53400 17.91300 34.45200
H  -3.45300 23.63600 29.06100
H  -3.99500 24.35200 27.50500
H  -2.46400 24.69900 28.21300
H  -2.63900 25.23700 25.59500
H  -0.97300 25.58200 24.78500
H  -0.99300 25.03300 26.41600
H  -1.07000 18.79900 22.21400
H  -2.28800 16.28200 22.46600
H  -4.00100 19.02700 22.69400
H  -3.72500 17.67100 21.74800
H  -3.07200 19.33400 21.29500
H  0.16400 16.15700 21.90300
H  -0.23400 15.29400 23.26700
H  0.57700 17.15600 24.67800
H  0.88600 18.25200 23.32900
H  1.94700 16.84500 23.65700
H  -1.93400 12.46400 25.88700
H  -3.58700 12.87000 25.54900
H  -3.21200 12.06900 27.08200
H  -4.16700 14.98900 31.18100
H  -1.73700 12.97900 34.39800
H  -1.12400 14.56300 34.27700
H  -0.44700 13.44800 33.08900
Mg 16.33400 52.32000 26.49500
C  17.99300 50.96000 29.17400
C  13.71400 53.20800 28.51000
C  14.76500 53.52100 23.77500
C  18.69200 50.83100 24.34200
N  15.86600 51.95600 28.61000
C  16.83900 51.62000 29.53300
C  16.37800 51.99400 30.96400
C  14.90300 52.52000 30.75800
C  14.77900 52.54900 29.22900
C  13.71200 51.59100 31.26800
C  17.31900 53.05800 31.62000
C  17.33900 53.18200 33.20400
H  16.43000 52.31000 34.03500
N  14.51500 53.28100 26.23800
C  13.55700 53.50700 27.13800
C  12.39500 54.17100 26.49300
C  12.77000 54.37200 25.10500
C  14.04000 53.74100 24.97700
C  11.22600 54.56200 27.31300
C  12.03800 55.03900 24.02200
O  12.46800 55.20400 22.86600
C  10.82800 55.67000 24.33300
N  16.64100 52.15400 24.42000
C  15.82000 52.80000 23.48700
C  16.33700 52.60200 22.04300
C  17.66200 51.76400 22.27400
C  17.65600 51.55700 23.77000
C  15.34900 52.02500 20.94100
C  18.93400 52.61700 21.84500
C  20.05400 51.87100 21.20000
N  18.03800 51.12400 26.65900
C  18.93400 50.64900 25.73300
C  20.06100 49.98900 26.33100
C  19.72900 50.14000 27.69200
C  18.46900 50.77900 27.85800
C  21.17700 49.19900 25.70100
C  20.12000 49.80200 29.08500
O  21.12900 49.27400 29.52600
C  19.04700 50.33900 30.01700
C  18.46200 49.39000 31.04500
O  17.64800 48.50200 30.88000
O  18.95200 49.65700 32.31500
C  18.50200 48.71900 33.35700
H  13.04500 53.63400 29.26000
H  14.31200 53.80500 22.82300
H  19.39200 50.35600 23.65300
H  16.37900 51.12400 31.62000
H  14.77600 53.47400 31.27000
H  14.13800 50.69000 31.70900
H  13.06200 51.32100 30.43600
H  13.12600 52.08700 32.04200
H  17.05800 54.00000 31.13900
H  18.32700 52.77600 31.31600
H  17.17800 54.24500 33.37900
H  18.35800 52.87700 33.44400
H  11.09700 55.63400 27.16300
H  11.31200 54.39400 28.38700
H  10.29300 54.08600 27.01200
H  10.25700 54.91300 24.87000
H  10.34700 55.96400 23.40000
H  11.07200 56.58400 24.87400
H  16.54000 53.60800 21.67400
H  17.66300 50.80600 21.75500
H  14.54500 51.48900 21.44400
H  15.96500 51.52500 20.19300
H  14.92600 52.86500 20.38900
H  19.32000 53.14700 22.71600
H  18.62200 53.41200 21.16900
H  20.12900 52.11500 20.14000
H  19.89000 50.79700 21.29700
H  20.94500 52.23500 21.71100
H  21.15100 49.31500 24.61800
H  21.04200 48.15900 25.99800
H  22.16000 49.56100 26.00300
H  19.53600 51.16000 30.54300
H  19.25800 48.77300 34.14100
H  18.60100 47.69300 33.00300
H  17.48200 48.84700 33.72000

