158

Mg 40.65700 9.03600 29.49700
C  42.14500 10.55100 32.20300
C  38.30500 7.64000 31.71600
C  39.03300 7.70200 26.93500
C  43.07000 10.35800 27.43300
N  40.32300 9.05200 31.73200
C  41.05400 9.77700 32.60500
C  40.50100 9.56700 34.00500
C  39.33900 8.51300 33.83800
C  39.34600 8.25300 32.35500
C  39.43200 7.26900 34.69100
C  40.11000 10.98300 34.65500
C  39.38600 10.90900 35.99900
H  39.78600 11.78500 37.21000
N  38.93000 7.82700 29.36800
C  38.15200 7.38600 30.33700
C  37.01700 6.71300 29.78600
C  37.20400 6.63700 28.37800
C  38.43200 7.39500 28.16100
C  35.89100 6.04800 30.62200
C  36.44800 5.87900 27.27800
O  36.80200 5.87800 26.14900
C  35.15100 5.18700 27.62200
N  41.04300 8.92400 27.38700
C  40.22800 8.33200 26.56700
C  40.75600 8.55700 25.08200
C  41.93100 9.54500 25.21600
C  42.01200 9.66800 26.75700
C  41.01700 7.21900 24.38600
C  41.60800 10.90000 24.43700
C  40.50600 11.82700 24.97200
N  42.29600 10.07200 29.71800
C  43.20600 10.49900 28.82100
C  44.21800 11.39500 29.43800
C  43.83100 11.46200 30.80200
C  42.68900 10.64600 30.92500
C  45.34900 12.12500 28.72300
C  44.17200 11.98000 32.04200
O  45.13900 12.59800 32.34100
C  43.08200 11.39400 33.05900
C  43.72200 10.47200 34.06600
O  44.26200 9.38200 33.81600
O  43.64400 11.05100 35.31400
C  44.20500 10.34300 36.42600
H  37.61500 7.19000 32.43200
H  38.39900 7.62300 26.04900
H  43.79700 10.68800 26.68800
H  41.32700 9.07800 34.52100
H  38.40100 8.99000 34.12200
H  40.27000 7.27400 35.38900
H  39.57100 6.46900 33.96500
H  38.51300 7.08200 35.24500
H  39.54900 11.48000 33.86400
H  40.90800 11.69600 34.86600
H  39.50100 9.86700 36.29800
H  38.30800 10.96200 35.84800
H  36.27200 5.76500 31.60300
H  35.55800 5.07700 30.25300
H  35.03500 6.70500 30.76900
H  34.45800 5.90900 28.05300
H  35.37500 4.37300 28.31100
H  34.71200 4.78300 26.71000
H  39.88100 8.89900 24.52900
H  42.87600 9.07700 24.93900
H  42.06700 7.15000 24.10000
H  40.41600 7.06400 23.49000
H  40.82800 6.39600 25.07600
H  41.45600 10.67600 23.38100
H  42.52900 11.45700 24.26600
H  40.88100 12.79000 25.32000
H  40.02900 11.39700 25.85300
H  39.69700 11.79000 24.24200
H  45.88600 12.74000 29.44600
H  44.92700 12.88500 28.06600
H  45.96100 11.41000 28.17400
H  42.43500 12.16400 33.47900
H  43.79900 9.33200 36.46100
H  44.05200 10.76600 37.41900
H  45.28000 10.18700 36.33500
Mg 30.67400 58.63500 39.76400
C  27.92100 56.54100 38.90000
C  32.74200 56.14000 38.75100
C  33.18000 60.89400 39.86000
C  28.40400 61.29500 40.15400
N  30.31100 56.54100 38.74200
C  29.12600 55.87000 38.71600
C  29.31600 54.41900 38.44000
C  30.87600 54.29100 38.60900
C  31.37600 55.75300 38.67200
C  31.32200 53.26900 39.70600
C  28.80500 53.70200 37.17500
C  29.17500 54.34300 35.82600
H  28.11900 54.93200 34.93600
N  32.66900 58.52700 39.47200
C  33.34100 57.39400 38.97700
C  34.69500 57.71400 38.71700
C  34.94300 59.07200 39.10300
C  33.58800 59.57900 39.51800
C  35.65000 56.79500 38.08200
C  36.32900 59.78000 39.15600
O  37.29100 59.15300 38.67500
C  36.61200 61.14100 39.79300
N  30.83300 60.75800 40.24200
C  31.95800 61.43900 40.26600
C  31.72200 62.91200 40.47500
C  30.15300 63.04500 40.66400
C  29.74300 61.59400 40.24600
C  32.62100 63.47900 41.65200
C  29.50700 64.16400 39.86600
C  28.43000 64.89500 40.62400
N  28.64400 58.93200 39.54100
C  27.86400 60.07700 39.73200
C  26.47600 59.68200 39.57600
C  26.46800 58.34000 39.33100
C  27.78400 57.95500 39.23700
C  25.34800 60.62600 39.89800
C  25.58200 57.18800 39.07100
O  24.37800 57.17800 39.04300
C  26.47000 55.90800 38.84400
C  26.22600 54.90400 39.93200
O  26.85900 54.87400 40.98600
O  25.02700 54.19100 39.72100
C  24.62100 53.55000 40.99000
H  33.43600 55.30300 38.64700
H  33.93100 61.67600 39.73200
H  27.60700 62.02400 40.31300
H  28.65200 54.00600 39.19900
H  31.27500 53.83100 37.70500
H  31.70400 52.32300 39.32300
H  30.42700 53.05000 40.28900
H  32.03200 53.79300 40.34700
H  27.71700 53.67100 37.23800
H  29.26100 52.71500 37.10000
H  29.67300 53.49600 35.35400
H  29.95900 55.06500 36.05700
H  35.80300 57.03400 37.03000
H  35.40500 55.73500 38.01300
H  36.59800 56.86700 38.61400
H  36.02500 61.04600 40.70600
H  36.27500 61.89600 39.08400
H  37.65800 61.31900 40.04200
H  32.13100 63.27900 39.53300
H  29.98800 63.21300 41.72900
H  31.94600 64.06200 42.27800
H  33.33300 64.19300 41.23700
H  33.16000 62.84400 42.35500
H  29.15000 63.80600 38.90000
H  30.34700 64.82600 39.65400
H  28.35900 64.79300 41.70700
H  27.42600 64.73300 40.23100
H  28.60900 65.95900 40.47100
H  25.33700 60.81000 40.97200
H  24.35000 60.26100 39.65700
H  25.67300 61.52900 39.37900
H  26.45300 55.50000 37.83300
H  24.17700 54.33700 41.60000
H  25.48000 53.18300 41.55100
H  24.01900 52.65800 40.82000

