158

Mg 47.55700 45.86800 42.95600
C  44.29800 45.03200 41.83700
C  48.75900 43.17900 40.95300
C  50.78500 46.83500 43.33100
C  46.41500 48.88800 43.86300
N  46.67100 44.25400 41.48300
C  45.30500 44.16800 41.20900
C  45.00400 42.98700 40.24000
C  46.35600 42.18900 40.42800
C  47.34000 43.19300 41.04100
C  46.24600 40.97000 41.41700
C  44.72200 43.49600 38.81500
C  43.30700 43.06400 38.24400
H  43.26500 41.80700 37.29200
N  49.45100 45.00700 42.35000
C  49.72700 43.95800 41.50400
C  51.16600 43.74900 41.45600
C  51.75400 44.71000 42.26700
C  50.68000 45.60800 42.67600
C  51.80500 42.63400 40.64300
C  53.26300 44.86200 42.52300
O  54.01400 43.99900 42.10000
C  53.86700 45.94900 43.40200
N  48.49000 47.69900 43.32500
C  49.84500 47.80000 43.63200
C  50.11100 49.15200 44.21500
C  48.73700 49.87700 44.23300
C  47.78200 48.74500 43.74300
C  50.77000 49.06900 45.63200
C  48.57300 51.04700 43.18200
C  47.64500 52.14600 43.77500
N  45.71900 46.75100 43.05400
C  45.40500 47.94700 43.66200
C  43.97100 48.09700 43.76200
C  43.47800 46.95200 43.04000
C  44.62500 46.14700 42.64300
C  43.10600 49.16100 44.40200
C  42.31000 46.29400 42.51400
O  41.14000 46.71700 42.53000
C  42.80400 45.02600 41.68400
C  42.10000 43.86400 42.22900
O  41.13100 43.35200 41.68300
O  42.77500 43.33200 43.25300
C  42.35000 41.98700 43.62100
H  49.01300 42.26700 40.40900
H  51.78600 47.12400 43.65900
H  46.07300 49.82900 44.29700
H  44.12700 42.49700 40.66400
H  46.78800 41.87200 39.47900
H  45.47700 40.29700 41.03800
H  46.10600 41.28000 42.45200
H  47.19100 40.44600 41.26900
H  45.46400 43.08000 38.13300
H  44.76000 44.57900 38.69400
H  42.61900 43.82900 37.88500
H  42.84300 42.68700 39.15500
H  52.53200 43.01900 39.92700
H  51.12400 41.95100 40.13600
H  52.20900 41.87000 41.30700
H  53.63800 46.83100 42.80300
H  54.94100 45.76700 43.37500
H  53.47500 45.95900 44.41900
H  50.80900 49.53400 43.47000
H  48.33200 50.15400 45.20600
H  51.81100 48.83900 45.40400
H  50.18400 48.28400 46.10900
H  50.62600 49.97400 46.22200
H  48.01200 50.70300 42.31300
H  49.55400 51.24400 42.75000
H  46.80700 52.21000 43.08100
H  48.13100 53.12100 43.76500
H  47.32900 52.07500 44.81600
H  42.67600 49.75100 43.59200
H  43.80100 49.82600 44.91500
H  42.27800 48.78300 45.00200
H  42.50900 44.92100 40.64000
H  42.47300 41.23000 42.84700
H  41.35700 41.82300 44.03900
H  42.91600 41.54400 44.44000
Mg -11.46800 15.65000 41.15000
C  -7.88600 15.13000 40.90200
C  -10.91600 18.86400 40.15500
C  -14.70100 15.83000 40.72800
C  -11.68700 12.15500 41.66500
N  -9.57700 16.79700 40.51900
C  -8.24500 16.43600 40.56900
C  -7.32900 17.50900 39.98500
C  -8.35600 18.72100 39.91900
C  -9.73300 18.08500 40.18200
C  -8.12800 19.79400 41.00600
C  -6.67200 17.10400 38.67800
C  -5.23800 17.36500 38.52500
H  -4.62600 17.52200 37.15800
N  -12.63200 17.16200 40.61300
C  -12.25400 18.46200 40.31200
C  -13.33900 19.29800 40.31200
C  -14.50600 18.51500 40.39600
C  -14.01400 17.07000 40.57800
C  -13.18800 20.74000 40.01800
C  -15.96500 18.99800 40.26500
O  -16.15300 20.21000 40.16700
C  -17.18400 18.08300 40.40200
N  -12.92700 14.11400 41.09900
C  -14.27800 14.47900 40.95600
C  -15.12100 13.38400 41.38800
C  -14.17600 12.15500 41.19400
C  -12.84700 12.86800 41.35800
C  -15.80000 13.62600 42.76800
C  -14.49100 11.28900 39.95300
C  -15.13900 9.92400 40.29900
N  -10.12900 13.94800 41.29300
C  -10.39600 12.62700 41.58300
C  -9.14900 11.85300 41.74000
C  -8.12700 12.85400 41.49100
C  -8.81700 14.10000 41.22600
C  -9.00500 10.36600 42.18200
C  -6.69700 13.06800 41.45200
O  -5.73800 12.40000 41.80600
C  -6.54700 14.53700 41.03300
C  -5.76700 15.16900 42.14900
O  -6.19600 15.36900 43.27000
O  -4.39900 15.27800 41.87200
C  -3.39200 15.47500 42.94100
H  -10.74500 19.87600 39.78200
H  -15.78300 15.93400 40.82500
H  -11.93300 11.10800 41.85200
H  -6.56200 17.70500 40.73400
H  -8.36600 19.18300 38.93200
H  -7.05900 20.00600 40.98100
H  -8.43500 19.41300 41.98000
H  -8.69200 20.70700 40.81500
H  -7.22900 17.68900 37.94700
H  -6.82400 16.03700 38.51500
H  -4.66200 16.69500 39.16200
H  -5.11900 18.29500 39.08100
H  -14.07400 21.35000 39.84400
H  -12.50300 20.91100 39.18800
H  -12.76800 21.25800 40.88000
H  -18.07000 18.68700 40.20700
H  -17.21200 17.69100 41.41900
H  -17.01900 17.20700 39.77400
H  -16.01600 13.31600 40.77000
H  -14.24300 11.65300 42.15900
H  -15.24500 13.29500 43.64600
H  -16.86400 13.39200 42.79500
H  -15.63600 14.69600 42.89400
H  -13.57900 11.07500 39.39500
H  -15.15600 11.96500 39.41500
H  -14.38400 9.14200 40.37800
H  -15.92000 9.72500 39.56500
H  -15.62200 9.97400 41.27500
H  -9.63000 9.86000 41.44700
H  -9.55700 10.31600 43.12000
H  -7.94400 10.12200 42.11600
H  -6.00200 14.48800 40.09000
H  -2.85100 16.39800 42.73200
H  -2.83200 14.55800 43.12700
H  -3.90200 15.68600 43.88100

