158

Mg 16.56700 -1.92400 28.11800
C  15.45500 0.01200 31.00000
C  18.71200 -3.49400 30.20100
C  17.76900 -3.29100 25.36000
C  14.89900 0.55100 26.14200
N  17.03800 -1.67800 30.29800
C  16.53600 -0.85600 31.27500
C  17.17200 -1.09100 32.60700
C  18.24600 -2.12900 32.30600
C  18.06200 -2.42000 30.84800
C  19.70600 -1.72100 32.70900
C  16.15800 -1.61700 33.69400
C  16.20700 -0.97600 35.10900
H  17.53200 -0.23400 35.47400
N  17.88200 -3.36100 27.84300
C  18.55800 -3.99400 28.87300
C  19.14400 -5.23200 28.31600
C  18.93400 -5.19500 26.88800
C  18.09600 -3.94300 26.63700
C  19.83100 -6.21700 29.20700
C  19.38500 -6.18000 25.83400
O  19.06300 -6.04900 24.68400
C  20.18000 -7.43800 26.24800
N  16.29400 -1.47700 26.05400
C  17.02100 -2.17000 25.12100
C  16.89200 -1.45300 23.74100
C  15.74700 -0.45300 23.92800
C  15.61300 -0.44200 25.41100
C  18.27600 -0.91800 23.25300
C  14.43100 -0.78300 23.18600
C  14.20000 -0.03900 21.84100
N  15.23200 -0.26900 28.38500
C  14.60700 0.56300 27.49600
C  13.83500 1.57400 28.17100
C  14.10100 1.36300 29.56700
C  14.99600 0.22700 29.66500
C  13.14700 2.70100 27.56600
C  13.87400 1.89300 30.91600
O  13.18300 2.88800 31.27500
C  14.78500 0.99200 31.95400
C  15.67600 2.05200 32.62500
O  16.84600 2.41900 32.38200
O  14.99800 2.65400 33.70500
C  15.69100 3.66200 34.48200
H  19.44700 -4.08000 30.75700
H  18.20100 -3.82600 24.51200
H  14.34500 1.21000 25.47000
H  17.61000 -0.15800 32.96100
H  18.16300 -3.01800 32.93100
H  20.37600 -1.71100 31.85000
H  20.03200 -2.41500 33.48400
H  19.73300 -0.77100 33.24200
H  16.20700 -2.69200 33.86700
H  15.18700 -1.44500 33.23100
H  15.77300 -1.63900 35.85600
H  15.47600 -0.16800 35.13400
H  19.22000 -6.42500 30.08600
H  20.76500 -5.80400 29.58600
H  19.92800 -7.22100 28.79500
H  19.41100 -8.02100 26.75500
H  21.08600 -7.20700 26.80800
H  20.37700 -7.96500 25.31400
H  16.64900 -2.28100 23.07500
H  16.09600 0.54600 23.66800
H  18.17100 0.15900 23.12300
H  18.63600 -1.37100 22.32900
H  19.04500 -1.08600 24.00700
H  13.62800 -0.47600 23.85500
H  14.40100 -1.87100 23.11400
H  15.12700 0.38300 21.45100
H  13.66000 0.84800 22.17200
H  13.51600 -0.65500 21.25800
H  13.22500 3.48100 28.32300
H  12.11500 2.38500 27.41800
H  13.43700 3.04600 26.57300
H  14.09500 0.47900 32.62400
H  15.67200 4.53600 33.83100
H  16.72400 3.39200 34.70300
H  15.13200 3.88600 35.39000
Mg 49.04400 35.75300 27.80000
C  46.80600 33.98600 29.97300
C  49.03300 38.38200 29.81400
C  50.52600 37.47500 25.44300
C  48.14100 33.22700 25.34900
N  48.08500 36.08600 29.69900
C  47.29600 35.20900 30.51200
C  47.48600 35.67600 31.96600
C  47.79200 37.26500 31.85200
C  48.29900 37.26500 30.35500
C  46.58300 38.17800 31.94400
C  48.64200 34.85100 32.63500
C  48.57400 34.74500 34.12400
H  47.94900 35.76100 35.09500
N  49.90500 37.58500 27.71900
C  49.87000 38.49900 28.66500
C  50.60500 39.63700 28.23800
C  51.02400 39.50800 26.90900
C  50.53900 38.12900 26.62700
C  50.93200 40.83900 29.20000
C  51.78400 40.46500 25.92100
O  52.12300 40.06500 24.79400
C  52.11600 41.88100 26.31900
N  49.35600 35.37400 25.74100
C  49.96400 36.27400 24.96400
C  50.01000 35.95900 23.45000
C  49.48200 34.42800 23.51200
C  48.90000 34.32800 24.95000
C  49.46200 36.96300 22.46500
C  50.69800 33.38000 23.22300
C  50.29000 32.35300 22.26700
N  47.86700 33.86100 27.69400
C  47.58700 33.01400 26.66600
C  46.70500 31.96500 27.04400
C  46.43000 32.29300 28.35000
C  47.13000 33.44500 28.69100
C  46.09200 30.80700 26.17600
C  45.53900 31.93000 29.48100
O  44.76900 30.96000 29.73800
C  45.71200 33.09700 30.56000
C  45.92000 32.60600 31.96400
O  46.90800 32.01000 32.41400
O  44.77800 33.00600 32.73500
C  44.77600 32.72200 34.19000
H  49.13200 39.34700 30.31400
H  51.04100 37.99700 24.63400
H  47.89500 32.36900 24.72100
H  46.58400 35.50200 32.55100
H  48.56600 37.71200 32.47500
H  46.71000 39.05200 32.58300
H  45.76500 37.52900 32.25500
H  46.42700 38.60100 30.95200
H  49.51100 35.46600 32.40100
H  48.80200 33.85800 32.21400
H  49.49500 34.45400 34.62800
H  47.84000 33.97400 34.35800
H  50.08000 41.50200 29.05100
H  51.86400 41.30500 28.87900
H  50.91000 40.62600 30.26900
H  52.22500 42.52600 25.44700
H  53.07800 41.98800 26.82000
H  51.28200 42.43800 26.74500
H  51.06200 35.97200 23.16600
H  48.69600 34.30000 22.76800
H  48.41200 37.16600 22.67700
H  49.67900 36.63100 21.44900
H  49.93200 37.91600 22.70800
H  51.16300 33.02400 24.14200
H  51.48900 33.99200 22.79000
H  50.97900 32.45200 21.42800
H  49.32800 32.49500 21.77600
H  50.28900 31.35400 22.70500
H  45.17600 30.40000 26.60300
H  46.90800 30.11300 25.97200
H  45.85400 31.20200 25.18800
H  44.84100 33.74700 30.48100
H  44.96600 31.66000 34.34400
H  43.76300 32.92800 34.53400
H  45.47500 33.31300 34.78200

