158

Mg 25.69500 1.88900 28.70300
C  27.58700 1.45500 31.81700
C  22.92700 2.31400 30.60600
C  23.93800 1.88000 25.98300
C  28.66300 0.90700 26.97400
N  25.28000 1.85300 31.00200
C  26.20600 1.76700 32.10900
C  25.50900 2.01600 33.46400
C  23.97800 2.06300 33.01600
C  24.06300 2.09800 31.47800
C  22.83200 1.11000 33.61200
C  26.02100 3.30600 34.23700
C  26.84500 3.11100 35.53000
H  26.51300 3.84900 36.81800
N  23.66900 2.18000 28.30600
C  22.68300 2.37900 29.19900
C  21.45700 2.58200 28.47800
C  21.70300 2.52500 27.12000
C  23.16900 2.29800 27.04700
C  20.21400 2.87300 29.22200
C  20.81900 2.75000 25.97400
O  21.24300 2.88700 24.84700
C  19.32000 2.93400 26.18800
N  26.19100 1.36200 26.80100
C  25.22700 1.34100 25.82400
C  25.90800 1.16700 24.39400
C  27.35300 0.75400 24.77500
C  27.46800 0.99600 26.21900
C  25.16000 0.17300 23.39700
C  28.42100 1.27100 23.81500
C  29.07300 2.63600 24.08300
N  27.72200 1.43000 29.12300
C  28.81400 1.05000 28.34500
C  29.90200 0.72100 29.15900
C  29.52500 0.92800 30.51500
C  28.15600 1.30400 30.47200
C  31.05600 -0.04400 28.74100
C  29.96200 0.81400 31.86800
O  31.04000 0.35400 32.25600
C  28.74100 1.26700 32.79400
C  28.55500 0.16400 33.80900
O  28.27000 -0.94700 33.44000
O  28.81700 0.64100 35.12100
C  28.50400 -0.35400 36.14700
H  22.09400 2.57600 31.26200
H  23.30500 1.94300 25.09500
H  29.61600 0.64000 26.51300
H  25.61600 1.10100 34.04700
H  23.59700 3.04400 33.30000
H  23.16800 0.60900 34.51900
H  22.79800 0.34800 32.83400
H  21.85300 1.55700 33.78400
H  25.24400 4.03100 34.47900
H  26.76000 3.84100 33.64200
H  27.87000 3.43400 35.35000
H  26.86500 2.05300 35.79400
H  19.80000 1.96300 29.65700
H  19.38900 3.33900 28.68200
H  20.46500 3.67700 29.91500
H  18.88900 2.16900 26.83500
H  18.82300 2.99100 25.22000
H  19.25600 3.93700 26.61100
H  25.97800 2.15400 23.93700
H  27.48000 -0.32800 24.81000
H  24.22900 -0.25300 23.77100
H  25.69300 -0.73100 23.10400
H  24.99900 0.61500 22.41400
H  28.12500 1.23800 22.76600
H  29.28900 0.63200 23.97800
H  30.15100 2.66100 24.24200
H  28.58400 3.08900 24.94600
H  28.87000 3.30600 23.24800
H  31.54100 -0.39100 29.65300
H  31.77500 0.53600 28.16400
H  30.72300 -0.81000 28.04000
H  28.99600 2.21000 33.27800
H  27.45200 -0.55300 36.34800
H  28.99800 -0.07900 37.07800
H  28.84000 -1.34000 35.82600
Mg 0.59900 43.06000 25.59300
C  1.84200 43.29600 28.69300
C  -2.59100 42.64500 26.90000
C  -0.53400 42.41000 22.48900
C  3.70500 43.77500 24.38400
N  -0.26400 42.95600 27.57700
C  0.45800 43.04400 28.72700
C  -0.44700 42.96800 29.97700
C  -1.85900 42.61400 29.37900
C  -1.59000 42.81500 27.83900
C  -2.48800 41.32600 29.84200
C  -0.45100 44.35400 30.70700
C  -0.37500 44.37200 32.26900
H  -0.49500 43.01100 33.03600
N  -1.31100 42.61000 24.76700
C  -2.48400 42.49600 25.47300
C  -3.60600 42.39700 24.54500
C  -3.03800 42.36500 23.26600
C  -1.57200 42.46700 23.45600
C  -5.08700 42.32900 24.86600
C  -3.70600 42.17600 21.92600
O  -3.12500 41.97200 20.90900
C  -5.15200 42.44100 21.74200
N  1.42400 43.21100 23.62400
C  0.82400 42.71200 22.51700
C  1.79300 42.64500 21.34000
C  3.04200 43.46200 21.93500
C  2.70000 43.49800 23.42900
C  2.08100 41.21200 20.73300
C  3.17000 44.88100 21.35600
C  2.50500 46.05000 22.17200
N  2.42300 43.35900 26.34400
C  3.63800 43.58100 25.77300
C  4.63600 43.87500 26.70800
C  3.99500 43.77200 27.90100
C  2.60600 43.40500 27.61400
C  6.14000 44.41100 26.47400
C  4.17800 43.85600 29.34800
O  5.12000 44.04100 30.04400
C  2.75700 43.53600 29.95200
C  2.97200 42.34300 30.82400
O  2.60200 41.19500 30.51800
O  3.80800 42.72400 31.87700
C  4.30800 41.70700 32.71500
H  -3.52600 42.59100 27.46100
H  -0.83800 42.07500 21.49500
H  4.69800 44.02900 24.00600
H  0.01200 42.28100 30.68700
H  -2.58800 43.36900 29.67300
H  -1.91300 40.76600 30.57900
H  -2.64400 40.60100 29.04400
H  -3.42500 41.57000 30.34200
H  -1.34600 44.92500 30.46100
H  0.42300 44.88800 30.33500
H  -1.20100 44.95900 32.67100
H  0.51900 44.90100 32.59800
H  -4.95900 41.89700 25.85900
H  -5.58400 41.59500 24.23300
H  -5.61700 43.27900 24.94100
H  -5.65900 41.55600 22.12600
H  -5.39500 42.47800 20.68000
H  -5.48400 43.32800 22.28200
H  1.32000 43.36800 20.67500
H  3.98900 42.94400 21.77800
H  3.01400 41.14300 20.17600
H  1.38100 40.97800 19.93100
H  2.01400 40.40600 21.46400
H  2.87600 44.82800 20.30700
H  4.25000 45.02300 21.37900
H  1.68200 45.77600 22.83200
H  2.02900 46.70100 21.44000
H  3.26700 46.68500 22.62400
H  6.84600 43.60500 26.27200
H  6.51800 44.63600 27.47100
H  6.22600 45.18200 25.70900
H  2.58000 44.39700 30.59700
H  4.32200 42.07500 33.74100
H  5.34600 41.45700 32.49800
H  3.65000 40.83800 32.71400

