158

Mg 25.63400 51.14500 26.52900
C  23.31100 52.16900 28.92000
C  27.79100 50.30000 29.16300
C  27.90400 50.28100 24.24300
C  23.69300 52.67700 24.05100
N  25.65100 51.35600 28.77100
C  24.50800 51.68100 29.53200
C  24.77400 51.51900 31.06000
C  26.33500 51.11100 31.11700
C  26.66300 50.88100 29.60700
C  27.18900 52.29300 31.84300
C  23.89700 50.29900 31.66300
C  23.33000 50.49000 32.99800
H  24.18200 51.44400 33.88100
N  27.45800 50.24700 26.64900
C  28.17300 49.92200 27.78000
C  29.30600 49.16500 27.38700
C  29.31100 49.13100 25.94900
C  28.21500 49.91400 25.55000
C  30.29900 48.54400 28.39800
C  30.39200 48.46700 25.07800
O  30.36100 48.59600 23.83600
C  31.44400 47.65100 25.73700
N  25.81800 51.55400 24.50500
C  26.81300 51.02800 23.74900
C  26.67400 51.26900 22.23400
C  25.26700 52.00400 22.20800
C  24.90600 52.14200 23.70100
C  27.72200 52.16400 21.52900
C  24.20600 51.08900 21.49500
C  23.90500 49.67100 22.12300
N  23.79400 52.23000 26.42300
C  23.11700 52.78900 25.35800
C  21.91800 53.36200 25.79900
C  21.94000 53.13200 27.18300
C  23.10100 52.47700 27.55300
C  20.88300 54.12600 24.96600
C  21.24600 53.43400 28.35800
O  20.17700 53.99200 28.50600
C  22.05300 52.79100 29.58800
C  22.40100 53.85400 30.61100
O  23.39700 54.63400 30.47100
O  21.55900 53.72700 31.67900
C  21.71600 54.68400 32.75000
H  28.38100 49.83800 29.95700
H  28.56200 50.17000 23.37900
H  22.89900 53.07800 23.41700
H  24.61000 52.49100 31.52600
H  26.45800 50.20400 31.70900
H  26.66700 52.67900 32.71900
H  27.47100 52.98800 31.05200
H  28.10300 51.78400 32.14800
H  24.41100 49.34400 31.55700
H  23.05700 50.22200 30.97300
H  23.40200 49.59500 33.61600
H  22.35500 50.97800 32.99000
H  30.57200 47.49500 28.27800
H  29.87500 48.65600 29.39600
H  31.24500 49.08400 28.44400
H  32.19700 48.15800 26.34100
H  31.90400 47.00200 24.99200
H  30.92600 46.82400 26.22100
H  26.55500 50.25800 21.84300
H  25.36200 53.00000 21.77500
H  27.35300 52.70500 20.65800
H  28.27900 51.31700 21.12700
H  28.37200 52.79700 22.13200
H  24.63300 50.77400 20.54300
H  23.19900 51.47300 21.33200
H  24.43200 49.53300 23.06700
H  24.29500 48.79100 21.61100
H  22.84500 49.60300 22.36800
H  19.87200 53.97000 25.34300
H  20.90500 53.78100 23.93300
H  21.28300 55.14000 24.99000
H  21.41600 52.07300 30.10500
H  22.12800 54.30800 33.68700
H  20.72400 55.03100 33.03800
H  22.31300 55.57100 32.53900
Mg 6.11700 57.17200 42.00500
C  5.11900 53.62900 41.63800
C  9.03600 56.22500 40.51100
C  6.66000 60.43800 41.37000
C  2.71300 57.79200 42.89400
N  6.78600 55.24900 41.13000
C  6.38900 53.95400 41.19000
C  7.33600 52.95200 40.55200
C  8.64100 53.72600 40.61300
C  8.10900 55.19300 40.74600
C  9.70500 53.30200 41.67000
C  6.83000 52.58700 39.05300
C  6.92100 51.14600 38.62100
H  6.31800 50.71200 37.30500
N  7.71700 58.21700 41.10000
C  8.80900 57.64000 40.58100
C  9.67500 58.78500 40.16500
C  9.05000 59.97600 40.49700
C  7.78200 59.58100 41.04000
C  11.04300 58.60600 39.50300
C  9.53800 61.36600 40.11600
O  10.66900 61.39500 39.65900
C  8.78700 62.70500 40.35900
N  4.79600 58.84900 42.09000
C  5.35400 60.09400 41.95900
C  4.23900 61.16000 42.18800
C  3.00700 60.31800 42.72000
C  3.49600 58.87900 42.68700
C  4.64000 62.28000 43.12900
C  1.57500 60.54500 42.03100
C  0.40400 60.90500 42.98200
N  4.26500 55.94100 42.24100
C  3.02300 56.40600 42.60300
C  2.14200 55.28700 42.75600
C  2.95400 54.16900 42.49400
C  4.18600 54.66200 42.03500
C  0.67800 55.28000 43.06100
C  2.98700 52.70400 42.38700
O  2.12400 51.88800 42.66300
C  4.39900 52.35800 41.90600
C  4.32900 51.31000 40.90100
O  3.85500 51.47200 39.77700
O  4.74100 50.08900 41.41500
C  4.30200 48.94000 40.65100
H  9.96000 55.88700 40.03900
H  6.88000 61.50700 41.34800
H  1.70600 58.05100 43.22800
H  7.46800 52.00600 41.07600
H  9.22900 53.73400 39.69600
H  10.53100 52.82100 41.14800
H  9.25900 52.57800 42.35200
H  10.03500 54.10400 42.33000
H  7.54400 53.14000 38.44300
H  5.86200 53.06200 38.89000
H  6.52000 50.44900 39.35600
H  7.99400 50.96300 38.67200
H  11.74900 59.31700 39.93200
H  10.94700 58.82700 38.44000
H  11.43000 57.58700 39.52800
H  7.86700 62.88900 39.80300
H  9.47600 63.53300 40.19300
H  8.55600 62.87500 41.41100
H  3.99300 61.63200 41.23700
H  2.92300 60.50100 43.79100
H  5.09000 63.10500 42.57700
H  5.47300 61.90300 43.72300
H  3.91300 62.52600 43.90300
H  1.18600 59.73800 41.41000
H  1.77900 61.40200 41.38900
H  -0.09100 59.94100 42.86700
H  -0.26100 61.70500 42.65700
H  0.82400 60.94700 43.98700
H  0.34900 54.35600 43.53600
H  0.29800 55.40000 42.04600
H  0.48700 56.15300 43.68500
H  4.84900 51.96400 42.81800
H  5.02400 48.82800 39.84200
H  3.31900 49.01100 40.18600
H  4.35100 48.09700 41.34000

