158

Mg 0.08100 8.11600 26.20900
C  1.21100 9.65500 29.16300
C  -0.23000 5.16900 27.92100
C  -0.52400 6.60700 23.30500
C  0.70900 11.20100 24.48300
N  0.41800 7.43400 28.38900
C  0.74600 8.25500 29.38900
C  0.92700 7.47700 30.65500
C  0.52000 5.97200 30.22000
C  0.13800 6.15900 28.78600
C  1.65200 4.98600 30.59900
C  0.20500 8.06600 31.86700
C  0.86200 7.99000 33.28800
H  2.00200 6.97100 33.52900
N  -0.35000 6.23600 25.70300
C  -0.46900 5.11800 26.53500
C  -0.72600 3.91300 25.78700
C  -0.93000 4.31100 24.44300
C  -0.62000 5.74600 24.42200
C  -0.99800 2.48400 26.38700
C  -1.40100 3.45000 23.25900
O  -1.68800 3.98900 22.20200
C  -1.73700 2.01300 23.47100
N  0.15000 8.83300 24.18700
C  -0.00700 7.93300 23.18500
C  0.26700 8.62700 21.81500
C  0.27100 10.13200 22.16500
C  0.43900 10.07100 23.73800
C  1.56500 8.15000 21.08800
C  -0.94500 10.95300 21.65600
C  -0.57900 12.36700 21.32100
N  0.74100 10.07200 26.64700
C  1.00700 11.17000 25.88700
C  1.48700 12.30200 26.69700
C  1.51200 11.76300 27.99600
C  1.09100 10.42300 27.92100
C  1.90700 13.61500 26.25500
C  1.85800 12.08500 29.38100
O  2.28800 13.10800 29.90300
C  1.58400 10.77100 30.21600
C  2.63300 10.56400 31.26900
O  3.69000 9.95500 31.17100
O  2.34500 11.22000 32.45100
C  3.40300 11.07200 33.44100
H  -0.39700 4.21800 28.43200
H  -0.75800 6.13600 22.34800
H  0.85600 12.11300 23.90200
H  2.00200 7.51200 30.83400
H  -0.22500 5.54000 30.88800
H  2.02500 4.63300 29.63700
H  1.34000 4.07100 31.10200
H  2.52800 5.43600 31.06500
H  -0.73400 7.52400 31.98000
H  0.03000 9.12300 31.66300
H  0.05900 7.63200 33.93200
H  1.15300 8.95900 33.69300
H  -2.06500 2.37800 26.58400
H  -0.59100 2.48600 27.39800
H  -0.55900 1.74900 25.71100
H  -0.76600 1.52700 23.57000
H  -2.08000 1.68300 22.49000
H  -2.48000 1.78600 24.23500
H  -0.57100 8.42600 21.14800
H  1.20300 10.51400 21.74800
H  1.29300 7.43900 20.30800
H  2.07500 7.59200 21.87400
H  2.17500 8.91800 20.61300
H  -1.69100 10.91600 22.44900
H  -1.18800 10.43600 20.72700
H  -0.61000 12.56500 20.25000
H  0.36800 12.74300 21.70900
H  -1.28200 13.09800 21.72000
H  1.17500 14.26300 25.77300
H  2.64600 13.46700 25.46800
H  2.32800 14.22300 27.05600
H  0.62200 11.10000 30.60700
H  3.50200 10.02400 33.72300
H  3.07300 11.48900 34.39200
H  4.31700 11.45400 32.98400
Mg 30.85000 59.21300 40.03100
C  27.81200 57.57700 38.74900
C  32.61100 56.70900 38.67700
C  33.50600 61.04800 40.63100
C  28.72300 62.04500 40.59400
N  30.21800 57.40900 38.73400
C  29.00900 56.88100 38.45600
C  29.18600 55.45500 37.98600
C  30.68700 55.08800 38.20900
C  31.22200 56.47600 38.65300
C  31.03000 53.94100 39.22500
C  28.62600 55.24600 36.56000
C  29.33700 56.06200 35.42800
H  28.41800 56.61100 34.29500
N  32.85300 58.83600 39.81200
C  33.38900 57.70500 39.28500
C  34.85900 57.81600 39.35000
C  35.13100 59.05200 40.04900
C  33.81500 59.73200 40.18600
C  35.77300 56.76400 38.76500
C  36.49900 59.47300 40.41000
O  37.43100 58.76900 40.09500
C  36.74100 60.82000 41.08700
N  31.03400 61.29900 40.50800
C  32.28800 61.74300 40.78600
C  32.18200 63.31100 40.95700
C  30.66000 63.56300 41.19400
C  30.10200 62.26800 40.71400
C  33.06300 64.01000 42.02700
C  30.16400 64.73400 40.31900
C  29.14000 65.69400 41.07600
N  28.69900 59.77800 39.79000
C  28.07800 60.94900 40.06200
C  26.68000 60.78900 39.80800
C  26.58200 59.44600 39.34500
C  27.82300 58.88100 39.30100
C  25.51500 61.72000 40.06100
C  25.61600 58.47500 38.77600
O  24.37200 58.62700 38.65900
C  26.33200 57.15400 38.39800
C  25.90400 55.93400 39.10200
O  25.47400 55.86900 40.24500
O  25.89000 54.82400 38.28600
C  25.35400 53.61200 38.96000
H  33.27400 55.97000 38.22200
H  34.36300 61.68400 40.85900
H  28.08200 62.89500 40.83500
H  28.58900 54.81200 38.63200
H  31.18500 54.83400 37.27300
H  30.21200 53.49300 39.78900
H  31.65700 54.38900 39.99500
H  31.59700 53.25400 38.59700
H  27.54800 55.39300 36.49900
H  28.83300 54.18800 36.40100
H  30.12100 55.45400 34.97700
H  29.78600 56.93200 35.90700
H  35.40600 55.78200 38.46600
H  36.45700 56.49800 39.57100
H  36.28200 57.23100 37.92200
H  37.76200 60.72300 41.45600
H  36.06100 60.93500 41.93100
H  36.59400 61.65200 40.39800
H  32.47900 63.71300 39.98800
H  30.59000 63.76200 42.26400
H  32.50500 64.70400 42.65500
H  33.82800 64.58300 41.50300
H  33.51300 63.25300 42.66900
H  29.60600 64.37200 39.45600
H  31.04000 65.20100 39.87000
H  29.57600 66.68500 41.20400
H  29.02400 65.27300 42.07400
H  28.21800 65.74000 40.49700
H  25.74400 62.72700 39.71300
H  25.17700 61.72500 41.09800
H  24.68700 61.33900 39.46400
H  26.31200 57.07800 37.31100
H  25.35400 52.95300 38.09100
H  24.33600 53.83000 39.28200
H  26.01800 53.27400 39.75500

