158

Mg 25.86300 1.77100 29.22600
C  27.81100 1.55200 32.18600
C  23.17300 2.21700 31.14600
C  24.18400 1.89700 26.37700
C  28.86200 0.73700 27.43400
N  25.60500 2.07300 31.41600
C  26.48300 1.91100 32.42100
C  25.84700 2.20700 33.83700
C  24.35100 2.29000 33.46500
C  24.31400 2.21700 31.87600
C  23.56500 1.14700 34.10400
C  26.42500 3.44900 34.57800
C  26.95400 3.28700 36.01900
H  26.65300 4.39000 37.13400
N  23.89900 1.96200 28.87800
C  22.91500 2.09200 29.80400
C  21.62800 2.17600 29.08500
C  21.90400 2.27900 27.66900
C  23.38800 2.00900 27.58000
C  20.33100 2.35300 29.84700
C  21.00500 2.60000 26.57500
O  21.37200 2.56100 25.38900
C  19.55400 2.95500 26.81400
N  26.43600 1.39200 27.23000
C  25.52000 1.57400 26.21700
C  26.13100 1.26100 24.81600
C  27.50500 0.63200 25.14200
C  27.63600 0.93600 26.67100
C  25.19800 0.27900 23.96500
C  28.71700 1.25000 24.37800
C  29.10500 2.69900 24.69600
N  27.87700 1.24200 29.65100
C  28.98700 0.91300 28.88300
C  30.19100 0.74300 29.69400
C  29.73100 0.98600 30.98000
C  28.32100 1.27900 30.89500
C  31.53400 0.40200 29.15100
C  30.17000 1.14500 32.29500
O  31.26600 1.07600 32.83600
C  28.90200 1.49600 33.19900
C  28.79800 0.52500 34.31500
O  28.48400 -0.67300 34.19000
O  29.28100 1.07400 35.51000
C  29.61600 0.17600 36.65900
H  22.25400 2.44600 31.69000
H  23.78300 2.07000 25.37600
H  29.76100 0.47600 26.87100
H  26.12000 1.31300 34.39800
H  23.95400 3.26700 33.74200
H  23.30400 0.38500 33.37100
H  22.67000 1.43300 34.65600
H  24.17300 0.48500 34.72100
H  25.77900 4.32600 34.54500
H  27.36200 3.67400 34.06800
H  28.03900 3.17900 36.02200
H  26.63000 2.27700 36.27000
H  20.42500 2.11900 30.90700
H  19.53300 1.69000 29.51200
H  20.19500 3.42400 29.70000
H  18.99600 2.06800 27.11400
H  19.14000 3.35600 25.88900
H  19.48100 3.71700 27.59000
H  26.29100 2.17100 24.23700
H  27.51300 -0.45500 25.07200
H  24.27900 0.00400 24.48200
H  25.72000 -0.63300 23.67600
H  24.79200 0.87100 23.14400
H  28.47400 1.22100 23.31600
H  29.63900 0.70200 24.57300
H  29.98900 2.51900 25.30700
H  28.35700 3.31500 25.19700
H  29.53500 3.22800 23.84600
H  32.06700 1.27500 28.77500
H  31.33700 -0.23500 28.28900
H  32.11800 -0.13700 29.89700
H  29.02900 2.53000 33.52000
H  30.42600 0.56500 37.27500
H  29.94800 -0.84400 36.46300
H  28.75500 -0.04800 37.28900
Mg 5.43600 54.15900 40.10500
C  4.61700 50.65800 40.13700
C  8.56600 53.21100 39.05700
C  6.04400 57.31800 39.43300
C  2.05600 54.93400 40.54600
N  6.37300 52.12500 39.45400
C  5.88300 50.87900 39.57000
C  6.95900 49.82700 39.22000
C  8.24500 50.72700 39.38400
C  7.69900 52.15500 39.32500
C  9.20300 50.61300 40.66300
C  6.79300 49.13300 37.87800
C  6.27500 49.84500 36.64600
H  7.12900 50.95200 36.05900
N  7.08200 55.09100 39.23100
C  8.30900 54.60700 39.03200
C  9.23500 55.68200 38.82400
C  8.55500 56.93000 38.79500
C  7.15600 56.49700 39.14800
C  10.76300 55.34700 38.64100
C  9.17200 58.33000 38.59000
O  10.38500 58.49800 38.44700
C  8.26800 59.54200 38.29800
N  4.24300 55.80300 39.94500
C  4.80800 57.06000 39.84700
C  3.76100 58.17700 40.14900
C  2.43800 57.37300 40.28400
C  2.96100 55.94200 40.23100
C  4.01200 59.04200 41.39900
C  1.37600 57.64700 39.23200
C  -0.01700 58.03200 39.86400
N  3.69700 53.04100 40.42800
C  2.41600 53.52400 40.70800
C  1.63200 52.34900 41.04200
C  2.41500 51.18900 40.91500
C  3.65400 51.69900 40.44500
C  0.18100 52.34400 41.36700
C  2.48400 49.81500 41.05000
O  1.61500 49.00300 41.38500
C  3.98200 49.37200 40.64700
C  3.90300 48.33000 39.65500
O  3.86800 48.50400 38.46000
O  4.16500 47.05700 40.14800
C  4.13600 45.88100 39.20700
H  9.59000 52.95400 38.78000
H  6.18900 58.40000 39.39600
H  1.08900 55.16900 40.99700
H  6.96900 49.10200 40.03400
H  8.93500 50.50300 38.57100
H  8.92900 49.72700 41.23600
H  9.04900 51.45600 41.33700
H  10.25200 50.55200 40.37200
H  6.28500 48.20900 38.15400
H  7.77000 48.87100 37.47200
H  5.27300 50.21500 36.86700
H  6.15300 49.06700 35.89200
H  11.17300 56.06700 37.93300
H  10.83600 54.41000 38.08900
H  11.43000 55.20000 39.49000
H  8.76200 60.35500 37.76700
H  7.95600 60.03500 39.21900
H  7.35700 59.25300 37.77400
H  3.76300 58.88700 39.32200
H  2.03900 57.50700 41.29000
H  4.57700 58.37200 42.04800
H  3.06500 59.35900 41.83400
H  4.50700 59.98000 41.14900
H  1.37200 56.87000 38.46800
H  1.69300 58.50600 38.64000
H  0.00400 58.00000 40.95300
H  -0.86700 57.39200 39.62600
H  -0.20000 59.08500 39.65400
H  -0.44000 53.19900 41.09900
H  0.23400 52.32500 42.45600
H  -0.26700 51.42100 41.00000
H  4.47600 48.90000 41.49600
H  3.16800 45.39100 39.09800
H  4.60800 44.98600 39.61200
H  4.47900 46.13200 38.20300

