158

Mg 24.51800 -4.77500 46.55600
C  26.43500 -2.49600 44.87900
C  22.19100 -4.42900 44.06400
C  22.84900 -7.48800 47.88300
C  27.49500 -5.85500 48.42400
N  24.24800 -3.49100 44.75900
C  25.16000 -2.53600 44.32500
C  24.69600 -1.86600 43.00600
C  23.17600 -2.36100 42.94900
C  23.17200 -3.49700 43.96200
C  22.12000 -1.25400 43.36300
C  25.54600 -2.32600 41.76200
C  26.24600 -1.17300 41.03100
H  25.74900 -1.07400 39.58000
N  22.73500 -5.71700 46.16300
C  21.92100 -5.44800 45.05500
C  20.81700 -6.31500 45.01200
C  20.87400 -7.01100 46.25900
C  22.20700 -6.75800 46.88300
C  19.68500 -6.16700 43.99100
C  19.71800 -7.92300 46.75700
O  18.69300 -8.02000 46.11500
C  19.79700 -8.62000 47.99700
N  25.04800 -6.44400 47.96900
C  24.14500 -7.35000 48.40300
C  24.87500 -8.33700 49.32200
C  26.40100 -7.96800 49.37200
C  26.30400 -6.65900 48.62400
C  24.26400 -8.49800 50.77500
C  27.39700 -9.02800 48.75700
C  28.51600 -9.44700 49.77200
N  26.53100 -4.15200 46.88300
C  27.61200 -4.72400 47.58100
C  28.79000 -3.98200 47.21100
C  28.40100 -3.12000 46.17400
C  27.04600 -3.33000 45.95500
C  30.10900 -4.14000 47.79400
C  28.86800 -2.10000 45.27600
O  29.91100 -1.40800 45.19900
C  27.66000 -1.64400 44.35200
C  27.49200 -0.15800 44.63600
O  26.86400 0.29800 45.58300
O  28.20100 0.54000 43.76000
C  28.06100 1.97600 43.84900
H  21.43500 -4.23200 43.30100
H  22.30800 -8.35900 48.25700
H  28.38400 -6.25100 48.92100
H  24.65600 -0.78300 43.11400
H  22.81200 -2.77200 42.00700
H  22.60000 -0.41600 43.86700
H  21.41800 -1.55500 44.14100
H  21.47300 -0.98300 42.52800
H  24.97300 -2.89100 41.02700
H  26.39100 -2.89500 42.15100
H  27.31300 -1.39500 41.03100
H  26.04600 -0.19300 41.46600
H  19.99200 -5.78500 43.01800
H  18.81000 -5.70400 44.44800
H  19.34400 -7.14300 43.64500
H  20.17000 -7.91100 48.73500
H  20.29900 -9.58400 47.90900
H  18.79300 -8.78300 48.39000
H  24.84400 -9.33500 48.88300
H  26.50300 -7.83100 50.44900
H  24.77000 -7.91300 51.54400
H  24.29000 -9.56100 51.01300
H  23.21500 -8.27300 50.58600
H  27.91500 -8.62700 47.88600
H  26.96000 -9.91800 48.30400
H  29.46300 -9.84600 49.41000
H  27.99400 -9.96600 50.57500
H  28.76800 -8.48400 50.21600
H  30.01300 -4.28400 48.87000
H  30.75100 -3.26700 47.67800
H  30.61500 -5.01800 47.39200
H  27.82000 -1.82900 43.29000
H  28.23700 2.33900 42.83600
H  28.84800 2.39400 44.47700
H  27.07200 2.30800 44.16700
Mg -10.13100 39.12000 39.83600
C  -9.44400 35.87900 38.58600
C  -7.12500 40.08500 39.04600
C  -11.18100 42.17400 40.37800
C  -13.43300 37.92000 40.62900
N  -8.49600 38.06700 38.92300
C  -8.40800 36.76800 38.44900
C  -7.00300 36.46500 37.90800
C  -6.24700 37.77400 38.24800
C  -7.30400 38.73500 38.78600
C  -5.01800 37.63600 39.10900
C  -6.90300 36.09700 36.32700
C  -7.33500 37.22000 35.31900
H  -8.74600 36.99700 34.74100
N  -9.16800 40.92200 39.81000
C  -7.91800 41.11900 39.48300
C  -7.63900 42.50500 39.44500
C  -8.82200 43.22000 39.79300
C  -9.78800 42.10600 40.04000
C  -6.26500 43.05500 38.99000
C  -8.87700 44.74000 39.87700
O  -7.91800 45.50200 39.71600
C  -10.21500 45.38800 39.98500
N  -12.16000 39.94600 40.37600
C  -12.23600 41.31400 40.53200
C  -13.68700 41.69000 40.80000
C  -14.38100 40.31800 41.19300
C  -13.32500 39.31800 40.68500
C  -14.06000 42.93100 41.65900
C  -15.82000 40.16500 40.63800
C  -16.94600 39.77600 41.60100
N  -11.27400 37.24800 39.72800
C  -12.54500 36.96300 40.17800
C  -12.74100 35.56400 40.05700
C  -11.53300 35.05800 39.46700
C  -10.71300 36.16500 39.22000
C  -14.00300 34.76100 40.40300
C  -10.83600 33.88100 39.02800
O  -11.18100 32.72700 39.10400
C  -9.40300 34.33400 38.45400
C  -8.33100 33.65700 39.22700
O  -8.25900 33.45100 40.42400
O  -7.46400 33.04900 38.26700
C  -6.51700 31.99500 38.73100
H  -6.10400 40.46700 38.97700
H  -11.54000 43.20200 40.44800
H  -14.41800 37.54400 40.91600
H  -6.51100 35.59500 38.34000
H  -5.91600 38.36200 37.39200
H  -5.09000 38.16200 40.06100
H  -4.16600 37.90800 38.48700
H  -4.85800 36.57800 39.31500
H  -7.49000 35.21900 36.05700
H  -5.88800 35.80700 36.05600
H  -6.61700 37.37500 34.51300
H  -7.39400 38.17300 35.84600
H  -6.26700 44.09700 38.67100
H  -5.92000 42.32400 38.25900
H  -5.57600 42.89100 39.81800
H  -10.60200 45.25700 40.99500
H  -10.91500 45.07300 39.21100
H  -10.08900 46.43900 39.72400
H  -14.00800 42.01100 39.80900
H  -14.34700 40.21300 42.27700
H  -13.48600 42.95000 42.58500
H  -15.08900 42.82200 42.00100
H  -14.06700 43.84500 41.06500
H  -15.77300 39.48300 39.78900
H  -16.07400 41.05300 40.05900
H  -17.58200 40.64800 41.75700
H  -16.60500 39.32500 42.53300
H  -17.69200 39.02800 41.33200
H  -14.77500 35.36400 40.88300
H  -13.64900 33.99800 41.09600
H  -14.46000 34.50900 39.44600
H  -9.34300 34.19900 37.37400
H  -5.95700 31.71300 37.83800
H  -6.89100 31.12300 39.26600
H  -5.84200 32.46300 39.44800

