158

Mg 25.47600 1.83100 29.67100
C  27.71200 1.69300 32.54300
C  23.00800 2.02500 31.85800
C  23.47200 1.45000 27.07000
C  28.24700 0.74400 27.74100
N  25.35400 2.00700 31.96300
C  26.39400 2.00000 32.91800
C  25.87900 2.36600 34.30300
C  24.30700 2.32800 34.04400
C  24.14700 2.14700 32.54500
C  23.53400 1.28300 34.87500
C  26.37000 3.72100 34.86800
C  27.39000 3.73600 36.06000
H  26.93600 4.57600 37.37500
N  23.54400 1.77400 29.46800
C  22.65100 1.90100 30.51800
C  21.28900 1.77500 30.01800
C  21.39400 1.66800 28.60100
C  22.83800 1.60500 28.30000
C  20.12700 2.02800 30.94400
C  20.35800 1.49700 27.50100
O  20.58700 1.26300 26.32200
C  18.93600 1.61400 27.85900
N  25.79100 1.18500 27.65300
C  24.81700 1.35900 26.73800
C  25.38400 1.24500 25.32900
C  26.90700 1.05900 25.51900
C  27.00600 0.93300 27.07300
C  24.72000 0.24100 24.33000
C  27.65200 2.41600 24.98900
C  27.65900 3.74400 25.84200
N  27.52700 1.45600 29.99100
C  28.49800 0.94800 29.08800
C  29.79100 0.82800 29.77100
C  29.46400 0.97400 31.09200
C  28.10600 1.35100 31.21800
C  31.07400 0.54600 29.00600
C  30.09500 0.93900 32.42900
O  31.21600 0.66100 32.75300
C  28.96800 1.47700 33.39400
C  28.78600 0.50100 34.52700
O  28.08100 -0.51300 34.49100
O  29.46900 0.98200 35.64800
C  29.30900 0.05900 36.75800
H  22.17000 2.09100 32.55600
H  22.82900 1.46500 26.18800
H  29.17200 0.66100 27.16600
H  26.09200 1.51500 34.95000
H  23.77600 3.22900 34.35200
H  22.45400 1.42900 34.87000
H  24.02200 1.10100 35.83300
H  23.51000 0.35600 34.30300
H  25.55300 4.42900 35.00300
H  26.85800 4.19300 34.01500
H  28.37100 4.13400 35.80100
H  27.49900 2.71100 36.41600
H  19.93700 3.10100 30.92800
H  20.25300 1.68000 31.97000
H  19.20700 1.60100 30.54500
H  18.33300 1.27400 27.01800
H  18.75000 2.64900 28.14700
H  18.82300 0.92100 28.69300
H  25.20600 2.26600 24.99200
H  27.40900 0.19000 25.09400
H  24.02700 -0.35300 24.92500
H  25.40700 -0.44800 23.83800
H  24.20200 0.81800 23.56400
H  27.24600 2.71900 24.02400
H  28.71000 2.20000 24.83700
H  27.07000 3.52400 26.73300
H  27.23600 4.56700 25.26800
H  28.59900 4.03400 26.31100
H  31.04600 0.10700 28.00800
H  31.73600 -0.02100 29.66000
H  31.57800 1.50400 28.87200
H  29.19600 2.45800 33.81100
H  29.32200 -0.96600 36.38900
H  28.47000 0.39300 37.36900
H  30.19700 0.11400 37.38800
Mg 1.56500 42.26300 26.05300
C  2.61300 42.35500 29.39100
C  -1.41800 41.05300 26.96800
C  0.72500 41.85500 22.70400
C  4.69300 43.55200 25.08000
N  0.77200 41.75300 27.98400
C  1.25600 42.01600 29.27500
C  0.25800 41.60500 30.33500
C  -0.88000 40.90000 29.49000
C  -0.51500 41.25900 28.08600
C  -1.17000 39.37200 29.62900
C  -0.15100 42.84500 31.16800
C  -0.34300 42.62400 32.73200
H  -1.00200 41.25500 33.07300
N  -0.18400 41.70100 25.05000
C  -1.38400 41.24000 25.57200
C  -2.36700 41.07900 24.50300
C  -1.74300 41.22700 23.26500
C  -0.30300 41.54200 23.61100
C  -3.82600 40.69900 24.89000
C  -2.28100 40.99300 21.85000
O  -1.60000 41.12200 20.85000
C  -3.79900 40.71700 21.72500
N  2.67400 42.40500 24.22000
C  2.02100 42.34900 22.99800
C  2.87200 42.99400 21.88300
C  3.87800 43.83700 22.66200
C  3.68000 43.33200 24.14400
C  3.46000 41.95400 20.86400
C  3.61600 45.40200 22.57100
C  3.96300 45.82900 21.09100
N  3.40000 42.76100 26.97600
C  4.62600 43.23700 26.46000
C  5.60400 43.31100 27.50400
C  4.91300 42.96500 28.68900
C  3.52800 42.64400 28.34500
C  7.06000 43.73300 27.40200
C  4.96500 42.77800 30.12600
O  5.98700 42.75900 30.86000
C  3.51500 42.54200 30.60600
C  3.56200 41.39700 31.56300
O  4.01000 40.22300 31.33800
O  2.81300 41.67200 32.68900
C  2.74700 40.56900 33.69100
H  -2.36000 40.64800 27.34300
H  0.48000 41.61600 21.66700
H  5.49400 44.23900 24.79800
H  0.76200 40.89700 30.99300
H  -1.80000 41.42600 29.74500
H  -1.02300 38.88000 28.66800
H  -2.18800 39.24700 29.99900
H  -0.51700 38.89200 30.35800
H  -0.98000 43.38800 30.71400
H  0.74300 43.46600 31.11400
H  -1.01400 43.44900 32.97300
H  0.59500 42.73200 33.27600
H  -4.01400 40.79500 25.96000
H  -4.05800 39.67400 24.60000
H  -4.56600 41.35100 24.42600
H  -3.93000 39.80200 22.30200
H  -3.92900 40.38700 20.69500
H  -4.40400 41.57000 22.03400
H  2.12000 43.59100 21.36700
H  4.87900 43.60800 22.29800
H  4.49000 41.85100 21.20500
H  3.23000 42.34300 19.87200
H  2.90300 41.02200 20.96200
H  4.29500 45.98500 23.19300
H  2.60500 45.63300 22.90600
H  4.32300 45.01500 20.46200
H  4.75300 46.56700 20.94800
H  3.04300 46.34200 20.81100
H  7.50300 43.37200 26.47400
H  7.51300 43.24500 28.26500
H  7.08200 44.81900 27.49300
H  3.27000 43.49400 31.07600
H  2.26200 40.99700 34.56800
H  3.74500 40.19500 33.92100
H  2.23300 39.72100 33.24000

