158

Mg -1.54200 17.22000 26.59000
C  -1.55800 14.85200 29.26600
C  -2.46500 19.51900 29.01600
C  -2.33200 19.30100 24.13800
C  -1.51600 14.65700 24.36400
N  -1.92600 17.20400 28.95800
C  -1.81900 16.11200 29.78800
C  -2.30300 16.47200 31.24400
C  -2.78600 17.95000 31.06400
C  -2.38800 18.27000 29.60500
C  -4.39400 18.06000 31.25800
C  -1.11900 16.23400 32.19000
C  -0.61300 17.40800 33.11400
H  0.29700 17.00500 34.26100
N  -2.11600 19.14100 26.62500
C  -2.35100 19.98300 27.71200
C  -2.65300 21.28300 27.24800
C  -2.56000 21.26900 25.87700
C  -2.35400 19.85500 25.49400
C  -2.82200 22.48100 28.29600
C  -2.72600 22.41500 24.84100
O  -2.57700 22.28100 23.63300
C  -3.05800 23.81200 25.34100
N  -1.71600 17.04400 24.58600
C  -2.14200 18.01500 23.75400
C  -2.45100 17.47800 22.33400
C  -1.59300 16.14500 22.41900
C  -1.49600 15.96000 23.88400
C  -3.92700 17.28600 21.91900
C  -0.12400 16.26000 21.77800
C  0.05700 15.56600 20.44100
N  -1.44400 15.23200 26.75700
C  -1.46500 14.31700 25.72500
C  -1.32800 12.99200 26.29100
C  -1.29800 13.18900 27.64200
C  -1.45200 14.50500 27.90000
C  -1.28200 11.64600 25.55500
C  -1.20800 12.44100 28.80100
O  -0.98100 11.24600 29.00000
C  -1.53300 13.41300 29.87500
C  -0.59000 13.29400 30.99700
O  0.61500 13.46700 30.96800
O  -1.25600 12.92800 32.15200
C  -0.45800 12.65200 33.34000
H  -2.76800 20.26700 29.75200
H  -2.61800 19.94700 23.30500
H  -1.36200 13.91600 23.57600
H  -3.17300 15.89000 31.54900
H  -2.16000 18.65300 31.61200
H  -4.87800 17.18200 31.68600
H  -4.78700 18.13900 30.24400
H  -4.77300 18.92100 31.80800
H  -0.22900 15.98800 31.61100
H  -1.40100 15.33000 32.73000
H  -1.47400 17.91900 33.54500
H  -0.18600 18.13100 32.41800
H  -2.40500 23.41800 27.92800
H  -2.39300 22.33900 29.28800
H  -3.89300 22.67000 28.37500
H  -3.96700 23.78000 25.94100
H  -3.34600 24.38500 24.45900
H  -2.17700 24.26700 25.79300
H  -2.12300 18.12200 21.51800
H  -2.06700 15.35000 21.84300
H  -4.42200 17.49600 22.86700
H  -4.14600 16.26100 21.62100
H  -4.26800 18.12100 21.30600
H  0.62400 15.82400 22.44000
H  0.11100 17.29500 21.53200
H  1.03400 15.79900 20.01800
H  -0.72500 15.80300 19.72000
H  0.05700 14.47700 20.49700
H  -0.54100 11.40000 24.79500
H  -2.25200 11.49300 25.08100
H  -1.29000 10.76100 26.19100
H  -2.48700 13.05300 30.25800
H  -0.34300 11.58200 33.51800
H  -0.91800 13.04300 34.24800
H  0.50100 13.16100 33.43800
Mg -0.06200 43.69500 26.93400
C  2.14900 43.29700 29.50400
C  -2.66900 42.90500 29.24600
C  -2.27500 43.27700 24.41000
C  2.46300 44.06500 24.65400
N  -0.15700 43.12100 29.08700
C  0.83200 43.07600 29.93700
C  0.34900 42.70700 31.36900
C  -1.13800 42.36800 31.14700
C  -1.38200 42.88400 29.77300
C  -1.47800 40.84300 31.16700
C  0.54400 43.96800 32.26300
C  1.01300 43.76300 33.74000
H  0.42700 42.68400 34.62100
N  -2.20800 43.34000 26.85900
C  -3.05000 43.11000 27.93900
C  -4.40100 42.90900 27.45100
C  -4.30300 42.86300 25.98800
C  -2.88900 43.13700 25.66700
C  -5.54800 42.47900 28.26700
C  -5.37400 42.56600 24.92100
O  -5.09900 42.35600 23.75000
C  -6.87600 42.27500 25.28400
N  0.06900 43.73600 24.76600
C  -0.95900 43.57900 24.02000
C  -0.48400 43.70100 22.48400
C  0.98700 44.30500 22.63100
C  1.23500 43.96400 24.08900
C  -0.60500 42.45900 21.58600
C  1.03500 45.92000 22.38300
C  1.70800 46.41200 21.11100
N  1.89800 43.74800 26.97600
C  2.85600 43.96200 26.00100
C  4.12300 44.01100 26.67300
C  3.94200 43.66200 27.99400
C  2.54700 43.53600 28.14000
C  5.44000 44.25200 26.01100
C  4.60200 43.34300 29.29700
O  5.76800 43.34900 29.64600
C  3.48300 43.09900 30.26800
C  3.64300 41.67000 30.82000
O  3.66700 40.60100 30.20300
O  3.71000 41.81600 32.19500
C  3.85700 40.55400 32.81100
H  -3.45400 42.76700 29.99300
H  -2.93000 43.28900 23.53600
H  3.21900 44.37400 23.92900
H  0.91800 41.84700 31.72300
H  -1.88500 42.74900 31.84400
H  -1.92700 40.61100 30.20200
H  -2.24500 40.60600 31.90500
H  -0.60900 40.22000 31.37900
H  -0.43000 44.43100 32.42200
H  1.21800 44.69100 31.80300
H  0.77400 44.75200 34.12900
H  2.09300 43.61400 33.75700
H  -6.46800 42.96000 27.93400
H  -5.48200 42.59800 29.34900
H  -5.64400 41.40000 28.14400
H  -7.42500 43.03800 25.83700
H  -6.81400 41.25100 25.65200
H  -7.34900 42.14200 24.31100
H  -1.13900 44.36800 21.92300
H  1.69300 43.76900 21.99700
H  0.23600 42.22700 20.93200
H  -1.43600 42.44600 20.88000
H  -0.66000 41.55100 22.18700
H  1.45000 46.35500 23.29200
H  0.00400 46.22300 22.20000
H  2.61200 45.88000 20.81500
H  1.93100 47.47200 21.23700
H  1.03900 46.27300 20.26200
H  5.37500 44.15700 24.92700
H  6.14400 43.46000 26.26600
H  5.90800 45.18900 26.31300
H  3.53400 43.86000 31.04600
H  3.10600 39.86400 32.42700
H  3.62300 40.53800 33.87600
H  4.81100 40.09000 32.56300

