158

Mg 35.20400 1.68500 29.38500
C  32.90000 2.94900 31.81100
C  37.62900 1.79300 31.66300
C  37.49100 1.09900 27.01900
C  32.71000 2.17200 26.98800
N  35.27800 2.38000 31.46700
C  34.18100 2.64300 32.29100
C  34.71700 2.69900 33.70700
C  36.27500 2.61900 33.58100
C  36.43600 2.26200 32.13800
C  37.04600 3.87800 33.84600
C  34.02000 1.61200 34.56500
C  33.71100 2.10300 35.97200
H  34.70600 2.96900 36.70100
N  37.16600 1.21400 29.46600
C  38.02600 1.31600 30.45800
C  39.29300 0.73300 30.12200
C  39.18700 0.40000 28.76300
C  37.90500 0.99000 28.35500
C  40.51500 0.52700 31.04000
C  40.23200 -0.27800 27.84200
O  40.09200 -0.33600 26.63400
C  41.46700 -0.90100 28.39300
N  35.10000 1.67600 27.36200
C  36.20100 1.45900 26.55800
C  35.76900 1.47700 25.08800
C  34.22100 1.60800 25.06700
C  33.98700 1.77000 26.59400
C  36.40100 2.55300 24.25000
C  33.45300 0.42700 24.41300
C  32.40000 0.71300 23.29900
N  33.12300 2.40000 29.32500
C  32.26100 2.58000 28.31500
C  30.95800 3.09300 28.77600
C  31.17300 3.19200 30.16200
C  32.51700 2.80200 30.44100
C  29.68400 3.35000 28.02100
C  30.63900 3.71900 31.44600
O  29.51000 4.20400 31.67700
C  31.62000 3.36000 32.53400
C  31.71700 4.48400 33.50900
O  32.40400 5.45700 33.30300
O  30.77800 4.32700 34.53300
C  30.98300 5.23200 35.67500
H  38.39200 1.63800 32.42800
H  38.17500 0.73200 26.25100
H  31.98600 2.27500 26.17700
H  34.41000 3.71300 33.96600
H  36.66000 1.78000 34.16100
H  37.93100 3.89600 33.21000
H  37.50800 4.03500 34.82100
H  36.42500 4.72600 33.55600
H  34.69000 0.75400 34.62000
H  33.12300 1.35100 34.00300
H  33.56700 1.20800 36.57800
H  32.80300 2.70500 35.96900
H  40.44200 1.03500 32.00200
H  41.37200 0.96200 30.52500
H  40.62100 -0.55400 31.13300
H  41.37500 -1.68100 29.14900
H  42.14500 -0.08100 28.63100
H  41.97700 -1.33700 27.53400
H  36.01300 0.48800 24.69900
H  33.80500 2.46900 24.54400
H  36.90800 3.17000 24.99100
H  35.68700 3.22900 23.78100
H  37.06300 2.26300 23.43400
H  32.99200 -0.25400 25.12900
H  34.04300 -0.28700 23.83900
H  31.69000 1.48500 23.59500
H  31.96400 -0.27200 23.13000
H  32.82800 0.86000 22.30800
H  28.94600 2.57200 28.21500
H  29.81400 3.31200 26.93900
H  29.40500 4.32200 28.42600
H  31.22500 2.57400 33.17800
H  30.30800 6.08700 35.64900
H  31.96700 5.70000 35.64000
H  30.80000 4.69300 36.60400
Mg 40.10800 8.65700 29.29300
C  41.84900 9.75800 32.20000
C  37.82900 7.03900 31.45800
C  38.58400 7.58700 26.70500
C  42.87400 9.56800 27.52600
N  39.96100 8.33900 31.67600
C  40.65300 9.10000 32.60500
C  40.00800 8.85500 33.97100
C  38.76100 8.00200 33.79100
C  38.83500 7.76900 32.24100
C  38.74200 6.77300 34.66300
C  39.74400 10.18700 34.70300
C  40.01900 10.29900 36.19200
H  40.38500 11.62500 36.88100
N  38.47900 7.46100 29.13200
C  37.73800 6.83100 30.07800
C  36.60300 6.14300 29.41700
C  36.78900 6.32400 28.03300
C  37.97700 7.18200 27.92300
C  35.53400 5.44400 30.09500
C  35.92900 5.78500 26.85400
O  36.36100 5.82600 25.69200
C  34.56800 5.12500 27.13200
N  40.84800 8.23400 27.38000
C  39.89000 8.01600 26.45400
C  40.45500 8.06600 25.03600
C  41.79300 8.96400 25.29600
C  41.85200 8.95200 26.81600
C  40.89300 6.71800 24.38900
C  41.59900 10.40200 24.80200
C  40.44300 11.22400 25.27500
N  41.88900 9.57900 29.66200
C  42.94200 9.83600 28.85800
C  43.94200 10.56200 29.52800
C  43.54800 10.54000 30.83500
C  42.31200 9.90700 30.90000
C  45.19600 11.06200 28.92100
C  43.98100 10.92800 32.14700
O  44.91200 11.57300 32.54300
C  42.84500 10.41300 33.10500
C  43.34700 9.33200 34.06200
O  43.53900 8.19500 33.68400
O  43.34800 9.72100 35.38400
C  43.96800 8.91200 36.46700
H  37.01500 6.70300 32.10300
H  38.06100 7.32900 25.78200
H  43.73500 9.90500 26.94500
H  40.75000 8.30600 34.55100
H  37.84400 8.57400 33.93600
H  39.56600 6.76200 35.37700
H  38.78200 5.83300 34.11100
H  37.93200 6.76300 35.39300
H  38.69800 10.42900 34.51700
H  40.29800 11.03100 34.29000
H  40.76000 9.51800 36.36600
H  39.07100 10.19300 36.72000
H  35.79700 5.33200 31.14700
H  35.31200 4.44500 29.72100
H  34.56500 5.91900 29.94100
H  34.07300 5.88600 27.73600
H  34.74300 4.22000 27.71300
H  34.04000 4.82600 26.22600
H  39.72200 8.54600 24.38800
H  42.75000 8.58400 24.93800
H  41.89100 6.76100 23.95300
H  40.38000 6.29400 23.52500
H  40.76300 5.91800 25.11800
H  41.56100 10.24700 23.72400
H  42.52100 10.88200 25.13000
H  39.93300 10.74000 26.10800
H  39.74100 11.52200 24.49500
H  40.75200 12.20100 25.64600
H  45.64800 10.30100 28.28500
H  45.87700 11.31700 29.73300
H  44.96400 11.86200 28.21800
H  42.33900 11.12700 33.75400
H  45.01100 9.22100 36.39600
H  43.79200 7.84000 36.38400
H  43.48500 9.26300 37.37900

