158

Mg 2.36700 -0.61900 43.00800
C  5.79900 0.31500 42.70000
C  1.60600 2.58700 41.98400
C  -0.69800 -1.70000 42.79500
C  3.53100 -3.92800 43.78200
N  3.62800 1.21900 42.40400
C  5.00000 1.43400 42.48400
C  5.38700 2.84700 41.98000
C  3.99700 3.58800 42.07300
C  2.97800 2.39700 42.16900
C  3.72200 4.67600 43.20600
C  6.03800 2.77500 40.65900
C  5.73900 1.68000 39.59700
H  5.83000 2.02000 38.05100
N  0.64900 0.33700 42.42500
C  0.50500 1.68000 42.06500
C  -0.93200 1.97900 41.94300
C  -1.59900 0.74200 42.13300
C  -0.57300 -0.28200 42.45100
C  -1.54500 3.28200 41.71800
C  -3.11100 0.48100 42.00100
O  -3.78400 1.43000 41.62600
C  -3.78200 -0.90300 42.22900
N  1.51100 -2.59800 43.16100
C  0.15700 -2.69300 43.15500
C  -0.35400 -4.11300 43.50500
C  1.04800 -4.83400 43.84100
C  2.10700 -3.73400 43.58900
C  -1.42100 -4.22800 44.59100
C  1.34700 -6.19300 42.93400
C  0.60400 -7.41800 43.42100
N  4.24900 -1.67500 43.31000
C  4.53900 -2.98100 43.58900
C  5.93900 -3.14300 43.65100
C  6.40200 -1.90200 43.29100
C  5.39200 -1.02600 43.17300
C  6.81100 -4.31900 43.99700
C  7.63000 -1.23000 43.11500
O  8.78400 -1.65300 43.21900
C  7.27000 0.19800 42.70500
C  7.95600 1.20500 43.56200
O  8.78100 2.04400 43.22000
O  7.39900 1.26200 44.79600
C  8.07000 2.12300 45.82100
H  1.43000 3.64600 41.78700
H  -1.66300 -2.19300 42.65700
H  3.93900 -4.91600 44.00500
H  6.09800 3.31900 42.65800
H  3.84400 4.16500 41.16100
H  2.79400 4.56500 43.76700
H  3.72300 5.70700 42.85300
H  4.50000 4.63600 43.96900
H  7.11800 2.86800 40.76400
H  5.67800 3.56900 40.00500
H  4.67700 1.47100 39.72500
H  6.35600 0.82000 39.86000
H  -1.76600 3.45700 40.66500
H  -0.67500 3.86000 42.03000
H  -2.36100 3.42600 42.42600
H  -3.31100 -1.38000 43.08800
H  -3.53400 -1.32300 41.25400
H  -4.82800 -0.64300 42.39100
H  -0.76000 -4.42700 42.54400
H  1.10900 -5.14200 44.88500
H  -0.93800 -4.27800 45.56700
H  -2.10600 -5.05700 44.41100
H  -1.96700 -3.29500 44.45200
H  2.42500 -6.35400 42.91000
H  0.98900 -5.94400 41.93500
H  0.30500 -7.30400 44.46300
H  1.11300 -8.37800 43.34300
H  -0.31700 -7.62000 42.87400
H  6.56000 -5.24700 43.48300
H  6.92500 -4.50700 45.06400
H  7.81800 -4.22200 43.59100
H  7.73000 0.27800 41.72100
H  9.04000 2.46700 45.46200
H  8.18900 1.60200 46.77100
H  7.40800 2.97900 45.95500
Mg 46.94700 25.28200 28.70300
C  47.42800 27.55800 31.37700
C  45.67500 23.00500 31.04800
C  47.00800 22.79400 26.34800
C  48.37800 27.51800 26.41100
N  46.72300 25.26900 30.90800
C  46.81900 26.36000 31.78400
C  46.33300 25.93300 33.15800
C  45.89300 24.43500 33.03700
C  46.10700 24.23300 31.53200
C  46.79200 23.54600 34.01500
C  45.31100 26.92300 33.86200
C  45.73600 27.11600 35.38300
H  44.74400 27.32800 36.49900
N  46.35100 23.23300 28.73200
C  45.83300 22.47600 29.77200
C  45.49300 21.20300 29.32400
C  45.76400 21.09000 27.98400
C  46.39100 22.41500 27.62300
C  44.88100 20.16300 30.21500
C  45.51000 19.89900 27.07500
O  46.02700 19.87100 25.94400
C  44.76500 18.65900 27.68400
N  47.59100 25.18600 26.71700
C  47.55700 24.02000 25.97500
C  48.24600 24.24500 24.60200
C  48.54200 25.77900 24.58000
C  48.17900 26.16500 25.97900
C  49.46400 23.31600 24.28500
C  47.70000 26.59800 23.55400
C  46.25100 27.01200 23.94900
N  47.76800 27.10000 28.79200
C  48.30200 27.95700 27.77900
C  48.73400 29.15800 28.44200
C  48.32800 29.09600 29.76700
C  47.79700 27.78000 30.01900
C  49.38000 30.30500 27.73800
C  48.33200 29.80800 30.97600
O  48.68900 30.93400 31.26000
C  47.79300 28.86500 32.14500
C  48.88600 28.71900 33.15400
O  50.00200 28.29500 32.77400
O  48.61000 29.08100 34.46100
C  49.61200 28.88300 35.54600
H  45.31200 22.39000 31.87400
H  47.13100 22.03000 25.57800
H  48.75800 28.24500 25.68900
H  47.27200 26.11300 33.68000
H  44.88500 24.18900 33.37100
H  47.44200 23.03000 33.30800
H  46.22500 22.77900 34.54100
H  47.42100 24.06200 34.74100
H  44.31200 26.49400 33.77900
H  45.25200 27.91300 33.40900
H  46.22700 28.08200 35.26300
H  46.51100 26.43000 35.72600
H  45.02500 20.55100 31.22400
H  45.47900 19.25200 30.19800
H  43.81100 19.97200 30.13100
H  45.50800 18.18800 28.32800
H  44.44500 17.89800 26.97200
H  43.86600 19.00000 28.19700
H  47.54700 24.00300 23.80200
H  49.57400 25.92500 24.26100
H  49.17900 22.47300 23.65500
H  49.91800 22.86100 25.16600
H  50.23300 23.90400 23.78400
H  47.67400 26.00700 22.63900
H  48.31800 27.48500 23.42000
H  46.16900 26.57600 24.94500
H  45.54000 26.61700 23.22300
H  46.13400 28.08400 24.10500
H  49.72800 30.93800 28.55400
H  48.74000 30.87400 27.06300
H  50.22800 29.96500 27.14400
H  46.99000 29.38400 32.66800
H  49.24700 28.16800 36.28300
H  49.87800 29.81300 36.04900
H  50.54500 28.43300 35.20800

