158

Mg 40.75600 8.91800 30.11000
C  42.70300 9.76000 32.87200
C  38.27500 7.77200 32.27700
C  39.42500 7.48500 27.55200
C  43.68800 9.69800 28.15500
N  40.57400 8.83000 32.41000
C  41.34600 9.43300 33.30700
C  40.76700 9.26200 34.69100
C  39.41900 8.43500 34.49800
C  39.35000 8.42000 32.99700
C  39.46300 7.03800 35.19600
C  40.69800 10.59400 35.44900
C  41.48200 10.84600 36.75400
H  40.91000 11.86900 37.74400
N  38.98200 8.07400 29.92400
C  38.04900 7.75900 30.93000
C  36.92800 7.22100 30.27500
C  37.21100 7.05500 28.89400
C  38.60400 7.51500 28.73100
C  35.77400 6.77200 31.04100
C  36.46200 6.39800 27.77600
O  36.87100 6.32200 26.59400
C  34.99400 6.02200 28.09800
N  41.40300 8.80200 28.03000
C  40.67500 8.03900 27.23200
C  41.32200 7.88800 25.85800
C  42.72000 8.65300 26.01400
C  42.60100 9.13300 27.50500
C  41.45000 6.41700 25.38800
C  43.00900 9.75600 24.95300
C  42.49600 11.24400 25.20500
N  42.75300 9.74400 30.39200
C  43.80700 9.95700 29.50700
C  44.87600 10.62200 30.30300
C  44.50900 10.54300 31.61100
C  43.25400 9.89300 31.62200
C  46.09300 11.21300 29.66900
C  44.85100 10.92500 32.93100
O  45.80800 11.60300 33.35300
C  43.64800 10.40100 33.81200
C  44.20900 9.47500 34.93400
O  44.27300 8.26100 34.85500
O  44.77300 10.28400 35.88800
C  45.74000 9.55200 36.73900
H  37.47800 7.34500 32.88900
H  39.01300 6.82200 26.78800
H  44.53900 9.93700 27.51400
H  41.42400 8.60800 35.26300
H  38.52100 8.96600 34.81400
H  39.53600 6.21300 34.48700
H  38.55700 6.99100 35.80000
H  40.26800 7.04300 35.93100
H  39.67000 10.92000 35.60800
H  40.96900 11.29700 34.66200
H  42.44000 11.22300 36.39500
H  41.66700 9.89000 37.24400
H  35.80100 7.41500 31.92100
H  35.89900 5.71800 31.29000
H  34.84000 6.91300 30.49800
H  35.02700 5.34100 28.94800
H  34.54100 5.49500 27.25800
H  34.47400 6.95900 28.29400
H  40.64200 8.47600 25.24200
H  43.52300 7.91900 25.94600
H  40.68300 5.81300 25.87300
H  42.47200 6.12000 25.62300
H  41.32300 6.46700 24.30700
H  42.66400 9.47200 23.95900
H  44.09400 9.85400 24.94200
H  41.82500 11.26000 26.06400
H  41.96500 11.59100 24.31800
H  43.25100 12.01300 25.37000
H  46.76700 11.67600 30.38900
H  45.85600 12.03300 28.99100
H  46.56400 10.39000 29.13100
H  43.19500 11.24600 34.32900
H  46.75000 9.54300 36.32900
H  45.33100 8.56100 36.93500
H  45.87900 10.15100 37.63900
Mg -12.54600 16.80400 42.32100
C  -9.65900 14.78900 41.61300
C  -10.98600 19.39000 40.70900
C  -15.53500 18.22800 41.96300
C  -14.24400 13.81900 43.22500
N  -10.54400 16.98300 41.22200
C  -9.53600 16.12800 41.15900
C  -8.31900 16.69900 40.43500
C  -8.72800 18.19800 40.56800
C  -10.23900 18.18900 40.78100
C  -7.88200 18.91500 41.73100
C  -8.09000 16.07300 39.04000
C  -6.64600 15.90400 38.57900
H  -6.33200 16.82500 37.46000
N  -13.13100 18.58900 41.56300
C  -12.35400 19.59700 41.01000
C  -13.10300 20.74700 40.71400
C  -14.44500 20.47600 41.10600
C  -14.42100 19.04300 41.58000
C  -12.58200 21.99900 40.19600
C  -15.66800 21.44900 41.07800
O  -15.62800 22.48400 40.45500
C  -16.96500 21.04000 41.63600
N  -14.61100 16.10200 42.83100
C  -15.62100 16.96800 42.52300
C  -16.99200 16.33800 42.79700
C  -16.55600 14.91000 43.32200
C  -15.04100 14.94700 43.14100
C  -18.06200 17.08900 43.62200
C  -17.30900 13.58200 42.83800
C  -17.89500 12.71200 43.99500
N  -12.15200 14.71900 42.41700
C  -12.87900 13.65400 42.86000
C  -12.10300 12.40400 42.79100
C  -10.79100 12.82900 42.37400
C  -10.90100 14.22500 42.09200
C  -12.51600 10.99500 43.17500
C  -9.43200 12.37400 42.14200
O  -8.92100 11.28000 42.35600
C  -8.67600 13.56700 41.51300
C  -7.50700 13.80700 42.43000
O  -7.48600 13.99400 43.66400
O  -6.44000 13.75500 41.56000
C  -5.12600 14.02300 42.10900
H  -10.50000 20.34700 40.51000
H  -16.46100 18.70200 41.62900
H  -14.76700 12.89100 43.46600
H  -7.40200 16.54200 41.00200
H  -8.56400 18.76000 39.64900
H  -7.13400 19.48000 41.17400
H  -7.42600 18.29800 42.50500
H  -8.56200 19.65600 42.15200
H  -8.38000 16.88400 38.37200
H  -8.61500 15.15700 38.77100
H  -6.43400 14.87800 38.27900
H  -5.89300 16.15400 39.32700
H  -12.93700 22.09600 39.17000
H  -11.50500 22.15600 40.25700
H  -13.02900 22.73200 40.86700
H  -17.56600 21.94700 41.69800
H  -16.86400 20.55500 42.60700
H  -17.55300 20.39900 40.97900
H  -17.58100 16.12400 41.90500
H  -16.60000 15.01500 44.40600
H  -17.62300 18.02100 43.97900
H  -18.28100 16.44900 44.47700
H  -18.92500 17.27500 42.98300
H  -16.76700 12.90100 42.18200
H  -18.16500 13.84900 42.21900
H  -18.97400 12.85000 43.91900
H  -17.52700 13.01800 44.97400
H  -17.60300 11.66800 43.88400
H  -12.68700 10.95100 44.25000
H  -11.80000 10.33300 42.68600
H  -13.49700 10.84300 42.72400
H  -8.23100 13.46100 40.52300
H  -5.03300 13.62600 43.12100
H  -4.88900 15.07900 42.23600
H  -4.26500 13.62400 41.57400

