158

Mg 17.18200 -2.16400 27.16200
C  16.32400 0.19900 29.67500
C  19.01200 -3.88000 29.47200
C  18.32800 -3.97400 24.66100
C  16.00500 0.31600 24.80200
N  17.51700 -1.94200 29.29400
C  17.12500 -0.86600 30.11700
C  17.58800 -1.15000 31.54300
C  18.54000 -2.37700 31.39500
C  18.32900 -2.75800 29.91300
C  20.04100 -2.22400 31.78200
C  16.40500 -1.50100 32.55700
C  16.50800 -0.94000 34.03400
H  17.93800 -0.59700 34.50900
N  18.32900 -3.79700 27.04000
C  19.00900 -4.36400 28.13300
C  19.58900 -5.67500 27.79600
C  19.53800 -5.60200 26.31600
C  18.71500 -4.46100 25.94800
C  20.27600 -6.52800 28.76500
C  20.31600 -6.45400 25.38200
O  20.30100 -6.33800 24.17500
C  21.12600 -7.65700 25.93000
N  17.21200 -1.85700 25.05100
C  17.71400 -2.79200 24.22200
C  17.65800 -2.26600 22.73800
C  16.82400 -0.99900 22.86700
C  16.67900 -0.82000 24.35500
C  19.09100 -1.99200 22.19000
C  15.47400 -1.19600 22.09900
C  15.21600 -0.15500 20.96700
N  16.21900 -0.25400 27.22300
C  15.75000 0.56200 26.16800
C  15.12600 1.71700 26.73000
C  15.23900 1.59100 28.16200
C  15.92100 0.37300 28.39600
C  14.35700 2.75800 26.02700
C  15.06300 2.24800 29.46900
O  14.56100 3.32500 29.73500
C  15.72500 1.32900 30.54500
C  16.69500 2.08500 31.41100
O  17.78100 2.55100 31.09500
O  16.12400 2.25800 32.63900
C  16.84000 3.18300 33.53000
H  19.53400 -4.44600 30.24600
H  18.66100 -4.66900 23.88800
H  15.67800 1.06600 24.07800
H  18.23700 -0.30500 31.77200
H  18.14500 -3.15500 32.04800
H  20.34100 -3.15500 32.26300
H  20.15400 -1.38300 32.46700
H  20.70900 -2.05000 30.93900
H  16.24700 -2.56500 32.73200
H  15.49600 -1.09600 32.11100
H  16.13400 -1.57100 34.84100
H  15.93500 -0.01300 34.04400
H  20.58400 -7.52600 28.45200
H  19.62200 -6.69800 29.62000
H  21.19100 -6.06300 29.13200
H  21.53800 -8.13300 25.04000
H  20.48000 -8.36400 26.45100
H  21.90900 -7.27900 26.58700
H  17.18500 -2.99900 22.08500
H  17.14800 -0.01900 22.51800
H  19.93800 -1.99200 22.87600
H  19.12400 -0.96800 21.81700
H  19.41300 -2.69500 21.42100
H  14.60600 -1.12500 22.75500
H  15.43600 -2.11700 21.51600
H  16.19000 0.06300 20.53000
H  14.70500 0.76300 21.25700
H  14.55400 -0.54700 20.19500
H  13.98900 2.39700 25.06700
H  14.89500 3.69900 25.90900
H  13.43100 2.96700 26.56400
H  14.88300 0.94700 31.12100
H  16.25100 3.49800 34.39100
H  17.33300 4.03400 33.05900
H  17.66200 2.77700 34.12000
Mg -9.68500 40.38800 42.08800
C  -8.72300 37.00300 40.90900
C  -6.76100 41.51800 40.81100
C  -11.04300 43.38800 42.21300
C  -12.95900 38.80800 42.56600
N  -8.03900 39.36700 40.85500
C  -7.72900 38.00200 40.75900
C  -6.31600 37.83500 40.06200
C  -5.65700 39.20800 40.36400
C  -6.83300 40.11100 40.72700
C  -4.61200 39.30400 41.56100
C  -6.44000 37.43200 38.58900
C  -5.80900 36.12000 37.99300
H  -5.58000 36.21300 36.49500
N  -8.98900 42.26600 41.69000
C  -7.75600 42.53300 41.12900
C  -7.56800 43.94300 41.16100
C  -8.81900 44.50500 41.48700
C  -9.68000 43.41600 41.81100
C  -6.32000 44.62900 40.71000
C  -9.21100 46.06000 41.50700
O  -8.48100 46.98200 41.19700
C  -10.52000 46.51500 42.06100
N  -11.65700 40.97300 42.29100
C  -11.96100 42.33500 42.39700
C  -13.44600 42.64500 42.74600
C  -14.07100 41.18500 42.94900
C  -12.87300 40.25700 42.51200
C  -13.61400 43.58600 44.00800
C  -15.48300 40.91800 42.30000
C  -16.46000 40.04500 43.06700
N  -10.61400 38.33700 42.01700
C  -11.95500 37.89300 42.22700
C  -12.02200 36.39900 42.07800
C  -10.75300 36.01000 41.63900
C  -9.94900 37.20100 41.57100
C  -13.23500 35.54700 42.17500
C  -10.04800 34.87400 41.14400
O  -10.33600 33.70200 41.09400
C  -8.56600 35.51000 40.73200
C  -7.57900 34.79500 41.57400
O  -7.10600 35.21400 42.65200
O  -7.33100 33.64400 40.89300
C  -6.53700 32.62200 41.47900
H  -5.79300 41.92800 40.51800
H  -11.54300 44.31700 42.49300
H  -13.88600 38.26200 42.75400
H  -5.77100 37.02000 40.53800
H  -5.12000 39.60400 39.50200
H  -3.58700 39.27200 41.19200
H  -4.83100 38.44200 42.19100
H  -4.77400 40.18200 42.18700
H  -5.92200 38.24700 38.08500
H  -7.50800 37.45000 38.37000
H  -6.46400 35.26200 38.14500
H  -4.92600 35.82700 38.56100
H  -5.97600 44.23500 39.75300
H  -5.56500 44.39700 41.46100
H  -6.29700 45.71600 40.62700
H  -10.71700 46.05600 43.03000
H  -11.29500 46.09700 41.41800
H  -10.49500 47.60200 42.13400
H  -13.77600 43.22100 41.88100
H  -14.19500 41.15600 44.03200
H  -12.71700 43.62900 44.62600
H  -14.49000 43.22600 44.54800
H  -13.82700 44.63000 43.77800
H  -15.40900 40.51800 41.28900
H  -15.84800 41.92700 42.11300
H  -17.39900 40.58500 43.18400
H  -16.13300 40.04200 44.10700
H  -16.63400 38.99500 42.83200
H  -13.96000 35.59800 41.36300
H  -13.73400 35.84600 43.09700
H  -12.81500 34.57100 42.41700
H  -8.30100 35.21900 39.71600
H  -5.85800 33.01500 42.23700
H  -6.00900 32.05600 40.71200
H  -7.21700 31.94700 41.99900

