158

Mg 49.75100 35.58700 26.52700
C  47.68800 34.34500 29.27500
C  50.39600 38.39100 28.34800
C  51.62100 36.55000 23.93100
C  48.66000 32.74100 24.68400
N  49.02500 36.31300 28.60600
C  48.30600 35.60900 29.59200
C  48.40900 36.29100 30.92400
C  48.86700 37.79300 30.44400
C  49.46100 37.48500 29.06000
C  47.78800 38.84100 30.33200
C  49.44900 35.64700 31.77800
C  49.07300 35.49000 33.24000
H  48.02500 36.36300 33.87300
N  50.90000 37.25200 26.18000
C  51.08700 38.33500 27.04900
C  52.03600 39.23600 26.42800
C  52.49000 38.64500 25.18500
C  51.65700 37.42200 25.05100
C  52.37000 40.59900 27.08400
C  53.42200 39.34600 24.19900
O  53.68200 38.81400 23.09500
C  54.18800 40.64500 24.54200
N  50.00900 34.82100 24.54700
C  50.86200 35.37900 23.75100
C  51.07500 34.51900 22.44800
C  50.31400 33.28900 22.78200
C  49.60100 33.62700 24.05800
C  50.88700 35.13900 21.04900
C  51.22500 32.07200 23.08800
C  50.68800 30.68200 22.92900
N  48.37800 33.96100 26.81200
C  48.12300 32.86300 25.99900
C  47.33100 31.88400 26.72400
C  47.06900 32.47400 27.96000
C  47.79400 33.70800 28.01900
C  46.69700 30.68800 26.12000
C  46.37300 32.21100 29.19500
O  45.70400 31.28400 29.56900
C  46.64600 33.47800 30.07100
C  47.01100 32.98900 31.48700
O  48.13500 32.57000 31.78300
O  45.92200 32.84200 32.27900
C  46.20500 32.19700 33.60800
H  50.64400 39.16600 29.07600
H  52.28100 36.88400 23.12800
H  48.40500 31.84800 24.11000
H  47.40300 36.27500 31.34300
H  49.55000 38.28500 31.13600
H  48.14600 39.72000 30.86900
H  46.95400 38.41300 30.88800
H  47.52300 39.13100 29.31600
H  50.35000 36.25300 31.68400
H  49.53900 34.60400 31.47500
H  49.92500 35.38900 33.91200
H  48.70300 34.46500 33.24200
H  51.50800 40.84300 27.70600
H  52.37700 41.42500 26.37300
H  53.34900 40.62700 27.56200
H  53.76500 41.63200 24.35900
H  55.01200 40.60700 23.83000
H  54.44400 40.50800 25.59300
H  52.14500 34.31700 22.48600
H  49.55700 32.99400 22.05600
H  50.13200 34.58800 20.48800
H  51.81900 35.17900 20.48700
H  50.56700 36.16900 21.21000
H  51.74800 32.12100 24.04400
H  51.95300 32.06400 22.27700
H  51.14900 30.04700 23.68600
H  51.02700 30.30900 21.96200
H  49.61100 30.52000 22.95700
H  47.28700 30.19800 25.34600
H  45.71300 30.95500 25.73400
H  46.69900 29.97300 26.94300
H  45.65700 33.93600 30.06600
H  47.11200 31.59600 33.67800
H  45.36600 31.50500 33.68900
H  46.06900 32.86400 34.45900
Mg 27.51000 50.77200 25.74400
C  25.34200 51.72100 28.44400
C  29.84700 49.83300 28.15200
C  29.60600 50.05700 23.34400
C  25.32700 52.32700 23.55800
N  27.55100 50.70000 28.03400
C  26.56400 51.13700 28.88200
C  26.85100 50.81400 30.35500
C  28.38700 50.32200 30.28200
C  28.67600 50.36400 28.74500
C  29.49800 51.17800 31.03600
C  25.82000 49.78400 30.85400
C  24.90300 50.10900 32.00400
H  24.72200 49.18800 33.25100
N  29.48200 49.98200 25.80100
C  30.26100 49.65200 26.84500
C  31.46600 48.93700 26.36600
C  31.44900 49.08300 24.94300
C  30.13600 49.71600 24.62300
C  32.39500 48.13400 27.19200
C  32.54200 48.78900 23.93500
O  32.39900 49.06200 22.70500
C  33.87100 48.27300 24.37000
N  27.50900 51.28100 23.76100
C  28.44100 50.74100 22.89300
C  28.03600 50.87200 21.40800
C  26.58000 51.33100 21.52900
C  26.45300 51.67500 23.05500
C  28.93200 51.96000 20.80800
C  25.55300 50.33400 21.04400
C  24.23000 50.83600 20.42100
N  25.84000 52.02000 25.97400
C  25.05700 52.51300 24.99400
C  23.98900 53.20500 25.49600
C  23.90300 52.91200 26.85800
C  25.11300 52.16300 27.10600
C  23.03600 53.98200 24.75200
C  23.25700 53.05500 28.17700
O  22.22300 53.60700 28.51500
C  24.15900 52.32300 29.24600
C  24.66900 53.25100 30.26900
O  25.70200 53.95400 30.24700
O  23.68000 53.25300 31.25700
C  23.83900 54.12400 32.43000
H  30.46100 49.29000 28.87400
H  30.13000 49.61100 22.49600
H  24.51500 52.61600 22.88700
H  26.81100 51.75100 30.91000
H  28.51700 49.27400 30.55300
H  30.27400 51.56700 30.37800
H  29.93600 50.54400 31.80700
H  29.01200 51.97200 31.60300
H  26.39900 48.91100 31.15400
H  25.25800 49.45000 29.98200
H  23.89800 50.31200 31.63400
H  25.24000 51.09300 32.33100
H  32.28800 47.05900 27.04600
H  32.25900 48.26500 28.26600
H  33.44000 48.41300 27.05800
H  34.63500 48.95800 24.73800
H  34.26100 47.80500 23.46600
H  33.64400 47.37700 24.94700
H  28.14600 49.89300 20.94200
H  26.37600 52.27500 21.02500
H  28.27600 52.76800 20.48400
H  29.38500 51.58900 19.88900
H  29.76200 52.21800 21.46500
H  25.30600 49.65600 21.86000
H  26.04700 49.75800 20.26000
H  24.19500 50.66300 19.34500
H  24.00000 51.82700 20.81100
H  23.42900 50.19400 20.78800
H  22.36900 53.32200 24.19700
H  23.59500 54.54400 24.00400
H  22.47000 54.56800 25.47600
H  23.45600 51.63000 29.70900
H  23.08800 53.78900 33.14600
H  23.87600 55.20900 32.33600
H  24.76300 53.75000 32.87100

