158

Mg 1.03900 8.23500 26.77300
C  1.84600 10.26800 29.48300
C  0.81400 5.54500 29.05900
C  0.69600 6.12200 24.06200
C  1.77600 10.86200 24.71100
N  1.47000 7.84700 28.91100
C  1.62300 8.90200 29.79200
C  1.38400 8.39800 31.31600
C  1.60100 6.86500 31.18100
C  1.28700 6.68600 29.63100
C  2.98300 6.34900 31.75700
C  0.01600 8.78300 31.80300
C  -0.23400 8.86300 33.31600
H  0.80400 8.42300 34.38300
N  0.75600 6.13000 26.64900
C  0.69400 5.18200 27.71100
C  0.40400 3.85300 27.15300
C  0.27600 3.99100 25.70600
C  0.66600 5.46700 25.38900
C  0.40600 2.55800 27.91700
C  0.00600 2.89800 24.62100
O  0.02700 3.24700 23.48700
C  -0.41000 1.48000 24.94100
N  1.29700 8.41900 24.71000
C  0.96900 7.43900 23.82300
C  1.05200 8.03100 22.38700
C  1.03200 9.56600 22.60800
C  1.45700 9.61100 24.13400
C  2.28100 7.56100 21.56100
C  -0.41500 10.19800 22.53600
C  -0.81600 10.86200 21.16300
N  1.59700 10.20400 26.99200
C  1.86600 11.16100 26.08200
C  2.20400 12.37500 26.72300
C  2.18700 12.07400 28.04900
C  1.84400 10.76000 28.16000
C  2.67300 13.66600 26.10700
C  2.40600 12.63700 29.42300
O  2.82700 13.75300 29.74200
C  2.09600 11.40700 30.46200
C  3.23100 11.15300 31.28300
O  4.22400 10.47800 30.98800
O  2.98900 11.76700 32.47600
C  3.95100 11.48600 33.51700
H  0.70500 4.69500 29.73600
H  0.36500 5.52500 23.20900
H  1.83100 11.73400 24.05700
H  2.18500 8.73600 31.97300
H  0.86500 6.37200 31.81600
H  2.79200 5.56600 32.49000
H  3.62000 7.14400 32.14400
H  3.52700 5.82300 30.97200
H  -0.73100 8.05900 31.47700
H  -0.27300 9.71800 31.32200
H  -1.09700 8.28100 33.64100
H  -0.48200 9.91200 33.48100
H  0.69100 2.70800 28.95800
H  1.18100 1.98200 27.41200
H  -0.50500 1.96400 27.84200
H  -0.68100 0.89500 24.06200
H  -1.27300 1.49200 25.60700
H  0.45500 1.10000 25.48400
H  0.14600 7.88000 21.79900
H  1.73100 10.12100 21.98200
H  2.48400 8.31800 20.80300
H  1.97300 6.56700 21.23700
H  3.08600 7.37200 22.27100
H  -0.60500 11.03000 23.21500
H  -1.15900 9.44500 22.79400
H  -1.76100 10.51300 20.74700
H  -0.01900 10.96500 20.42700
H  -0.96900 11.87200 21.54300
H  2.76300 14.45300 26.85600
H  1.90100 13.95500 25.39300
H  3.59900 13.48400 25.56200
H  1.19600 11.58300 31.05200
H  3.76300 10.46400 33.84500
H  4.03200 12.18400 34.35000
H  4.95500 11.67400 33.13600
Mg 54.91200 23.27200 44.74300
C  52.43100 25.49400 43.60700
C  53.02700 20.69500 43.82800
C  57.70000 21.20200 44.97700
C  56.99700 26.07100 45.31500
N  52.93900 23.16000 43.84200
C  52.06600 24.14700 43.39300
C  50.75900 23.48000 42.85200
C  50.83000 22.01000 43.40500
C  52.31900 21.94100 43.78000
C  49.89700 21.79100 44.69500
C  50.58600 23.51600 41.32100
C  49.09100 23.79800 41.00000
H  48.53500 23.34600 39.65300
N  55.31300 21.20600 44.57100
C  54.36800 20.33300 44.09800
C  54.94800 18.99100 44.00900
C  56.28200 19.09500 44.44300
C  56.49200 20.51600 44.76200
C  54.26900 17.79200 43.46200
C  57.36800 17.93000 44.43900
O  57.10000 16.75200 44.16400
C  58.75600 17.99500 44.94000
N  57.03300 23.58400 45.07800
C  57.93400 22.59000 45.18800
C  59.36300 23.08800 45.48500
C  59.16500 24.65000 45.67800
C  57.66500 24.78700 45.38200
C  60.01500 22.32200 46.69400
C  60.03700 25.58400 44.78500
C  60.54400 26.83400 45.44100
N  54.80700 25.35100 44.58000
C  55.72100 26.33600 44.86500
C  55.00400 27.56900 44.79100
C  53.75600 27.34800 44.17000
C  53.71300 25.99600 44.09200
C  55.45500 28.94100 45.11600
C  52.54000 27.91500 43.73900
O  52.14000 29.09900 43.76200
C  51.65700 26.78000 43.25400
C  51.55600 26.81100 41.75900
O  52.48400 26.73100 40.99600
O  50.31500 27.16700 41.33300
C  50.10300 27.63900 39.96400
H  52.44700 19.83900 43.47700
H  58.61500 20.60700 44.93600
H  57.68300 26.89400 45.52700
H  49.94700 24.02400 43.33500
H  50.65400 21.29100 42.60500
H  48.98800 21.41400 44.22700
H  49.56200 22.63400 45.29900
H  50.40600 21.08200 45.34900
H  50.82700 22.51200 40.97100
H  51.22100 24.24600 40.81900
H  49.06600 24.88000 40.87600
H  48.38600 23.46800 41.76400
H  54.95200 17.19400 42.85800
H  53.26200 17.81800 43.04600
H  53.96400 17.08900 44.23700
H  58.72900 18.44800 45.93200
H  59.30800 18.63700 44.25300
H  59.14000 16.97600 44.97700
H  60.06200 22.94200 44.66100
H  59.21100 24.90500 46.73700
H  59.43100 21.48300 47.07400
H  60.11800 22.99400 47.54500
H  60.92200 21.86200 46.30100
H  59.52000 25.95900 43.90200
H  60.94900 25.10300 44.43200
H  59.99900 27.63100 44.93600
H  61.61900 26.96600 45.31300
H  60.30200 26.79300 46.50300
H  56.52400 28.99600 45.32000
H  54.94600 29.31300 46.00500
H  55.21300 29.49500 44.20900
H  50.65400 26.67300 43.66700
H  49.35900 28.43600 39.95800
H  49.71800 26.75200 39.46000
H  50.99600 28.11600 39.56100

