158

Mg 1.12400 7.65000 25.10500
C  1.84100 9.32000 28.06300
C  0.85700 4.73300 26.82900
C  0.70400 6.17400 22.17100
C  2.09900 10.57900 23.40300
N  1.34200 7.14100 27.21100
C  1.55000 7.99300 28.26400
C  1.45700 7.23600 29.61600
C  1.51700 5.72300 29.13400
C  1.16500 5.88000 27.63700
C  2.83500 5.00500 29.42300
C  0.28200 7.66800 30.43600
C  0.58500 8.03700 31.87700
H  1.80500 7.24500 32.48200
N  0.73100 5.73700 24.55100
C  0.64500 4.66600 25.38800
C  0.39600 3.44700 24.66800
C  0.43400 3.83000 23.21800
C  0.64800 5.31100 23.27200
C  0.22400 2.12700 25.32300
C  0.34000 2.98100 21.97700
O  0.49200 3.47300 20.87700
C  0.08700 1.51600 22.20300
N  1.26500 8.30800 23.08100
C  1.05400 7.49600 22.02600
C  1.03500 8.30400 20.74300
C  1.63100 9.63000 21.14800
C  1.64900 9.50600 22.64500
C  1.79500 7.56500 19.62500
C  0.85000 10.90300 20.57400
C  -0.46200 11.38800 21.25000
N  1.79300 9.67800 25.58900
C  2.16400 10.72400 24.77700
C  2.52100 11.86900 25.63400
C  2.33700 11.36900 26.91200
C  1.99100 10.04000 26.82900
C  2.96500 13.24600 25.10600
C  2.54500 11.75500 28.27000
O  3.06200 12.79000 28.75700
C  2.06500 10.46200 29.06500
C  3.13200 10.25100 30.08000
O  3.98300 9.37600 29.96300
O  3.03900 11.14400 31.12800
C  4.02900 11.10800 32.19000
H  0.88000 3.73900 27.28100
H  0.25600 5.73500 21.27800
H  2.34200 11.42500 22.75700
H  2.39900 7.52600 30.08000
H  0.71300 5.15000 29.59700
H  3.38500 5.65700 30.10200
H  3.42800 4.97600 28.50900
H  2.64500 4.01400 29.83500
H  -0.52400 6.93500 30.40700
H  -0.17300 8.54300 29.97200
H  -0.34800 7.85300 32.40900
H  0.64500 9.11800 32.00400
H  1.16600 1.57800 25.33400
H  -0.51600 1.53100 24.78700
H  -0.17900 2.29000 26.32200
H  -0.94000 1.25200 22.45200
H  0.85000 1.14000 22.88400
H  0.37900 1.00800 21.28400
H  -0.01200 8.42700 20.46700
H  2.64900 9.73000 20.77000
H  2.36600 6.77400 20.11100
H  2.42800 8.27700 19.09600
H  1.16100 6.95500 18.98200
H  0.65800 10.74800 19.51200
H  1.42400 11.82300 20.68200
H  -0.75800 10.69500 22.03800
H  -1.31000 11.46100 20.56800
H  -0.31600 12.34600 21.74900
H  3.60800 13.81700 25.77500
H  2.18700 13.82600 24.61000
H  3.58100 12.87000 24.28900
H  1.11700 10.81600 29.47000
H  3.63000 10.44000 32.95400
H  4.22400 12.07900 32.64500
H  4.95500 10.70700 31.77900
Mg 8.99600 3.26200 27.07800
C  10.13100 1.76900 30.00800
C  7.13000 5.47700 29.01500
C  7.34400 4.22000 24.27400
C  10.46700 0.69300 25.21200
N  8.52500 3.46800 29.25300
C  9.22500 2.76500 30.25400
C  8.95500 3.39000 31.62600
C  7.87600 4.38000 31.35700
C  7.81400 4.50300 29.78000
C  6.42500 4.14100 31.90100
C  10.22100 4.09500 32.18400
C  10.76100 3.58000 33.50300
H  10.94900 4.46500 34.71600
N  7.49300 4.64500 26.68400
C  6.93000 5.53800 27.59700
C  6.13300 6.54500 26.91000
C  6.34900 6.30600 25.54800
C  7.06000 5.00100 25.43900
C  5.16000 7.51500 27.53900
C  5.95700 7.19600 24.27200
O  6.20600 6.89200 23.11800
C  5.32400 8.55500 24.48000
N  8.80500 2.47200 25.01200
C  8.12600 3.10600 24.06400
C  8.29000 2.46900 22.70800
C  9.46900 1.50000 23.01000
C  9.58700 1.55000 24.46600
C  6.97200 1.66000 22.32000
C  10.78700 1.77500 22.24300
C  11.25600 0.55700 21.36600
N  10.14000 1.63100 27.47700
C  10.73100 0.72700 26.61700
C  11.48500 -0.24100 27.40600
C  11.33200 0.18700 28.76400
C  10.41300 1.27500 28.65200
C  12.39700 -1.39800 26.93700
C  11.75300 -0.04000 30.11800
O  12.70100 -0.74800 30.53900
C  10.93400 1.02800 31.00800
C  10.18100 0.30300 32.04200
O  9.06500 -0.13200 31.96700
O  10.98500 0.22200 33.15800
C  10.36600 -0.57500 34.24200
H  6.54500 6.17000 29.62300
H  6.82800 4.62600 23.40200
H  11.02400 -0.07300 24.66800
H  8.70600 2.51400 32.22500
H  8.05000 5.39500 31.71300
H  6.48000 3.14500 32.33900
H  5.68400 4.12400 31.10200
H  6.26900 4.97600 32.58400
H  10.07100 5.15000 32.41500
H  11.00200 3.93000 31.44200
H  11.79100 3.37900 33.20600
H  10.31200 2.71000 33.98100
H  4.21100 6.97900 27.53600
H  5.09600 8.47800 27.03300
H  5.42300 7.77900 28.56400
H  5.19000 9.13600 23.56700
H  5.96700 9.18600 25.09400
H  4.37000 8.45300 24.99700
H  8.61700 3.26200 22.03500
H  9.03900 0.50800 22.87300
H  6.71000 2.05900 21.34100
H  6.07200 1.84500 22.90700
H  7.11700 0.58000 22.32400
H  11.53500 1.85500 23.03200
H  10.55900 2.69000 21.69600
H  10.45400 -0.13800 21.11500
H  11.95500 0.01000 22.00000
H  11.72200 0.91800 20.44900
H  13.44000 -1.08100 26.89800
H  12.11300 -1.74900 25.94500
H  12.33600 -2.30500 27.53800
H  11.58600 1.73800 31.51600
H  9.66900 0.09700 34.74300
H  11.16200 -0.69000 34.97700
H  9.89700 -1.54500 34.07500

