158

Mg 41.06700 9.90300 30.28800
C  42.91300 10.51100 33.15100
C  38.68600 8.25700 32.30600
C  39.51300 8.83800 27.50100
C  43.62800 11.09800 28.29700
N  40.84700 9.45400 32.51800
C  41.76600 9.82500 33.48900
C  41.23700 9.38100 34.87000
C  40.06900 8.38600 34.50700
C  39.84300 8.73700 32.99500
C  40.22900 6.83600 34.76700
C  40.87200 10.65100 35.80500
C  41.43400 10.86400 37.19500
H  40.80300 12.00200 38.08100
N  39.27700 8.76200 29.91300
C  38.40100 8.33100 30.93900
C  37.32900 7.68100 30.28300
C  37.40200 7.94600 28.89300
C  38.80600 8.54700 28.68200
C  36.30400 6.88100 30.98100
C  36.43900 7.61100 27.74800
O  36.61900 7.84100 26.58600
C  35.06300 7.03700 28.12100
N  41.54800 10.00300 28.24400
C  40.74200 9.44800 27.29200
C  41.25400 9.69200 25.88500
C  42.33100 10.74900 26.15700
C  42.51900 10.65000 27.62800
C  41.73400 8.34500 25.30300
C  41.98000 12.13700 25.70200
C  40.70600 12.72100 26.34600
N  42.87800 10.68100 30.64200
C  43.83200 11.11700 29.73500
C  44.93200 11.70300 30.42700
C  44.60900 11.52900 31.76200
C  43.36300 10.83600 31.85000
C  46.12600 12.28500 29.98100
C  45.06300 11.75400 33.18400
O  46.11800 12.32000 33.59300
C  43.97700 11.12400 34.10900
C  44.70900 10.20100 34.96200
O  45.04000 9.08400 34.59700
O  44.88600 10.80500 36.22500
C  45.59200 9.98700 37.20200
H  37.99200 7.67900 32.92000
H  38.90200 8.66500 26.61300
H  44.45300 11.61200 27.79800
H  42.03700 8.82800 35.36300
H  39.24700 8.81600 35.08000
H  40.35100 6.27600 33.84000
H  39.31300 6.51600 35.26400
H  41.01500 6.74300 35.51700
H  39.80800 10.64600 36.04300
H  41.11600 11.48800 35.15200
H  42.45900 11.20600 37.05300
H  41.59200 9.94800 37.76400
H  35.29900 7.29600 30.90600
H  36.49600 6.89300 32.05400
H  36.24100 5.86800 30.58500
H  34.28700 7.18800 27.37000
H  34.80500 7.73000 28.92200
H  35.07200 6.01900 28.51100
H  40.44000 10.15400 25.32600
H  43.25900 10.57500 25.61200
H  41.41200 7.43200 25.80400
H  42.80900 8.26700 25.13900
H  41.30800 8.34100 24.30000
H  41.86600 12.14800 24.61800
H  42.90300 12.69500 25.85500
H  40.92900 13.68700 26.79900
H  40.18900 12.14200 27.11200
H  39.89400 12.76300 25.62100
H  45.96300 13.20500 29.41900
H  46.68100 11.49600 29.47300
H  46.76500 12.56400 30.81900
H  43.60300 11.97600 34.67800
H  45.17400 8.99000 37.06300
H  45.44500 10.34400 38.22100
H  46.67500 9.97300 37.07900
Mg 47.72200 16.63700 29.31900
C  45.87200 16.36300 32.28200
C  49.96300 18.51900 31.02600
C  49.34000 17.28500 26.43000
C  45.04100 15.32900 27.49400
N  47.81700 17.50000 31.37900
C  47.00300 17.13100 32.38100
C  47.58700 17.66400 33.73700
C  48.77700 18.59300 33.29600
C  48.86100 18.26600 31.81300
C  48.60700 20.09100 33.49300
C  48.05700 16.42100 34.65800
C  47.87800 16.73200 36.14300
H  47.53800 18.17300 36.57300
N  49.49500 17.58700 28.85400
C  50.28600 18.27400 29.70800
C  51.57100 18.64700 29.05900
C  51.44900 18.21300 27.67100
C  50.04500 17.67300 27.56700
C  52.79600 19.26900 29.77500
C  52.42200 18.28200 26.51600
O  52.04100 18.08400 25.36500
C  53.87400 18.59700 26.76600
N  47.23400 16.28000 27.23500
C  48.07900 16.67100 26.19900
C  47.37100 16.51500 24.84800
C  46.05800 15.69700 25.25100
C  46.09000 15.82200 26.73900
C  46.94700 17.84100 24.10000
C  45.98700 14.25600 24.64800
C  45.27400 14.00100 23.29300
N  45.81000 16.02700 29.69000
C  44.81500 15.47800 28.88000
C  43.74500 14.94300 29.67900
C  44.13500 15.21000 31.10500
C  45.39200 15.95300 30.98300
C  42.56800 14.14900 29.14900
C  43.73500 15.12000 32.48200
O  42.73100 14.73000 33.01600
C  44.80300 15.86100 33.30100
C  44.12900 16.91000 34.10000
O  43.72400 18.03300 33.70200
O  44.05900 16.50400 35.39900
C  43.01500 17.27000 36.10800
H  50.74300 19.09500 31.52700
H  49.81500 17.48900 25.46800
H  44.24100 15.05000 26.80500
H  46.69600 18.15700 34.12800
H  49.68200 18.28000 33.81700
H  47.90600 20.14700 34.32600
H  48.18100 20.58600 32.62000
H  49.53500 20.62200 33.70200
H  49.11000 16.23900 34.44300
H  47.43900 15.57200 34.36500
H  48.85600 16.48700 36.55700
H  47.18900 15.96200 36.49300
H  52.51000 19.59700 30.77400
H  53.25200 20.02300 29.13300
H  53.48800 18.44200 29.93300
H  54.09500 18.09400 27.70700
H  54.06400 19.65800 26.92800
H  54.41900 18.20200 25.90800
H  47.98300 16.01400 24.09800
H  45.17900 16.24000 24.90400
H  47.13500 18.66600 24.78700
H  45.94500 17.84100 23.67000
H  47.58700 17.95900 23.22600
H  45.34400 13.76400 25.37900
H  47.01100 13.88700 24.60800
H  45.94800 13.40700 22.67600
H  45.09500 14.93300 22.75600
H  44.25600 13.63600 23.43000
H  42.77100 13.62600 28.21500
H  41.86900 14.97800 29.04200
H  42.14100 13.42500 29.84400
H  45.21400 15.15800 34.02600
H  43.33000 18.23000 36.51500
H  42.80700 16.70900 37.01900
H  42.09600 17.18100 35.52900

