158

Mg 24.66500 -5.86500 45.64400
C  26.75300 -3.41700 44.42800
C  22.07200 -4.58800 43.79100
C  23.06900 -8.70500 46.00200
C  27.36700 -7.13700 47.50900
N  24.41800 -4.15900 44.26600
C  25.42800 -3.31300 43.89600
C  24.95800 -2.43500 42.71500
C  23.39100 -2.56700 42.84300
C  23.26100 -3.81900 43.66900
C  22.60500 -1.32300 43.50000
C  25.56300 -2.98900 41.37000
C  25.95700 -1.82900 40.38200
H  25.37000 -1.81800 39.00700
N  22.76700 -6.52100 45.11800
C  21.84900 -5.81000 44.42100
C  20.59200 -6.57500 44.37900
C  20.88900 -7.75600 45.07200
C  22.30800 -7.69200 45.43600
C  19.38500 -6.19200 43.63100
C  19.83400 -8.78500 45.35000
O  18.69200 -8.66900 44.87300
C  20.11800 -9.99700 46.17900
N  25.10200 -7.67700 46.72600
C  24.34800 -8.74400 46.46600
C  24.90500 -9.96900 47.16600
C  26.37900 -9.52800 47.56600
C  26.25800 -7.98600 47.30400
C  24.11700 -10.25400 48.51900
C  27.52100 -10.13100 46.75400
C  28.80700 -10.53000 47.53600
N  26.68700 -5.37500 45.96200
C  27.61500 -5.95900 46.79700
C  28.80700 -5.09400 46.83700
C  28.60900 -4.16400 45.76800
C  27.27300 -4.36000 45.35300
C  30.04100 -5.31400 47.65200
C  29.20500 -3.02100 45.08900
O  30.27300 -2.44300 45.11700
C  28.00700 -2.59100 44.09000
C  27.77700 -1.24100 44.39100
O  27.11000 -0.79200 45.32800
O  28.41900 -0.46700 43.39700
C  27.90900 0.89600 43.36600
H  21.29300 -4.03500 43.26100
H  22.71400 -9.73300 46.09600
H  28.20100 -7.53900 48.08900
H  25.19600 -1.37200 42.77000
H  23.04900 -2.85900 41.85100
H  23.40600 -0.70300 43.90300
H  21.91800 -1.52700 44.32100
H  21.96500 -0.81400 42.78000
H  24.84300 -3.55300 40.77800
H  26.46600 -3.59000 41.48000
H  27.00900 -2.01000 40.16300
H  25.82600 -0.84000 40.82200
H  19.04800 -7.08300 43.10100
H  19.55700 -5.29500 43.03600
H  18.58600 -5.96900 44.33700
H  19.21000 -10.41900 46.61000
H  20.64000 -9.73300 47.09900
H  20.57700 -10.80000 45.60200
H  24.86500 -10.73100 46.38800
H  26.64900 -9.62100 48.61800
H  23.20900 -10.80800 48.27900
H  24.02700 -9.24400 48.91800
H  24.65200 -11.02500 49.07300
H  27.91900 -9.31400 46.15100
H  27.19700 -10.90400 46.05700
H  29.67400 -9.87000 47.56500
H  29.07800 -11.53700 47.21900
H  28.66800 -10.68600 48.60600
H  30.73500 -5.68300 46.89700
H  29.90800 -6.09200 48.40300
H  30.33200 -4.37500 48.12200
H  28.32800 -2.75700 43.06200
H  26.87100 0.91900 43.03400
H  28.55000 1.50400 42.72700
H  27.92200 1.24800 44.39800
Mg 6.54100 54.65100 39.84600
C  6.24600 51.13400 39.77000
C  9.86300 54.24100 39.02100
C  6.75600 57.94800 39.31500
C  3.08400 54.80400 40.31800
N  7.83700 52.88200 39.25400
C  7.54600 51.59400 39.43900
C  8.75900 50.77700 39.22900
C  9.89400 51.75800 39.51200
C  9.18700 53.03300 39.25200
C  10.58400 51.65600 40.86900
C  8.76500 50.03900 37.81500
C  8.52700 50.99000 36.64600
H  7.19500 50.94200 35.96200
N  8.11300 55.90600 39.18200
C  9.42000 55.58300 38.96200
C  10.25100 56.74800 38.78600
C  9.35700 57.85000 38.87700
C  7.97600 57.28300 39.10400
C  11.72900 56.79400 38.43700
C  9.75100 59.31900 38.53500
O  10.87200 59.66300 38.38500
C  8.63900 60.44600 38.58100
N  5.08300 56.21200 39.67200
C  5.42700 57.51800 39.57200
C  4.20300 58.43600 39.55700
C  3.08600 57.44700 40.10100
C  3.75800 56.06000 40.03900
C  4.45100 59.67900 40.46400
C  1.83600 57.53700 39.27500
C  0.49800 57.71300 39.94900
N  4.94900 53.29400 39.97700
C  3.61000 53.46900 40.22600
C  2.93800 52.17200 40.56200
C  3.95200 51.24800 40.37500
C  5.11800 51.97000 40.02500
C  1.48300 52.00700 40.98700
C  4.28200 49.80600 40.41700
O  3.60600 48.85200 40.77100
C  5.80000 49.63300 39.98600
C  5.62900 48.94600 38.63100
O  4.95000 49.29800 37.66700
O  6.32600 47.77000 38.68200
C  6.17200 46.77700 37.59900
H  10.94800 54.12700 39.07700
H  6.72200 59.03700 39.24300
H  2.01400 54.87600 40.52700
H  8.77300 50.05300 40.04400
H  10.65900 51.58600 38.75600
H  10.60300 52.64300 41.33100
H  11.60700 51.29800 40.74900
H  10.11500 50.91300 41.51400
H  7.91500 49.37300 37.66400
H  9.68100 49.47100 37.65200
H  9.17900 50.60700 35.86100
H  8.81200 52.00200 36.93300
H  11.62900 57.07800 37.39000
H  12.13200 55.78400 38.36100
H  12.41000 57.49300 38.92300
H  9.11100 61.40500 38.36600
H  8.19600 60.44600 39.57700
H  7.96200 60.19400 37.76400
H  3.98400 58.74200 38.53500
H  2.88200 57.68500 41.14500
H  4.10700 60.52000 39.86400
H  5.47200 59.83100 40.81500
H  3.89500 59.61000 41.39900
H  1.80300 56.68500 38.59600
H  1.95400 58.44500 38.68400
H  0.58400 57.44500 41.00200
H  -0.20100 57.05700 39.43100
H  0.14500 58.73100 39.78400
H  0.91500 52.54200 40.22500
H  1.30500 52.38300 41.99400
H  1.29900 50.93300 40.97800
H  6.33300 48.96500 40.66200
H  7.10500 46.21900 37.51300
H  5.84400 47.26200 36.68000
H  5.42800 46.08300 37.98900

