158

Mg 44.92000 4.60200 47.00500
C  42.71600 7.26900 46.35700
C  42.32800 2.36700 46.44100
C  47.09000 2.07000 47.15400
C  47.64100 6.89100 46.64400
N  42.70000 4.82700 46.45500
C  42.05600 6.00300 46.22000
C  40.58100 5.64500 45.92500
C  40.42600 4.13400 46.32700
C  41.87600 3.73400 46.40400
C  39.62500 3.71200 47.49500
C  40.27000 6.01400 44.41700
C  38.88900 6.78100 44.29200
H  38.91400 8.00900 43.38000
N  44.77100 2.48600 46.81400
C  43.66200 1.78500 46.64000
C  43.91800 0.32700 46.77400
C  45.30000 0.22100 46.79400
C  45.77800 1.63400 47.02400
C  42.84600 -0.81200 46.76200
C  46.00300 -0.97500 46.50300
O  45.35500 -2.03900 46.33500
C  47.50800 -1.08900 46.37500
N  47.08600 4.50000 46.94000
C  47.72500 3.31900 47.15800
C  49.13600 3.59200 47.65000
C  49.36500 5.09600 47.27900
C  47.96000 5.53900 46.90900
C  49.33300 3.45800 49.16400
C  50.16400 5.16100 45.91600
C  51.75600 4.93700 46.00900
N  45.17100 6.64900 46.61700
C  46.32800 7.40800 46.54300
C  46.02300 8.82800 46.41500
C  44.57700 8.79900 46.36300
C  44.13100 7.44700 46.46300
C  47.04800 9.93800 46.20400
C  43.40800 9.57700 46.10200
O  43.35000 10.80200 45.85200
C  42.18700 8.65600 46.13600
C  41.15700 8.98000 47.17700
O  41.17000 8.60000 48.37500
O  40.23000 9.87600 46.61900
C  39.20000 10.34700 47.62100
H  41.47800 1.68600 46.35300
H  47.84000 1.30600 47.36600
H  48.43600 7.63900 46.66000
H  39.90400 6.25200 46.52600
H  40.00400 3.56700 45.49700
H  40.04700 2.85800 48.02600
H  38.61200 3.37700 47.27300
H  39.46400 4.51700 48.21200
H  40.13500 5.10600 43.82900
H  41.00600 6.56900 43.83700
H  38.21700 6.77200 45.15000
H  38.31000 6.06300 43.71100
H  41.89000 -0.46000 47.14800
H  43.07900 -1.64000 47.43300
H  42.72500 -1.22500 45.76100
H  48.03900 -0.90800 47.31000
H  47.79500 -0.36200 45.61600
H  47.72100 -2.10600 46.04900
H  49.80200 2.88200 47.16000
H  49.86800 5.73400 48.00500
H  50.11900 2.72100 49.32600
H  48.44000 3.00800 49.59800
H  49.58600 4.31200 49.79300
H  50.06800 6.18700 45.56000
H  49.71800 4.63500 45.07200
H  51.95500 3.86700 45.94800
H  52.13800 5.37100 46.93300
H  52.21200 5.39100 45.12800
H  47.63000 9.99300 47.12400
H  46.44500 10.84300 46.28200
H  47.66400 9.82200 45.31200
H  41.69800 8.65700 45.16200
H  38.75300 11.21100 47.12900
H  39.46800 10.73700 48.60300
H  38.46700 9.54900 47.74300
Mg 49.43400 35.72400 27.49400
C  47.40200 34.05000 29.70800
C  50.01100 38.15300 29.84500
C  50.75100 37.64200 25.16300
C  48.68900 33.30900 25.03900
N  48.88600 35.89800 29.57600
C  48.07900 35.05800 30.28500
C  47.99000 35.47900 31.73100
C  48.58400 36.92300 31.64100
C  49.27800 36.99500 30.26600
C  47.52300 38.05200 31.90100
C  48.79200 34.49300 32.62300
C  48.38700 34.17400 34.10300
H  47.35200 35.11700 34.77600
N  50.31100 37.60000 27.47600
C  50.46800 38.39000 28.54900
C  50.99300 39.69500 28.10600
C  51.24000 39.60900 26.70200
C  50.67000 38.26300 26.34900
C  51.16600 40.85600 29.07600
C  51.95500 40.57900 25.87100
O  52.25300 40.34100 24.71500
C  52.49500 41.84700 26.39700
N  49.83100 35.41200 25.31500
C  50.42000 36.40600 24.66100
C  50.47300 35.99200 23.18000
C  49.92500 34.54100 23.15500
C  49.39500 34.39800 24.55000
C  49.68500 36.92400 22.22200
C  50.90000 33.43100 22.79000
C  51.71300 33.51000 21.47500
N  48.36300 33.98600 27.35500
C  48.18600 33.12300 26.32100
C  47.34200 32.01500 26.78700
C  46.96500 32.37400 28.09800
C  47.57300 33.56700 28.36800
C  46.99400 30.70900 26.09200
C  46.15900 31.95800 29.24500
O  45.42300 30.98900 29.45400
C  46.27700 33.09800 30.31900
C  46.64000 32.42500 31.65900
O  47.61500 31.72200 31.93900
O  45.53300 32.60900 32.48700
C  45.54900 31.70700 33.66300
H  49.98100 38.92900 30.61300
H  51.07000 38.36100 24.40500
H  48.52200 32.43900 24.40000
H  46.91500 35.45400 31.90500
H  49.27100 37.12900 32.46200
H  46.52200 37.68300 32.12600
H  47.42200 38.54600 30.93400
H  47.95300 38.69100 32.67200
H  49.78000 34.93500 32.75800
H  49.06100 33.62900 32.01500
H  49.32000 34.20000 34.66600
H  48.18300 33.12300 34.30700
H  50.57800 41.67300 28.65800
H  52.18900 41.16900 29.28500
H  50.74800 40.56700 30.04100
H  51.73900 42.51600 26.80800
H  53.08800 42.40800 25.67400
H  53.28800 41.60800 27.10600
H  51.49300 35.95800 22.79800
H  49.06200 34.38400 22.50800
H  49.08000 36.41400 21.47300
H  50.47100 37.50200 21.73600
H  49.04500 37.63000 22.75200
H  50.34100 32.50100 22.69200
H  51.47600 33.49600 23.71300
H  52.75000 33.72600 21.73100
H  51.15600 34.20800 20.85000
H  51.74400 32.54100 20.97700
H  46.68700 31.02100 25.09300
H  46.23000 30.12500 26.60600
H  47.94600 30.17900 26.07400
H  45.40200 33.74400 30.38800
H  44.54900 31.31000 33.84300
H  45.81900 32.33000 34.51600
H  46.21300 30.84500 33.60100

