158

Mg 1.39300 -1.36400 44.07900
C  4.71400 -0.62900 43.45300
C  0.58900 1.32100 42.11500
C  -1.81300 -2.47300 44.29800
C  2.43200 -4.52500 45.47700
N  2.55400 0.23200 42.93800
C  3.88500 0.34900 42.89600
C  4.37600 1.73800 42.46400
C  2.98800 2.39300 42.05300
C  1.95900 1.28700 42.36300
C  2.53500 3.75800 42.59300
C  5.38300 1.86900 41.25900
C  5.75800 0.84000 40.20800
H  5.43900 1.08600 38.69800
N  -0.28500 -0.74200 43.30600
C  -0.44500 0.36900 42.45600
C  -1.84700 0.46600 42.10300
C  -2.57600 -0.39800 42.94300
C  -1.53400 -1.24300 43.57900
C  -2.36300 1.61700 41.28900
C  -4.04100 -0.37500 43.08300
O  -4.69400 0.56500 42.60900
C  -4.83900 -1.39900 43.75500
N  0.35800 -3.22000 44.89900
C  -0.97400 -3.38500 44.94200
C  -1.34200 -4.82200 45.41700
C  0.05300 -5.41900 45.84500
C  1.01400 -4.31900 45.35300
C  -2.52600 -4.92600 46.37800
C  0.34400 -6.76400 45.19000
C  1.12300 -7.72700 46.15900
N  3.20400 -2.37300 44.48900
C  3.43600 -3.63300 45.04700
C  4.87800 -3.76200 45.15700
C  5.45100 -2.68200 44.54100
C  4.38000 -1.84100 44.09900
C  5.58900 -5.00300 45.78000
C  6.68300 -2.08000 44.12400
O  7.84300 -2.41300 44.20100
C  6.24000 -0.66200 43.50300
C  6.85900 0.38900 44.31500
O  6.37300 0.90700 45.31600
O  8.06000 0.79100 43.78800
C  8.62800 2.00200 44.30000
H  0.23600 2.26100 41.68500
H  -2.85300 -2.78800 44.19100
H  2.75300 -5.53300 45.74600
H  4.78900 2.26300 43.32500
H  2.93600 2.53000 40.97300
H  3.11900 4.11100 43.44300
H  1.47300 3.81500 42.82900
H  2.55900 4.45000 41.75200
H  6.31700 2.35200 41.54700
H  4.83100 2.66100 40.75300
H  5.20300 -0.07300 40.42200
H  6.81400 0.57400 40.24400
H  -1.62200 2.15700 40.70000
H  -2.89400 2.26400 41.98600
H  -3.12800 1.27900 40.58900
H  -5.90200 -1.16400 43.69000
H  -4.55300 -1.42000 44.80700
H  -4.63800 -2.30100 43.17700
H  -1.73600 -5.33300 44.53800
H  0.08200 -5.57100 46.92400
H  -3.41700 -5.33900 45.90700
H  -2.74700 -3.88500 46.61100
H  -2.19400 -5.37100 47.31700
H  0.97300 -6.62700 44.31100
H  -0.58500 -7.28700 44.96100
H  0.47200 -8.57900 46.35900
H  1.54400 -7.32600 47.08100
H  1.98900 -8.11400 45.62300
H  5.20300 -5.10800 46.79300
H  6.65800 -4.81000 45.86900
H  5.40900 -5.91900 45.21700
H  6.68300 -0.64000 42.50700
H  9.22500 1.68100 45.15400
H  7.78900 2.57900 44.68800
H  9.22000 2.51500 43.54200
Mg 55.57100 24.12600 43.88600
C  53.00000 26.41600 43.06900
C  53.72900 21.59000 42.88200
C  58.33300 22.17500 43.95000
C  57.68100 26.98100 44.48600
N  53.64400 24.06000 42.91200
C  52.64200 25.06200 42.81200
C  51.27400 24.45700 42.49300
C  51.57600 22.92800 42.61900
C  53.10500 22.85900 42.81900
C  50.83900 22.17700 43.76000
C  50.83300 24.76100 41.03200
C  49.35000 24.78000 40.64500
H  49.03700 24.37500 39.20200
N  55.96900 22.10800 43.63900
C  55.03000 21.23600 43.18800
C  55.60100 19.94600 43.08600
C  56.98800 20.09000 43.37600
C  57.24800 21.54200 43.66000
C  54.89800 18.70000 42.64500
C  57.97300 18.92000 43.44300
O  57.58900 17.83600 43.33400
C  59.46800 19.19400 43.61000
N  57.68800 24.55200 44.13800
C  58.53500 23.54600 44.23800
C  59.89000 24.04500 44.67000
C  59.81100 25.58600 44.53400
C  58.26800 25.74600 44.51200
C  60.30200 23.55000 46.08600
C  60.63100 26.23200 43.37300
C  61.74400 27.18600 43.66500
N  55.36800 26.23400 43.88900
C  56.32400 27.24600 44.26700
C  55.61600 28.51500 44.29500
C  54.35700 28.26300 43.81200
C  54.30000 26.87500 43.52000
C  56.17900 29.81400 44.79500
C  53.07500 28.88700 43.57200
O  52.66000 30.02100 43.83100
C  52.10000 27.69500 43.05000
C  51.68200 28.05000 41.75800
O  52.39900 28.40600 40.79500
O  50.29100 27.98400 41.56800
C  49.67000 28.89400 40.56900
H  52.99000 20.79800 42.74800
H  59.28100 21.63900 44.03700
H  58.22500 27.92300 44.58400
H  50.53400 24.78600 43.22200
H  51.37800 22.44300 41.66300
H  51.49800 21.64700 44.44800
H  50.13700 21.42400 43.40300
H  50.38000 22.93000 44.40100
H  51.34000 24.05900 40.37100
H  51.27400 25.70300 40.70700
H  49.07700 25.82700 40.78100
H  48.83100 24.06300 41.28000
H  55.24100 18.40700 41.65300
H  53.81000 18.77200 42.67100
H  55.22300 17.85500 43.25100
H  59.95200 19.79300 42.83900
H  59.95600 18.22400 43.50900
H  59.71000 19.54700 44.61300
H  60.65200 23.72400 43.96000
H  60.17400 25.96500 45.48900
H  59.87000 22.57600 46.31800
H  60.07000 24.23100 46.90500
H  61.37700 23.36600 46.07400
H  60.01300 26.92000 42.79500
H  61.02900 25.43700 42.74200
H  62.62800 26.90600 43.09200
H  62.05800 27.04200 44.69900
H  61.41200 28.20300 43.46000
H  57.06600 30.11100 44.23600
H  56.33700 29.71400 45.86900
H  55.41300 30.57000 44.62300
H  51.26000 27.71000 43.74400
H  48.99800 29.52300 41.15300
H  49.11900 28.24300 39.89000
H  50.40000 29.35800 39.90500

