158

Mg 30.64100 58.44100 40.63700
C  27.84600 56.56100 39.65500
C  32.64300 55.79700 39.96800
C  33.14400 60.57400 40.60600
C  28.31600 61.24200 41.30200
N  30.29800 56.51200 39.71600
C  29.12800 55.90700 39.46300
C  29.33400 54.46000 39.04500
C  30.74000 54.14300 39.71500
C  31.32000 55.56700 39.78900
C  30.74500 53.34200 41.01000
C  29.20600 54.39700 37.49800
C  28.23600 53.39600 36.83800
H  27.23900 54.08300 35.88400
N  32.63600 58.20900 40.36200
C  33.29100 57.00100 40.15700
C  34.65700 57.25300 40.04100
C  34.83100 58.59200 40.35300
C  33.53500 59.23400 40.38500
C  35.60900 56.17000 39.81200
C  36.19600 59.28700 40.63200
O  37.30200 58.68600 40.53300
C  36.35000 60.77100 41.16200
N  30.62200 60.60800 40.86400
C  31.90300 61.18900 40.79400
C  31.74700 62.68800 41.12100
C  30.22600 62.89800 41.47100
C  29.67900 61.53600 41.18200
C  32.65700 63.22400 42.20500
C  29.46300 63.96700 40.61400
C  29.87300 65.37600 40.81400
N  28.54200 58.86700 40.59500
C  27.74600 60.04600 40.85400
C  26.33700 59.58100 40.62900
C  26.32300 58.34200 40.11700
C  27.70400 57.91300 40.10400
C  25.16800 60.49300 40.86600
C  25.48500 57.20500 39.63200
O  24.31900 57.20900 39.31900
C  26.51600 55.99700 39.41900
C  26.14300 54.90700 40.32500
O  26.63500 54.79700 41.42200
O  25.12000 54.10400 39.84200
C  24.41900 53.18400 40.79300
H  33.26700 54.91900 39.78600
H  33.94500 61.31100 40.51700
H  27.72200 62.02400 41.77800
H  28.49100 53.88900 39.43400
H  31.28900 53.52600 39.00300
H  29.67300 53.21000 41.15700
H  31.19100 53.75600 41.91300
H  31.23300 52.37800 40.86500
H  30.18400 54.12100 37.10300
H  29.16400 55.40400 37.08100
H  27.71900 52.88200 37.64800
H  28.80000 52.64900 36.27900
H  35.61400 55.55600 40.71200
H  36.67100 56.38900 39.69500
H  35.38900 55.49500 38.98500
H  36.36000 61.46800 40.32500
H  37.29000 60.81800 41.71200
H  35.49400 60.94300 41.81400
H  31.99500 63.10000 40.14300
H  30.13500 63.13000 42.53200
H  33.11400 62.39900 42.75100
H  32.22600 63.95400 42.89000
H  33.45800 63.80200 41.74400
H  28.42200 64.06000 40.92400
H  29.30800 63.75300 39.55600
H  30.11800 65.77300 39.82900
H  30.72300 65.56700 41.46900
H  29.03700 65.99900 41.13400
H  24.40500 60.10500 41.54200
H  24.69800 60.47400 39.88300
H  25.40200 61.52900 41.11100
H  26.33800 55.65500 38.40000
H  23.39500 53.53800 40.91700
H  24.67600 53.33900 41.84100
H  24.36600 52.10500 40.64900
Mg -11.93600 39.47400 41.29700
C  -9.94600 36.49300 40.73100
C  -9.44000 41.14000 39.68100
C  -13.91500 42.00800 41.14800
C  -14.42600 37.40800 42.63800
N  -9.99200 38.75700 40.17400
C  -9.36400 37.54800 40.12200
C  -8.17500 37.60400 39.13600
C  -7.95400 39.17900 39.09100
C  -9.23400 39.77000 39.64300
C  -6.60600 39.65700 39.79600
C  -8.50600 36.87000 37.79300
C  -7.59500 35.68900 37.34700
H  -6.41500 35.96300 36.29500
N  -11.63400 41.34100 40.48300
C  -10.60800 41.89100 39.90900
C  -10.81200 43.23400 39.64000
C  -12.12800 43.53900 40.09100
C  -12.62300 42.27300 40.60400
C  -9.72600 44.08900 38.93200
C  -12.85100 44.88300 39.92200
O  -12.27800 45.79100 39.36600
C  -14.23000 45.17600 40.36000
N  -13.82800 39.59700 41.70600
C  -14.49500 40.81900 41.61100
C  -15.91200 40.81400 42.18900
C  -16.08700 39.34400 42.51600
C  -14.72700 38.69500 42.22400
C  -16.21800 41.82400 43.35500
C  -17.33700 38.70200 41.86600
C  -17.36600 38.56300 40.33000
N  -12.16700 37.41800 41.68500
C  -13.16400 36.74800 42.39900
C  -12.79200 35.31900 42.47900
C  -11.49900 35.24500 41.92900
C  -11.18800 36.51800 41.39500
C  -13.54300 34.28800 43.30200
C  -10.39100 34.31700 41.71000
O  -10.19100 33.15800 42.02000
C  -9.37900 35.10700 40.82100
C  -8.13100 34.89600 41.50100
O  -7.36500 33.94200 41.33900
O  -7.81900 35.91500 42.41100
C  -6.91100 35.53900 43.51000
H  -8.58500 41.72200 39.32900
H  -14.48800 42.90500 41.39400
H  -15.18900 36.85900 43.19200
H  -7.34100 37.06500 39.58700
H  -7.87300 39.41700 38.03000
H  -6.01200 38.83900 40.20200
H  -6.82500 40.40300 40.56000
H  -6.13900 40.17200 38.95600
H  -8.47500 37.60500 36.98800
H  -9.53800 36.51900 37.81600
H  -8.22400 34.90700 36.92200
H  -7.13700 35.28700 38.25100
H  -10.07700 44.24100 37.91200
H  -8.67600 43.84500 39.09300
H  -9.71000 45.11000 39.31300
H  -14.13800 45.34900 41.43200
H  -14.94500 44.38700 40.12500
H  -14.49100 46.07500 39.80300
H  -16.52800 41.15100 41.35600
H  -16.20300 39.26800 43.59800
H  -15.23800 42.19900 43.65300
H  -16.77700 41.42000 44.19800
H  -16.79800 42.64200 42.92800
H  -18.12900 39.42000 42.07800
H  -17.57800 37.77400 42.38500
H  -16.48800 39.05500 39.91200
H  -18.14600 39.04000 39.73700
H  -17.42600 37.48600 40.17700
H  -13.11200 34.41700 44.29500
H  -13.24100 33.26900 43.05900
H  -14.60300 34.48200 43.46300
H  -9.40500 34.62700 39.84300
H  -7.04100 34.47400 43.70300
H  -6.97200 36.16000 44.40400
H  -5.86600 35.65800 43.22400

