158

Mg 25.98600 0.50400 29.12000
C  28.01700 0.27000 32.03400
C  23.34700 1.17200 31.19400
C  24.09900 0.28200 26.43000
C  28.78200 -0.55800 27.19400
N  25.71500 0.54800 31.41700
C  26.71100 0.55700 32.35700
C  26.15000 0.91400 33.70800
C  24.63100 1.16300 33.41900
C  24.52300 0.90400 31.92000
C  23.52200 0.28500 34.18000
C  26.84900 2.18800 34.33300
C  26.10600 2.80700 35.51500
H  26.95900 3.16100 36.81100
N  23.97800 0.67300 28.87100
C  23.05300 1.09600 29.83700
C  21.77600 1.30500 29.17700
C  22.00800 1.14100 27.80600
C  23.41700 0.60400 27.60600
C  20.56000 1.62300 29.90700
C  21.02200 1.44600 26.64900
O  21.26200 1.10000 25.50100
C  19.76500 2.03500 26.84700
N  26.40200 -0.08800 27.16800
C  25.38900 -0.06300 26.20200
C  26.03800 -0.30600 24.75900
C  27.51100 -0.53400 25.05100
C  27.56100 -0.47200 26.55400
C  25.26900 -1.44800 24.00900
C  28.38100 0.38000 24.24400
C  28.30600 1.84500 24.39700
N  28.04600 0.12000 29.46500
C  29.00800 -0.44300 28.61100
C  30.23300 -0.59800 29.32600
C  29.83800 -0.33500 30.65400
C  28.50400 0.07600 30.69100
C  31.49200 -1.01600 28.82100
C  30.40600 -0.32000 31.95000
O  31.55300 -0.59000 32.26900
C  29.26200 0.14200 32.87000
C  29.09500 -0.83800 33.96400
O  28.71600 -1.98600 33.86300
O  29.45100 -0.28300 35.22800
C  29.25600 -1.14400 36.38300
H  22.51700 1.41000 31.86200
H  23.42300 0.16100 25.58100
H  29.60600 -0.71700 26.49600
H  26.39800 0.05700 34.33400
H  24.52100 2.23600 33.57300
H  23.83300 0.05800 35.20000
H  23.53700 -0.69800 33.71000
H  22.48900 0.62700 34.11400
H  26.98500 2.93300 33.54900
H  27.85900 1.91700 34.64000
H  25.37300 2.09000 35.88500
H  25.48500 3.64200 35.19300
H  19.73600 1.12400 29.39600
H  20.33300 2.68900 29.89400
H  20.61000 1.44700 30.98100
H  18.96800 1.31700 27.04000
H  19.62200 2.69800 25.99400
H  19.76800 2.75000 27.67100
H  25.92800 0.61400 24.18500
H  27.80500 -1.56700 24.86500
H  24.50800 -1.89500 24.64800
H  25.98500 -2.21700 23.71700
H  24.72600 -1.03500 23.15900
H  28.08300 0.20500 23.21000
H  29.39800 -0.01300 24.22500
H  27.64300 2.31300 23.66800
H  29.29100 2.22400 24.12500
H  28.01100 2.18100 25.39100
H  31.49500 -1.60900 27.90600
H  32.08700 -1.53000 29.57600
H  32.00400 -0.07600 28.61700
H  29.53000 1.03000 33.44300
H  29.58300 -2.12800 36.04900
H  28.21200 -1.19200 36.69300
H  29.88400 -0.74200 37.17800
Mg 50.44100 45.87600 42.70900
C  47.58800 46.93900 41.02400
C  50.02300 42.72400 41.26100
C  53.66300 45.15100 43.35500
C  51.04500 49.24400 43.77600
N  48.94900 45.01000 41.21100
C  47.83100 45.60000 40.80200
C  46.95700 44.60000 40.00200
C  47.70100 43.16000 40.21700
C  48.95300 43.60800 40.94400
C  46.87100 42.09800 40.91700
C  46.75600 45.09800 38.50400
C  45.37400 44.88500 37.93600
H  45.13300 43.69800 36.98500
N  51.55700 44.07400 42.59300
C  51.24800 42.95900 41.95500
C  52.35200 41.93600 42.06200
C  53.42100 42.64100 42.65800
C  52.90900 44.03800 42.87900
C  52.11000 40.52300 41.59600
C  54.75000 42.07700 43.05900
O  54.88900 40.88400 43.07600
C  55.86600 42.95700 43.56700
N  52.03700 47.00400 43.55000
C  53.26400 46.44100 43.67400
C  54.24100 47.51000 44.15200
C  53.45400 48.75200 44.49800
C  52.08200 48.32800 44.02000
C  55.23400 47.11600 45.31800
C  53.98600 50.08200 43.96400
C  54.07400 51.25200 44.97100
N  49.55700 47.70800 42.63100
C  49.87200 48.95000 43.09900
C  48.81000 49.88300 42.69000
C  47.92600 49.12300 41.93900
C  48.41000 47.81900 41.82600
C  48.77200 51.32400 43.00500
C  46.65700 49.27400 41.16400
O  45.94000 50.23900 40.89200
C  46.46500 47.79800 40.55700
C  45.13800 47.33900 41.17300
O  44.86600 46.82600 42.29700
O  44.20500 47.49100 40.18800
C  42.85300 47.07200 40.46300
H  49.77000 41.73300 40.87700
H  54.75200 45.12900 43.27600
H  51.20900 50.30300 43.99200
H  45.95600 44.47600 40.41500
H  47.90100 42.54700 39.33800
H  45.81800 42.29600 40.71900
H  46.96300 42.02700 42.00100
H  47.17900 41.15800 40.45900
H  47.44600 44.55000 37.86300
H  46.93200 46.17000 38.41900
H  45.08000 45.72500 37.30700
H  44.63300 44.77700 38.72800
H  52.97900 39.88800 41.76900
H  51.87300 40.34100 40.54700
H  51.41100 39.99200 42.24200
H  55.53800 43.54600 44.42400
H  56.24300 43.59300 42.76700
H  56.74700 42.36100 43.80500
H  54.75500 47.62400 43.19800
H  53.21400 48.88000 45.55300
H  54.80600 46.24700 45.81800
H  55.26900 47.83200 46.13900
H  56.22100 47.01800 44.86500
H  53.47600 50.32100 43.03100
H  55.03500 49.93000 43.70900
H  54.50700 50.87300 45.89700
H  53.06400 51.56700 45.23400
H  54.57700 52.14800 44.60900
H  48.73000 51.96900 42.12700
H  49.63500 51.62900 43.59700
H  47.85100 51.44400 43.57600
H  46.31200 47.79900 39.47800
H  42.24800 47.55100 39.69300
H  42.60200 47.36500 41.48200
H  42.72600 46.01100 40.24900

