158

Mg 35.41800 49.82100 25.36500
C  35.51600 48.00800 28.41400
C  33.90300 52.33400 27.11700
C  34.78300 51.39900 22.40600
C  36.14700 46.85300 23.71300
N  34.71600 50.07900 27.61300
C  35.03600 49.28400 28.66200
C  34.79000 50.03700 30.00200
C  34.16200 51.39900 29.51800
C  34.15700 51.27300 28.00100
C  32.65700 51.62400 29.90100
C  36.11100 50.28100 30.84300
C  36.06800 50.02200 32.35300
H  34.79400 49.68400 33.08300
N  34.56300 51.62100 24.81900
C  34.04900 52.52200 25.68900
C  33.79600 53.76300 25.02200
C  34.09300 53.58400 23.60400
C  34.47100 52.13200 23.52200
C  33.22500 54.95600 25.79700
C  33.94900 54.46400 22.42100
O  34.27100 54.14800 21.29100
C  33.42200 55.83600 22.58500
N  35.25100 49.17000 23.31200
C  35.15300 50.04200 22.25300
C  35.58800 49.34900 20.95100
C  36.05700 47.95000 21.42200
C  35.80000 47.98500 22.90900
C  34.54900 49.32900 19.78100
C  37.59200 47.63900 21.19600
C  37.93100 46.29000 20.40000
N  35.76600 47.89200 25.92500
C  36.02600 46.78900 25.11200
C  36.17000 45.62000 25.90500
C  36.00700 46.07000 27.16000
C  35.77800 47.46800 27.18600
C  36.52000 44.25700 25.42700
C  36.11700 45.62200 28.49100
O  36.46100 44.53700 28.96700
C  35.74600 46.84800 29.36800
C  34.61000 46.42000 30.17900
O  33.45100 46.64500 29.86300
O  34.97600 45.96300 31.38800
C  33.91200 45.71800 32.34900
H  33.51700 53.19300 27.67000
H  34.79100 51.97200 21.47600
H  36.45000 45.99900 23.10400
H  34.14200 49.46400 30.66500
H  34.75500 52.28300 29.75500
H  32.28600 50.87600 30.60100
H  32.00700 51.41200 29.05200
H  32.46500 52.62800 30.27900
H  36.55600 51.26400 30.68800
H  36.76300 49.51900 30.41500
H  36.62700 50.83300 32.82000
H  36.77900 49.19900 32.42600
H  32.32100 54.52400 26.22600
H  32.92700 55.89100 25.32300
H  33.87600 55.23500 26.62600
H  32.35300 55.88200 22.79500
H  33.65000 56.47300 21.73100
H  33.87200 56.33500 23.44300
H  36.48000 49.88100 20.62000
H  35.44100 47.15300 21.00600
H  33.59100 49.58000 20.23500
H  34.45200 48.32600 19.36600
H  34.61400 49.97400 18.90400
H  38.13800 47.49100 22.12700
H  38.09500 48.44500 20.66200
H  38.12100 45.53900 21.16600
H  38.69400 46.36400 19.62500
H  37.01500 46.10500 19.83900
H  35.56300 44.10900 24.92700
H  36.67800 43.56300 26.25100
H  37.40100 44.35900 24.79200
H  36.59700 47.06200 30.01400
H  33.56200 44.68900 32.26400
H  33.14100 46.48700 32.30200
H  34.33600 45.70700 33.35300
Mg 16.42200 52.21500 25.67400
C  18.28600 51.00600 28.21500
C  14.09600 53.40400 27.96700
C  14.52400 53.23300 23.17700
C  18.77900 50.83900 23.43600
N  16.26600 52.29400 27.88500
C  17.16100 51.77800 28.76800
C  16.71300 51.84100 30.23700
C  15.25700 52.66800 30.05700
C  15.21000 52.84000 28.53100
C  14.01000 52.02700 30.68900
C  17.72300 52.54400 31.17800
C  17.93200 52.00000 32.57900
H  16.85700 51.13500 33.24300
N  14.55500 53.23100 25.61000
C  13.70600 53.56300 26.64300
C  12.62000 54.32400 26.08600
C  12.75200 54.30000 24.65200
C  14.02100 53.51000 24.40700
C  11.56200 54.89300 27.02700
C  11.85900 54.96100 23.55100
O  12.01800 54.93300 22.32500
C  10.61500 55.65400 23.88000
N  16.58100 51.86600 23.50600
C  15.72400 52.61400 22.73600
C  16.18500 52.64200 21.27200
C  17.54900 51.85600 21.39800
C  17.69500 51.51700 22.83000
C  15.17700 51.93400 20.28900
C  18.76700 52.66400 20.85100
C  19.90600 51.89900 20.18100
N  18.07900 51.06200 25.74800
C  18.98800 50.59400 24.79500
C  20.09000 49.98000 25.38500
C  19.77300 50.03500 26.76600
C  18.57300 50.72200 26.89900
C  21.20600 49.26900 24.70100
C  20.24900 49.58000 28.08800
O  21.26500 49.01400 28.49600
C  19.26100 50.13500 28.99700
C  18.66300 48.98800 29.71400
O  17.66100 48.39200 29.32800
O  19.20000 48.76000 30.95700
C  18.50100 47.63600 31.71300
H  13.26800 53.68900 28.61900
H  13.95500 53.68300 22.36100
H  19.62600 50.74400 22.75300
H  16.47600 50.86200 30.65200
H  15.44500 53.61900 30.55700
H  14.28300 51.13900 31.25900
H  13.32900 51.55200 29.98400
H  13.37200 52.73500 31.21900
H  17.35200 53.55900 31.31900
H  18.68900 52.62000 30.67900
H  18.10200 52.85200 33.23900
H  18.85600 51.42300 32.61100
H  11.37600 55.84600 26.53200
H  11.98100 55.01200 28.02600
H  10.66300 54.27900 27.07600
H  10.13400 55.84400 22.92000
H  11.02800 56.51700 24.40300
H  9.93900 55.02000 24.45200
H  16.37000 53.65400 20.91000
H  17.56300 50.96600 20.76800
H  14.76300 52.64000 19.57000
H  14.34800 51.55400 20.88600
H  15.60400 51.11400 19.71100
H  19.23900 53.33000 21.57300
H  18.41700 53.22100 19.98200
H  20.81600 51.83700 20.77700
H  20.04500 52.24100 19.15500
H  19.53700 50.87500 20.22500
H  22.17200 49.39200 25.19200
H  21.22500 49.66500 23.68500
H  21.05800 48.19000 24.73400
H  19.70300 50.72600 29.80000
H  18.77500 47.89700 32.73500
H  18.91700 46.68200 31.39000
H  17.42400 47.74900 31.59000

