158

Mg 54.60300 24.25400 44.73400
C  51.98100 26.31700 43.53500
C  52.97000 21.65400 43.42800
C  57.49800 22.51400 44.86800
C  56.25600 27.11400 45.88600
N  52.86400 24.13500 43.29200
C  51.86300 25.04100 43.00600
C  50.77900 24.40400 42.12300
C  50.87700 22.90000 42.52900
C  52.35300 22.88000 43.08200
C  49.94900 22.41600 43.62000
C  51.14600 24.67800 40.60500
C  49.93400 24.58000 39.79400
H  50.19500 25.07700 38.32300
N  55.14700 22.38300 44.18800
C  54.33400 21.38500 43.67200
C  55.01100 20.14800 43.63100
C  56.33500 20.37600 43.95200
C  56.39600 21.83700 44.35000
C  54.21500 18.85400 43.29900
C  57.35200 19.28100 44.05500
O  57.11800 18.09500 43.91300
C  58.71700 19.51600 44.50700
N  56.64600 24.73900 45.06400
C  57.64700 23.88400 45.20100
C  58.96600 24.41400 45.69500
C  58.52600 26.00500 45.79200
C  57.03000 25.94900 45.57500
C  59.51400 23.73100 46.94900
C  59.26700 27.05900 44.86400
C  58.55300 27.38200 43.50400
N  54.17800 26.25500 44.93900
C  54.89800 27.27800 45.51200
C  54.02000 28.42800 45.62600
C  52.84200 28.03700 44.86300
C  53.06600 26.74300 44.48700
C  54.33000 29.73600 46.29800
C  51.54100 28.51300 44.37900
O  50.92700 29.59800 44.49400
C  50.95700 27.39300 43.54500
C  50.42200 27.93500 42.25800
O  51.10300 28.44100 41.39900
O  49.10300 27.71800 42.19700
C  48.49000 27.98700 40.88700
H  52.28800 20.92300 42.98900
H  58.26200 21.78800 45.15200
H  56.69400 28.07100 46.17800
H  49.75800 24.73400 42.31000
H  50.81800 22.14100 41.74800
H  49.33400 23.18500 44.08700
H  50.39200 21.88400 44.46200
H  49.29800 21.75300 43.05000
H  51.76200 23.84500 40.26800
H  51.76300 25.54600 40.37100
H  49.10000 25.17000 40.17500
H  49.59300 23.55300 39.66200
H  54.23300 18.01700 43.99700
H  54.82500 18.53200 42.45500
H  53.24200 19.05700 42.85100
H  58.83000 19.86300 45.53400
H  59.10700 20.24500 43.79600
H  59.31200 18.61700 44.34600
H  59.75200 24.28700 44.95100
H  58.59200 26.43000 46.79400
H  59.81100 24.45400 47.71000
H  60.31900 23.02600 46.74500
H  58.73900 23.19100 47.49300
H  60.26900 26.70500 44.62300
H  59.50400 27.96000 45.43000
H  58.05700 28.34800 43.41300
H  57.73300 26.69900 43.28300
H  59.44700 27.30700 42.88500
H  54.46100 29.63800 47.37500
H  53.51700 30.44700 46.14800
H  55.24400 30.14600 45.86800
H  50.06400 26.96300 43.99800
H  49.12700 27.73700 40.03800
H  47.92700 28.90400 40.71500
H  47.59600 27.38800 40.71800
Mg 41.03100 41.20300 26.11400
C  40.79100 43.80400 28.62100
C  42.02300 39.07900 28.67600
C  42.19400 38.90000 23.74900
C  40.77100 43.64500 23.75200
N  41.36800 41.43800 28.40100
C  40.98400 42.48900 29.15600
C  40.82800 42.22000 30.64000
C  41.34000 40.67900 30.74800
C  41.60100 40.36100 29.21400
C  42.54100 40.51000 31.70900
C  39.27600 42.40400 31.03200
C  38.94300 43.19900 32.33700
H  39.71300 42.86000 33.67400
N  41.93500 39.21300 26.15400
C  42.33400 38.55100 27.32800
C  42.97400 37.30300 26.96400
C  42.90400 37.23500 25.56600
C  42.35000 38.47600 25.06400
C  43.48600 36.25300 28.00900
C  43.43800 36.06600 24.71800
O  43.39600 36.23000 23.51000
C  43.98800 34.77000 25.33400
N  41.33800 41.22100 24.10400
C  41.59000 40.07100 23.33200
C  41.59400 40.47900 21.85100
C  40.93900 41.84900 21.81300
C  40.95100 42.28100 23.29900
C  43.01100 40.42800 21.14400
C  39.49700 41.78000 21.21400
C  38.37600 41.20000 22.19900
N  40.68600 43.30200 26.14300
C  40.60000 44.21000 25.03800
C  40.36300 45.47600 25.55100
C  40.28900 45.37500 26.96000
C  40.61100 44.04400 27.24500
C  40.26400 46.66800 24.70200
C  40.12600 46.08700 28.17200
O  39.82700 47.24000 28.27800
C  40.39300 45.09400 29.32600
C  41.46700 45.64700 30.16600
O  42.58500 46.04900 29.84400
O  40.92200 45.82300 31.42500
C  41.88500 46.25700 32.50700
H  42.25000 38.39300 29.49500
H  42.22200 38.08800 23.01900
H  40.62400 44.43000 23.00800
H  41.51000 42.89000 31.16300
H  40.50500 40.05500 31.06800
H  43.35800 40.17700 31.06900
H  42.18400 39.87500 32.52000
H  42.84600 41.48900 32.08100
H  38.81100 41.42100 31.10500
H  38.74500 42.89300 30.21600
H  37.96900 42.77800 32.58800
H  38.81700 44.26700 32.16400
H  42.93000 35.32500 27.87800
H  43.35100 36.57200 29.04200
H  44.54300 36.03000 27.85900
H  43.35600 34.35100 26.11700
H  44.89400 35.11100 25.83500
H  44.21000 34.04600 24.55000
H  41.00100 39.73100 21.32500
H  41.58200 42.48700 21.20600
H  43.06500 39.38900 20.81900
H  43.83500 40.47400 21.85500
H  43.21600 41.17200 20.37400
H  39.47300 41.22600 20.27500
H  39.24800 42.81300 20.97200
H  38.74600 40.96600 23.19700
H  37.86900 40.31300 21.81700
H  37.55000 41.90000 22.32400
H  41.18000 46.64900 24.11000
H  40.18400 47.54200 25.34800
H  39.42200 46.48600 24.03500
H  39.40600 45.05000 29.78700
H  41.43500 46.06800 33.48100
H  41.89500 47.34600 32.46500
H  42.92700 45.93700 32.47100

