158

Mg 36.17800 49.22900 24.86300
C  36.30900 47.44100 27.83500
C  35.21600 52.01500 26.60800
C  35.51100 50.85400 21.93900
C  36.71700 46.20900 23.17700
N  35.91100 49.68200 27.05800
C  35.98300 48.80300 28.11100
C  35.60400 49.45700 29.48100
C  35.06700 50.90400 29.01100
C  35.34900 50.87600 27.46400
C  33.56100 51.10700 29.35700
C  36.84800 49.66600 30.41500
C  36.61100 49.12400 31.84300
H  35.22700 49.11900 32.41000
N  35.60200 51.20100 24.36500
C  35.28600 52.17100 25.22500
C  34.85400 53.36000 24.53700
C  34.95600 53.14500 23.11400
C  35.37000 51.70400 23.04600
C  34.44100 54.70500 25.21100
C  34.57000 53.98600 21.92600
O  34.56900 53.60200 20.74400
C  34.06500 55.46100 22.22400
N  36.00000 48.61000 22.82200
C  35.94800 49.55400 21.84100
C  36.28900 48.85000 20.44200
C  36.76300 47.43900 20.80100
C  36.57800 47.37800 22.39600
C  35.12000 48.79800 19.44700
C  38.21700 47.14100 20.38900
C  39.30000 47.73500 21.29500
N  36.52000 47.23200 25.35000
C  36.73700 46.13500 24.55500
C  37.14700 45.00900 25.30700
C  36.98800 45.45000 26.66400
C  36.50900 46.79100 26.62700
C  37.58000 43.71100 24.78100
C  37.06000 45.07300 28.00100
O  37.30900 43.97800 28.50600
C  36.60100 46.30700 28.84200
C  35.43900 46.01100 29.78600
O  34.21500 45.92800 29.49500
O  35.82400 45.77900 31.06100
C  34.80200 45.05000 31.82300
H  34.77300 52.89700 27.07400
H  35.33400 51.33100 20.97200
H  36.94600 45.37700 22.50900
H  34.83400 48.81500 29.91000
H  35.70600 51.66900 29.45200
H  33.00900 51.23200 28.42600
H  33.30100 51.91300 30.04400
H  33.14600 50.23300 29.85900
H  37.21100 50.67900 30.58900
H  37.66900 49.16000 29.90800
H  37.22700 49.69500 32.53800
H  37.08800 48.14500 31.82200
H  34.65100 54.88500 26.26500
H  33.35800 54.72500 25.09200
H  34.86700 55.58800 24.73500
H  33.12200 55.44500 22.76900
H  33.99000 55.85800 21.21100
H  34.88000 56.01400 22.69200
H  37.09200 49.37500 19.92400
H  36.06300 46.69600 20.41800
H  34.53400 49.71200 19.54400
H  34.44900 47.94100 19.51400
H  35.65200 48.80400 18.49600
H  38.34900 47.43200 19.34700
H  38.32500 46.05800 20.45100
H  39.90600 48.38900 20.66800
H  39.93600 47.00400 21.79500
H  38.92600 48.37700 22.09300
H  38.08900 43.84800 23.82700
H  36.69400 43.12900 24.52700
H  38.23400 43.19100 25.48100
H  37.44300 46.66700 29.43300
H  34.48600 44.15000 31.29600
H  34.03000 45.74000 32.16500
H  35.33500 44.78100 32.73500
Mg -12.18100 37.39300 43.30600
C  -9.98200 34.92000 42.03500
C  -10.30900 39.80100 41.64500
C  -14.61700 39.74900 43.93800
C  -14.26900 34.95200 44.28400
N  -10.27900 37.32500 41.93300
C  -9.59900 36.23600 41.59700
C  -8.43200 36.62200 40.68900
C  -8.44900 38.28300 40.75800
C  -9.68200 38.54300 41.65500
C  -7.19300 39.04600 41.29200
C  -8.55700 36.07100 39.24500
C  -7.34200 36.36400 38.47900
H  -7.12100 35.53600 37.19100
N  -12.41100 39.56500 42.85500
C  -11.59600 40.30700 42.12500
C  -12.11900 41.63400 41.86100
C  -13.47800 41.62400 42.37700
C  -13.51900 40.33000 43.09600
C  -11.33700 42.69800 41.06800
C  -14.49700 42.78800 42.32900
O  -14.11700 43.82000 41.84500
C  -15.81200 42.69000 42.89000
N  -14.07900 37.37300 44.02900
C  -14.89300 38.43000 44.42100
C  -16.28900 37.96800 44.90800
C  -16.16200 36.43200 44.85100
C  -14.69800 36.23300 44.38300
C  -16.73200 38.60600 46.27300
C  -17.19100 35.70400 43.94600
C  -17.95300 34.54500 44.51900
N  -12.08100 35.30600 43.37200
C  -13.02800 34.45400 43.93400
C  -12.51800 33.07400 43.75500
C  -11.27800 33.27100 43.10000
C  -11.08100 34.63200 42.78000
C  -13.15200 31.80900 44.19100
C  -10.05200 32.55300 42.56800
O  -9.75500 31.37800 42.53400
C  -9.20300 33.58000 41.91400
C  -7.88100 33.62100 42.66800
O  -6.91000 33.00000 42.29600
O  -7.90600 34.41500 43.77700
C  -6.54500 34.66800 44.35600
H  -9.68400 40.54200 41.14300
H  -15.29800 40.57200 44.16200
H  -15.02400 34.25200 44.64900
H  -7.56100 36.20700 41.19700
H  -8.75700 38.67600 39.78900
H  -7.30500 39.19200 42.36600
H  -6.86600 39.92700 40.74000
H  -6.32100 38.39300 41.29100
H  -9.48500 36.55800 38.94900
H  -8.80000 35.00900 39.28300
H  -6.39500 36.12900 38.96300
H  -7.34100 37.42600 38.23200
H  -11.59300 43.64200 41.55000
H  -11.58500 42.73800 40.00800
H  -10.25300 42.58700 41.07400
H  -16.47900 43.48500 42.55800
H  -15.68900 42.82400 43.96400
H  -16.28000 41.77200 42.53200
H  -16.99500 38.28700 44.14200
H  -16.20400 36.01600 45.85800
H  -16.88200 37.79200 46.98200
H  -17.69800 39.09400 46.13600
H  -15.97500 39.26500 46.69800
H  -16.79200 35.34900 42.99600
H  -17.96400 36.39900 43.61800
H  -17.83400 34.44900 45.59900
H  -17.60900 33.67500 43.95900
H  -18.98400 34.77800 44.25300
H  -13.83400 32.04200 45.00900
H  -12.42200 31.03700 44.43200
H  -13.71500 31.46200 43.32400
H  -9.03300 33.30100 40.87400
H  -6.11400 33.70100 44.61500
H  -6.47800 35.28900 45.24900
H  -5.90800 35.15000 43.61400

