158

Mg 42.09100 41.77100 26.53400
C  41.01100 44.03100 28.95400
C  43.26800 39.73000 28.96400
C  43.19400 39.74200 24.07800
C  41.37700 44.23900 24.11400
N  42.12500 41.95200 28.65700
C  41.54100 42.86800 29.45000
C  41.58600 42.50800 30.92200
C  42.31200 41.12500 30.86500
C  42.66300 40.92800 29.42100
C  43.57900 40.93800 31.78300
C  40.18400 42.42400 31.71200
C  40.24600 42.98800 33.21000
H  39.39700 42.29400 34.33600
N  43.13800 39.96400 26.55100
C  43.50300 39.21400 27.66200
C  44.00800 37.97500 27.20600
C  44.03800 37.97500 25.77300
C  43.50400 39.24400 25.35800
C  44.45600 36.97800 28.14800
C  44.54100 37.00500 24.67700
O  44.90100 37.23300 23.49200
C  44.92500 35.62400 25.21600
N  42.28300 42.01900 24.41000
C  42.63100 40.95400 23.66700
C  42.25100 41.20300 22.20300
C  41.92700 42.76300 22.12500
C  41.84300 43.05200 23.67200
C  43.22700 40.67700 21.13300
C  40.67300 43.09300 21.26800
C  40.45400 44.44000 20.66100
N  41.34000 43.67400 26.48100
C  41.20500 44.59400 25.44900
C  40.73600 45.88200 25.96400
C  40.53400 45.62500 27.32600
C  40.95100 44.32000 27.59400
C  40.53800 47.06500 25.14400
C  40.05500 46.16500 28.51500
O  39.52800 47.25800 28.75200
C  40.27300 45.14600 29.63500
C  41.24900 45.82100 30.57400
O  42.42400 46.03500 30.39000
O  40.66500 45.83100 31.83400
C  41.49200 46.33100 32.90000
H  43.29100 38.96400 29.74100
H  43.52800 38.94500 23.41000
H  41.08000 45.00600 23.39600
H  42.23800 43.25700 31.37200
H  41.68500 40.29100 31.18000
H  43.44700 41.46400 32.72800
H  44.41200 41.49800 31.35900
H  43.90900 39.91300 31.95300
H  39.93100 41.36300 31.71300
H  39.42700 43.05900 31.25300
H  39.91300 44.02500 33.22400
H  41.28000 42.94400 33.55400
H  44.49600 37.33900 29.17500
H  45.41500 36.55100 27.85300
H  43.70700 36.18700 28.19000
H  44.84400 34.93100 24.37900
H  44.13900 35.36200 25.92400
H  45.84700 35.60700 25.79700
H  41.27700 40.71300 22.18600
H  42.84000 43.22700 21.75200
H  44.19800 40.34600 21.50100
H  43.49400 41.49300 20.46100
H  42.88300 39.81900 20.55600
H  39.77200 42.96100 21.86800
H  40.51200 42.28700 20.55300
H  40.72200 44.23900 19.62400
H  41.05700 45.19900 21.15800
H  39.41100 44.74500 20.75500
H  39.49000 47.36200 25.16300
H  40.79400 46.91900 24.09400
H  40.91100 47.96600 25.63100
H  39.32200 44.96300 30.13400
H  41.82400 45.39600 33.35000
H  40.90800 46.90700 33.61800
H  42.27100 47.04800 32.64100
Mg -1.44000 34.46600 27.44100
C  -3.19400 32.56100 29.82200
C  -0.01600 36.21300 29.91200
C  -0.13900 36.40600 25.05000
C  -3.23200 32.70400 25.03100
N  -1.70600 34.41200 29.55100
C  -2.37500 33.57800 30.37500
C  -2.16900 33.89000 31.88700
C  -1.31000 35.18400 31.80100
C  -1.01900 35.31500 30.32300
C  -2.00900 36.38900 32.49900
C  -1.38700 32.70800 32.63800
C  -2.12900 32.03700 33.91400
H  -1.47600 32.08400 35.28200
N  -0.15300 36.07300 27.50000
C  0.36700 36.60100 28.63100
C  1.38000 37.52200 28.25600
C  1.41800 37.62200 26.79500
C  0.30800 36.69800 26.38600
C  2.28800 38.14500 29.21700
C  2.26200 38.46900 25.87100
O  2.29300 38.33200 24.63800
C  3.17900 39.44200 26.44400
N  -1.91300 34.76100 25.31800
C  -1.10800 35.57600 24.58600
C  -1.51500 35.41900 23.04400
C  -2.35000 34.06500 23.07800
C  -2.54200 33.86100 24.55300
C  -2.20900 36.60900 22.42300
C  -1.54300 32.91600 22.48400
C  -1.75700 32.58600 20.99000
N  -2.88600 32.88700 27.40800
C  -3.39000 32.25000 26.35300
C  -4.17600 31.12700 26.80800
C  -4.14600 31.25700 28.18100
C  -3.27700 32.28600 28.47800
C  -4.89800 30.16800 25.95000
C  -4.64900 30.63800 29.33500
O  -5.33500 29.58700 29.43200
C  -4.02400 31.49400 30.48300
C  -5.13600 32.12900 31.22800
O  -5.67500 33.20300 30.96800
O  -5.43400 31.43300 32.40500
C  -6.39500 32.03600 33.31700
H  0.52300 36.69000 30.73300
H  0.31400 36.94200 24.21300
H  -3.54300 32.00500 24.25100
H  -3.15300 34.07200 32.32000
H  -0.36100 35.11600 32.33300
H  -3.01500 36.10300 32.80400
H  -2.11200 37.35300 31.99900
H  -1.49300 36.63900 33.42600
H  -0.47800 33.15200 33.04200
H  -1.02200 32.02100 31.87400
H  -2.22700 30.96700 33.73200
H  -3.19100 32.27000 33.99200
H  1.83600 38.08200 30.20700
H  2.41400 39.21100 29.02700
H  3.23500 37.60600 29.20300
H  2.57300 40.09500 27.07200
H  3.57200 39.97700 25.57900
H  4.04700 38.97100 26.90500
H  -0.65200 35.20200 22.41400
H  -3.35900 34.17800 22.68100
H  -2.15200 37.50400 23.04300
H  -3.27700 36.39600 22.39900
H  -1.86300 36.90500 21.43300
H  -1.71200 31.96300 22.98500
H  -0.47900 33.14300 22.55100
H  -2.53300 33.24500 20.59900
H  -2.11900 31.57000 20.83200
H  -0.79500 32.81000 20.53000
H  -5.32200 29.40300 26.60100
H  -4.26400 29.61900 25.25300
H  -5.70700 30.56600 25.33800
H  -3.50000 30.83200 31.17300
H  -6.58800 33.10000 33.17900
H  -5.87700 32.00000 34.27500
H  -7.34000 31.50100 33.21900

