158

Mg 16.89500 51.29200 26.68600
C  18.87600 49.92700 29.21500
C  14.54200 52.03200 29.22700
C  14.84500 52.46200 24.32700
C  19.22100 50.17800 24.33700
N  16.68000 50.95000 28.95100
C  17.66600 50.41900 29.73200
C  17.42900 50.77300 31.19700
C  15.92400 51.04700 31.18200
C  15.70200 51.37800 29.73900
C  14.98800 49.86600 31.84500
C  18.35000 51.83500 31.69800
C  18.86900 51.48300 33.11900
H  18.03400 52.01500 34.30500
N  15.04700 52.24400 26.77900
C  14.26900 52.47000 27.89300
C  13.05500 53.18500 27.45400
C  13.14200 53.41200 26.06500
C  14.37500 52.64200 25.68800
C  12.03100 53.61000 28.45700
C  12.24500 54.27600 25.09200
O  12.57200 54.46700 23.94500
C  11.10100 55.02800 25.68100
N  16.91600 51.14900 24.63600
C  15.97200 51.75800 23.84700
C  16.49300 51.85100 22.45900
C  17.90300 51.16700 22.38200
C  18.00700 50.78900 23.91100
C  15.47200 51.27500 21.43500
C  19.09900 51.99800 21.80400
C  19.81500 51.30000 20.59300
N  18.67700 50.20900 26.63200
C  19.57200 49.87300 25.62900
C  20.65700 49.11000 26.21100
C  20.45700 49.19100 27.56300
C  19.19200 49.80200 27.86200
C  21.83100 48.56000 25.39100
C  21.03900 48.76000 28.87300
O  22.02200 48.04600 29.08400
C  20.04700 49.32600 29.96000
C  19.59700 48.21100 30.88900
O  18.64700 47.49300 30.73300
O  20.40800 48.20500 32.01600
C  20.08900 47.31400 33.11700
H  13.90800 52.44100 30.01500
H  14.39400 53.11100 23.57400
H  19.89700 49.95100 23.51000
H  17.59500 49.81100 31.68100
H  15.77100 51.89500 31.84900
H  14.36300 50.18600 32.67900
H  15.62100 49.04400 32.17900
H  14.30600 49.44700 31.10500
H  17.89200 52.82000 31.78200
H  19.16600 52.01100 30.99700
H  19.91800 51.76400 33.20900
H  18.88300 50.40200 33.26300
H  12.07100 54.68000 28.66000
H  12.03400 53.01800 29.37200
H  11.07300 53.56500 27.93900
H  10.42200 54.45600 26.31500
H  10.56400 55.50000 24.85800
H  11.47200 55.87700 26.25500
H  16.64200 52.92100 22.31200
H  17.79200 50.26200 21.78500
H  15.89000 50.45300 20.85400
H  15.14200 52.08300 20.78200
H  14.60900 51.00400 22.04200
H  19.76900 52.24300 22.62800
H  18.71600 52.91100 21.34800
H  19.59200 50.24000 20.46800
H  20.88500 51.49200 20.67600
H  19.55500 51.82700 19.67500
H  21.46800 48.74800 24.38000
H  22.02400 47.53800 25.71600
H  22.71200 49.18900 25.52000
H  20.50300 50.14200 30.52100
H  20.74900 47.70200 33.89300
H  20.46000 46.29100 33.04500
H  19.06100 47.44200 33.45500
Mg -12.07900 16.98400 41.56900
C  -9.05300 15.17500 41.20500
C  -10.50300 19.67400 40.18800
C  -15.05700 18.47200 41.15500
C  -13.71700 13.78500 41.98200
N  -10.04100 17.36800 40.71700
C  -8.95900 16.50300 40.68200
C  -7.78600 17.04400 39.92800
C  -8.18700 18.57100 39.94400
C  -9.64900 18.58000 40.32100
C  -7.24200 19.45300 40.75400
C  -7.58000 16.41900 38.50100
C  -6.32400 15.66700 38.14400
H  -5.65300 15.96300 36.77900
N  -12.69100 18.92700 41.01700
C  -11.86700 19.93600 40.51500
C  -12.65500 21.08400 40.32900
C  -14.02300 20.77700 40.60100
C  -13.99200 19.36200 40.97700
C  -12.08300 22.32500 39.87300
C  -15.18000 21.66700 40.47200
O  -15.11100 22.80000 40.10600
C  -16.65600 21.24400 40.75800
N  -14.03000 16.21400 41.57500
C  -15.05800 17.08700 41.43800
C  -16.36900 16.30500 41.53500
C  -15.93100 14.81400 41.84100
C  -14.41300 14.91000 41.73100
C  -17.40600 16.87000 42.54600
C  -16.71900 13.69900 41.02800
C  -17.05600 12.39700 41.85300
N  -11.56400 14.87000 41.68900
C  -12.30500 13.70500 41.93200
C  -11.41000 12.58900 42.14500
C  -10.13800 13.09900 41.87600
C  -10.30300 14.51400 41.60300
C  -11.93300 11.22900 42.45400
C  -8.77800 12.70500 41.72000
O  -8.25600 11.66100 41.83300
C  -8.00600 14.11900 41.38300
C  -7.06500 14.42800 42.53200
O  -7.39400 14.92200 43.63500
O  -5.75500 14.15900 42.23600
C  -4.73000 14.29100 43.30300
H  -9.91100 20.54400 39.89300
H  -16.06500 18.89200 41.14300
H  -14.30600 12.88300 42.16400
H  -6.83700 16.86200 40.43200
H  -8.13900 18.95700 38.92600
H  -6.28800 18.98900 41.00600
H  -7.71200 19.60600 41.72500
H  -7.05500 20.41400 40.27400
H  -7.78600 17.20400 37.77400
H  -8.37900 15.70100 38.32000
H  -6.49400 14.59000 38.13900
H  -5.52000 15.80700 38.86700
H  -12.19400 22.38400 38.79100
H  -10.99900 22.39800 39.97200
H  -12.55200 23.15900 40.39400
H  -17.29100 22.12300 40.64700
H  -16.82500 20.87100 41.76800
H  -16.94500 20.36500 40.18100
H  -16.80600 16.35200 40.53700
H  -16.13400 14.70600 42.90700
H  -18.25200 17.38400 42.09000
H  -16.95900 17.64400 43.17000
H  -17.87800 16.14500 43.20800
H  -16.29500 13.50800 40.04200
H  -17.69400 14.16400 40.88300
H  -18.12000 12.45700 42.08100
H  -16.57400 12.38500 42.83100
H  -16.94000 11.51300 41.22600
H  -12.28500 10.67200 41.58600
H  -12.71200 11.37300 43.20300
H  -11.03100 10.80200 42.89100
H  -7.53400 13.97100 40.41200
H  -4.14600 13.37200 43.23700
H  -5.11200 14.26000 44.32300
H  -4.10100 15.14500 43.05300

