158

Mg 8.31100 2.77200 27.44500
C  9.45200 1.33800 30.32400
C  6.55400 5.06800 29.30000
C  6.62200 3.74700 24.61300
C  9.49800 -0.16600 25.67100
N  7.78700 2.93000 29.64400
C  8.58800 2.41400 30.68800
C  8.31900 3.05000 31.95300
C  7.41000 4.30300 31.58100
C  7.17500 4.11100 30.10900
C  6.21000 4.57400 32.47400
C  9.62900 3.38600 32.75200
C  9.47800 3.98300 34.21800
H  10.56600 3.51000 35.27400
N  7.05000 4.32000 26.96100
C  6.50900 5.18800 27.85300
C  5.89500 6.27600 27.14700
C  6.01600 6.02600 25.76600
C  6.59600 4.63900 25.77400
C  5.21600 7.53600 27.69200
C  5.47900 6.70500 24.50200
O  5.75100 6.31000 23.36600
C  4.55700 7.84100 24.65100
N  8.25200 1.95500 25.39500
C  7.40500 2.57200 24.47800
C  7.43200 1.76600 23.16100
C  8.43500 0.64400 23.42200
C  8.80000 0.82700 24.89300
C  6.03900 1.41700 22.55200
C  9.75100 0.46700 22.48100
C  9.39700 -0.39200 21.24800
N  9.30500 1.01200 27.85200
C  9.74100 -0.11400 27.07100
C  10.55300 -1.11600 27.94500
C  10.45300 -0.45700 29.18800
C  9.71300 0.74600 29.10200
C  11.38100 -2.26300 27.60400
C  10.91700 -0.67300 30.51900
O  11.69700 -1.54100 30.93500
C  10.34200 0.49300 31.32800
C  9.65500 -0.12800 32.48500
O  8.57300 -0.75800 32.44300
O  10.56700 -0.11800 33.58600
C  9.94300 -0.53400 34.78900
H  6.09800 5.97400 29.70500
H  6.12300 4.11400 23.71400
H  10.00100 -0.99100 25.16200
H  7.73700 2.36000 32.56400
H  8.13400 5.11600 31.53100
H  6.33700 5.63300 32.69700
H  6.10500 3.92000 33.34000
H  5.37000 4.33900 31.82000
H  10.21300 4.03500 32.10000
H  10.19200 2.47600 32.95900
H  8.54100 3.65600 34.66900
H  9.40800 5.07100 34.19500
H  4.20600 7.74400 27.33700
H  5.72000 8.36700 27.20000
H  5.29700 7.73200 28.76100
H  3.64800 7.55700 25.18100
H  4.19800 8.20300 23.68700
H  5.06000 8.71400 25.06600
H  7.78700 2.46500 22.40400
H  7.88800 -0.29700 23.46600
H  6.02300 0.37900 22.22100
H  5.85400 2.04900 21.68400
H  5.33400 1.64000 23.35300
H  10.62100 0.06000 22.99700
H  10.06900 1.45400 22.14800
H  8.32500 -0.58600 21.26400
H  9.96000 -1.32100 21.33200
H  9.59300 0.05000 20.27100
H  11.28100 -2.97300 28.42500
H  12.43100 -2.09600 27.36400
H  10.79300 -2.66300 26.77800
H  11.29100 0.96300 31.58400
H  9.24800 0.20900 35.18100
H  10.69500 -0.74000 35.55000
H  9.47900 -1.52000 34.75100
Mg 44.05000 3.43800 47.44400
C  41.70300 6.12400 47.16700
C  41.50900 1.18100 47.19000
C  46.34900 0.96500 47.13300
C  46.54300 5.84300 46.88600
N  41.85800 3.64500 47.03100
C  41.10800 4.80600 47.08100
C  39.65300 4.48500 46.71800
C  39.56800 2.98500 47.14400
C  41.07700 2.53000 47.06700
C  39.01200 2.64900 48.60600
C  39.39600 4.75900 45.18200
C  38.44500 5.81300 44.79800
H  38.90100 6.64000 43.58300
N  44.00700 1.36700 47.32300
C  42.84800 0.68700 47.18400
C  43.15900 -0.74000 47.14100
C  44.59100 -0.92700 47.08300
C  45.05300 0.49500 47.10100
C  42.05200 -1.75900 47.20100
C  45.35200 -2.23100 46.93400
O  44.87200 -3.34600 47.05400
C  46.78300 -2.17700 46.65000
N  46.16000 3.39500 46.89800
C  46.88400 2.26500 47.06400
C  48.41200 2.51700 46.97200
C  48.50400 4.08300 46.84700
C  46.96700 4.48300 46.78800
C  49.16500 1.90600 48.15300
C  49.32900 4.51600 45.57900
C  50.78100 4.80800 45.85700
N  44.14300 5.60700 47.16900
C  45.19500 6.47000 46.94800
C  44.81300 7.82300 46.92900
C  43.39600 7.71900 47.11000
C  43.05900 6.40900 47.20600
C  45.76600 9.00000 46.86900
C  42.12200 8.54000 47.14100
O  41.96300 9.76700 47.01400
C  40.94100 7.40900 47.07400
C  40.06000 7.71100 48.21400
O  40.02700 7.18800 49.31300
O  39.26200 8.72200 47.76400
C  38.63600 9.57100 48.79900
H  40.68900 0.46500 47.28500
H  47.12700 0.19900 47.14100
H  47.24200 6.68100 46.84800
H  38.96900 5.01900 47.37800
H  39.07800 2.38500 46.37700
H  38.66400 3.58300 49.04800
H  39.78100 2.15100 49.19700
H  38.14000 2.02500 48.41000
H  39.17100 3.86500 44.60100
H  40.39300 5.05900 44.85900
H  38.35700 6.48900 45.64900
H  37.45300 5.40200 44.61200
H  42.53100 -2.69200 46.90200
H  41.30100 -1.35200 46.52400
H  41.77700 -1.81100 48.25500
H  47.11600 -1.71400 45.72100
H  47.19500 -3.18500 46.66900
H  47.28100 -1.75600 47.52300
H  48.88100 2.09700 46.08300
H  48.95400 4.57800 47.70700
H  49.51700 2.79600 48.67400
H  50.07300 1.38000 47.85900
H  48.54800 1.23300 48.74900
H  48.96700 5.45300 45.15600
H  49.29800 3.81100 44.74800
H  50.80500 5.89300 45.95000
H  51.34300 4.49100 44.97800
H  51.12400 4.32800 46.77300
H  46.29100 9.10000 45.91900
H  46.56600 8.96100 47.60700
H  45.18800 9.88200 47.14600
H  40.37200 7.62100 46.16900
H  38.96800 10.60900 48.78500
H  38.83200 9.13900 49.78000
H  37.56000 9.62000 48.63000

