158

Mg 30.33400 58.12000 40.23100
C  27.69300 56.03800 38.99100
C  32.41400 55.82400 38.55400
C  32.71200 60.30200 40.34200
C  27.87000 60.41600 41.07100
N  29.99600 56.27600 38.65800
C  28.89500 55.62900 38.41800
C  29.17400 54.22900 37.81900
C  30.69600 54.12800 37.89600
C  31.05000 55.47100 38.36000
C  31.18100 52.95800 38.88100
C  28.68400 54.10000 36.32700
C  29.16800 55.28600 35.48300
H  28.00200 55.91700 34.62100
N  32.32100 58.07700 39.72100
C  33.01600 57.00200 39.12700
C  34.40600 57.29700 39.16600
C  34.52100 58.64100 39.65500
C  33.16800 59.06600 39.91500
C  35.41500 56.31000 38.61600
C  35.80100 59.39500 39.79600
O  36.85800 58.89100 39.49700
C  35.94800 60.89100 40.19400
N  30.34900 59.94700 40.96400
C  31.46400 60.71300 40.78900
C  31.21900 62.23800 40.91500
C  29.67500 62.28800 41.07300
C  29.27400 60.82900 41.06200
C  31.99400 62.95400 42.08600
C  28.96000 63.10300 39.97300
C  28.48700 64.49600 40.44600
N  28.30500 58.20600 40.26100
C  27.46000 59.15700 40.66600
C  26.11400 58.72900 40.55400
C  26.17500 57.56100 39.91800
C  27.50800 57.22000 39.72700
C  24.89300 59.47700 41.08900
C  25.33400 56.50800 39.26000
O  24.12600 56.53700 39.04900
C  26.33000 55.45100 38.72600
C  25.96800 54.13000 39.39600
O  26.41400 53.65600 40.45300
O  24.99000 53.55300 38.63400
C  24.34800 52.41000 39.30800
H  33.14900 55.05300 38.31400
H  33.46600 61.07500 40.18200
H  27.19300 61.27300 41.08600
H  28.58600 53.56200 38.45000
H  31.17200 53.91900 36.93800
H  30.35100 52.30800 39.15500
H  31.76300 53.36800 39.70600
H  31.95900 52.32300 38.45600
H  27.59900 54.02400 36.39500
H  29.09800 53.25900 35.77000
H  30.00700 54.98300 34.85600
H  29.44700 56.14000 36.10000
H  36.37400 56.81400 38.49000
H  35.12900 56.08000 37.59000
H  35.49500 55.38200 39.18300
H  35.43400 61.57900 39.52200
H  36.98700 61.14800 39.98500
H  35.73900 61.10500 41.24200
H  31.53700 62.71000 39.98500
H  29.39100 62.61500 42.07300
H  32.34600 63.92600 41.74100
H  32.82800 62.32300 42.39300
H  31.36500 63.14500 42.95500
H  28.20900 62.47300 39.49800
H  29.65200 63.14800 39.13200
H  28.80100 64.73400 41.46200
H  27.41600 64.31900 40.34600
H  28.66900 65.30400 39.73700
H  24.11900 58.71000 41.11700
H  24.57300 60.27800 40.42300
H  25.01800 59.85900 42.10200
H  26.07600 55.51300 37.66800
H  23.50900 52.04300 38.71800
H  23.90700 52.67800 40.26800
H  25.08000 51.63000 39.52200
Mg 9.17100 49.03200 26.31500
C  7.39300 49.14500 29.25500
C  11.93900 50.23800 27.94000
C  10.74200 49.08100 23.25700
C  6.11200 48.30700 24.65300
N  9.59800 49.40000 28.35700
C  8.72300 49.49700 29.41800
C  9.47000 50.02900 30.63900
C  10.59700 50.88400 30.00600
C  10.79100 50.08900 28.67200
C  10.26400 52.42900 29.76400
C  9.95900 48.87600 31.49600
C  9.90800 49.11600 33.03900
H  9.67700 47.94000 33.97900
N  11.14200 49.48600 25.68900
C  12.15800 49.91600 26.56600
C  13.32600 50.03200 25.79400
C  13.02100 49.62500 24.40600
C  11.57400 49.34200 24.35800
C  14.67700 50.53900 26.49000
C  13.98100 49.34700 23.29300
O  13.68000 48.91500 22.17300
C  15.39600 49.59200 23.54300
N  8.52800 48.90900 24.27400
C  9.35600 48.79500 23.25000
C  8.66300 48.41900 21.95900
C  7.23400 47.99100 22.41900
C  7.24400 48.41600 23.88200
C  8.63400 49.54900 20.90200
C  6.85700 46.49800 22.18200
C  7.68700 45.39300 22.80300
N  7.08200 48.82300 26.83400
C  5.99200 48.61700 26.04800
C  4.82500 48.53400 26.89000
C  5.36300 48.70900 28.13100
C  6.74000 48.86800 28.06000
C  3.36800 48.20900 26.45400
C  5.03500 48.78700 29.57500
O  3.90900 48.70200 30.06700
C  6.32300 49.11300 30.33300
C  6.46300 47.99700 31.28500
O  6.76200 46.91300 30.92300
O  6.15200 48.35500 32.60700
C  5.96600 47.24700 33.55000
H  12.77300 50.71000 28.46300
H  11.21300 48.79900 22.31300
H  5.18700 48.06400 24.12500
H  8.84900 50.62200 31.31100
H  11.48000 50.90500 30.64600
H  10.17600 52.43500 28.67700
H  10.92700 53.16300 30.22200
H  9.24700 52.65200 30.08600
H  10.99400 48.67700 31.21600
H  9.40000 47.96200 31.29300
H  9.07000 49.77300 33.27500
H  10.89200 49.46500 33.35100
H  14.50600 51.17700 27.35700
H  15.37800 51.02900 25.81400
H  15.18800 49.64000 26.83500
H  16.04400 49.44600 22.67900
H  15.73300 48.92000 24.33200
H  15.49200 50.63000 23.86300
H  9.23600 47.56500 21.59700
H  6.43500 48.67500 22.13400
H  7.70100 49.49300 20.34100
H  9.51000 49.33500 20.28900
H  8.78100 50.55100 21.30400
H  6.91300 46.45200 21.09400
H  5.81100 46.31700 22.43200
H  8.24400 45.79800 23.64800
H  8.43800 45.01800 22.10700
H  6.97600 44.62200 23.09900
H  3.27800 48.11800 25.37200
H  2.60400 48.79800 26.96200
H  3.11900 47.20600 26.80200
H  6.14400 50.07400 30.81400
H  4.95900 46.86400 33.38700
H  5.97500 47.65700 34.56000
H  6.85200 46.64100 33.36000

