158

Mg 41.10200 7.34600 29.52400
C  42.75200 8.91800 32.19000
C  38.83700 6.05900 31.61300
C  39.87100 5.82400 26.80600
C  43.96300 8.25500 27.52500
N  40.87700 7.43700 31.64200
C  41.58500 8.22700 32.60500
C  40.95400 8.09400 33.98700
C  39.86600 6.96500 33.75600
C  39.91100 6.73700 32.24400
C  40.05500 5.68100 34.64700
C  40.34000 9.39100 34.51600
C  39.94400 9.35800 36.02000
H  40.31500 10.55600 36.98400
N  39.46900 6.23500 29.20600
C  38.64500 5.81400 30.19800
C  37.62100 4.98100 29.61600
C  37.75800 5.04400 28.21100
C  39.08300 5.67900 27.99600
C  36.59800 4.27300 30.51300
C  36.82700 4.52200 27.14300
O  36.98800 4.62800 25.95600
C  35.50500 3.91300 27.62000
N  41.82800 7.01400 27.45300
C  41.05400 6.45200 26.48800
C  41.75600 6.36400 25.12200
C  42.96200 7.31400 25.39000
C  42.95000 7.62800 26.87100
C  42.19200 4.91000 24.70100
C  42.82800 8.69800 24.51800
C  41.55600 9.56900 24.74000
N  42.96800 8.33500 29.81100
C  43.99200 8.67900 28.93100
C  45.09200 9.36500 29.55600
C  44.60600 9.58800 30.87300
C  43.38400 8.86900 30.94400
C  46.40500 9.63900 28.90900
C  44.84300 10.14600 32.17600
O  45.80500 10.87100 32.54800
C  43.56400 9.81000 33.11300
C  44.08300 9.07800 34.30800
O  44.67700 7.97300 34.31200
O  43.74100 9.83300 35.40800
C  44.06100 9.25500 36.70400
H  38.04100 5.78200 32.30800
H  39.34300 5.31500 25.99600
H  44.79100 8.45000 26.84000
H  41.64300 7.72900 34.74800
H  38.92900 7.47300 33.98400
H  41.04700 5.66900 35.09700
H  39.86700 4.76500 34.08600
H  39.30500 5.83500 35.42300
H  39.49600 9.68500 33.89200
H  41.01500 10.24500 34.46900
H  40.31300 8.44400 36.48300
H  38.88000 9.13300 36.09500
H  35.68600 4.86300 30.42000
H  36.85900 4.22800 31.57100
H  36.30300 3.27100 30.20200
H  35.60800 3.07200 28.30600
H  35.00300 3.45400 26.76900
H  34.88500 4.67200 28.09700
H  41.04500 6.83700 24.44400
H  43.86500 6.91500 24.92800
H  42.96400 4.95000 23.93200
H  41.34100 4.39500 24.25500
H  42.53300 4.32500 25.55500
H  42.86900 8.53200 23.44200
H  43.73300 9.13600 24.93800
H  40.90800 9.45300 23.87100
H  41.88100 10.58800 24.95000
H  41.02400 9.19300 25.61400
H  46.06200 9.80100 27.88700
H  47.12300 8.83800 29.08900
H  46.79900 10.56600 29.32600
H  43.08700 10.73900 33.42200
H  43.75900 8.20800 36.66200
H  43.44800 9.76500 37.44700
H  45.11500 9.39300 36.94900
Mg -5.68700 25.87600 26.06300
C  -3.84100 27.08400 28.68700
C  -6.97100 23.44000 28.26700
C  -7.20900 24.57900 23.43900
C  -3.56700 27.61500 23.82100
N  -5.39800 25.32300 28.14800
C  -4.79900 26.15500 29.03100
C  -5.16900 25.77300 30.52200
C  -5.88600 24.39000 30.35600
C  -6.05000 24.36100 28.85100
C  -5.19100 23.16600 31.01300
C  -5.92300 26.88700 31.21600
C  -5.75600 27.04600 32.74300
H  -5.28900 25.88500 33.51600
N  -6.89500 24.22300 25.91200
C  -7.39500 23.40100 26.89400
C  -8.40900 22.60300 26.29200
C  -8.54300 23.01200 24.93000
C  -7.45700 23.95300 24.72300
C  -9.21700 21.51700 27.20100
C  -9.50800 22.44500 23.95300
O  -9.49300 22.84700 22.78200
C  -10.56400 21.39100 24.24700
N  -5.27300 25.91500 23.88400
C  -6.22900 25.44100 23.07700
C  -6.10000 26.03600 21.66400
C  -4.69900 26.76700 21.72800
C  -4.51700 26.82600 23.24400
C  -6.31700 24.90600 20.59400
C  -4.84200 28.14400 20.99800
C  -5.19500 28.07700 19.52000
N  -4.11900 27.10800 26.14200
C  -3.33100 27.81800 25.16600
C  -2.49200 28.79500 25.80500
C  -2.70400 28.59600 27.19800
C  -3.62900 27.50200 27.32000
C  -1.73500 29.84000 25.15100
C  -2.35200 29.05600 28.52700
O  -1.63400 30.04100 28.85300
C  -3.02700 28.09600 29.57300
C  -2.04900 27.40700 30.39000
O  -1.34900 26.44300 30.08500
O  -2.10900 27.83100 31.72300
C  -1.21900 27.07200 32.61400
H  -7.43700 22.70500 28.92600
H  -7.83500 24.35000 22.57400
H  -2.95300 28.22200 23.15300
H  -4.18500 25.53000 30.92400
H  -6.91500 24.34900 30.71200
H  -5.55300 23.00700 32.02900
H  -4.11500 23.33200 30.96600
H  -5.43100 22.34500 30.33700
H  -6.99100 26.87200 30.99600
H  -5.53200 27.81000 30.78700
H  -6.74300 27.18800 33.18400
H  -5.25400 27.98400 32.98100
H  -8.67400 21.11200 28.05500
H  -9.43100 20.64800 26.57900
H  -10.18100 21.89100 27.54400
H  -10.06100 20.50000 24.62300
H  -11.01100 21.21000 23.26900
H  -11.29500 21.84800 24.91200
H  -6.95100 26.69700 21.49700
H  -3.83900 26.30000 21.24600
H  -7.23000 25.11800 20.03600
H  -6.38900 23.90000 21.00800
H  -5.48200 24.98700 19.89900
H  -3.87400 28.64500 21.02900
H  -5.60400 28.77700 21.45300
H  -4.90700 27.10700 19.11200
H  -4.81400 29.00000 19.08400
H  -6.27500 28.20600 19.45800
H  -0.71600 29.59400 25.44800
H  -2.04200 30.82700 25.49600
H  -1.84900 29.86800 24.06800
H  -3.60100 28.75300 30.22600
H  -0.91600 27.72000 33.43700
H  -0.22100 27.00000 32.18200
H  -1.50900 26.05000 32.85900

