158

Mg 0.90900 8.27100 27.13800
C  1.65200 10.10400 30.19600
C  0.57900 5.58700 29.05500
C  0.55700 6.63200 24.29700
C  1.91700 11.12700 25.34100
N  1.41700 7.82100 29.38600
C  1.56000 8.72400 30.40900
C  1.26600 8.06700 31.76400
C  1.11000 6.56200 31.35400
C  0.96300 6.62700 29.84000
C  2.26600 5.70800 31.87100
C  -0.11700 8.56700 32.45100
C  -0.44100 8.27800 33.96000
H  0.50900 7.39800 34.77600
N  0.58300 6.36200 26.78500
C  0.40800 5.40500 27.64700
C  0.13300 4.17900 26.96600
C  0.12200 4.46400 25.58200
C  0.45300 5.93000 25.51000
C  -0.06100 2.88600 27.64800
C  -0.22400 3.53100 24.42400
O  -0.21400 3.83900 23.22100
C  -0.71600 2.18700 24.80200
N  1.27400 8.73700 25.06800
C  1.00700 7.91600 24.09000
C  1.48000 8.49500 22.79300
C  1.63000 9.98600 23.15200
C  1.57000 9.97600 24.62000
C  2.76600 7.83600 22.14300
C  0.68900 10.93500 22.31200
C  -0.80200 11.20100 22.61400
N  1.61200 10.22400 27.54900
C  1.96400 11.32700 26.75300
C  2.22600 12.50100 27.56300
C  2.13800 12.04200 28.86800
C  1.76000 10.66500 28.83200
C  2.43800 13.89400 27.03000
C  2.28100 12.44700 30.22100
O  2.72700 13.49300 30.63000
C  1.85100 11.26700 31.06700
C  2.83400 11.19500 32.24300
O  3.92100 10.68900 32.17200
O  2.26600 11.73300 33.36300
C  3.00400 11.55400 34.64800
H  0.29800 4.69200 29.61500
H  0.54600 6.00700 23.40100
H  2.22200 11.89400 24.62600
H  2.06800 8.33500 32.45200
H  0.18900 6.22500 31.83100
H  1.80100 4.98200 32.53800
H  2.99600 6.29800 32.42400
H  2.77000 5.21900 31.03700
H  -0.87700 8.01400 31.89900
H  -0.18800 9.63100 32.22300
H  -1.42200 7.80900 33.87700
H  -0.55900 9.20900 34.51600
H  -1.09000 2.54600 27.53500
H  -0.05900 2.91200 28.73800
H  0.64500 2.15400 27.25500
H  0.18100 1.62100 25.05600
H  -1.31300 1.68000 24.04300
H  -1.44900 2.06300 25.59900
H  0.68300 8.27900 22.08100
H  2.64100 10.33100 22.93600
H  3.58700 8.53300 22.31300
H  2.67300 7.73200 21.06200
H  3.03400 6.89200 22.61800
H  0.76500 10.52800 21.30400
H  1.22800 11.88200 22.29000
H  -1.39200 11.16600 21.69800
H  -0.84800 12.22000 22.99700
H  -1.30600 10.49000 23.26800
H  3.49600 14.15500 26.99100
H  1.87500 14.59300 27.64700
H  2.03500 14.03900 26.02800
H  0.90000 11.62100 31.46400
H  2.22900 11.31800 35.37800
H  3.46200 12.42900 35.10800
H  3.72300 10.73800 34.57300
Mg -1.48900 34.84800 26.73800
C  -3.37300 33.16500 29.39800
C  0.02100 36.69200 29.04300
C  -0.37500 36.65200 24.17000
C  -3.30300 32.80800 24.45500
N  -1.70000 34.86800 28.96900
C  -2.43500 34.13700 29.81300
C  -2.17200 34.47100 31.32400
C  -1.11000 35.69700 31.13100
C  -0.86500 35.70900 29.58500
C  -1.39600 37.04800 31.84600
C  -1.52900 33.25100 32.15400
C  -2.41900 32.82300 33.35400
H  -1.64400 32.37900 34.57200
N  -0.37000 36.37200 26.62500
C  0.23000 37.02100 27.69400
C  1.05400 38.12000 27.18300
C  0.88500 38.17300 25.77500
C  -0.00900 37.06400 25.48000
C  1.78300 39.10700 28.08500
C  1.44400 39.19600 24.77800
O  1.02000 39.20300 23.62500
C  2.61700 39.94500 25.12400
N  -1.88200 34.77300 24.53500
C  -1.22600 35.60600 23.74000
C  -1.39600 35.15600 22.29200
C  -2.22300 33.81900 22.32500
C  -2.43000 33.72200 23.85400
C  -1.93600 36.23900 21.27800
C  -1.48000 32.57300 21.67400
C  -0.37800 31.94500 22.41600
N  -3.03800 33.37600 26.82600
C  -3.59600 32.63000 25.81500
C  -4.41500 31.53800 26.42200
C  -4.27900 31.79100 27.77900
C  -3.48500 32.88700 27.98700
C  -4.95300 30.40600 25.57400
C  -4.71800 31.16500 29.00100
O  -5.35800 30.12900 29.13800
C  -4.18900 32.06900 30.16900
C  -5.36300 32.60400 30.88800
O  -6.23800 33.27500 30.42200
O  -5.33800 32.24800 32.19700
C  -6.49500 32.47300 33.08300
H  0.42400 37.18800 29.92900
H  0.02000 37.20000 23.31200
H  -3.71000 32.13600 23.69600
H  -3.09200 34.90800 31.71100
H  -0.17200 35.38200 31.58800
H  -0.50400 37.42300 32.34800
H  -2.20700 36.94900 32.56900
H  -1.69900 37.71600 31.04000
H  -0.51400 33.51100 32.45500
H  -1.39900 32.39400 31.49300
H  -2.88700 31.84900 33.20500
H  -3.13500 33.61400 33.57700
H  1.35800 40.08000 27.83700
H  2.85600 38.98900 27.93900
H  1.53400 38.89400 29.12500
H  2.33700 40.68800 25.87100
H  3.04700 40.41100 24.23800
H  3.32900 39.22000 25.51700
H  -0.32800 35.04200 22.10800
H  -3.21800 33.98700 21.91200
H  -1.38400 36.25000 20.33800
H  -1.90100 37.20300 21.78400
H  -2.98400 35.98700 21.11600
H  -1.19100 32.90600 20.67700
H  -2.26000 31.83000 21.50600
H  -0.13900 32.56300 23.28100
H  0.36500 31.71900 21.65100
H  -0.70000 30.99600 22.84300
H  -4.35700 30.18400 24.68900
H  -5.84900 30.70800 25.03100
H  -4.95100 29.54900 26.24700
H  -3.57700 31.39400 30.76700
H  -7.24900 33.16800 32.71300
H  -6.07200 32.66300 34.06900
H  -7.00800 31.52200 33.22400

