158

Mg 48.33400 34.65600 26.76400
C  46.23000 33.79900 29.45800
C  49.03500 37.54000 28.31000
C  49.77600 35.64600 23.91400
C  47.15500 31.74600 25.06800
N  47.81400 35.40800 28.74100
C  46.99000 34.95300 29.72400
C  47.33700 35.62600 31.03200
C  47.91900 37.03000 30.57100
C  48.30700 36.67500 29.10800
C  47.04700 38.36600 30.84000
C  48.36800 34.82800 31.87300
C  48.08800 34.63600 33.35800
H  47.05100 35.63300 34.03900
N  49.39500 36.35200 26.24900
C  49.56700 37.42100 27.02400
C  50.32700 38.44300 26.33800
C  50.65700 37.84300 25.09200
C  49.96900 36.54700 25.01200
C  50.66100 39.85500 27.05900
C  51.50900 38.37200 23.96200
O  51.61300 37.86600 22.83600
C  52.18100 39.67300 24.27600
N  48.62000 33.75300 24.73600
C  49.22400 34.40800 23.72800
C  49.26900 33.53100 22.47200
C  48.58600 32.24300 22.98400
C  48.04500 32.57100 24.39400
C  48.67000 34.20200 21.23000
C  49.79200 31.20700 23.17400
C  49.80400 30.15300 21.96200
N  46.94400 33.11100 27.09400
C  46.61500 31.97100 26.38800
C  45.62200 31.22100 27.06300
C  45.45000 31.95200 28.25300
C  46.26600 33.07200 28.27700
C  44.90600 30.07400 26.48900
C  44.70000 31.89300 29.52200
O  43.87200 31.04200 29.89100
C  45.18700 33.11700 30.37500
C  45.39900 32.71400 31.79400
O  46.31100 31.95200 32.14300
O  44.39500 33.06900 32.59000
C  44.17500 32.34700 33.86300
H  49.38500 38.38700 28.90400
H  50.24400 35.92800 22.96900
H  46.76500 30.89300 24.50900
H  46.40200 35.84600 31.54700
H  48.88300 37.31000 30.99500
H  46.18600 38.03100 31.41900
H  46.77400 38.82700 29.89100
H  47.61000 39.07900 31.44200
H  49.39200 35.19400 31.80100
H  48.32800 33.80600 31.49400
H  48.99300 34.72400 33.95900
H  47.63600 33.65400 33.50300
H  50.21300 40.67200 26.49200
H  51.74000 39.93400 26.93000
H  50.38000 39.93600 28.10900
H  52.89700 39.48800 25.07600
H  51.37600 40.38200 24.47200
H  52.78000 39.95200 23.41000
H  50.34500 33.43900 22.32700
H  47.76100 31.87900 22.37200
H  47.94900 33.57500 20.70500
H  49.54100 34.30900 20.58500
H  48.25000 35.20400 21.32600
H  49.78500 30.66100 24.11800
H  50.77400 31.66000 23.03500
H  50.67700 30.16300 21.31000
H  48.87900 30.03800 21.39700
H  49.94600 29.23400 22.53100
H  44.43600 30.41700 25.56700
H  44.15400 29.80000 27.22800
H  45.57500 29.24300 26.26200
H  44.30900 33.76200 30.39200
H  43.10600 32.16800 33.97600
H  44.39300 32.99600 34.71200
H  44.71100 31.41900 34.06200
Mg -0.48200 34.98400 26.98300
C  -2.32100 33.04600 29.24200
C  0.82100 36.70300 29.64300
C  0.71000 37.07200 24.88500
C  -2.08600 33.21100 24.35600
N  -0.72000 34.84900 29.21500
C  -1.49800 33.95300 29.93000
C  -1.48300 34.25700 31.40600
C  -0.55900 35.50100 31.48000
C  -0.10100 35.75500 30.07500
C  -1.00800 36.83600 32.27600
C  -0.91100 33.00300 32.15200
C  -1.65500 32.52600 33.41400
H  -0.89600 32.44900 34.71700
N  0.70500 36.70100 27.23800
C  1.14300 37.24000 28.39000
C  1.95200 38.33800 28.07100
C  1.95400 38.48500 26.63300
C  1.05400 37.45900 26.22400
C  2.76400 39.15400 29.03300
C  2.66900 39.41500 25.68400
O  2.41300 39.55400 24.44000
C  3.72600 40.33400 26.25300
N  -0.51400 34.97200 24.89900
C  -0.04100 36.07300 24.23000
C  -0.34700 36.06500 22.70400
C  -1.10500 34.68900 22.56400
C  -1.23700 34.21400 24.03100
C  -1.19400 37.30700 22.25200
C  -0.55200 33.64900 21.64900
C  0.52600 32.71500 22.20600
N  -1.90300 33.43100 26.76900
C  -2.42400 32.79700 25.65800
C  -3.29900 31.72800 26.09500
C  -3.30500 31.84600 27.51600
C  -2.45300 32.88300 27.85400
C  -3.95700 30.75000 25.19100
C  -3.83900 31.22000 28.71100
O  -4.54100 30.21200 28.86700
C  -3.28300 32.11300 29.87900
C  -4.43600 32.76900 30.55100
O  -4.92100 33.82900 30.26200
O  -4.93700 31.96000 31.61000
C  -6.04300 32.52500 32.42200
H  1.29400 37.23600 30.47000
H  1.02500 37.73100 24.07500
H  -2.61200 32.68800 23.55500
H  -2.50300 34.46900 31.72900
H  0.39600 35.26600 31.95000
H  -1.37000 37.59400 31.58100
H  -0.17200 37.29600 32.80200
H  -1.75200 36.62200 33.04400
H  0.02000 33.28400 32.64400
H  -0.69000 32.13100 31.53700
H  -2.04100 31.51000 33.32400
H  -2.48400 33.23000 33.48600
H  3.79500 38.80800 29.10000
H  2.46300 39.21300 30.07900
H  2.66200 40.19300 28.71900
H  4.52100 39.87200 26.83800
H  3.28300 41.07100 26.92400
H  4.11300 40.82900 25.36200
H  0.60200 35.96900 22.17600
H  -2.09400 34.89500 22.15300
H  -1.54900 37.69100 23.20800
H  -1.99800 37.08400 21.55000
H  -0.41500 37.90000 21.77300
H  -0.16700 34.19400 20.78800
H  -1.35900 33.04400 21.23600
H  0.03800 31.99700 22.86500
H  1.26200 33.25200 22.80400
H  1.03600 32.07400 21.48700
H  -3.13600 30.51200 24.51500
H  -4.82500 31.14300 24.66200
H  -4.06200 29.81200 25.73600
H  -2.67300 31.54800 30.58400
H  -5.81600 33.11300 33.31100
H  -6.58800 31.66500 32.81200
H  -6.72200 33.12200 31.81400

