158

Mg -1.47700 16.95300 26.29200
C  -2.03700 14.62900 28.88400
C  -1.81600 19.48600 28.52200
C  -1.07400 19.12100 23.69900
C  -1.72100 14.33000 23.96900
N  -1.79300 16.99900 28.46100
C  -1.99600 15.95400 29.30900
C  -2.25300 16.45500 30.71800
C  -2.13400 18.01200 30.58100
C  -2.02600 18.18900 29.07800
C  -3.32300 18.86500 31.25100
C  -1.21200 15.67000 31.69400
C  -0.57000 16.57400 32.79000
H  -0.59500 15.83600 34.13700
N  -1.41200 19.07000 26.17000
C  -1.57700 19.87200 27.16000
C  -1.46300 21.24500 26.67800
C  -1.31300 21.15200 25.28400
C  -1.18300 19.74500 24.96400
C  -1.66800 22.39200 27.60400
C  -1.24900 22.29500 24.20300
O  -1.10400 22.06000 23.03500
C  -1.29300 23.82000 24.62800
N  -1.35400 16.72700 24.09500
C  -1.15200 17.78900 23.29500
C  -1.04500 17.34000 21.82700
C  -1.06100 15.74200 21.94200
C  -1.43600 15.59300 23.39900
C  -2.21800 17.85700 20.87400
C  0.21200 14.93300 21.47400
C  0.25400 14.85200 19.91000
N  -1.75600 14.86400 26.36600
C  -1.83900 13.93500 25.34200
C  -2.03900 12.58800 25.88900
C  -2.19800 12.84100 27.27400
C  -1.94800 14.19000 27.51200
C  -2.03100 11.23700 25.06800
C  -2.43900 12.22100 28.55600
O  -2.60400 11.04900 28.77400
C  -2.48700 13.32700 29.64200
C  -1.77800 12.74300 30.80700
O  -0.54100 12.64500 30.79500
O  -2.56400 12.30700 31.87900
C  -1.81400 11.71700 32.97500
H  -1.82700 20.25100 29.30100
H  -0.81900 19.73200 22.83100
H  -1.76600 13.59000 23.16700
H  -3.27400 16.20200 31.00200
H  -1.18700 18.36200 30.99200
H  -2.99000 19.42400 32.12600
H  -4.10100 18.17100 31.57000
H  -3.84400 19.46800 30.50700
H  -0.36000 15.33300 31.10400
H  -1.67200 14.83600 32.22400
H  -0.99600 17.56900 32.92000
H  0.44500 16.78100 32.45100
H  -1.40800 22.24900 28.65300
H  -2.59800 22.94900 27.48900
H  -0.91500 23.09700 27.25100
H  -1.50200 24.50200 23.80400
H  -0.34900 23.98500 25.14800
H  -2.00200 23.79100 25.45500
H  -0.08800 17.64800 21.40700
H  -1.87600 15.37000 21.32100
H  -2.87000 18.61400 21.31000
H  -2.87700 17.06200 20.52300
H  -1.73600 18.22800 19.97000
H  0.12700 13.96200 21.96300
H  1.11700 15.37600 21.88900
H  1.11900 15.30400 19.42400
H  -0.59200 15.18100 19.30700
H  0.32100 13.81200 19.59200
H  -1.14000 11.11800 24.45000
H  -2.96500 10.98400 24.56600
H  -2.07100 10.51800 25.88600
H  -3.49100 13.69200 29.85700
H  -1.14300 12.49200 33.34400
H  -1.13900 10.93400 32.62800
H  -2.41400 11.30800 33.78800
Mg 48.94300 44.43100 42.81400
C  45.46000 44.37700 42.22900
C  49.16600 41.12500 42.43600
C  52.26900 44.77400 42.56900
C  48.73100 47.98900 42.78500
N  47.44500 42.94600 42.20900
C  46.08600 43.06900 42.09300
C  45.49300 41.65300 42.15400
C  46.68100 40.67900 42.38100
C  47.87500 41.66500 42.38300
C  46.60800 39.83500 43.72900
C  44.44200 41.20800 41.03100
C  44.51300 42.00000 39.67700
H  44.65200 41.13900 38.42100
N  50.50700 43.09800 42.60300
C  50.33700 41.76400 42.43200
C  51.66200 41.12300 42.29300
C  52.64400 42.16300 42.33100
C  51.80000 43.44000 42.45700
C  51.84100 39.63700 42.10700
C  54.16800 42.02300 42.12700
O  54.64100 40.88800 42.14000
C  55.15200 43.30700 41.84700
N  50.35800 46.13400 42.57200
C  51.66900 46.00500 42.60000
C  52.38600 47.43100 42.65500
C  51.27300 48.42200 42.93300
C  50.05800 47.46600 42.69100
C  53.59700 47.44100 43.60700
C  51.29400 49.64100 41.90000
C  51.03900 51.03500 42.51900
N  47.45200 45.93200 42.54600
C  47.48800 47.27800 42.67700
C  46.16500 47.86800 42.61900
C  45.31200 46.76200 42.46900
C  46.16200 45.62200 42.41300
C  45.85500 49.32500 42.43800
C  43.91100 46.34100 42.36600
O  42.81900 46.96900 42.39000
C  43.99000 44.84100 42.21000
C  43.06400 44.20100 43.21900
O  41.91100 43.76500 43.04700
O  43.58800 44.11700 44.48700
C  42.74300 43.49400 45.49900
H  49.34500 40.04700 42.42500
H  53.35500 44.78900 42.68400
H  48.72700 49.08100 42.78300
H  44.82400 41.74300 43.01000
H  46.76700 39.93500 41.58900
H  45.73300 40.14600 44.29900
H  47.46200 40.10200 44.35100
H  46.56300 38.74700 43.68100
H  43.44100 41.39900 41.41900
H  44.53100 40.12500 40.94900
H  45.36700 42.67900 39.68000
H  43.60000 42.59300 39.62800
H  51.61600 39.39200 41.06900
H  51.13100 39.17100 42.79000
H  52.82900 39.20400 42.26500
H  54.61900 43.94000 41.13700
H  56.01400 42.83500 41.37600
H  55.42100 43.82300 42.76900
H  52.82200 47.69600 41.69200
H  51.18100 48.78500 43.95600
H  53.64100 48.34300 44.21800
H  54.43600 47.62900 42.93600
H  53.76000 46.51600 44.15900
H  50.57900 49.38100 41.11900
H  52.23100 49.76500 41.35800
H  51.04100 50.99900 43.60900
H  50.13700 51.52700 42.15400
H  51.90200 51.60900 42.18200
H  46.04000 49.70500 43.44300
H  44.79700 49.39600 42.18300
H  46.56300 49.75100 41.72800
H  43.40300 44.55000 41.33800
H  42.56500 42.47900 45.14400
H  41.77700 43.95600 45.70100
H  43.21500 43.65400 46.46800

