158

Mg 1.39700 7.64000 26.14800
C  2.14600 9.77300 28.79100
C  1.49300 4.93900 28.35700
C  0.71700 5.67100 23.57000
C  1.71700 10.40700 23.90600
N  1.71300 7.44800 28.33800
C  1.97500 8.45800 29.18900
C  1.88300 7.96000 30.59800
C  1.73400 6.39700 30.49100
C  1.63100 6.23100 28.97900
C  2.96200 5.58700 30.99700
C  0.65000 8.58800 31.33600
C  0.73700 8.77300 32.91200
H  1.85500 7.95400 33.56800
N  1.26400 5.61800 25.98000
C  1.39100 4.66100 26.95500
C  1.19400 3.33300 26.38500
C  0.86200 3.55700 25.03000
C  0.95500 4.99500 24.76500
C  1.15300 2.03300 27.23300
C  0.70800 2.50700 23.97700
O  0.58800 2.81100 22.78300
C  0.55600 1.05200 24.32800
N  1.38600 8.00000 23.98200
C  0.92400 6.95300 23.21500
C  0.87100 7.37200 21.67700
C  0.77100 8.92400 21.91300
C  1.32600 9.14300 23.31300
C  2.16100 6.84900 20.95700
C  -0.55200 9.70600 21.56700
C  -0.76600 10.67300 20.37500
N  1.65700 9.68600 26.23100
C  1.78600 10.68300 25.27000
C  2.11000 11.98200 25.87000
C  2.22200 11.63000 27.27100
C  2.06600 10.20700 27.45600
C  1.91100 13.36700 25.33400
C  2.48200 12.14600 28.62900
O  2.69000 13.28600 29.05600
C  2.37200 11.02200 29.63700
C  3.56300 11.08900 30.58600
O  4.63400 10.59000 30.33100
O  3.12600 11.70000 31.77700
C  4.04300 11.95200 32.92700
H  1.37900 4.05500 28.98700
H  0.56700 5.01800 22.70800
H  1.87800 11.22700 23.20200
H  2.78900 8.25700 31.12800
H  0.83100 6.12600 31.03800
H  2.61500 4.55800 31.09200
H  3.47900 5.97400 31.87500
H  3.69500 5.60400 30.18900
H  -0.31000 8.17500 31.02700
H  0.60400 9.59400 30.91800
H  -0.21800 8.41200 33.29500
H  0.79400 9.82500 33.19100
H  1.75900 1.29100 26.71300
H  0.13700 1.64500 27.30700
H  1.47300 2.16100 28.26600
H  1.54200 0.64000 24.54200
H  0.22200 0.48400 23.45900
H  -0.05300 0.95400 25.22600
H  -0.07700 7.14000 21.19100
H  1.58200 9.29900 21.29000
H  2.75500 6.27800 21.67100
H  2.75800 7.66000 20.54000
H  1.84100 6.09400 20.23900
H  -0.78000 10.25900 22.47800
H  -1.34100 8.95800 21.48300
H  0.10800 10.77000 19.73000
H  -0.91600 11.65200 20.83000
H  -1.64600 10.51900 19.75200
H  1.61400 13.46500 24.28900
H  2.94200 13.71400 25.28300
H  1.23400 13.96100 25.94800
H  1.47600 11.32000 30.18100
H  4.78300 12.71000 32.67000
H  4.79500 11.17000 33.03400
H  3.61400 12.12000 33.91500
Mg 9.07400 47.61100 27.79800
C  7.03400 47.36900 30.56000
C  11.80400 48.28400 29.71100
C  10.76600 48.39400 24.96200
C  6.09500 47.55600 25.83200
N  9.40300 47.85700 29.89000
C  8.43200 47.49100 30.83800
C  9.03600 47.55800 32.31500
C  10.51200 48.09900 32.00700
C  10.57400 48.01300 30.42600
C  10.72300 49.55400 32.58900
C  9.18000 46.21800 33.06500
C  8.81500 46.31900 34.55400
H  9.54100 45.27600 35.44500
N  11.08600 48.18000 27.38500
C  12.08200 48.29000 28.29700
C  13.35800 48.51600 27.65700
C  13.11500 48.57200 26.17400
C  11.60400 48.43500 26.11900
C  14.65800 48.44900 28.48100
C  13.99800 48.63200 24.97000
O  13.61900 48.71900 23.80600
C  15.46200 48.59100 25.16500
N  8.53700 47.91700 25.73400
C  9.43300 48.19900 24.77100
C  8.82700 48.13000 23.31600
C  7.28900 47.91500 23.64100
C  7.29000 47.74400 25.12200
C  9.17800 49.31700 22.36500
C  6.56600 46.80900 22.82200
C  6.26700 47.18400 21.29200
N  7.02200 47.45100 28.09600
C  5.97600 47.43600 27.18600
C  4.63700 47.37700 27.89000
C  5.04500 47.26000 29.25200
C  6.44400 47.35400 29.25200
C  3.27900 47.24600 27.38800
C  4.58600 47.14600 30.60200
O  3.42000 46.95900 30.98500
C  5.88000 47.10000 31.52100
C  5.85100 45.74000 32.13300
O  6.45500 44.77500 31.73400
O  5.14600 45.83000 33.35600
C  5.43100 44.72800 34.31800
H  12.67200 48.48500 30.34200
H  11.36200 48.65600 24.08500
H  5.27500 47.49400 25.11300
H  8.38800 48.19200 32.92100
H  11.29400 47.50600 32.48200
H  9.96300 49.95500 33.25900
H  10.92400 50.20300 31.73600
H  11.69200 49.54700 33.08800
H  10.18800 45.86000 32.85400
H  8.44100 45.54400 32.63400
H  7.73900 46.22300 34.70400
H  9.12700 47.31500 34.86700
H  15.38000 47.75300 28.05400
H  14.49200 48.30600 29.54800
H  15.16500 49.41400 28.46600
H  15.75700 47.56600 25.38900
H  15.69400 49.05800 26.12200
H  16.11500 49.04900 24.42100
H  9.04600 47.18500 22.81800
H  6.88600 48.91900 23.51400
H  9.54700 50.15500 22.95700
H  8.22000 49.49700 21.87600
H  9.89300 48.94100 21.63300
H  5.60300 46.50600 23.23300
H  7.15700 45.90700 22.98300
H  6.41300 48.26400 21.30500
H  5.24900 46.86400 21.07000
H  6.97900 46.75200 20.58900
H  2.52700 47.05200 28.15300
H  3.23200 46.51000 26.58500
H  3.12800 48.23300 26.95100
H  5.76200 47.89800 32.25400
H  6.45400 44.35000 34.31900
H  4.70700 43.91400 34.29600
H  5.26200 45.20100 35.28600

