158

Mg 36.04200 48.59800 24.83600
C  36.04500 46.67500 27.85700
C  34.14200 50.84000 26.47600
C  35.10100 49.93100 21.84000
C  37.13200 45.78800 23.18500
N  35.08500 48.63700 26.95800
C  35.34900 47.88900 28.01700
C  35.05300 48.68300 29.32000
C  34.25000 49.88300 28.76700
C  34.56100 49.82900 27.33000
C  32.69200 49.94600 29.18500
C  36.35000 49.13600 30.02700
C  36.29600 49.64900 31.54300
H  34.96900 49.64700 32.36100
N  34.99700 50.37200 24.22900
C  34.33900 51.14200 25.06300
C  33.83800 52.35900 24.37200
C  34.18400 52.05800 23.02300
C  34.71400 50.69200 22.96700
C  33.00500 53.49900 24.92600
C  34.15300 52.97300 21.83500
O  34.58600 52.60400 20.73700
C  33.68600 54.43300 22.02700
N  35.92500 47.92200 22.87600
C  35.57400 48.66000 21.85400
C  35.72800 47.91100 20.41400
C  36.52800 46.69800 20.87100
C  36.55500 46.76600 22.42400
C  34.31600 47.58000 19.82400
C  37.96100 46.65000 20.22800
C  38.89900 47.83900 20.57400
N  36.47700 46.59500 25.37600
C  37.08000 45.65000 24.59700
C  37.41100 44.51400 25.42200
C  37.09300 44.90100 26.76500
C  36.54300 46.19400 26.61700
C  37.97400 43.20400 24.99300
C  36.99700 44.53900 28.13300
O  37.22100 43.45000 28.64700
C  36.49900 45.77800 28.96600
C  35.54700 45.34600 30.07300
O  34.54800 44.71200 29.90600
O  36.04600 45.89300 31.20600
C  35.15000 45.61000 32.39900
H  33.44900 51.58500 26.87200
H  34.89300 50.36000 20.85800
H  37.47900 44.87500 22.69700
H  34.48500 48.08900 30.03500
H  34.55900 50.85500 29.15100
H  32.47700 49.10000 29.83700
H  32.06600 49.85500 28.29700
H  32.52300 50.90900 29.66600
H  36.78700 49.89000 29.37200
H  37.11800 48.36900 30.13000
H  36.55300 50.70800 31.52300
H  37.12400 49.21600 32.10500
H  33.56400 54.42700 25.04200
H  32.71000 53.30400 25.95700
H  32.10400 53.53400 24.31300
H  33.75600 54.96100 21.07500
H  34.46300 54.78600 22.70500
H  32.69000 54.44300 22.46800
H  36.28400 48.49400 19.67900
H  36.08500 45.74600 20.58000
H  34.33400 46.51100 19.61300
H  34.11300 48.12500 18.90200
H  33.58700 47.82100 20.59700
H  37.97500 46.58700 19.14000
H  38.48900 45.76200 20.57700
H  38.89300 48.51500 19.71900
H  39.88100 47.37500 20.67500
H  38.70300 48.49700 21.42000
H  38.57100 43.42900 24.10900
H  37.13600 42.58300 24.67900
H  38.63900 42.88800 25.79700
H  37.39100 46.09200 29.50800
H  35.22200 44.65100 32.91300
H  34.12500 45.70000 32.04100
H  35.34300 46.36800 33.15700
Mg -4.85300 25.58100 25.82200
C  -3.62200 26.87100 28.85200
C  -6.80100 23.38300 27.64700
C  -6.09500 24.32100 23.02500
C  -2.52900 27.50900 24.07100
N  -5.21200 25.25000 27.99100
C  -4.65900 25.89000 29.05700
C  -5.13900 25.41800 30.40600
C  -6.19900 24.28500 29.99200
C  -5.99700 24.17800 28.47200
C  -5.88400 22.90600 30.65000
C  -5.82200 26.62300 31.21100
C  -5.98000 26.41900 32.69800
H  -5.20500 25.28300 33.45300
N  -6.17700 24.09400 25.38400
C  -6.92200 23.36900 26.23500
C  -7.93700 22.59300 25.54600
C  -7.76600 22.91000 24.17400
C  -6.60500 23.75600 24.13100
C  -9.03100 21.71200 26.18800
C  -8.54900 22.35400 22.97300
O  -8.28300 22.64300 21.80300
C  -9.75800 21.45000 23.10900
N  -4.25400 25.68800 23.85000
C  -4.96200 25.21000 22.87000
C  -4.43400 25.53900 21.49800
C  -3.37100 26.58600 21.87800
C  -3.32300 26.60000 23.35900
C  -3.93500 24.25600 20.66600
C  -3.61600 27.98500 21.36000
C  -2.72800 28.50600 20.19700
N  -3.41400 26.86900 26.30300
C  -2.53700 27.66000 25.50800
C  -1.77900 28.50300 26.34600
C  -2.16000 28.23100 27.65700
C  -3.15400 27.21800 27.58600
C  -0.78700 29.56200 25.88000
C  -1.85100 28.57300 29.05100
O  -1.00100 29.35500 29.52700
C  -2.89500 27.74000 29.86100
C  -2.09900 26.93000 30.88100
O  -1.75900 25.71800 30.82100
O  -2.02700 27.77000 32.01700
C  -1.30100 27.20000 33.15900
H  -7.53700 22.74200 28.13600
H  -6.46400 24.06600 22.02900
H  -1.84700 28.03400 23.39900
H  -4.26800 24.92100 30.83300
H  -7.25700 24.37800 30.23600
H  -5.21500 23.11300 31.48500
H  -5.43700 22.19400 29.95500
H  -6.69600 22.27900 31.02000
H  -6.80300 26.68400 30.73900
H  -5.24400 27.54300 31.13100
H  -7.05600 26.41200 32.86900
H  -5.61300 27.32000 33.19000
H  -9.31200 20.81300 25.63800
H  -9.98700 22.20700 26.35700
H  -8.69200 21.44100 27.18800
H  -10.03400 21.18700 22.08900
H  -10.65800 21.95000 23.46800
H  -9.56600 20.53300 23.66600
H  -5.27600 25.97000 20.95600
H  -2.33700 26.33200 21.64400
H  -4.57900 24.07000 19.80700
H  -3.97200 23.47200 21.42200
H  -2.88800 24.36300 20.38100
H  -3.65700 28.75200 22.13300
H  -4.69000 28.05200 21.18500
H  -2.19600 27.71300 19.67100
H  -2.13100 29.34500 20.55400
H  -3.42000 28.92700 19.46700
H  -0.27100 29.23400 24.97800
H  -0.01800 29.57400 26.65200
H  -1.25300 30.52700 25.68000
H  -3.49600 28.47100 30.40200
H  -1.68400 27.74500 34.02200
H  -0.23300 27.26000 32.95000
H  -1.60600 26.17600 33.37000

