158

Mg 17.30800 -1.21600 28.29200
C  16.22700 0.90900 30.91300
C  19.15400 -2.94300 30.42400
C  18.66900 -2.71400 25.52400
C  15.73800 1.10100 26.04800
N  17.57200 -1.01400 30.46500
C  16.99500 -0.18300 31.33100
C  17.52100 -0.49700 32.71200
C  18.59800 -1.57600 32.48100
C  18.41600 -1.94300 31.00400
C  19.99100 -1.28200 32.99500
C  16.33800 -0.79400 33.67600
C  16.47900 -0.29000 35.13000
H  17.80700 0.20000 35.61800
N  18.62600 -2.68300 28.06100
C  19.33200 -3.27700 29.02300
C  20.14100 -4.38500 28.52800
C  19.88800 -4.47800 27.13100
C  19.00900 -3.21500 26.82500
C  21.02200 -5.28400 29.40500
C  20.24200 -5.52500 26.19900
O  19.87700 -5.55300 25.03700
C  21.13100 -6.73400 26.59000
N  17.25300 -0.78900 26.05600
C  17.88500 -1.61400 25.12300
C  17.38200 -1.42500 23.71100
C  16.37100 -0.19200 23.97800
C  16.37800 0.04500 25.45200
C  18.52900 -1.21800 22.67800
C  15.04600 -0.46500 23.38200
C  14.00000 -1.17100 24.21100
N  16.10700 0.57900 28.39900
C  15.58500 1.45400 27.43700
C  14.88400 2.56400 27.98400
C  15.08500 2.33500 29.42200
C  15.78900 1.19900 29.60300
C  14.16900 3.64000 27.18200
C  14.72300 2.89100 30.68500
O  14.06900 3.87400 31.01300
C  15.49000 1.97200 31.73200
C  16.36100 2.96100 32.51600
O  17.28500 3.58000 32.00900
O  15.86900 3.15800 33.82400
C  16.48300 4.07000 34.75600
H  19.76500 -3.46900 31.16100
H  19.08100 -3.32500 24.71800
H  15.19000 1.73300 25.34600
H  18.14300 0.33600 33.04100
H  18.31200 -2.45600 33.05800
H  20.21900 -1.89100 33.86900
H  20.12300 -0.23900 33.28300
H  20.71100 -1.52500 32.21400
H  16.41600 -1.87400 33.79900
H  15.39900 -0.47300 33.22400
H  16.17100 -1.17800 35.68100
H  15.78300 0.52300 35.33600
H  20.63700 -6.29200 29.25600
H  20.95100 -5.06600 30.47100
H  22.06400 -5.19300 29.09900
H  20.52800 -7.43100 27.17200
H  21.97200 -6.44600 27.22000
H  21.55800 -7.27000 25.74200
H  16.81900 -2.33200 23.49200
H  16.83300 0.68800 23.53100
H  19.44900 -1.68600 23.02800
H  18.57900 -0.14300 22.50700
H  18.22200 -1.77700 21.79400
H  15.19900 -1.25300 22.64400
H  14.68100 0.39000 22.81400
H  14.08800 -0.87100 25.25500
H  14.12900 -2.23900 24.38600
H  12.98800 -0.92900 23.88600
H  14.01500 3.31900 26.15200
H  14.76600 4.54900 27.11200
H  13.19700 3.94100 27.57200
H  14.75600 1.46100 32.35500
H  16.44400 5.10000 34.40300
H  17.52600 3.77300 34.86500
H  15.91500 4.05500 35.68600
Mg 48.32300 45.39400 42.14500
C  44.95100 46.16100 41.16000
C  47.80100 42.26500 40.82600
C  51.50500 44.85500 42.32100
C  48.82000 48.88000 42.50100
N  46.63200 44.46300 41.06300
C  45.38400 44.94700 40.75100
C  44.52500 43.92600 40.06600
C  45.31400 42.61600 40.32900
C  46.67500 43.17400 40.73800
C  44.72800 41.68700 41.42600
C  44.22100 44.08400 38.55700
C  43.05900 43.24700 37.99800
H  43.34500 42.51000 36.64500
N  49.49900 43.77800 41.80100
C  49.08300 42.54000 41.25000
C  50.22300 41.62900 41.17700
C  51.35200 42.37500 41.66800
C  50.79900 43.73000 42.06900
C  50.11200 40.20300 40.67600
C  52.67400 41.78100 42.01300
O  52.91000 40.59700 41.80600
C  53.73300 42.49600 42.73200
N  49.95500 46.67600 42.42200
C  51.21600 46.15600 42.48600
C  52.25400 47.21100 42.54300
C  51.40300 48.54500 42.46200
C  49.96100 48.00600 42.55100
C  53.44800 47.26300 43.58100
C  51.61000 49.56800 41.26500
C  51.57800 51.10100 41.60900
N  47.09300 47.16500 42.10700
C  47.45600 48.45000 42.42100
C  46.20300 49.17000 42.54700
C  45.18000 48.37400 41.98900
C  45.80300 47.15100 41.70200
C  46.01900 50.52100 43.12600
C  43.80300 48.24400 41.67500
O  42.85600 48.95300 41.75900
C  43.66600 46.84800 40.88100
C  42.51400 45.96700 41.39300
O  41.52700 45.61300 40.74600
O  42.81000 45.52400 42.66800
C  41.97100 44.54200 43.24900
H  47.67800 41.25200 40.43700
H  52.59200 44.74600 42.30600
H  48.74700 49.94700 42.72500
H  43.56300 43.95800 40.57700
H  45.29700 42.00800 39.42400
H  45.30500 41.69000 42.35100
H  44.53300 40.72100 40.96000
H  43.70000 42.02500 41.55400
H  45.08300 43.76100 37.97300
H  43.96200 45.12400 38.36100
H  42.21400 43.87100 37.70600
H  42.81700 42.52000 38.77400
H  49.26300 39.93300 40.04900
H  49.85200 39.63200 41.56700
H  50.95900 39.76000 40.15200
H  53.36600 43.02800 43.61000
H  54.15100 43.24200 42.05700
H  54.50000 41.78500 43.03800
H  52.70800 47.06300 41.56300
H  51.48200 49.05300 43.42300
H  54.41800 47.14300 43.09900
H  53.31700 46.39400 44.22600
H  53.51000 48.11200 44.26200
H  50.72400 49.35500 40.66700
H  52.48000 49.23400 40.69900
H  52.58100 51.47400 41.40100
H  51.22600 51.16400 42.63900
H  50.85400 51.61400 40.97500
H  46.53400 50.63700 44.08000
H  44.96800 50.75200 43.29700
H  46.44000 51.23700 42.42000
H  43.43600 47.08500 39.84200
H  42.03100 44.42600 44.33100
H  42.18500 43.58400 42.77500
H  40.91600 44.80400 43.16300

