158

Mg 52.51500 24.03800 44.68500
C  50.18100 26.39000 44.05000
C  50.46100 21.64700 43.13000
C  55.16200 21.80700 44.72200
C  54.69400 26.45400 45.90300
N  50.64800 24.13000 43.51800
C  49.82100 25.19300 43.42700
C  48.51900 24.94100 42.61100
C  48.52800 23.35500 42.80000
C  50.00100 22.99300 43.15900
C  47.49200 22.89300 43.89200
C  48.64400 25.22700 41.02600
C  50.06100 25.26300 40.40800
H  50.23400 25.94000 39.07900
N  52.64900 21.90200 44.22300
C  51.73600 21.12600 43.54100
C  52.30600 19.79100 43.54200
C  53.63400 19.84300 44.04600
C  53.87900 21.24000 44.34200
C  51.47800 18.56500 43.07500
C  54.51600 18.61400 44.26500
O  54.16600 17.51000 43.86000
C  55.69100 18.69700 45.12100
N  54.67500 24.12400 45.08000
C  55.54200 23.10600 45.08400
C  56.92400 23.38600 45.48500
C  56.76700 24.88200 45.91600
C  55.25500 25.17500 45.63500
C  57.52600 22.39200 46.50300
C  57.72500 25.86400 45.11800
C  57.21800 26.40000 43.71200
N  52.54000 26.00300 44.93100
C  53.45600 26.88200 45.55100
C  52.81500 28.12200 45.72500
C  51.55100 27.96100 45.17600
C  51.44400 26.66600 44.69100
C  53.48500 29.40500 46.35400
C  50.26600 28.64300 44.93500
O  49.86600 29.79700 45.21600
C  49.39800 27.62200 44.21600
C  48.70600 28.11300 42.94600
O  49.30000 28.53200 41.97200
O  47.38100 27.99000 43.12600
C  46.55200 28.49800 42.05000
H  49.79200 20.87100 42.75400
H  55.94700 21.05100 44.65300
H  55.47400 27.14000 46.23800
H  47.60500 25.38600 43.00400
H  48.17600 22.90900 41.87000
H  46.71900 22.20400 43.55000
H  47.06200 23.78600 44.34500
H  48.07600 22.38000 44.65600
H  48.05300 26.12400 40.83900
H  48.11700 24.44900 40.47300
H  50.38300 24.22600 40.30800
H  50.75500 25.79000 41.06200
H  50.55700 18.92400 42.61500
H  51.19600 17.93700 43.92000
H  52.04500 17.87900 42.44600
H  55.67500 19.46000 45.90000
H  56.56800 18.87000 44.49800
H  55.81100 17.74000 45.62700
H  57.41700 23.26600 44.52000
H  56.86600 25.08800 46.98200
H  56.92000 21.52400 46.76400
H  57.73300 22.88100 47.45400
H  58.39800 21.98600 45.98900
H  58.68500 25.37100 44.96900
H  57.85300 26.69900 45.80800
H  57.94700 26.02700 42.99200
H  57.21100 27.48500 43.60600
H  56.25100 26.03300 43.36800
H  52.77700 30.08300 46.83200
H  54.16200 29.97500 45.71800
H  54.10900 29.09900 47.19400
H  48.59100 27.42200 44.92100
H  46.11900 27.68300 41.46900
H  47.07900 29.26000 41.47600
H  45.73200 29.09900 42.44400
Mg 36.39300 49.62600 24.38200
C  36.49500 48.09600 27.50400
C  35.10000 52.42800 26.17000
C  35.60600 51.01400 21.52200
C  37.15500 46.62300 22.89700
N  35.83700 50.15400 26.58200
C  36.05500 49.39600 27.66300
C  35.78400 50.09600 29.02600
C  35.32000 51.56600 28.48600
C  35.38900 51.37000 26.99900
C  33.82200 51.90300 28.98700
C  37.01500 50.21000 29.92100
C  36.72800 49.69300 31.35600
H  35.27400 49.68800 31.95300
N  35.69100 51.56700 23.83700
C  35.27300 52.54200 24.73900
C  34.88900 53.71400 23.98900
C  34.99900 53.40200 22.58200
C  35.44700 51.93900 22.56800
C  34.27200 54.92700 24.66700
C  34.62700 54.17400 21.33300
O  34.68200 53.69500 20.16100
C  34.16900 55.53600 21.42400
N  36.26800 48.91600 22.49900
C  36.04100 49.71400 21.45400
C  36.32100 48.94500 20.13200
C  36.95600 47.62900 20.66800
C  36.76600 47.73200 22.14100
C  35.02300 48.76900 19.26200
C  38.40300 47.46800 20.18200
C  39.45500 48.52500 20.75100
N  36.87300 47.78300 24.96000
C  37.25200 46.62000 24.32700
C  37.73900 45.65000 25.20900
C  37.42300 46.18900 26.43900
C  36.89400 47.47400 26.29100
C  38.09600 44.22000 24.91000
C  37.36700 45.78000 27.87100
O  37.73000 44.74900 28.43700
C  36.85600 47.10200 28.59200
C  35.57800 46.64500 29.15800
O  34.47800 46.71100 28.62000
O  35.82300 45.90900 30.31100
C  34.64100 45.45900 30.98000
H  34.81100 53.28800 26.77800
H  35.33500 51.51800 20.59200
H  37.47100 45.74700 22.32700
H  34.93100 49.54900 29.42700
H  35.96400 52.35600 28.87400
H  33.41100 51.20500 29.71600
H  33.04300 51.96100 28.22700
H  33.87400 52.93500 29.33400
H  37.27400 51.25900 30.06100
H  37.89500 49.67000 29.57200
H  37.27600 50.25700 32.11200
H  37.09400 48.66600 31.37700
H  33.75200 54.55800 25.55100
H  33.59500 55.50300 24.03500
H  35.13000 55.50000 25.02000
H  34.82100 56.04400 22.13500
H  33.09900 55.52500 21.62900
H  34.16500 55.97200 20.42500
H  36.95700 49.63700 19.57900
H  36.40100 46.79500 20.23700
H  34.18000 49.40500 19.53000
H  34.75400 47.71900 19.15000
H  35.24800 49.04400 18.23200
H  38.50700 47.36800 19.10200
H  38.70100 46.44100 20.39300
H  40.02000 48.02100 21.53500
H  39.04100 49.50300 20.99900
H  40.14400 48.72900 19.93100
H  38.56000 44.16700 23.92500
H  37.17100 43.65200 24.81400
H  38.69500 43.72200 25.67300
H  37.45700 47.47800 29.41900
H  34.09200 44.70500 30.41600
H  33.99400 46.31100 31.19100
H  34.94500 45.13600 31.97600

