158

Mg 46.88500 16.29000 29.25200
C  44.69900 15.77400 31.97600
C  49.01700 17.90800 31.39000
C  48.75200 17.04100 26.63700
C  44.42800 15.07000 27.22400
N  46.73900 16.86700 31.39100
C  45.87200 16.44900 32.33900
C  46.31600 16.73400 33.73800
C  47.53100 17.68900 33.47200
C  47.76200 17.55600 31.95900
C  47.47500 19.12100 34.03700
C  46.55300 15.43500 34.60000
C  46.23700 15.50300 36.15000
H  45.93200 16.82500 36.87200
N  48.67200 17.22000 29.08200
C  49.47200 17.71400 30.05400
C  50.79100 18.03700 29.54400
C  50.80600 17.79600 28.21800
C  49.36400 17.35400 27.88000
C  51.92000 18.64500 30.52800
C  51.89700 17.94900 27.14600
O  51.81300 17.68700 25.97000
C  53.23000 18.21200 27.65500
N  46.53300 16.17100 27.26000
C  47.44900 16.57000 26.37900
C  46.95300 16.50100 24.91400
C  45.61200 15.77800 25.02700
C  45.52500 15.58400 26.59100
C  46.83400 17.75400 24.02800
C  45.29900 14.57300 24.05300
C  45.63600 13.04500 24.52800
N  44.91700 15.48200 29.54700
C  44.05700 15.00200 28.59400
C  42.91600 14.48600 29.22500
C  43.16800 14.73400 30.59800
C  44.30300 15.38400 30.72200
C  41.72800 13.88100 28.57400
C  42.60300 14.53300 31.96300
O  41.60900 14.02800 32.39800
C  43.48000 15.36400 32.84900
C  42.76400 16.49800 33.38700
O  42.81400 17.68900 32.94100
O  42.10900 16.12300 34.50900
C  41.67100 17.21700 35.32700
H  49.74100 18.33300 32.08800
H  49.36800 17.19300 25.74900
H  43.68000 14.66200 26.54100
H  45.59400 17.44500 34.14000
H  48.46600 17.29000 33.86600
H  46.42800 19.42400 34.04600
H  48.05700 19.73000 33.34500
H  47.94600 19.21200 35.01600
H  47.62800 15.26600 34.54300
H  46.02600 14.61300 34.11500
H  46.96400 14.91800 36.71400
H  45.34000 14.88900 36.22900
H  51.64200 18.56800 31.58000
H  52.18100 19.64000 30.16700
H  52.79600 18.01000 30.40300
H  53.94800 18.36900 26.85100
H  53.60300 17.43800 28.32600
H  53.25800 19.09900 28.28800
H  47.51700 15.71600 24.41000
H  44.75000 16.40700 24.80700
H  47.37500 18.57400 24.50100
H  45.79800 18.07900 23.93200
H  47.24400 17.71400 23.01900
H  46.04000 14.72100 23.26800
H  44.25200 14.67500 23.76600
H  44.73900 12.44000 24.40100
H  45.94100 12.79300 25.54400
H  46.45600 12.63000 23.94100
H  41.43800 12.84200 28.73000
H  41.79700 14.08600 27.50500
H  40.86100 14.38900 28.99700
H  43.74200 14.65200 33.63100
H  40.70300 17.54900 34.95200
H  42.42800 17.98900 35.46500
H  41.44400 16.83200 36.32100
Mg 1.03900 43.09500 26.32100
C  3.26300 42.78700 29.01000
C  -1.43900 41.83200 28.43900
C  -0.93800 43.25100 23.72500
C  3.81200 43.71400 24.19000
N  0.97200 42.40000 28.51000
C  1.95100 42.57900 29.41800
C  1.39400 42.50000 30.85400
C  -0.10900 41.97100 30.65800
C  -0.23700 42.10400 29.11400
C  -0.46600 40.42300 31.15700
C  1.41900 43.92400 31.53800
C  1.62800 43.77800 33.14300
H  1.23500 42.50200 33.96100
N  -0.87100 42.66900 26.11900
C  -1.77100 42.12900 27.06100
C  -3.05300 41.94200 26.45600
C  -2.96900 42.47600 25.16200
C  -1.58900 42.78000 24.92900
C  -4.19500 41.20500 27.06700
C  -3.95000 42.60100 24.09700
O  -3.69200 43.22100 23.07100
C  -5.31800 42.05600 24.24000
N  1.41200 43.38600 24.21800
C  0.41300 43.54200 23.39500
C  0.83400 43.79600 21.95500
C  2.38700 44.11400 22.12100
C  2.60500 43.68600 23.58300
C  0.50300 42.59300 20.95300
C  2.76600 45.60200 21.79200
C  1.81200 46.69800 22.15100
N  3.11300 43.25700 26.49900
C  4.08500 43.54300 25.57200
C  5.41500 43.46600 26.14100
C  5.12500 43.19000 27.50500
C  3.73000 43.05700 27.64700
C  6.72900 43.79300 25.52500
C  5.70500 42.98400 28.86500
O  6.88200 42.97500 29.13700
C  4.50500 42.86300 29.92100
C  4.76500 41.67600 30.78300
O  4.80200 40.47400 30.46500
O  4.93300 42.24400 32.07200
C  5.09400 41.31100 33.19200
H  -2.28700 41.67400 29.10900
H  -1.50900 43.23400 22.79400
H  4.69500 44.05800 23.64800
H  2.01200 41.79000 31.40400
H  -0.94600 42.49900 31.11400
H  -1.30300 40.54800 31.84400
H  0.39000 39.94100 31.63000
H  -0.73300 39.86800 30.25800
H  0.54100 44.53900 31.34000
H  2.28700 44.42500 31.10800
H  0.98100 44.57500 33.51100
H  2.68600 43.97700 33.31200
H  -5.01700 41.92000 27.05700
H  -4.07900 40.91500 28.11100
H  -4.36100 40.27700 26.52100
H  -5.83800 42.38900 25.13800
H  -5.30100 40.97400 24.10500
H  -6.05200 42.44200 23.53300
H  0.22200 44.66200 21.70400
H  2.96800 43.40900 21.52600
H  0.00100 41.72600 21.38200
H  1.33600 42.35300 20.29300
H  -0.24800 43.05400 20.31000
H  2.87400 45.64500 20.70800
H  3.75000 45.85900 22.18600
H  0.80800 46.39700 22.44900
H  1.65500 47.35800 21.29800
H  2.24200 47.22400 23.00300
H  7.59500 43.47400 26.10500
H  6.92000 44.85300 25.36000
H  6.78700 43.25800 24.57700
H  4.53900 43.79400 30.48900
H  4.94500 41.90000 34.09700
H  6.08100 40.86100 33.29600
H  4.35100 40.51700 33.25800

