158

Mg 24.91000 -5.83700 46.73800
C  27.08500 -3.61200 45.13400
C  22.37000 -4.51600 44.79700
C  23.05000 -8.48600 47.51200
C  27.65900 -7.27000 48.30800
N  24.74700 -4.22200 45.42200
C  25.74300 -3.49700 44.88900
C  25.23000 -2.42300 43.84000
C  23.63900 -2.50100 44.05900
C  23.57400 -3.80000 44.83000
C  23.02600 -1.35000 44.81300
C  25.74200 -2.59200 42.31800
C  26.41000 -1.40500 41.69800
H  25.99900 -0.92800 40.29800
N  22.87800 -6.39900 46.25400
C  22.05200 -5.69500 45.45100
C  20.78600 -6.39700 45.42300
C  20.90100 -7.64700 46.20800
C  22.31200 -7.56400 46.65400
C  19.59700 -5.97900 44.60000
C  19.80600 -8.64700 46.49300
O  18.67700 -8.48500 46.02600
C  20.06600 -9.84500 47.27300
N  25.30600 -7.72500 47.70100
C  24.32200 -8.58500 47.99700
C  24.88100 -9.74400 48.82300
C  26.27600 -9.31900 49.31100
C  26.46300 -8.05800 48.37400
C  23.85200 -10.11200 50.01600
C  27.36500 -10.38700 49.14000
C  27.87300 -10.66400 47.74000
N  27.04800 -5.51200 46.78900
C  28.02100 -6.18100 47.51900
C  29.33600 -5.54100 47.23000
C  29.01800 -4.48400 46.35000
C  27.63800 -4.60100 46.03900
C  30.63400 -6.06600 47.74400
C  29.52600 -3.42600 45.52500
O  30.68600 -3.04300 45.27000
C  28.29000 -2.75700 44.71700
C  28.24700 -1.29500 45.09600
O  27.88300 -0.84200 46.17900
O  28.71000 -0.58000 44.03700
C  28.93800 0.87700 44.25900
H  21.60300 -4.16400 44.10400
H  22.39400 -9.32100 47.76500
H  28.47000 -7.73400 48.87400
H  25.63700 -1.48400 44.21300
H  23.05200 -2.66300 43.15500
H  23.66200 -0.85000 45.54400
H  22.13900 -1.76200 45.29300
H  22.76400 -0.63600 44.03200
H  24.91500 -2.80200 41.64000
H  26.34200 -3.48600 42.14800
H  27.49100 -1.54400 41.66800
H  26.28000 -0.54800 42.35900
H  19.39300 -6.79000 43.90100
H  19.78400 -5.07600 44.01800
H  18.70000 -5.87800 45.21100
H  19.15200 -10.43700 47.32000
H  20.28500 -9.38400 48.23600
H  20.91100 -10.47200 46.98800
H  24.94300 -10.55700 48.10000
H  26.29200 -8.94700 50.33500
H  23.14600 -9.29600 50.16800
H  24.40100 -10.23600 50.94900
H  23.20900 -10.96400 49.79400
H  26.95400 -11.33300 49.49300
H  28.16500 -10.11800 49.82900
H  28.74300 -10.02000 47.60700
H  27.14400 -10.37100 46.98500
H  28.08500 -11.73000 47.66300
H  30.87300 -6.99700 47.22900
H  30.54700 -6.25400 48.81400
H  31.41500 -5.34400 47.50700
H  28.46800 -2.76800 43.64100
H  29.00300 1.04200 45.33500
H  28.02200 1.27700 43.82400
H  29.80900 1.26600 43.73200
Mg 34.95100 3.21700 30.39600
C  32.70500 4.38800 32.75200
C  37.36600 2.97600 32.72100
C  36.97000 2.02700 27.98400
C  32.40200 3.62900 27.92400
N  34.89700 3.49700 32.51900
C  33.91300 3.98900 33.31700
C  34.28200 3.87400 34.80800
C  35.87100 3.76300 34.76800
C  36.06200 3.39000 33.21300
C  36.63500 5.06100 35.11600
C  33.57300 2.69200 35.51700
C  33.74100 2.59900 37.00300
H  34.57800 3.52400 37.82700
N  36.91100 2.71100 30.37100
C  37.74600 2.59800 31.46500
C  39.09400 2.13000 31.01600
C  38.92700 1.86400 29.62500
C  37.56400 2.24400 29.23200
C  40.26500 2.05800 31.97600
C  40.02200 1.32100 28.65000
O  39.88500 1.27900 27.41200
C  41.26800 0.76200 29.14300
N  34.66700 2.72900 28.24500
C  35.65700 2.20400 27.49600
C  35.19500 1.87800 26.07800
C  33.73400 2.51500 26.06200
C  33.55600 3.05300 27.50100
C  35.99900 2.32900 24.93600
C  32.61200 1.56800 25.52600
C  32.10400 1.77200 24.08000
N  32.90700 3.82000 30.32800
C  32.03400 4.02300 29.24100
C  30.77200 4.46000 29.77300
C  30.96400 4.67800 31.14100
C  32.30800 4.29600 31.44100
C  29.60300 4.78000 28.95900
C  30.34800 5.16700 32.36900
O  29.22000 5.48300 32.64400
C  31.48800 4.82800 33.45900
C  31.74500 6.03400 34.26700
O  32.00900 7.14300 33.88400
O  31.45700 5.75900 35.57400
C  31.51700 6.90100 36.59300
H  38.16800 2.84700 33.45100
H  37.57500 1.49100 27.25000
H  31.62100 3.81600 27.18500
H  33.89700 4.76200 35.30900
H  36.24300 2.94000 35.37900
H  35.98200 5.93200 35.06400
H  37.37400 5.19300 34.32600
H  37.22600 4.89700 36.01700
H  34.11600 1.80300 35.19500
H  32.54300 2.59100 35.17500
H  33.96600 1.57400 37.29600
H  32.73700 2.84100 37.35300
H  41.15300 2.49600 31.52100
H  40.58700 1.07000 32.30700
H  40.16500 2.73100 32.82800
H  40.98000 0.01000 29.87800
H  41.91900 1.51100 29.59400
H  41.76300 0.11300 28.42000
H  35.18500 0.79400 26.20000
H  33.74100 3.39600 25.42000
H  36.65200 3.18500 25.10400
H  35.35000 2.53400 24.08400
H  36.68600 1.49400 24.80100
H  31.76300 1.38600 26.18500
H  33.05600 0.57300 25.49400
H  32.45600 0.83400 23.65100
H  32.62900 2.64900 23.70300
H  31.03900 1.92600 23.90500
H  29.02000 3.88800 28.73100
H  29.99700 5.12000 28.00200
H  29.05000 5.67000 29.26200
H  31.21400 4.02600 34.14400
H  30.93300 6.63600 37.47500
H  31.17900 7.84400 36.16500
H  32.52900 7.06000 36.96600

