158

Mg 1.72700 8.12100 25.33000
C  2.13900 10.11300 28.20800
C  1.80600 5.30900 27.42000
C  1.68200 6.22500 22.67800
C  1.87400 11.01200 23.35300
N  2.04000 7.76400 27.64700
C  2.13000 8.73800 28.57800
C  2.12500 8.04100 29.97800
C  2.32400 6.51700 29.68600
C  2.00100 6.50000 28.16300
C  3.76600 5.89600 30.00100
C  0.85600 8.31700 30.86500
C  1.21400 8.73500 32.29300
H  2.41400 7.96300 32.91100
N  1.65200 6.06300 25.08600
C  1.58900 5.08500 26.07100
C  1.27500 3.78700 25.49300
C  1.24800 4.03900 24.05600
C  1.61300 5.42500 23.90100
C  1.23900 2.57900 26.40500
C  0.88000 3.03800 23.02200
O  1.01600 3.26700 21.83400
C  0.40900 1.71300 23.39300
N  1.80600 8.58900 23.29100
C  1.75500 7.57600 22.45700
C  1.82000 8.04100 20.95300
C  1.59600 9.60700 21.13000
C  1.83100 9.77900 22.67000
C  3.17700 7.69600 20.26400
C  0.26000 10.17100 20.73400
C  0.41700 11.53300 20.02600
N  2.02100 10.21500 25.59300
C  1.96700 11.31500 24.70300
C  2.12100 12.52800 25.49900
C  2.23300 12.09000 26.81600
C  2.08100 10.67900 26.82900
C  2.36000 13.92800 24.94200
C  2.39700 12.57000 28.12200
O  2.68700 13.67300 28.55700
C  2.20600 11.34500 29.05700
C  3.29600 11.39700 30.10600
O  4.49500 11.29800 29.90800
O  2.66700 11.60900 31.33300
C  3.49600 11.87100 32.50800
H  1.92100 4.45000 28.08400
H  1.44000 5.63000 21.79600
H  1.97800 11.89000 22.71300
H  2.99300 8.35600 30.55700
H  1.60500 5.95900 30.28500
H  4.36600 6.68400 30.45700
H  4.25400 5.46000 29.12900
H  3.54800 4.98600 30.56000
H  0.30300 7.37800 30.85800
H  0.19100 9.06800 30.43800
H  0.37400 8.40600 32.90400
H  1.26800 9.81500 32.42500
H  2.22600 2.11500 26.40900
H  0.39900 1.92000 26.18400
H  1.18600 2.75800 27.47900
H  -0.39700 1.85900 24.11100
H  1.33900 1.21100 23.66200
H  -0.01000 1.09800 22.59600
H  0.92900 7.56400 20.54500
H  2.47700 10.14300 20.77600
H  3.85300 7.24000 20.98800
H  3.70300 8.60000 19.95500
H  3.08000 7.02000 19.41400
H  -0.45400 10.18400 21.55800
H  -0.16800 9.49100 19.99700
H  1.39000 12.02300 20.07900
H  -0.29300 12.14200 20.58500
H  0.17300 11.41200 18.97100
H  2.26500 14.02500 23.86000
H  3.34600 14.27400 25.24900
H  1.71500 14.72400 25.31300
H  1.25800 11.40500 29.59200
H  2.92400 11.71000 33.42200
H  3.72100 12.92700 32.66300
H  4.39900 11.27200 32.40000
Mg 53.79900 24.69400 44.65300
C  50.89100 26.42300 43.82800
C  52.62100 21.86500 43.13000
C  56.87300 23.24900 44.88300
C  55.15100 27.79400 45.67600
N  52.09600 24.25800 43.38800
C  50.97900 25.14600 43.28100
C  49.87500 24.51700 42.34700
C  50.21400 23.01400 42.49300
C  51.72700 22.96600 43.02900
C  49.24700 22.20100 43.44600
C  49.98200 25.03400 40.91400
C  48.57400 25.36000 40.20600
H  48.17900 24.46700 39.02300
N  54.69200 22.81300 44.12600
C  53.99500 21.75300 43.64900
C  54.78500 20.55900 43.60800
C  56.00300 20.86600 44.12300
C  55.93400 22.37300 44.37900
C  54.26100 19.17200 43.16900
C  57.25900 19.94500 44.35900
O  57.18300 18.71100 44.11100
C  58.66900 20.45800 44.77500
N  55.70900 25.42100 44.96400
C  56.82000 24.58800 45.07900
C  58.10400 25.37200 45.48100
C  57.58000 26.89200 45.63800
C  56.03800 26.73500 45.44800
C  58.93600 24.94100 46.70600
C  58.12200 27.83200 44.53600
C  59.13700 28.85400 44.95900
N  53.15600 26.77800 44.82100
C  53.77300 27.85000 45.37700
C  52.84800 28.95700 45.43200
C  51.61700 28.42200 44.90700
C  51.88200 27.14500 44.48900
C  53.17300 30.22100 46.03800
C  50.29100 28.73700 44.59400
O  49.65000 29.80000 44.70500
C  49.73600 27.46200 43.88100
C  49.29400 27.98100 42.59700
O  50.03200 28.36200 41.65300
O  47.89500 28.09600 42.57000
C  47.30800 28.68900 41.39000
H  52.13700 20.95000 42.78200
H  57.89400 22.86800 44.95900
H  55.68600 28.70300 45.96000
H  48.88100 24.71800 42.74800
H  50.20600 22.50700 41.52800
H  48.64100 21.55700 42.81000
H  48.63300 22.96600 43.92300
H  49.70000 21.50800 44.15500
H  50.50200 24.24000 40.37700
H  50.57300 25.94000 40.78000
H  48.85000 26.27600 39.68400
H  47.77400 25.47300 40.93800
H  54.74800 18.98000 42.21400
H  53.17200 19.21800 43.14200
H  54.56700 18.47300 43.94700
H  59.19600 21.05000 44.02700
H  59.26300 19.54700 44.85500
H  58.60100 20.94700 45.74700
H  58.85400 25.24500 44.70000
H  57.72600 27.29300 46.64100
H  59.80100 24.30000 46.53700
H  58.30500 24.32000 47.34100
H  59.35900 25.78800 47.24600
H  57.28000 28.48500 44.30500
H  58.43400 27.33700 43.61700
H  59.25800 29.55200 44.13100
H  60.12300 28.39400 45.01600
H  58.94400 29.32200 45.92400
H  54.06100 30.06400 46.65000
H  52.31000 30.56100 46.61000
H  53.33300 31.03000 45.32500
H  48.88900 27.13100 44.48100
H  47.06000 27.88800 40.69300
H  47.85000 29.55400 41.00900
H  46.38800 29.17600 41.71500

