158

Mg 7.69200 3.24200 27.40500
C  8.86600 1.93800 30.42200
C  5.40600 5.10900 28.89900
C  6.65200 4.03000 24.40600
C  9.63200 0.46100 25.77400
N  7.14800 3.37300 29.41400
C  7.84500 2.89000 30.47300
C  7.21200 3.47200 31.78700
C  5.94400 4.24000 31.27800
C  6.19900 4.31100 29.75300
C  4.66000 3.63200 31.79200
C  8.21000 4.29500 32.59200
C  7.98400 4.11000 34.18500
H  9.28700 3.72200 34.94900
N  6.39000 4.71000 26.74900
C  5.45300 5.30500 27.51200
C  4.73200 6.18900 26.75300
C  5.01800 5.88700 25.39300
C  6.11200 4.86500 25.46800
C  3.78800 7.30000 27.35600
C  4.46200 6.57800 24.13400
O  4.86700 6.27300 23.02000
C  3.33400 7.57300 24.23500
N  8.05800 2.22700 25.30600
C  7.43400 2.86800 24.28700
C  7.72500 2.15900 22.93200
C  8.72800 1.04700 23.34100
C  8.78100 1.19300 24.89500
C  6.47500 1.61100 22.17100
C  10.14700 1.22600 22.65400
C  10.42400 0.25400 21.47300
N  8.96200 1.51100 27.95500
C  9.70800 0.62200 27.21900
C  10.60000 -0.10600 28.18300
C  10.33600 0.44200 29.43100
C  9.35800 1.39300 29.20900
C  11.63100 -1.04600 27.74700
C  10.73200 0.37900 30.77500
O  11.54900 -0.29200 31.38600
C  9.72900 1.38400 31.50700
C  8.88800 0.52300 32.40100
O  7.75200 0.05700 32.19800
O  9.52500 0.42500 33.64500
C  8.72900 -0.30500 34.56600
H  4.62100 5.67800 29.40200
H  6.18400 4.38100 23.48400
H  10.24500 -0.36600 25.40800
H  6.92100 2.60000 32.37200
H  5.95500 5.24500 31.69900
H  4.83300 2.79300 32.46700
H  3.99000 3.40100 30.96400
H  4.21100 4.38700 32.43700
H  8.03400 5.35500 32.40900
H  9.22200 4.08800 32.24700
H  7.30400 3.29900 34.44600
H  7.65900 5.07900 34.56500
H  4.06600 7.30700 28.41000
H  2.80400 6.87900 27.14900
H  3.94500 8.26400 26.87200
H  2.75000 7.73300 23.32900
H  3.78400 8.51900 24.53400
H  2.62200 7.22900 24.98500
H  8.27500 2.83400 22.27700
H  8.31900 0.04200 23.24500
H  5.57100 1.95200 22.67500
H  6.60900 0.53200 22.09500
H  6.36800 2.06700 21.18700
H  10.90600 1.02000 23.40900
H  10.40500 2.23800 22.34000
H  9.47800 -0.14300 21.10600
H  11.01700 -0.57100 21.86800
H  10.96700 0.77200 20.68300
H  11.24000 -2.06300 27.76500
H  12.56100 -1.07400 28.31400
H  11.76000 -0.85200 26.68200
H  10.31700 2.10800 32.07200
H  8.28200 -1.24900 34.25600
H  8.05100 0.37500 35.08100
H  9.41300 -0.78100 35.26900
Mg 24.48000 -4.85900 46.10100
C  26.77400 -2.82400 44.31100
C  22.03100 -3.75000 43.84500
C  22.51300 -7.55400 46.93100
C  27.21500 -6.32800 47.68800
N  24.36000 -3.33000 44.50700
C  25.44300 -2.64600 43.94000
C  24.93600 -1.74400 42.80800
C  23.38400 -1.69900 43.16700
C  23.23900 -3.01900 43.85400
C  23.02700 -0.50600 44.04600
C  25.37300 -2.24900 41.43800
C  26.31900 -1.30100 40.69500
H  26.03500 -0.82000 39.19900
N  22.53700 -5.51300 45.51400
C  21.66800 -4.87300 44.59100
C  20.43900 -5.65400 44.47400
C  20.55700 -6.73800 45.48000
C  21.93300 -6.65000 46.07800
C  19.27600 -5.18400 43.63600
C  19.47200 -7.83100 45.72900
O  18.33900 -7.81500 45.12900
C  19.71400 -9.17000 46.58900
N  24.87500 -6.81500 46.93300
C  23.86300 -7.68800 47.30700
C  24.38600 -8.87800 48.18200
C  25.87400 -8.36500 48.43800
C  26.04600 -7.10300 47.56800
C  23.53800 -9.24400 49.41200
C  26.98800 -9.39200 47.82000
C  27.38100 -10.61300 48.70600
N  26.61500 -4.51000 46.21700
C  27.57900 -5.16200 46.94100
C  28.88400 -4.57300 46.64700
C  28.64500 -3.64100 45.62800
C  27.24000 -3.67200 45.35800
C  30.14800 -5.19500 47.24800
C  29.21500 -2.67000 44.72800
O  30.31900 -2.22100 44.56000
C  27.99900 -2.06500 43.87500
C  27.87300 -0.65800 44.17300
O  27.71600 -0.18200 45.30400
O  27.99900 0.08100 43.07800
C  27.67500 1.55400 43.23800
H  21.26200 -3.34400 43.18400
H  21.80100 -8.25800 47.36600
H  27.98900 -6.77600 48.31600
H  25.31100 -0.76600 43.10700
H  22.65700 -1.64700 42.35700
H  22.30600 -0.69800 44.84100
H  22.72600 0.34200 43.43000
H  23.96300 -0.27500 44.55400
H  24.40200 -2.25000 40.94200
H  25.78600 -3.24300 41.60800
H  27.34500 -1.67000 40.67700
H  26.43900 -0.35600 41.22500
H  18.37700 -5.65800 44.02800
H  19.39300 -5.36700 42.56800
H  19.11500 -4.10600 43.67400
H  20.66500 -9.64000 46.33900
H  18.83500 -9.74400 46.29300
H  19.59600 -8.93400 47.64600
H  24.28200 -9.66200 47.43200
H  26.15000 -8.13200 49.46700
H  23.18900 -10.27200 49.31300
H  22.65400 -8.60600 49.43000
H  24.00000 -9.16600 50.39600
H  27.87200 -8.88900 47.42900
H  26.54500 -9.79000 46.90700
H  26.62600 -11.35000 48.43300
H  27.53600 -10.37700 49.75900
H  28.31900 -11.04700 48.36000
H  31.00100 -4.65500 46.83700
H  30.12300 -6.26000 47.01400
H  30.21400 -5.10800 48.33200
H  28.29600 -2.19600 42.83500
H  27.57300 2.04300 42.26900
H  28.44000 2.08500 43.80300
H  26.76500 1.68300 43.82400

