158

Mg 41.29600 7.16200 29.48600
C  42.54100 8.70000 32.47100
C  38.65100 6.05200 31.30600
C  40.08100 5.78100 26.65000
C  44.09100 8.37300 27.86400
N  40.77300 7.17600 31.73900
C  41.39000 7.92100 32.74300
C  40.49700 7.92600 34.03200
C  39.32200 7.01100 33.66200
C  39.52000 6.80400 32.10900
C  39.39500 5.57600 34.34000
C  39.99300 9.38400 34.42700
C  40.06300 9.63700 35.95400
H  40.70500 10.93600 36.57300
N  39.58700 6.11300 29.02800
C  38.60000 5.76300 29.95600
C  37.47700 5.16600 29.33200
C  37.79600 5.21800 27.87900
C  39.24600 5.67300 27.78900
C  36.21100 4.66000 30.04600
C  36.99500 4.81400 26.72200
O  37.53400 4.72200 25.60500
C  35.47500 4.47200 26.83900
N  41.96900 7.08400 27.57600
C  41.30800 6.44600 26.54100
C  42.11300 6.58300 25.28800
C  43.38200 7.33600 25.68700
C  43.18100 7.63700 27.16600
C  42.34600 5.35300 24.42400
C  43.80300 8.44700 24.75800
C  42.79500 9.56100 24.49300
N  43.06900 8.27400 30.04300
C  44.09600 8.60200 29.25400
C  45.04600 9.36100 30.08000
C  44.42700 9.49300 31.34700
C  43.23600 8.74500 31.23900
C  46.30400 9.93600 29.64300
C  44.57200 10.00600 32.66100
O  45.55900 10.64500 33.08500
C  43.47100 9.42100 33.47500
C  44.09700 8.61200 34.47900
O  44.43300 7.43500 34.32100
O  44.30600 9.35600 35.66500
C  44.90800 8.66600 36.78700
H  37.86000 5.62400 31.92500
H  39.80400 5.35200 25.68500
H  44.97200 8.76200 27.35000
H  41.12200 7.64800 34.88000
H  38.37300 7.49100 33.89900
H  39.40500 4.81200 33.56300
H  38.57400 5.42800 35.04200
H  40.29700 5.36900 34.91400
H  38.94600 9.54200 34.16700
H  40.65000 10.01100 33.82500
H  40.40300 8.73400 36.46100
H  39.00800 9.78800 36.18000
H  36.34000 4.59800 31.12700
H  36.12400 3.64300 29.66500
H  35.41200 5.33200 29.73300
H  34.95800 5.23200 27.42300
H  35.49300 3.53200 27.39000
H  35.15000 4.33400 25.80700
H  41.49200 7.31500 24.77200
H  44.19900 6.62800 25.54800
H  43.20100 5.54400 23.77600
H  41.53800 5.31200 23.69300
H  42.22900 4.48300 25.07000
H  44.06000 7.94800 23.82400
H  44.80600 8.83100 24.94700
H  41.95400 9.59300 25.18600
H  42.32700 9.52300 23.51000
H  43.10900 10.60300 24.55600
H  46.39100 11.00500 29.83300
H  46.38600 9.69500 28.58300
H  47.08800 9.43400 30.21100
H  43.11900 10.35900 33.90400
H  45.21800 9.52400 37.38200
H  45.64800 7.91300 36.51700
H  44.20600 8.12300 37.42100
Mg 52.69900 23.93000 44.79900
C  49.81800 25.69600 44.07800
C  51.35300 21.18800 43.36700
C  55.80000 22.69700 44.70400
C  54.16800 27.02700 46.04600
N  50.74400 23.48900 43.94400
C  49.73500 24.37900 43.67800
C  48.67600 23.65800 42.74700
C  49.08600 22.14500 42.99600
C  50.45100 22.25700 43.51800
C  48.19900 21.36000 43.99800
C  48.97500 24.02100 41.30300
C  47.90300 24.57200 40.39700
H  47.98800 24.04100 38.96900
N  53.42900 22.18600 44.19700
C  52.76500 21.15200 43.68100
C  53.61900 20.02900 43.48200
C  54.86300 20.35700 44.03400
C  54.76900 21.83200 44.37400
C  53.18700 18.71500 42.98100
C  56.03600 19.46700 44.02900
O  56.12500 18.33000 43.41700
C  57.22100 19.83100 44.92600
N  54.75200 24.89800 45.12800
C  55.79900 24.05400 45.11000
C  57.08400 24.76600 45.68800
C  56.50800 26.20900 46.07900
C  55.07800 26.10800 45.65100
C  57.81800 23.93500 46.80900
C  57.29200 27.38500 45.44900
C  57.67900 28.59000 46.34300
N  52.10300 25.98500 45.09800
C  52.81700 27.11000 45.63500
C  51.85700 28.23000 45.73800
C  50.64900 27.67500 45.17100
C  50.88400 26.39100 44.74200
C  52.03600 29.54200 46.40100
C  49.24200 28.03100 44.87600
O  48.50500 29.00500 45.19900
C  48.65600 26.77800 44.16800
C  48.27400 27.37500 42.85600
O  48.99400 27.42200 41.86100
O  46.96700 27.53600 42.75000
C  46.43300 28.13100 41.54800
H  51.02600 20.31900 42.79300
H  56.82700 22.33400 44.63300
H  54.42900 27.91000 46.63300
H  47.65400 23.87400 43.05800
H  49.31000 21.51800 42.13300
H  47.24400 21.85400 44.17200
H  48.68900 21.27700 44.96900
H  48.08800 20.34900 43.60600
H  49.36400 23.13800 40.79600
H  49.78500 24.74200 41.19900
H  48.08600 25.64100 40.29300
H  46.93000 24.32400 40.82200
H  53.67600 18.68200 42.00700
H  52.13300 18.47200 42.85000
H  53.59000 17.93300 43.62400
H  57.96200 20.48700 44.46800
H  57.56800 18.84800 45.24300
H  56.89900 20.36300 45.82100
H  57.85800 24.88200 44.92900
H  56.41000 26.25900 47.16400
H  58.18100 24.60400 47.59000
H  58.71900 23.51000 46.36800
H  57.17100 23.25600 47.36400
H  56.54700 27.84300 44.79800
H  58.07700 27.00600 44.79500
H  58.74400 28.72300 46.53200
H  57.24500 28.56500 47.34300
H  57.24800 29.43500 45.80700
H  52.56600 29.40400 47.34300
H  51.04200 29.97400 46.52300
H  52.56800 30.29200 45.81500
H  47.82300 26.35500 44.73100
H  45.46500 28.55600 41.81300
H  46.34900 27.38200 40.76100
H  47.07100 28.95300 41.22400

