158

Mg 40.48300 8.35400 29.65300
C  42.33400 9.62300 32.55000
C  38.22200 7.08900 31.83300
C  39.30700 6.45500 27.15000
C  43.28900 9.02800 27.67800
N  40.26900 8.46900 31.98300
C  41.07600 9.13300 32.96400
C  40.48200 9.10200 34.32500
C  39.19300 8.15300 34.06100
C  39.23900 7.75400 32.60800
C  39.02800 7.02300 35.08100
C  40.09900 10.44300 34.97800
C  39.22400 10.40600 36.22800
H  39.59600 11.32900 37.32600
N  38.90900 7.14500 29.52000
C  38.10300 6.77000 30.46700
C  36.99600 6.02500 29.90700
C  37.20400 5.97200 28.56200
C  38.51400 6.55500 28.31100
C  35.80900 5.48400 30.78900
C  36.30900 5.37200 27.49000
O  36.54500 5.40200 26.32300
C  35.02800 4.81300 27.78100
N  41.24100 7.64400 27.77300
C  40.56200 6.88600 26.86900
C  41.20400 6.89300 25.46100
C  42.23800 8.06200 25.52300
C  42.26800 8.26200 27.11500
C  41.93600 5.54200 25.03700
C  41.93200 9.31100 24.67600
C  40.71200 10.07900 25.12100
N  42.41500 9.16900 29.94400
C  43.41700 9.36900 29.05200
C  44.50500 10.10700 29.74600
C  44.09000 10.21400 31.06800
C  42.82600 9.57900 31.19800
C  45.85300 10.51000 29.12700
C  44.48900 10.73300 32.37100
O  45.52800 11.35200 32.62000
C  43.37700 10.38100 33.40000
C  43.96700 9.63300 34.51300
O  44.35700 8.47400 34.44800
O  43.99300 10.37300 35.62000
C  44.54600 9.81600 36.90300
H  37.43900 6.62900 32.44100
H  38.77500 5.83100 26.42800
H  44.11000 9.42200 27.07600
H  41.12800 8.50500 34.96800
H  38.24400 8.67500 34.18600
H  39.14400 6.00200 34.71700
H  38.07400 7.04500 35.60800
H  39.77300 7.15800 35.86500
H  39.53900 10.94400 34.18800
H  40.94600 11.06600 35.26600
H  39.28900 9.44000 36.72800
H  38.20500 10.56300 35.87600
H  34.88400 5.71400 30.26100
H  35.71100 5.96000 31.76500
H  36.00000 4.41800 30.90900
H  35.03900 4.13100 28.63100
H  34.74500 4.21500 26.91500
H  34.21100 5.53100 27.86100
H  40.40400 7.09600 24.74900
H  43.28200 7.86700 25.27900
H  41.56000 4.82900 25.77100
H  43.02000 5.62500 25.10300
H  41.78000 5.19100 24.01700
H  41.69000 9.01000 23.65700
H  42.85700 9.88800 24.65300
H  40.40300 9.79300 26.12600
H  39.89200 9.97300 24.41100
H  40.83400 11.15900 25.20000
H  46.39300 10.72700 30.04900
H  45.60000 11.35700 28.48900
H  46.27400 9.67600 28.56600
H  43.03200 11.34900 33.76300
H  45.41200 10.37700 37.25600
H  44.93600 8.82900 36.65000
H  43.88200 9.83400 37.76800
Mg -4.89400 25.66400 25.42300
C  -3.39800 27.23600 28.38500
C  -6.29800 23.31000 27.64800
C  -5.95800 23.89200 22.88900
C  -2.90300 27.61400 23.55500
N  -4.93700 25.43000 27.76100
C  -4.35400 26.18200 28.75900
C  -4.74400 25.59200 30.19900
C  -5.74700 24.47200 29.83700
C  -5.56200 24.32900 28.30500
C  -5.36500 23.08600 30.45000
C  -5.23600 26.70100 31.16800
C  -6.31400 26.31000 32.24500
H  -5.95400 25.11000 33.12900
N  -6.15700 23.99400 25.31000
C  -6.56900 23.16300 26.26800
C  -7.45400 22.13500 25.77000
C  -7.40500 22.31100 24.41900
C  -6.49700 23.41900 24.09600
C  -8.16300 21.08500 26.66900
C  -8.15500 21.52700 23.27700
O  -7.99700 21.76000 22.06400
C  -9.12200 20.35900 23.66000
N  -4.46900 25.67800 23.54300
C  -5.05600 24.93100 22.55300
C  -4.80200 25.42400 21.16800
C  -3.92900 26.68700 21.39800
C  -3.70400 26.62400 22.96900
C  -4.20100 24.42900 20.20600
C  -4.58000 28.09800 21.06900
C  -3.77700 29.09900 20.25900
N  -3.36100 27.12400 25.84800
C  -2.63900 27.84100 24.93400
C  -1.86400 28.83700 25.60200
C  -2.10200 28.60800 26.99600
C  -3.05400 27.57100 27.10000
C  -0.90800 29.78600 24.89700
C  -1.73400 29.08800 28.25800
O  -0.94400 29.96900 28.68900
C  -2.59100 28.18300 29.26300
C  -1.66500 27.55500 30.19400
O  -0.85700 26.75200 29.88600
O  -1.92500 27.97700 31.55400
C  -1.16100 27.29400 32.61300
H  -6.73200 22.64100 28.39400
H  -6.28000 23.29400 22.03300
H  -2.31700 28.17400 22.82200
H  -3.82100 25.19700 30.62300
H  -6.80300 24.62000 30.06100
H  -5.17500 22.35700 29.66200
H  -6.21000 22.79200 31.07200
H  -4.55600 23.06300 31.17900
H  -5.65400 27.57700 30.67300
H  -4.38400 27.12500 31.69900
H  -7.29100 26.28500 31.76100
H  -6.40400 27.16800 32.91100
H  -8.37100 20.21500 26.04700
H  -9.06900 21.61700 26.96300
H  -7.48000 20.86100 27.48800
H  -9.93300 20.68600 24.31000
H  -8.45500 19.59600 24.06100
H  -9.63800 20.04500 22.75200
H  -5.77300 25.67100 20.73900
H  -2.95800 26.74100 20.90500
H  -3.88500 23.44300 20.54700
H  -3.29600 24.82000 19.74000
H  -4.88800 24.14300 19.41000
H  -4.74700 28.80700 21.87900
H  -5.50900 27.94800 20.51900
H  -2.74000 28.79100 20.39400
H  -3.81500 30.08900 20.71600
H  -4.10400 29.12000 19.22000
H  -1.43200 30.27900 24.07800
H  0.06100 29.34900 24.65600
H  -0.71800 30.55400 25.64700
H  -3.30400 28.86300 29.72800
H  -0.24700 26.78900 32.30200
H  -1.84700 26.56100 33.03700
H  -0.82200 27.97100 33.39700

