158

Mg 24.89600 -5.18000 45.83500
C  27.13900 -2.93200 44.27500
C  22.44000 -4.05800 43.63700
C  22.94700 -7.82800 46.68900
C  27.62300 -6.64700 47.47200
N  24.79200 -3.82900 43.98500
C  25.80000 -2.87600 43.76400
C  25.24100 -1.86500 42.69400
C  23.66300 -1.91000 42.96600
C  23.61000 -3.32100 43.59800
C  23.08300 -0.76400 43.82600
C  25.67100 -2.18400 41.15500
C  26.15800 -0.92300 40.40300
H  26.11400 -1.08500 38.88700
N  22.97900 -5.85200 45.27900
C  22.13800 -5.27700 44.33600
C  20.95300 -6.06900 44.18900
C  21.01100 -7.12600 45.12300
C  22.39500 -6.93600 45.77700
C  19.88500 -5.69500 43.17900
C  19.91900 -8.12800 45.34300
O  18.84200 -8.10500 44.71200
C  19.92300 -9.13900 46.48700
N  25.20600 -6.93900 46.91600
C  24.22800 -7.84100 47.25200
C  24.78700 -9.02400 48.14900
C  26.15300 -8.46100 48.48600
C  26.35500 -7.27200 47.56000
C  23.88100 -9.49000 49.30800
C  27.23300 -9.55400 48.26000
C  28.52800 -9.46800 49.07800
N  26.94900 -4.81800 45.97600
C  27.96000 -5.58700 46.59100
C  29.23300 -4.96300 46.28200
C  28.95000 -3.95200 45.31800
C  27.54000 -3.91300 45.16300
C  30.55700 -5.41100 46.74300
C  29.59200 -2.88500 44.58900
O  30.78500 -2.51800 44.55400
C  28.34400 -2.13100 43.81400
C  28.34800 -0.70700 44.28000
O  27.65700 -0.21000 45.18800
O  29.37200 -0.07800 43.66000
C  29.92900 1.02900 44.39300
H  21.73200 -3.54700 42.98100
H  22.31300 -8.67900 46.94800
H  28.38500 -6.89900 48.21200
H  25.64400 -0.88100 42.93400
H  23.04800 -1.89500 42.06600
H  22.67400 -1.11700 44.77300
H  22.23400 -0.35400 43.27900
H  23.87700 -0.04200 44.01400
H  24.77300 -2.53600 40.64600
H  26.38100 -3.00900 41.21800
H  27.12900 -0.57000 40.75200
H  25.41000 -0.23100 40.79000
H  20.27700 -4.95500 42.48200
H  19.15800 -5.07900 43.70900
H  19.60200 -6.65300 42.74300
H  20.69200 -9.85400 46.19700
H  18.98400 -9.66300 46.66100
H  20.12000 -8.51700 47.36100
H  25.00000 -9.86100 47.48400
H  26.28000 -8.08500 49.50100
H  23.56900 -10.53300 49.24300
H  23.01500 -8.83300 49.39100
H  24.50900 -9.37100 50.19100
H  27.47900 -9.60400 47.20000
H  26.88300 -10.51200 48.64600
H  28.72600 -10.29000 49.76500
H  28.45200 -8.66000 49.80600
H  29.42900 -9.33100 48.48000
H  30.69700 -4.92000 47.70600
H  31.43700 -5.11600 46.17100
H  30.60500 -6.49900 46.71700
H  28.44800 -2.05700 42.73200
H  30.41000 1.61100 43.60700
H  30.74000 0.52400 44.91700
H  29.19800 1.64100 44.92200
Mg 50.11800 46.11100 42.85700
C  46.96300 46.53100 41.18300
C  50.42500 43.09500 41.25900
C  53.27300 46.09600 43.88800
C  49.71300 49.39200 43.88200
N  48.91100 45.05900 41.18500
C  47.63000 45.38100 40.83100
C  47.16300 44.26600 39.83600
C  48.13700 43.04900 40.06900
C  49.22000 43.76800 40.98000
C  47.52200 41.82200 40.92800
C  47.11000 44.78300 38.40600
C  46.04000 44.03500 37.60100
H  45.72600 44.41600 36.12600
N  51.64600 44.69300 42.64600
C  51.56700 43.48900 41.96200
C  52.86300 42.84600 42.09300
C  53.60400 43.64000 43.05300
C  52.88200 44.88100 43.26800
C  53.18200 41.45800 41.48600
C  54.93800 43.40400 43.67700
O  55.48000 42.40900 43.27600
C  55.60300 44.22600 44.76500
N  51.41100 47.52100 43.77100
C  52.69300 47.34600 44.05600
C  53.31700 48.58300 44.72800
C  52.19100 49.68700 44.59400
C  50.99000 48.78300 44.07700
C  53.80700 48.37200 46.18900
C  52.62900 50.88600 43.65500
C  53.17900 52.11500 44.42600
N  48.67600 47.63400 42.73500
C  48.63900 48.86300 43.26400
C  47.35400 49.51500 43.01000
C  46.69800 48.67000 42.15600
C  47.50600 47.50500 42.06400
C  47.05300 50.93700 43.41700
C  45.51200 48.56700 41.35500
O  44.55000 49.29300 41.18200
C  45.60800 47.09800 40.66600
C  44.41700 46.25700 41.08400
O  44.31200 45.63500 42.10600
O  43.49400 46.26400 40.05900
C  42.22200 45.68000 40.32400
H  50.42600 42.08600 40.84200
H  54.25600 46.05700 44.36400
H  49.50800 50.39600 44.26100
H  46.18100 43.92300 40.16400
H  48.46100 42.59400 39.13300
H  46.54100 42.21000 41.20300
H  48.03600 41.77000 41.88800
H  47.54800 40.91000 40.33200
H  48.01800 44.58400 37.83800
H  47.00200 45.84700 38.19700
H  45.08100 44.13300 38.11100
H  46.29100 42.97500 37.55600
H  53.47800 40.74300 42.25400
H  54.10800 41.51900 40.91600
H  52.42000 41.00100 40.85300
H  56.16800 45.13700 44.56700
H  56.34500 43.58400 45.24100
H  54.90500 44.47500 45.56300
H  54.23500 48.81000 44.18600
H  51.99300 50.01500 45.61400
H  53.73800 49.38000 46.59800
H  54.81700 47.96900 46.11000
H  53.14000 47.67500 46.69500
H  51.82000 51.25900 43.02700
H  53.38000 50.64400 42.90400
H  54.11100 52.49500 44.00700
H  53.29400 51.80600 45.46500
H  52.44100 52.91100 44.32600
H  47.89100 51.60100 43.62900
H  46.54100 51.03100 44.37400
H  46.56000 51.47900 42.61000
H  45.60200 47.14500 39.57700
H  42.31600 44.60100 40.19900
H  41.50900 46.07700 39.60200
H  41.87500 46.10400 41.26600

