158

Mg 49.63300 34.98700 28.03100
C  47.44700 33.80000 30.34800
C  49.83800 37.89500 29.98700
C  51.65200 36.37200 25.66100
C  48.68800 32.67400 25.68500
N  48.91400 35.67500 30.01100
C  48.13800 34.89900 30.84100
C  47.99800 35.55300 32.22900
C  48.36000 37.07700 31.87600
C  49.15000 36.91700 30.54300
C  47.23000 38.14800 31.72100
C  49.07700 34.92400 33.19900
C  48.64500 34.62900 34.65700
H  49.17500 35.57900 35.72800
N  50.83000 36.80000 27.93000
C  50.72800 37.82400 28.80100
C  51.62700 38.91400 28.33900
C  52.23300 38.44100 27.12100
C  51.60500 37.10800 26.85400
C  51.70300 40.23400 29.03400
C  53.22800 39.14000 26.18400
O  53.75100 38.51900 25.26800
C  53.67600 40.57800 26.46200
N  50.05800 34.59000 25.89500
C  50.99900 35.26000 25.20100
C  51.08700 34.70600 23.69400
C  50.32700 33.35600 23.83100
C  49.68900 33.49600 25.25800
C  50.48900 35.71900 22.69400
C  51.27000 32.22800 23.72100
C  51.84800 32.01900 22.29400
N  48.36200 33.46400 28.02000
C  48.06200 32.55200 26.99600
C  47.02700 31.68900 27.45100
C  46.68000 32.20100 28.71000
C  47.62200 33.20700 29.07900
C  46.27400 30.62600 26.67600
C  45.80100 31.96400 29.85200
O  44.86700 31.15900 30.06700
C  46.30200 32.92500 31.00300
C  46.82400 31.98800 32.06100
O  47.94800 31.62000 32.28000
O  45.85800 31.66000 32.86600
C  46.12300 30.80500 34.00200
H  50.03700 38.86500 30.44800
H  52.29500 36.73800 24.85800
H  48.46300 31.85000 25.00400
H  46.99900 35.48800 32.65900
H  49.09900 37.25500 32.65700
H  46.23100 37.71100 31.75000
H  47.18900 38.57500 30.71900
H  47.23500 38.96600 32.44100
H  50.04100 35.43400 33.19200
H  49.27100 33.94200 32.76900
H  48.72800 33.65000 35.12900
H  47.55800 34.69500 34.61400
H  52.33800 40.98900 28.57100
H  52.04400 39.99800 30.04200
H  50.68800 40.62100 29.11800
H  52.84400 41.27800 26.53400
H  54.29200 40.86000 25.60800
H  54.35100 40.56300 27.31800
H  52.14100 34.54500 23.46600
H  49.47900 33.31400 23.14700
H  50.39400 36.73200 23.08700
H  49.51900 35.30700 22.41500
H  51.21100 35.77100 21.87900
H  50.79700 31.30900 24.06600
H  52.09500 32.39700 24.41400
H  51.35400 32.70200 21.60400
H  51.59800 31.01500 21.95100
H  52.91400 32.24600 22.32200
H  45.33100 30.38000 27.16400
H  46.81700 29.68500 26.58200
H  45.93200 30.82900 25.66100
H  45.48000 33.49800 31.43200
H  47.10900 30.95500 34.44300
H  46.03800 29.75600 33.71600
H  45.40000 30.92300 34.80900
Mg 9.99500 47.15500 25.88200
C  7.44400 47.45300 28.41700
C  12.19400 48.28700 28.24800
C  12.25100 47.04400 23.38400
C  7.41300 46.61000 23.46800
N  9.79700 47.94600 28.11200
C  8.72100 47.80000 28.93200
C  9.20000 47.77700 30.46200
C  10.64400 48.43100 30.30900
C  10.90400 48.19400 28.81100
C  10.76800 49.94000 30.62500
C  9.26000 46.30200 31.02100
C  8.76700 46.03400 32.40700
H  9.86800 45.67000 33.39400
N  11.95300 47.66800 25.81800
C  12.64300 48.07400 26.86400
C  14.01000 48.23400 26.40900
C  14.10400 47.98400 24.96900
C  12.72800 47.48400 24.67800
C  15.12400 48.61300 27.42100
C  15.27900 48.08900 23.94100
O  15.24200 47.93600 22.73800
C  16.62800 48.47800 24.52400
N  9.84400 46.77600 23.77700
C  10.93600 46.73800 23.00300
C  10.61400 46.27000 21.54500
C  9.06800 46.09900 21.53600
C  8.71200 46.54700 23.04000
C  11.07900 47.27400 20.44800
C  8.57100 44.63900 21.02800
C  8.16000 44.47100 19.55000
N  7.91400 47.12100 25.84100
C  7.04400 46.81300 24.77100
C  5.61600 46.84800 25.30600
C  5.76600 47.01100 26.71500
C  7.14800 47.24900 27.01200
C  4.33200 46.70700 24.50300
C  5.02500 47.04800 27.95800
O  3.86000 46.82000 28.14300
C  6.06600 47.41700 29.09800
C  5.85600 46.49400 30.23200
O  5.79900 45.23900 30.22800
O  5.66600 47.26000 31.35000
C  5.13200 46.71600 32.59700
H  12.90300 48.71200 28.96100
H  13.01300 47.10700 22.60400
H  6.69300 46.55800 22.64900
H  8.39800 48.29500 30.98900
H  11.35000 47.76700 30.80800
H  11.40700 50.15400 31.48200
H  9.75000 50.21900 30.89800
H  11.17400 50.40800 29.72800
H  10.30000 45.98300 30.94500
H  8.68400 45.64800 30.36700
H  8.10400 45.16900 32.39200
H  8.24500 46.91100 32.79000
H  15.90300 47.87800 27.22200
H  14.74600 48.49700 28.43700
H  15.45800 49.64200 27.29000
H  16.57200 49.29700 25.24100
H  17.29500 48.61800 23.67400
H  16.96200 47.57300 25.03200
H  11.04200 45.29700 21.30600
H  8.60200 46.84300 20.89000
H  11.45600 48.22200 20.83100
H  10.42700 47.45200 19.59300
H  11.92900 46.73300 20.03100
H  7.73900 44.25000 21.61600
H  9.40300 43.98500 21.29100
H  7.34300 45.17600 19.39800
H  7.82700 43.45500 19.33900
H  8.96300 44.77500 18.87900
H  3.83900 45.74600 24.64500
H  4.65000 46.85500 23.47000
H  3.55300 47.37900 24.86500
H  5.78000 48.43000 29.38200
H  5.14400 45.63400 32.72900
H  4.17700 47.18400 32.83700
H  5.87200 47.03500 33.33100

