158

Mg 41.06100 9.24200 29.82500
C  42.93100 10.35400 32.56700
C  38.81300 7.88500 31.86100
C  39.71400 7.96100 27.10700
C  44.05400 9.91800 27.88900
N  40.83500 9.18600 31.96000
C  41.70300 9.80800 32.93900
C  41.00000 9.68100 34.33300
C  39.84900 8.64700 34.02000
C  39.80200 8.55300 32.54000
C  39.93200 7.25800 34.74500
C  40.56700 11.09500 34.84700
C  39.78800 11.10500 36.19600
H  40.31400 11.79700 37.42000
N  39.37800 8.16500 29.50600
C  38.50900 7.67700 30.44300
C  37.39200 7.12200 29.82100
C  37.57900 7.21300 28.36400
C  38.95600 7.75300 28.28400
C  36.21000 6.47700 30.63200
C  36.61500 6.90700 27.25200
O  36.91800 6.85300 26.04500
C  35.11200 6.54500 27.56900
N  41.80500 9.05800 27.72900
C  40.95400 8.50600 26.77600
C  41.66700 8.52800 25.41700
C  43.00700 9.39800 25.71100
C  42.98200 9.39500 27.21400
C  41.86500 7.04700 24.74800
C  43.09400 10.86500 25.15600
C  41.86500 11.81200 25.41300
N  43.00400 10.04200 30.09700
C  44.09200 10.26000 29.21600
C  45.13900 10.91900 29.85000
C  44.73100 10.98900 31.17900
C  43.43200 10.45100 31.26900
C  46.36300 11.42400 29.22600
C  45.04700 11.45000 32.56800
O  46.02900 12.13200 32.89900
C  43.93800 11.04100 33.53000
C  44.50900 10.16200 34.50100
O  45.13300 9.17900 34.22300
O  44.14700 10.52300 35.78300
C  44.22900 9.59100 36.90500
H  38.07100 7.55100 32.59000
H  39.26800 7.57300 26.18900
H  44.87800 10.13700 27.20700
H  41.71000 9.17200 34.98400
H  38.86300 8.99700 34.32500
H  39.50100 7.35800 35.74200
H  40.97700 6.97700 34.87200
H  39.41400 6.48400 34.17900
H  39.95700 11.57500 34.08200
H  41.49000 11.65700 34.98800
H  39.55900 10.05400 36.36600
H  38.84300 11.53500 35.86400
H  35.98300 5.48500 30.24300
H  35.33200 7.12300 30.65500
H  36.51200 6.32000 31.66800
H  34.62300 6.42800 26.60300
H  34.59000 7.40000 27.99900
H  35.05600 5.55600 28.02200
H  41.09500 9.01800 24.62900
H  43.94100 8.90200 25.44500
H  41.32000 7.04500 23.80500
H  41.55200 6.27500 25.45100
H  42.94100 6.91800 24.63700
H  43.05600 10.78000 24.07000
H  43.98900 11.41800 25.43900
H  42.10600 12.56700 26.16100
H  41.09200 11.15600 25.81400
H  41.65900 12.23700 24.43100
H  46.13200 11.99600 28.32800
H  47.06700 10.66200 28.89300
H  46.96800 12.01600 29.91200
H  43.58800 11.96100 33.99700
H  45.30200 9.50100 37.07400
H  43.69300 8.67000 36.67600
H  43.77700 9.96600 37.82400
Mg 17.56100 52.16900 26.02100
C  19.39800 50.50100 28.59400
C  15.30800 52.90500 28.34600
C  15.69600 53.11300 23.50200
C  19.97200 50.70900 23.74700
N  17.54500 51.85200 28.19400
C  18.35900 51.20100 29.07200
C  18.00200 51.57600 30.53600
C  16.54800 52.06500 30.35100
C  16.45900 52.27000 28.87800
C  15.53000 51.09500 30.87700
C  19.06700 52.56800 31.16400
C  19.22600 52.58900 32.72800
H  18.17900 51.93200 33.60900
N  15.79900 52.99100 25.91500
C  14.94700 53.22100 27.00000
C  13.79800 53.88700 26.65800
C  13.83100 53.99900 25.22700
C  15.14000 53.37500 24.76200
C  12.79000 54.44300 27.66800
C  12.85500 54.61400 24.23500
O  13.05300 54.72100 23.02400
C  11.54500 55.24600 24.79700
N  17.78200 51.99000 23.88800
C  16.89600 52.54900 23.10700
C  17.34500 52.43300 21.60900
C  18.77900 51.79300 21.72300
C  18.84100 51.36400 23.17800
C  16.43900 51.74200 20.60100
C  19.82400 52.76300 21.26400
C  20.92500 52.09100 20.39300
N  19.30500 50.90900 26.16800
C  20.20500 50.51100 25.15100
C  21.32800 49.74800 25.70500
C  21.05200 49.73600 27.09100
C  19.78500 50.44600 27.25200
C  22.37100 49.13900 25.01200
C  21.48200 49.26500 28.42700
O  22.41500 48.61600 28.76500
C  20.48600 49.84300 29.40200
C  20.04100 48.72200 30.29100
O  19.45000 47.73200 29.91800
O  20.37600 49.03200 31.61600
C  19.82300 48.16200 32.62300
H  14.66900 53.29000 29.14400
H  15.01800 53.58000 22.78400
H  20.69900 50.36900 23.00700
H  18.06500 50.65300 31.11100
H  16.46200 53.05200 30.80600
H  14.76800 51.76900 31.26900
H  15.97400 50.57600 31.72600
H  15.13200 50.44100 30.10000
H  18.68000 53.46700 30.68300
H  20.06700 52.44100 30.74900
H  19.23900 53.65200 32.96600
H  20.19900 52.17000 32.98500
H  11.79200 54.33600 27.24300
H  12.94800 55.51800 27.75600
H  12.82100 54.17800 28.72500
H  11.69400 56.06800 25.49700
H  10.96900 54.38300 25.13100
H  10.95300 55.79200 24.06300
H  17.38700 53.48400 21.32400
H  18.69300 50.86100 21.16500
H  16.86100 50.92200 20.01900
H  16.18000 52.47100 19.83300
H  15.57000 51.22300 21.00400
H  20.25700 53.11900 22.19800
H  19.28400 53.53400 20.71400
H  21.92100 52.14100 20.83200
H  20.89500 52.54300 19.40200
H  20.77700 51.01900 20.26200
H  23.35700 49.60200 25.05800
H  22.16300 48.97300 23.95500
H  22.54200 48.17800 25.49700
H  20.91300 50.58200 30.07900
H  20.21400 48.26900 33.63500
H  20.24100 47.17700 32.41700
H  18.73800 48.18500 32.52100

