158

Mg -0.07300 6.87700 25.65400
C  1.05300 9.06400 28.09000
C  -0.01400 4.34100 27.94700
C  -0.89800 4.77000 23.27700
C  0.35200 9.50100 23.37700
N  0.57400 6.65900 27.76000
C  0.82700 7.74300 28.57700
C  0.95300 7.33500 30.02800
C  0.99500 5.74400 29.95300
C  0.42800 5.55600 28.52100
C  2.30000 5.07600 30.25100
C  -0.12200 7.98600 31.04500
C  -0.07300 7.51500 32.46800
H  1.22900 7.50500 33.18600
N  -0.47400 4.84400 25.63000
C  -0.43400 3.98600 26.66000
C  -0.99600 2.70000 26.21300
C  -1.38300 2.79000 24.82000
C  -0.86400 4.17600 24.52900
C  -1.14200 1.52800 27.20100
C  -2.02600 1.81500 23.83500
O  -2.37800 2.17500 22.70600
C  -2.12900 0.46700 24.23800
N  -0.17300 7.14000 23.65700
C  -0.48900 6.09600 22.84200
C  -0.86200 6.54300 21.43000
C  -0.52000 8.04400 21.49100
C  -0.04900 8.27300 22.92100
C  -0.09100 5.77200 20.31400
C  -1.63200 9.00200 21.11700
C  -1.05900 10.19600 20.31800
N  0.56900 8.88600 25.72900
C  0.64500 9.83500 24.69100
C  1.14700 11.07500 25.18600
C  1.22000 10.84500 26.57100
C  0.90300 9.50800 26.83000
C  1.38100 12.25300 24.35500
C  1.50900 11.47900 27.86300
O  1.81700 12.66200 28.16000
C  1.28400 10.33100 28.90400
C  2.32100 10.30300 29.95800
O  3.46200 9.84100 29.82300
O  1.84000 10.90000 31.16100
C  2.98000 11.00300 32.04100
H  0.15800 3.57300 28.70400
H  -1.17800 4.20200 22.38700
H  0.47100 10.29000 22.63200
H  1.91100 7.75100 30.34300
H  0.26900 5.29100 30.62800
H  2.68800 4.69200 29.30700
H  2.19900 4.30100 31.01100
H  3.00500 5.79300 30.67000
H  -1.12400 7.92200 30.62000
H  0.10900 9.05100 31.04800
H  -0.53100 6.53100 32.56500
H  -0.83700 8.16700 32.89300
H  -1.92600 1.50800 27.95800
H  -0.14600 1.57400 27.64100
H  -1.03300 0.58700 26.66200
H  -2.81500 0.48500 25.08600
H  -1.10300 0.18400 24.47100
H  -2.53300 -0.25200 23.52500
H  -1.93600 6.38200 21.34000
H  0.27800 8.26700 20.78200
H  0.45300 4.87900 20.62200
H  0.57200 6.46800 19.80100
H  -0.83300 5.41100 19.60100
H  -2.16600 9.31500 22.01400
H  -2.40800 8.54000 20.50700
H  -1.51900 10.22800 19.33100
H  0.02500 10.29400 20.24700
H  -1.36700 11.04300 20.93200
H  2.16000 11.83600 23.71700
H  1.77200 13.10000 24.91900
H  0.53500 12.42300 23.68900
H  0.33700 10.75400 29.23800
H  3.82000 11.52100 31.57700
H  3.44700 10.15400 32.53900
H  2.56500 11.60200 32.85200
Mg -2.07700 34.12600 27.08400
C  -3.69100 32.47800 29.73200
C  -0.25500 35.95500 29.31200
C  -0.69400 35.74700 24.44400
C  -3.84300 31.93100 24.80000
N  -2.04600 34.16900 29.27600
C  -2.79700 33.49400 30.19200
C  -2.25100 33.72000 31.66200
C  -1.34200 34.95400 31.50900
C  -1.16300 35.04000 29.91500
C  -1.73700 36.27900 32.20700
C  -1.53200 32.44000 32.16600
C  -0.92700 32.55800 33.62300
H  -1.61400 31.60400 34.64800
N  -0.68900 35.67000 26.90100
C  -0.00800 36.30700 27.90300
C  0.93900 37.31400 27.40600
C  0.82900 37.29200 26.01200
C  -0.25500 36.17200 25.72500
C  1.84600 38.11000 28.29700
C  1.59700 38.07000 24.95500
O  1.31800 37.96400 23.76300
C  2.64600 39.03600 25.36200
N  -2.52600 34.09400 24.87400
C  -1.62500 34.73200 24.02200
C  -1.70800 34.22200 22.58300
C  -2.51500 32.83700 22.78300
C  -3.03300 32.94900 24.21200
C  -2.33800 35.29900 21.60900
C  -1.69100 31.54200 22.56700
C  -0.27400 31.39300 23.13100
N  -3.60600 32.66200 27.19100
C  -4.19300 31.86400 26.18100
C  -4.98900 30.83900 26.82400
C  -4.81100 31.10600 28.19400
C  -3.96300 32.17200 28.39300
C  -5.90500 29.85500 26.17700
C  -5.20600 30.65000 29.49100
O  -5.92400 29.69300 29.80800
C  -4.50900 31.47900 30.53500
C  -5.59400 32.10300 31.32300
O  -6.29900 33.01900 30.94800
O  -5.83900 31.43600 32.49400
C  -7.03700 31.84700 33.22200
H  0.41000 36.42500 30.04000
H  -0.11400 36.30000 23.70200
H  -4.23800 31.05000 24.28900
H  -3.12100 33.91100 32.29100
H  -0.31700 34.74200 31.81400
H  -0.90700 36.82000 32.65900
H  -2.30300 35.90700 33.06100
H  -2.33900 37.00400 31.65900
H  -0.57600 32.36000 31.64800
H  -2.06100 31.51100 31.95300
H  -1.05400 33.56300 34.02500
H  0.15700 32.44100 33.61900
H  2.02000 39.10500 27.88800
H  2.81900 37.62000 28.27600
H  1.42700 38.16400 29.30200
H  2.12300 39.85200 25.85900
H  3.11500 39.41900 24.45600
H  3.42800 38.60200 25.98600
H  -0.72000 33.92300 22.23200
H  -3.30700 32.89700 22.03700
H  -1.56000 35.57800 20.89900
H  -2.73800 36.24000 21.98800
H  -3.17400 34.84400 21.07800
H  -1.59500 31.48400 21.48300
H  -2.28900 30.65000 22.75200
H  0.32700 31.37700 22.22200
H  -0.17400 30.36300 23.47600
H  0.00000 32.15400 23.86100
H  -6.89800 30.29400 26.27600
H  -5.78800 28.96100 26.79000
H  -5.75900 29.58200 25.13200
H  -3.95400 30.83600 31.21800
H  -6.67300 32.18700 34.19100
H  -7.78800 31.07400 33.38200
H  -7.64100 32.65400 32.80600

