158

Mg 35.85800 1.77000 29.08600
C  33.75400 2.87800 31.41300
C  38.48600 2.20500 31.27300
C  38.12400 0.85900 26.63800
C  33.44300 2.04100 26.61700
N  36.07900 2.54600 31.13300
C  35.01000 2.70200 31.97600
C  35.43400 2.81500 33.37700
C  37.02100 2.78100 33.33900
C  37.24600 2.32000 31.85400
C  37.77600 4.06100 33.78900
C  34.81000 1.71200 34.27600
C  34.28600 2.17900 35.69400
H  35.07300 3.12700 36.63100
N  37.94100 1.51200 28.98200
C  38.80200 1.83100 30.00000
C  40.18700 1.70300 29.50600
C  40.08100 1.10000 28.20700
C  38.65100 1.11000 27.86700
C  41.42800 2.13400 30.20500
C  41.26000 0.45400 27.42100
O  41.02300 -0.09700 26.36200
C  42.70400 0.40000 27.88100
N  35.67900 1.23100 26.92900
C  36.81100 0.96600 26.15600
C  36.42100 0.86500 24.62900
C  34.85500 0.98500 24.77400
C  34.57900 1.44400 26.16500
C  37.06100 2.04300 23.88700
C  34.21800 -0.41600 24.50400
C  33.80700 -1.34600 25.77300
N  33.94200 2.30300 29.00400
C  33.12400 2.45700 27.96200
C  31.81800 2.91300 28.41300
C  32.04200 3.10400 29.80500
C  33.36000 2.70100 30.06200
C  30.60500 3.32700 27.62400
C  31.54100 3.63100 30.99600
O  30.43100 4.10700 31.16300
C  32.54500 3.44600 32.07700
C  32.72900 4.71000 32.80200
O  33.59600 5.50800 32.61200
O  31.73800 4.80500 33.79400
C  31.87900 5.97800 34.69600
H  39.29300 2.34800 31.99400
H  38.67500 0.46600 25.78100
H  32.72300 2.17200 25.80600
H  35.14600 3.81500 33.70100
H  37.45000 1.97000 33.92600
H  37.20300 4.62700 34.52400
H  37.96300 4.68700 32.91700
H  38.77100 3.88400 34.19800
H  35.56400 0.93900 34.42300
H  33.96100 1.25600 33.76700
H  34.02100 1.22100 36.14100
H  33.31500 2.60300 35.43600
H  41.87700 1.38300 30.85500
H  41.17500 2.93100 30.90300
H  42.17300 2.66600 29.61300
H  43.13700 1.39800 27.81900
H  43.29500 -0.22500 27.21100
H  42.75000 0.02100 28.90200
H  36.87600 0.00400 24.13800
H  34.45000 1.67300 24.03200
H  36.31800 2.83300 23.76900
H  37.16700 1.66100 22.87200
H  37.97400 2.44600 24.32500
H  34.91700 -0.96400 23.87200
H  33.38600 -0.18600 23.83800
H  34.21100 -2.32700 25.52600
H  32.72600 -1.36700 25.91500
H  34.23100 -0.98300 26.71000
H  30.53900 4.37100 27.93000
H  29.77600 2.72800 27.99900
H  30.74900 3.11400 26.56500
H  32.09700 2.69100 32.72300
H  32.43800 5.58200 35.54400
H  30.90500 6.38100 34.97400
H  32.51200 6.74200 34.24500
Mg 26.12700 50.39000 27.39400
C  24.20500 51.48400 30.10500
C  28.57100 49.41500 29.69800
C  28.13000 49.48900 24.90500
C  23.98800 51.97200 25.23100
N  26.40900 50.59900 29.65200
C  25.39200 50.86100 30.56300
C  25.76100 50.48200 31.96200
C  27.31700 50.22000 31.83300
C  27.44700 50.02300 30.26600
C  28.25000 51.47800 32.06200
C  24.99800 49.26100 32.56500
C  24.34700 49.27700 34.01800
H  25.12300 50.08700 35.11800
N  28.04100 49.43300 27.29500
C  28.82900 49.06300 28.39000
C  30.01400 48.32900 27.89200
C  29.93800 48.47400 26.44600
C  28.67900 49.14600 26.13300
C  31.13400 47.80300 28.77000
C  30.94900 48.00000 25.37800
O  30.77900 48.20900 24.15600
C  32.21400 47.25700 25.71100
N  26.17500 50.91000 25.33300
C  26.96900 50.24100 24.48000
C  26.41700 50.25400 23.07600
C  25.13400 51.09500 23.14800
C  25.03900 51.31200 24.65100
C  27.57700 50.77100 22.12300
C  23.88200 50.42100 22.48700
C  23.13700 51.20400 21.39800
N  24.43900 51.51000 27.54300
C  23.63700 52.13600 26.58200
C  22.46400 52.69200 27.16200
C  22.64600 52.49200 28.55800
C  23.87400 51.75500 28.73000
C  21.39600 53.44600 26.63300
C  21.98500 52.71300 29.84300
O  20.91500 53.27100 30.14600
C  23.04500 52.04500 30.93300
C  23.45600 53.07500 31.93600
O  24.35600 53.87200 31.65100
O  22.75200 53.05800 33.07700
C  22.88300 54.25300 33.96400
H  29.21800 49.00100 30.47400
H  28.72500 49.00400 24.12700
H  23.22700 52.33900 24.54100
H  25.55800 51.33800 32.60600
H  27.74400 49.34600 32.32400
H  27.63200 52.31400 32.38800
H  28.72500 51.80400 31.13700
H  28.91400 51.32500 32.91300
H  25.66900 48.42300 32.37500
H  24.18300 49.11000 31.85800
H  24.26500 48.24800 34.36700
H  23.35700 49.71500 33.89000
H  32.03700 48.13800 28.26000
H  31.23000 46.74900 28.50600
H  30.98700 48.03000 29.82600
H  32.84700 47.03500 24.85200
H  32.00500 46.29600 26.18200
H  32.88600 47.86900 26.31200
H  26.32500 49.20900 22.78000
H  25.35600 52.09600 22.77800
H  28.34800 51.17200 22.78000
H  27.22500 51.57900 21.48200
H  27.98300 49.93700 21.55100
H  23.21900 50.02300 23.25600
H  24.25200 49.51100 22.01600
H  23.17200 50.69700 20.43400
H  23.68300 52.13100 21.22400
H  22.09500 51.38800 21.65800
H  21.88200 53.98600 25.82100
H  21.00500 54.13000 27.38600
H  20.49900 52.91200 26.31700
H  22.51100 51.28200 31.50000
H  23.15000 55.17800 33.45300
H  23.63300 54.15200 34.74900
H  21.87700 54.33400 34.37500

