158

Mg 23.97500 -6.62400 46.43900
C  26.06000 -4.16300 44.69500
C  21.48200 -5.65900 44.14100
C  22.41500 -9.46500 46.98700
C  26.82700 -7.58600 48.21700
N  23.77700 -5.08400 44.72700
C  24.79500 -4.25500 44.12500
C  24.18100 -3.41900 42.99700
C  22.67700 -3.45200 43.31900
C  22.55800 -4.80500 44.14300
C  22.06000 -2.27000 44.19100
C  24.64600 -3.88000 41.62900
C  25.34800 -2.83400 40.74400
H  25.11900 -2.86900 39.22900
N  22.08700 -7.46200 45.72000
C  21.19500 -6.87200 44.84200
C  19.98800 -7.65000 44.80500
C  20.21000 -8.81300 45.63600
C  21.59200 -8.63400 46.18100
C  18.88800 -7.29000 43.87800
C  19.24600 -9.95600 45.91700
O  18.10200 -9.86400 45.53700
C  19.63500 -11.21700 46.75200
N  24.63000 -8.34300 47.27800
C  23.73900 -9.40200 47.51300
C  24.32900 -10.49300 48.47400
C  25.67400 -9.76800 48.85000
C  25.73600 -8.41000 48.10200
C  23.39000 -10.86500 49.62100
C  26.96100 -10.69100 48.58000
C  27.88900 -10.88400 49.66000
N  26.00400 -5.90900 46.58300
C  27.04600 -6.38700 47.36400
C  28.21700 -5.57400 47.27500
C  27.84900 -4.65700 46.28600
C  26.50900 -4.89700 45.83000
C  29.57500 -5.62500 48.03700
C  28.25200 -3.46100 45.54900
O  29.34900 -2.88500 45.63500
C  27.16500 -3.14400 44.48700
C  26.80800 -1.72500 44.74500
O  25.90500 -1.23300 45.39400
O  27.71500 -0.98200 44.07400
C  27.33500 0.44300 43.90100
H  20.63400 -5.30000 43.55500
H  21.91700 -10.42500 47.13500
H  27.63200 -7.88500 48.89100
H  24.48600 -2.37700 43.09700
H  22.05500 -3.41000 42.42500
H  21.97100 -2.49600 45.25400
H  21.06700 -1.96700 43.85900
H  22.71000 -1.39700 44.14000
H  23.77500 -4.34300 41.16500
H  25.39100 -4.67100 41.71300
H  26.41600 -2.90100 40.95000
H  25.04500 -1.82700 41.02900
H  18.29200 -8.16300 43.61200
H  19.14800 -6.62700 43.05200
H  18.18600 -6.67700 44.44400
H  18.89300 -12.00800 46.64900
H  19.89100 -10.91500 47.76800
H  20.42400 -11.79100 46.26600
H  24.35200 -11.36700 47.82400
H  25.68900 -9.53800 49.91600
H  22.60300 -10.11100 49.60500
H  23.96500 -10.88400 50.54700
H  22.97900 -11.87000 49.52900
H  27.46500 -10.18500 47.75700
H  26.70300 -11.70700 48.27900
H  28.92500 -10.66900 49.39900
H  27.96000 -11.93100 49.95700
H  27.73000 -10.26400 50.54200
H  29.26400 -5.19300 48.98800
H  30.32200 -5.05900 47.47900
H  29.97400 -6.62300 48.22100
H  27.58800 -3.19100 43.48400
H  27.69100 0.91900 44.81500
H  26.26500 0.63900 43.84000
H  27.79500 0.84200 42.99700
Mg -9.73800 38.67900 41.56700
C  -8.09200 35.75800 40.57100
C  -7.64400 40.47200 39.76600
C  -12.05900 41.16700 41.52500
C  -12.25300 36.53100 42.80700
N  -8.09500 38.09300 40.21500
C  -7.46500 36.90500 40.02900
C  -6.29400 36.96300 39.06200
C  -6.04000 38.57500 39.08300
C  -7.31500 39.12200 39.77700
C  -4.77600 38.93000 39.96000
C  -6.65800 36.25500 37.70800
C  -5.76400 35.14100 37.20800
H  -5.01300 35.30900 35.92900
N  -9.71600 40.69500 40.99700
C  -8.71900 41.25200 40.27000
C  -8.90000 42.63700 40.19900
C  -10.24900 42.84800 40.58400
C  -10.76100 41.49900 41.04800
C  -7.85700 43.64800 39.78200
C  -10.91000 44.20900 40.73300
O  -10.33000 45.25100 40.35400
C  -12.29100 44.35300 41.33600
N  -11.91200 38.90700 42.22200
C  -12.59300 40.03700 42.13200
C  -14.01900 39.87100 42.59700
C  -14.02800 38.30100 43.10600
C  -12.62800 37.83800 42.64200
C  -14.46100 40.83500 43.71200
C  -15.31200 37.60200 42.62200
C  -15.88000 36.59400 43.60500
N  -10.12800 36.55400 41.76100
C  -11.13700 35.86200 42.35800
C  -10.91100 34.45200 42.34900
C  -9.71600 34.28200 41.56600
C  -9.26500 35.64800 41.31900
C  -11.72000 33.41000 43.08800
C  -8.70700 33.41300 41.00300
O  -8.65600 32.18800 41.06000
C  -7.70300 34.37800 40.22800
C  -6.30400 34.07400 40.61300
O  -5.64600 33.18100 39.99900
O  -5.99700 34.62600 41.82800
C  -4.77000 34.15200 42.40100
H  -6.98200 40.91800 39.02000
H  -12.86000 41.88600 41.34100
H  -13.04500 35.94300 43.27500
H  -5.45300 36.44200 39.52000
H  -5.96300 39.05700 38.10800
H  -4.86000 39.73900 40.68600
H  -3.86700 39.21000 39.42700
H  -4.55900 38.04900 40.56300
H  -6.71200 37.08000 36.99800
H  -7.65900 35.89200 37.94400
H  -6.34100 34.22800 37.06300
H  -5.03000 34.82700 37.95000
H  -6.98800 43.17300 39.32600
H  -7.61500 44.31300 40.61100
H  -8.21300 44.25900 38.95300
H  -12.49800 43.68900 42.17500
H  -13.02700 44.06600 40.58500
H  -12.44500 45.40600 41.57000
H  -14.67600 40.01700 41.74000
H  -13.89000 38.30400 44.18800
H  -15.05300 40.28100 44.44100
H  -15.08500 41.53800 43.16000
H  -13.61700 41.39800 44.11100
H  -14.92400 37.10500 41.73300
H  -16.07600 38.32500 42.33700
H  -15.83700 35.56200 43.25500
H  -16.89900 36.86900 43.87900
H  -15.29900 36.62700 44.52700
H  -11.77200 33.54700 44.16800
H  -11.15900 32.48700 42.94300
H  -12.73800 33.36400 42.70000
H  -7.74100 34.21900 39.15000
H  -3.84900 34.44200 41.89500
H  -4.72700 33.06600 42.49200
H  -4.73600 34.67600 43.35600

