158

Mg 45.37800 5.58200 47.15600
C  43.39200 8.45300 46.38200
C  42.82100 3.76700 46.08400
C  47.49100 3.03200 46.89000
C  48.02000 7.91700 47.57600
N  43.40900 6.04300 46.23300
C  42.80700 7.25100 46.05300
C  41.40000 7.12900 45.46300
C  41.09600 5.64700 45.92500
C  42.49900 5.08100 46.12600
C  40.22200 5.61800 47.21400
C  41.46700 7.18100 43.89700
C  40.48400 8.03600 43.11400
H  40.85400 8.73200 41.73100
N  45.18200 3.54500 46.75700
C  43.99900 2.97900 46.39800
C  44.12300 1.57900 46.20400
C  45.51100 1.29300 46.44700
C  46.15500 2.61500 46.70500
C  43.11500 0.61700 45.71900
C  46.19000 -0.01600 46.34300
O  45.54100 -1.02100 46.01700
C  47.65100 -0.25700 46.52600
N  47.34900 5.58000 47.16200
C  48.01400 4.35000 47.17800
C  49.48000 4.47700 47.55000
C  49.64600 6.04800 47.68800
C  48.25900 6.55600 47.48100
C  49.89400 3.62100 48.81200
C  50.62300 6.66800 46.58100
C  51.98600 7.12100 47.07400
N  45.70600 7.81200 47.07800
C  46.80200 8.57600 47.32600
C  46.40800 9.95700 47.32200
C  45.09300 9.92200 46.98500
C  44.72100 8.59800 46.84900
C  47.28400 11.17100 47.41500
C  43.89200 10.76200 46.78900
O  43.79200 11.93100 46.95000
C  42.73400 9.81400 46.28200
C  41.64300 9.89600 47.28400
O  41.69500 9.49900 48.44300
O  40.66900 10.68100 46.79300
C  39.66900 11.03900 47.83000
H  41.93200 3.17800 45.84800
H  48.23700 2.24000 46.79300
H  48.89700 8.52000 47.81900
H  40.67600 7.85500 45.83300
H  40.44200 5.14100 45.21500
H  39.78600 6.58900 47.45000
H  40.72300 5.41100 48.15900
H  39.41200 4.89500 47.11400
H  41.38100 6.17900 43.47600
H  42.43900 7.60500 43.64400
H  40.35400 8.84400 43.83400
H  39.44100 7.72800 43.05100
H  42.13400 1.05600 45.90300
H  43.32500 -0.28700 46.29000
H  43.26200 0.51800 44.64400
H  47.84800 -0.04000 47.57600
H  48.27300 0.22500 45.77200
H  47.77600 -1.33100 46.38800
H  50.09500 4.11600 46.72500
H  49.89000 6.29600 48.72000
H  48.91700 3.28700 49.16100
H  50.59800 3.97700 49.56400
H  50.32000 2.73500 48.34100
H  50.12800 7.57700 46.23800
H  50.77800 6.03100 45.71100
H  52.13000 6.51000 47.96500
H  51.99800 8.20700 47.16800
H  52.77400 6.97400 46.33500
H  46.68200 12.07900 47.41600
H  47.97100 11.11300 46.57100
H  47.83800 11.09600 48.35100
H  42.41000 10.17300 45.30500
H  39.04500 11.68200 47.20900
H  40.13600 11.52300 48.68800
H  39.09100 10.16800 48.13800
Mg -10.95500 38.57100 41.67600
C  -9.48000 35.38900 41.10800
C  -8.24300 39.89400 40.15600
C  -12.52600 41.53400 41.67000
C  -13.91300 36.96700 42.67400
N  -9.07100 37.72100 40.75400
C  -8.63100 36.44100 40.69400
C  -7.20000 36.27900 40.25800
C  -6.80100 37.76200 39.99700
C  -8.08200 38.53000 40.38600
C  -5.51700 38.18500 40.73500
C  -7.23200 35.46000 38.92600
C  -6.08600 34.41800 38.81200
H  -5.11300 34.80100 37.73000
N  -10.39800 40.44700 41.08900
C  -9.16800 40.77700 40.63000
C  -9.09100 42.20200 40.41900
C  -10.34500 42.74100 40.77800
C  -11.16800 41.61300 41.23300
C  -7.88300 42.90700 39.83100
C  -10.73500 44.16500 40.87300
O  -9.94600 45.10200 40.65300
C  -12.14700 44.60900 41.21000
N  -13.01000 39.11400 41.83900
C  -13.32700 40.40400 41.86800
C  -14.75100 40.63900 42.38900
C  -15.19600 39.18100 42.79000
C  -13.94900 38.30800 42.41300
C  -14.84700 41.73700 43.52500
C  -16.38800 38.60700 41.96200
C  -17.56600 38.13800 42.85600
N  -11.64900 36.61700 41.86400
C  -12.85400 36.08100 42.32900
C  -12.68200 34.66100 42.56900
C  -11.40400 34.34300 42.06700
C  -10.79500 35.58700 41.70100
C  -13.73100 33.76300 43.04900
C  -10.42200 33.24900 41.75900
O  -10.53000 32.06100 42.03400
C  -9.22000 33.86300 41.08400
C  -8.01500 33.28500 41.69200
O  -7.40700 32.32900 41.24900
O  -7.66100 33.96700 42.86700
C  -6.37100 33.57900 43.55400
H  -7.46400 40.46100 39.64100
H  -13.09300 42.46200 41.77100
H  -14.79400 36.54600 43.16300
H  -6.54900 35.84400 41.01700
H  -6.64300 37.95000 38.93500
H  -4.79700 37.37000 40.66400
H  -5.63400 38.38100 41.80000
H  -4.96500 39.03800 40.34100
H  -7.01400 36.08500 38.06000
H  -8.23000 35.05300 38.76500
H  -6.46600 33.43900 38.51900
H  -5.44200 34.45800 39.69000
H  -7.85200 43.90700 40.26500
H  -7.85700 43.08900 38.75700
H  -6.96200 42.43700 40.17800
H  -12.58900 44.43200 42.19000
H  -12.78100 44.14800 40.45400
H  -12.22500 45.66600 40.95400
H  -15.31000 41.03900 41.54300
H  -15.45300 39.19800 43.84900
H  -14.00000 42.04000 44.14100
H  -15.62300 41.34800 44.18300
H  -15.13200 42.68100 43.05900
H  -16.01300 37.77800 41.36200
H  -16.73600 39.35900 41.25400
H  -17.55800 38.36100 43.92300
H  -17.75300 37.06400 42.85900
H  -18.51700 38.56200 42.53200
H  -14.00100 33.94500 44.08900
H  -13.35600 32.74100 42.98600
H  -14.63900 33.81700 42.44900
H  -9.13500 33.49900 40.06000
H  -6.39200 33.84800 44.61000
H  -5.53000 34.12900 43.13100
H  -6.27800 32.49400 43.52500

