158

Mg 40.06400 9.56700 29.56400
C  42.17300 11.03200 32.03700
C  37.92800 8.61600 32.17600
C  38.22300 8.07800 27.29500
C  42.51000 10.36900 27.10100
N  40.14100 9.77800 31.85600
C  41.01900 10.50000 32.58100
C  40.64000 10.40600 34.07800
C  39.36800 9.47400 34.13100
C  39.12300 9.23400 32.63900
C  39.63700 8.20800 35.05000
C  40.34500 11.88700 34.64600
C  39.53400 11.95100 35.99500
H  40.13200 12.83800 37.13100
N  38.43500 8.41000 29.74000
C  37.61400 8.20500 30.80900
C  36.51200 7.39700 30.43200
C  36.49000 7.33700 29.01900
C  37.72000 8.02600 28.66300
C  35.56800 6.67600 31.43300
C  35.42700 6.67200 28.03500
O  35.51200 6.64300 26.80300
C  34.16300 6.13200 28.70900
N  40.55500 8.97300 27.55200
C  39.45100 8.53300 26.82500
C  39.69500 8.73200 25.32700
C  41.04300 9.48000 25.18200
C  41.45800 9.62300 26.65300
C  39.61100 7.42700 24.46100
C  40.98700 10.76100 24.37100
C  40.60600 12.08000 25.05700
N  41.92600 10.55200 29.45500
C  42.83100 10.74400 28.42800
C  43.99100 11.57100 28.86200
C  43.74900 11.65900 30.26000
C  42.49000 11.05000 30.58100
C  45.18300 12.03500 28.08600
C  44.33100 12.17900 31.46700
O  45.43100 12.67600 31.69000
C  43.47700 11.66900 32.69800
C  44.15200 10.63200 33.58400
O  44.08800 9.44000 33.44000
O  44.78700 11.24700 34.65900
C  45.34600 10.27100 35.62300
H  37.20100 8.51800 32.98400
H  37.62400 7.69500 26.46600
H  43.04300 10.95200 26.34600
H  41.36700 9.89700 34.71100
H  38.47600 9.96400 34.51900
H  38.68100 8.09300 35.56100
H  40.37700 8.50600 35.79200
H  39.99800 7.32200 34.52800
H  40.05400 12.64300 33.91700
H  41.32100 12.35500 34.77700
H  39.17200 11.00400 36.39500
H  38.67600 12.49200 35.59600
H  36.03300 6.61700 32.41700
H  35.35800 5.62400 31.23700
H  34.63400 7.22600 31.54600
H  33.86600 6.98600 29.31700
H  34.40400 5.25100 29.30500
H  33.42000 5.96400 27.93000
H  38.97700 9.49800 25.03300
H  41.78100 8.81200 24.73900
H  39.81700 6.56100 25.09100
H  40.32700 7.38900 23.63900
H  38.64700 7.33900 23.96100
H  40.21800 10.65500 23.60600
H  41.96700 10.88500 23.91000
H  40.47300 12.03000 26.13800
H  39.69800 12.48300 24.60900
H  41.44700 12.73700 24.83300
H  45.08900 13.07800 27.78100
H  45.23500 11.38600 27.21100
H  46.02200 11.98800 28.78000
H  43.19700 12.47200 33.38000
H  44.50900 9.70600 36.03400
H  45.94000 10.86800 36.31500
H  45.95300 9.57200 35.04700
Mg 41.52800 41.88900 26.84100
C  40.45800 44.23400 29.30900
C  42.22800 39.86600 29.26100
C  42.84900 39.90700 24.51900
C  41.23000 44.44900 24.51600
N  41.31000 42.11900 29.03300
C  40.75000 43.01000 29.87200
C  40.72200 42.63700 31.37500
C  41.61600 41.30800 31.36100
C  41.75000 41.04700 29.80100
C  42.97500 41.34900 32.03200
C  39.27600 42.52600 31.97100
C  39.00300 43.29900 33.28700
H  38.56700 42.46600 34.48000
N  42.34600 40.09800 26.85600
C  42.54500 39.41200 27.98600
C  43.10500 38.12700 27.68400
C  43.27500 38.07900 26.24400
C  42.79400 39.40500 25.80000
C  43.26400 37.02000 28.72000
C  43.75600 37.00000 25.30800
O  43.85100 37.18200 24.12300
C  44.07000 35.65500 25.86600
N  41.73000 42.12500 24.65200
C  42.42600 41.17800 24.00300
C  42.77200 41.68600 22.56000
C  41.97200 43.02800 22.45800
C  41.66500 43.21800 23.97400
C  44.23300 41.74000 22.20100
C  40.66300 42.92100 21.66400
C  40.27800 44.29100 21.27100
N  40.90100 43.85000 26.83400
C  40.87000 44.78900 25.84400
C  40.46300 46.10100 26.36000
C  40.20000 45.87500 27.71100
C  40.54100 44.54300 27.95800
C  40.35800 47.52100 25.72400
C  39.64600 46.52400 28.92900
O  39.23500 47.64500 29.22600
C  39.87200 45.40500 29.98800
C  40.78900 45.97600 30.99200
O  41.98300 46.03900 30.85700
O  40.13500 46.38900 32.10800
C  40.96500 46.62800 33.34000
H  42.45100 39.17700 30.07900
H  43.32600 39.27300 23.76900
H  41.19900 45.24400 23.76900
H  41.30200 43.38900 31.90900
H  41.18000 40.50100 31.95000
H  43.00700 41.92900 32.95400
H  43.67800 41.88400 31.39400
H  43.39800 40.34400 32.03200
H  38.95500 41.48900 32.06200
H  38.64700 43.02400 31.23200
H  38.23400 44.05600 33.13300
H  39.94400 43.79600 33.52500
H  43.57400 37.50500 29.64600
H  44.18700 36.51500 28.43700
H  42.46900 36.27500 28.73000
H  43.20500 35.23900 26.38200
H  44.87900 35.87500 26.56200
H  44.45500 35.02000 25.06800
H  42.40200 40.92000 21.87900
H  42.66100 43.86200 22.32200
H  44.56100 42.69300 22.61700
H  44.42400 41.66300 21.13000
H  44.68800 40.91200 22.74500
H  39.88700 42.47200 22.28400
H  40.77100 42.39700 20.71400
H  39.67600 44.64500 22.10800
H  39.71400 44.37000 20.34200
H  41.08800 45.01800 21.21700
H  40.89700 48.21200 26.37200
H  39.28300 47.62600 25.58000
H  40.86000 47.61000 24.76100
H  38.91900 45.15900 30.45800
H  42.00200 46.29400 33.31800
H  40.55500 46.16500 34.23700
H  40.98500 47.69300 33.56900

