158

Mg 24.65600 -4.33600 45.48200
C  26.76600 -1.97800 43.95200
C  22.19500 -3.48600 43.17600
C  22.92600 -7.22600 46.35400
C  27.41300 -5.54800 47.17700
N  24.58000 -2.84200 43.83700
C  25.50400 -1.95900 43.38900
C  25.05100 -1.04000 42.27100
C  23.47000 -1.44100 42.19500
C  23.36300 -2.68200 43.13900
C  22.59200 -0.24000 42.73800
C  25.81300 -1.42300 40.93200
C  26.53100 -0.28300 40.17000
H  26.20500 -0.32400 38.70800
N  22.71400 -5.14300 44.94700
C  21.87900 -4.61900 43.97700
C  20.70300 -5.47000 43.92300
C  20.81800 -6.49600 44.89700
C  22.16400 -6.37500 45.48600
C  19.46100 -5.15100 43.12800
C  19.81300 -7.57000 45.16900
O  18.72800 -7.62400 44.51300
C  19.96400 -8.58500 46.24300
N  25.02400 -6.06500 46.65200
C  24.16400 -7.08500 46.91000
C  24.85100 -8.25500 47.64600
C  26.29600 -7.77800 47.79900
C  26.25000 -6.37400 47.20200
C  24.07800 -8.82700 48.89000
C  27.47200 -8.67800 47.24700
C  28.54000 -9.07800 48.35600
N  26.66600 -3.86200 45.69600
C  27.67100 -4.31500 46.47300
C  28.90700 -3.59900 46.30300
C  28.58600 -2.72700 45.28300
C  27.19600 -2.86500 45.02700
C  30.21100 -3.86500 47.03300
C  29.14700 -1.72300 44.34900
O  30.29900 -1.21500 44.22200
C  27.93800 -1.20100 43.57300
C  27.86700 0.22900 43.97600
O  27.52400 0.70300 45.02300
O  28.35400 1.02500 42.90200
C  28.86200 2.42300 43.12200
H  21.44500 -3.26100 42.41400
H  22.49000 -8.21800 46.49200
H  28.31500 -6.09900 47.45100
H  25.23600 0.00200 42.53100
H  23.10900 -1.74100 41.21100
H  23.25000 0.62200 42.84700
H  22.16800 -0.43200 43.72400
H  21.76300 0.06500 42.10000
H  25.03700 -1.86000 40.30400
H  26.54800 -2.20200 41.14000
H  27.60400 -0.17700 40.32900
H  26.08400 0.65200 40.50600
H  19.47600 -4.20000 42.59500
H  18.61900 -5.15100 43.81900
H  19.21400 -5.96700 42.44800
H  18.97100 -8.79100 46.64300
H  20.56500 -8.26000 47.09200
H  20.34100 -9.53200 45.85600
H  24.75100 -9.07700 46.93700
H  26.52400 -7.55800 48.84200
H  24.01800 -9.91500 48.91600
H  23.08100 -8.38800 48.94000
H  24.67200 -8.69800 49.79500
H  28.02100 -8.23500 46.41500
H  27.08000 -9.59900 46.81500
H  29.49300 -8.57800 48.18300
H  28.47400 -10.16600 48.36600
H  28.12900 -8.92200 49.35400
H  30.03000 -4.23400 48.04200
H  30.84100 -2.98000 47.12600
H  30.76200 -4.57000 46.41100
H  28.17100 -1.21000 42.50900
H  28.37400 3.02000 42.35200
H  29.93200 2.54300 42.95300
H  28.63700 2.76000 44.13400
Mg 5.21700 53.90800 42.41400
C  4.58500 50.33600 41.63000
C  8.30500 53.42700 41.33200
C  5.57300 57.19500 42.74800
C  1.84400 54.06800 43.44600
N  6.24100 52.08900 41.40300
C  5.88700 50.77500 41.32900
C  7.05000 49.98000 40.77200
C  8.30100 50.96700 40.90300
C  7.56100 52.25300 41.16300
C  9.39900 50.64700 41.97900
C  6.88600 49.56200 39.30900
C  6.16000 50.37700 38.17800
H  7.02200 50.62500 36.90700
N  6.81300 55.13600 42.15800
C  8.01800 54.77400 41.76600
C  8.89400 55.83800 41.77100
C  8.08800 56.95400 42.13600
C  6.73300 56.45800 42.33100
C  10.33500 55.79900 41.26800
C  8.62000 58.38400 42.34200
O  9.78200 58.63000 41.94900
C  7.90700 59.49400 43.03100
N  3.81600 55.40400 42.88800
C  4.29200 56.67200 43.07700
C  3.15700 57.58300 43.51500
C  1.95100 56.63300 43.47700
C  2.54200 55.23800 43.29100
C  3.41000 58.34400 44.85900
C  0.76400 56.98800 42.40900
C  -0.06700 58.26500 42.78300
N  3.55800 52.50300 42.48500
C  2.32400 52.78500 43.02500
C  1.53700 51.56700 43.11800
C  2.40600 50.56900 42.56200
C  3.62300 51.20200 42.20800
C  -0.00600 51.57100 43.51000
C  2.53300 49.16700 42.22000
O  1.71800 48.28100 42.31800
C  3.88700 48.98600 41.60300
C  3.89300 48.33100 40.26700
O  3.34300 48.79700 39.29200
O  4.52900 47.12500 40.33600
C  4.62400 46.34000 39.12700
H  9.37800 53.28600 41.19100
H  5.81300 58.21600 43.05100
H  0.81400 54.22900 43.77100
H  7.20500 49.06600 41.34600
H  8.78300 51.16000 39.94500
H  9.05600 49.78400 42.55100
H  9.62500 51.47200 42.65400
H  10.28700 50.38300 41.40500
H  6.28900 48.65700 39.42200
H  7.82200 49.16700 38.91300
H  5.89600 51.35700 38.57500
H  5.24500 49.98200 37.73700
H  11.00400 56.47900 41.79600
H  10.41800 56.00800 40.20200
H  10.82700 54.84800 41.47300
H  8.62600 60.31000 43.09800
H  7.63300 59.23600 44.05400
H  7.03100 59.75100 42.43500
H  3.08200 58.37900 42.77500
H  1.45100 56.55000 44.44300
H  3.96900 59.27100 44.73100
H  3.90400 57.63600 45.52400
H  2.51200 58.60800 45.41700
H  0.18800 56.12600 42.07400
H  1.34500 57.45400 41.61300
H  0.05200 58.48600 43.84400
H  -1.12500 58.06700 42.61100
H  0.28400 59.09700 42.17300
H  -0.35500 50.69400 42.96500
H  -0.58000 52.48000 43.33100
H  -0.12200 51.24400 44.54300
H  4.29800 48.28200 42.32700
H  4.32300 46.84800 38.21100
H  4.00500 45.44300 39.14700
H  5.64400 46.04400 38.88300

