158

Mg 1.48900 7.47700 25.79200
C  1.83900 9.69000 28.38800
C  1.93800 4.83300 27.90200
C  0.82700 5.61800 23.19500
C  1.75500 10.32700 23.57500
N  2.08200 7.31600 27.82800
C  2.01700 8.35200 28.80700
C  2.08000 7.81500 30.25500
C  2.23500 6.25800 30.01300
C  1.99000 6.11700 28.47700
C  3.55400 5.56200 30.46100
C  0.82000 8.19800 31.11700
C  1.07800 8.82700 32.53000
H  2.05000 8.08700 33.47100
N  1.46800 5.47100 25.59700
C  1.78900 4.50100 26.55700
C  1.64500 3.20800 25.93000
C  1.12900 3.38500 24.59300
C  1.03600 4.87200 24.47600
C  2.10200 1.99100 26.64400
C  0.86200 2.31400 23.48900
O  0.55800 2.64500 22.34400
C  0.97300 0.83300 23.76400
N  1.45400 7.87100 23.63200
C  1.11700 6.91900 22.84600
C  0.86400 7.40100 21.44200
C  1.21600 8.96500 21.43500
C  1.39200 9.08800 23.00700
C  1.63100 6.60300 20.39100
C  0.06900 9.84500 20.96800
C  0.33000 10.88300 19.82500
N  1.73700 9.62700 25.91600
C  1.79200 10.57900 24.96600
C  1.89000 11.95200 25.66000
C  1.85400 11.55900 27.02600
C  1.82700 10.18400 27.08500
C  2.03000 13.26200 24.96100
C  1.90900 12.12100 28.32400
O  1.95600 13.33400 28.64600
C  1.89200 10.94100 29.35100
C  3.18300 10.91700 30.12600
O  4.25000 10.47600 29.70600
O  3.04500 11.48300 31.31000
C  4.28500 11.39700 32.06600
H  2.19200 4.06400 28.63400
H  0.69500 4.94200 22.34700
H  1.93900 11.13200 22.86000
H  3.02500 8.17200 30.66400
H  1.49200 5.72800 30.60900
H  4.22600 6.18700 31.04900
H  4.16900 5.28200 29.60600
H  3.29600 4.67100 31.03300
H  0.15600 7.36500 31.34900
H  0.12700 8.80800 30.53700
H  0.15900 8.92900 33.10700
H  1.50600 9.81700 32.37800
H  2.77000 1.41300 26.00700
H  1.19500 1.41200 26.81900
H  2.48300 2.27900 27.62400
H  0.13300 0.61400 24.42300
H  1.95900 0.68200 24.20400
H  1.04600 0.20000 22.88000
H  -0.21500 7.33000 21.30800
H  2.14900 9.21200 20.92800
H  2.57600 7.08800 20.14400
H  1.02900 6.27500 19.54300
H  1.96200 5.63300 20.76200
H  -0.31900 10.45100 21.78700
H  -0.79300 9.22800 20.71500
H  0.23700 10.41000 18.84700
H  1.39100 11.10300 19.94000
H  -0.35500 11.72300 19.94500
H  3.03100 13.26000 24.53000
H  1.84300 14.08800 25.64700
H  1.31400 13.31900 24.14100
H  0.98700 11.05500 29.94800
H  4.18500 12.14700 32.85100
H  5.15300 11.79600 31.54200
H  4.51900 10.36100 32.31400
Mg 35.91300 1.13400 29.50400
C  33.46400 1.97100 31.79200
C  38.28000 1.15300 31.69800
C  38.25400 0.92900 26.97300
C  33.38100 1.46600 26.91700
N  35.83500 1.66700 31.51500
C  34.73100 1.82700 32.32300
C  35.20300 1.97900 33.84900
C  36.77800 1.92500 33.69100
C  36.97400 1.48600 32.24400
C  37.54000 3.19100 34.07400
C  34.64900 0.79100 34.77200
C  34.18000 1.24200 36.12000
H  34.96000 2.33400 36.83200
N  37.99900 0.91500 29.38000
C  38.79100 0.85100 30.43700
C  40.07200 0.36900 30.07000
C  40.04500 0.34000 28.63000
C  38.75700 0.74500 28.25000
C  41.12100 -0.13300 31.07200
C  41.15900 -0.05700 27.70600
O  41.02100 -0.10700 26.50100
C  42.54100 -0.51000 28.25200
N  35.84500 1.44100 27.20700
C  36.97100 1.11800 26.47500
C  36.64400 1.28100 24.99500
C  35.08000 1.34000 24.96400
C  34.69300 1.47400 26.42600
C  37.31100 2.52200 24.21500
C  34.33800 0.25000 24.15600
C  34.24600 -1.12700 24.96300
N  33.86700 1.61600 29.37600
C  33.00200 1.64100 28.30700
C  31.66400 1.93700 28.73300
C  31.78600 2.12700 30.11600
C  33.16600 1.88100 30.42900
C  30.50300 2.04700 27.88200
C  31.08800 2.59300 31.29700
O  29.91100 2.96200 31.57900
C  32.20200 2.40700 32.41400
C  32.41500 3.70600 33.10400
O  32.97200 4.72200 32.65300
O  31.77100 3.71600 34.30700
C  31.90600 4.89000 35.19500
H  39.05800 1.10700 32.46400
H  39.04300 0.74600 26.24000
H  32.58400 1.58500 26.18000
H  34.81800 2.89400 34.30100
H  37.09200 1.09100 34.31900
H  38.21000 3.53300 33.28600
H  38.01300 3.17300 35.05600
H  36.84500 4.01900 34.21600
H  35.26400 -0.07600 35.01500
H  33.84000 0.40700 34.15000
H  34.14800 0.42600 36.84100
H  33.14500 1.58200 36.09500
H  41.94200 0.58200 31.13200
H  41.58800 -1.09600 30.86400
H  40.68100 -0.17800 32.06800
H  43.29800 -0.68200 27.48700
H  42.40300 -1.51200 28.65600
H  42.82300 0.18500 29.04300
H  37.08600 0.40600 24.51800
H  34.69700 2.30000 24.61900
H  37.66700 3.30800 24.88100
H  36.69800 3.05400 23.48800
H  38.11200 2.11500 23.59800
H  34.89900 0.14800 23.22700
H  33.32400 0.62000 24.00100
H  33.55500 -0.88600 25.77100
H  35.18500 -1.44700 25.41600
H  33.77600 -1.91600 24.37600
H  30.54700 2.80800 27.10300
H  29.64100 2.30500 28.49800
H  30.32000 1.06700 27.44100
H  31.80400 1.63400 33.07300
H  32.84600 5.44200 35.20600
H  31.92200 4.42200 36.17900
H  31.13100 5.65000 35.10500

