158

Mg 51.09600 47.04100 42.06700
C  47.86400 48.23400 41.16700
C  50.17000 44.07500 40.73900
C  54.22600 46.13700 42.67600
C  51.84500 50.17600 43.40400
N  49.19800 46.29500 41.08800
C  48.05300 46.94600 40.77100
C  47.09500 46.10100 39.94600
C  47.80500 44.70600 39.97800
C  49.14400 45.05900 40.64800
C  47.05100 43.64600 40.86100
C  46.85500 46.75700 38.52900
C  45.33900 46.85600 38.41000
H  44.69500 46.15100 37.09500
N  52.08500 45.33800 41.72100
C  51.48400 44.19700 41.15200
C  52.51000 43.14500 41.08500
C  53.72400 43.72200 41.61500
C  53.38800 45.09700 42.08800
C  52.30200 41.75400 40.53600
C  55.05500 42.98900 41.72900
O  55.12300 41.84800 41.25100
C  56.20500 43.61700 42.44800
N  52.84900 48.09900 42.84300
C  54.02500 47.49000 42.96100
C  55.05100 48.37800 43.58400
C  54.29300 49.71500 43.77700
C  52.91600 49.33300 43.28500
C  55.76000 47.75000 44.84400
C  54.90400 50.88100 42.93800
C  54.41300 52.35200 43.36600
N  50.12500 48.88100 42.28600
C  50.52100 50.05300 42.88700
C  49.48800 51.06300 42.90000
C  48.41200 50.32100 42.22800
C  48.87000 49.05700 41.85600
C  49.42700 52.45600 43.42200
C  47.05000 50.49500 41.66100
O  46.27700 51.42800 41.69400
C  46.63400 49.12600 40.97900
C  45.47200 48.70900 41.76000
O  45.41900 48.18500 42.85800
O  44.37500 48.92700 40.99600
C  43.10500 48.39400 41.53000
H  49.71800 43.14100 40.39700
H  55.26900 45.90900 42.90600
H  52.02600 51.21600 43.68600
H  46.25500 45.98200 40.63000
H  47.95000 44.35400 38.95600
H  46.71100 42.84400 40.20600
H  46.14900 43.98700 41.37100
H  47.77800 43.28000 41.58600
H  47.31900 46.10400 37.78900
H  47.40900 47.68700 38.39800
H  45.06900 47.90400 38.27700
H  44.78900 46.50500 39.28300
H  53.13200 41.34400 39.96100
H  51.38800 41.82500 39.94600
H  52.15300 41.02400 41.33200
H  57.06200 42.96400 42.60900
H  55.87600 43.77900 43.47400
H  56.53200 44.51700 41.92700
H  55.72600 48.62700 42.76500
H  54.34000 50.01800 44.82300
H  55.47600 46.72400 45.08000
H  55.60400 48.42400 45.68600
H  56.83200 47.72000 44.64600
H  54.53800 50.65600 41.93600
H  55.96900 50.78100 42.72900
H  55.24800 52.98400 43.66600
H  53.78800 52.40600 44.25800
H  53.72500 52.69500 42.59400
H  49.47300 53.09000 42.53600
H  50.34800 52.51700 44.00000
H  48.51700 52.70000 43.97000
H  46.53200 49.25500 39.90100
H  43.06000 48.37900 42.61900
H  42.92200 47.36500 41.22000
H  42.29700 49.01700 41.14600
Mg 27.23900 51.02400 26.73100
C  25.31100 51.97600 29.42200
C  29.60200 49.75800 28.93500
C  29.00800 50.14000 23.99500
C  25.13300 52.98400 24.46300
N  27.53600 51.17500 29.10500
C  26.51000 51.37100 29.94100
C  26.96600 50.95800 31.40000
C  28.52200 50.54800 31.16800
C  28.59400 50.53600 29.64700
C  29.56600 51.49600 31.74400
C  26.07400 49.88900 32.14600
C  24.92400 50.31500 33.12600
H  24.59500 49.50600 34.42100
N  29.05200 50.00000 26.49300
C  29.87300 49.48000 27.51500
C  30.91400 48.65300 26.91400
C  30.76700 48.74400 25.50400
C  29.54400 49.62800 25.24100
C  31.94700 47.91600 27.70700
C  31.53600 48.05000 24.40700
O  31.25400 48.20600 23.23300
C  32.65800 47.10100 24.78100
N  27.03800 51.39500 24.58100
C  27.94100 50.95200 23.69800
C  27.58700 51.26300 22.19300
C  26.36300 52.15700 22.31300
C  26.18400 52.25000 23.89700
C  28.72500 51.79700 21.18300
C  25.03400 51.57900 21.54400
C  24.02900 52.66800 21.00500
N  25.61900 52.30600 26.86600
C  24.86700 53.04800 25.89300
C  23.78400 53.77200 26.54500
C  23.96400 53.37000 27.90700
C  25.03000 52.42600 28.06100
C  22.83000 54.74600 25.89800
C  23.43500 53.57900 29.16100
O  22.45700 54.23300 29.50400
C  24.15900 52.61000 30.24800
C  24.76600 53.41700 31.36800
O  25.80000 54.13000 31.33200
O  23.91500 53.29900 32.48900
C  24.18500 54.35200 33.42100
H  30.26200 49.23200 29.62800
H  29.51700 49.85500 23.07200
H  24.53800 53.48900 23.69900
H  27.07100 51.80800 32.07400
H  28.76800 49.53200 31.47900
H  29.95300 51.12200 32.69200
H  29.04600 52.43300 31.94400
H  30.29600 51.79800 30.99400
H  26.70100 49.17000 32.67200
H  25.59000 49.35000 31.33100
H  23.97300 50.19800 32.60700
H  25.13000 51.34800 33.40500
H  32.11400 46.92700 27.28100
H  31.75600 47.74800 28.76700
H  32.87900 48.48000 27.75900
H  33.28500 47.56600 25.54200
H  33.12500 46.74400 23.86300
H  32.16000 46.19700 25.13300
H  27.19800 50.31800 21.81400
H  26.54100 53.10700 21.80900
H  29.64000 51.97300 21.74900
H  28.48500 52.75400 20.72100
H  28.73700 51.12000 20.32900
H  24.59200 50.89100 22.26500
H  25.34200 50.99400 20.67800
H  23.55300 52.34300 20.08000
H  24.37300 53.69700 20.90400
H  23.21300 52.59500 21.72400
H  23.45400 55.28700 25.18700
H  22.54900 55.50900 26.62500
H  21.97800 54.27100 25.41100
H  23.59400 51.76400 30.64100
H  24.22500 55.28100 32.85400
H  25.14300 54.21500 33.92300
H  23.38200 54.38700 34.15700

