158

Mg 40.00700 10.32600 29.27900
C  42.16500 11.46800 31.82800
C  38.06200 8.97500 31.58600
C  38.20100 9.35600 26.72900
C  42.68800 11.06300 26.94100
N  40.08000 10.33900 31.51100
C  40.96700 10.96100 32.31400
C  40.39800 10.93400 33.72900
C  39.08400 10.03700 33.63200
C  39.06400 9.72900 32.21400
C  39.13000 8.75800 34.46100
C  39.86200 12.36300 34.09100
C  39.25400 12.49100 35.48800
H  40.13200 13.04600 36.65000
N  38.23800 9.39700 29.15900
C  37.60100 8.81700 30.24400
C  36.46300 8.15100 29.78100
C  36.45700 8.17700 28.31400
C  37.65100 9.00000 28.00000
C  35.61600 7.45500 30.69600
C  35.49400 7.53400 27.33600
O  35.76200 7.51100 26.13400
C  34.29800 6.86700 27.79000
N  40.44800 10.15800 27.11800
C  39.48700 9.85700 26.35500
C  39.92400 9.75200 24.85700
C  41.34300 10.48200 24.90300
C  41.52400 10.53700 26.47000
C  39.89600 8.35600 24.21800
C  41.42100 11.96400 24.33300
C  40.85600 13.11300 25.19000
N  42.00400 11.09900 29.30400
C  42.97200 11.34200 28.27500
C  44.11700 11.83700 28.86200
C  43.81700 11.99600 30.21100
C  42.56700 11.45800 30.48300
C  45.30500 12.29000 28.19600
C  44.46300 12.41600 31.46500
O  45.53300 12.88000 31.75400
C  43.34100 12.12000 32.51400
C  43.87800 11.34600 33.67100
O  44.10300 10.11700 33.64800
O  43.74100 12.02300 34.82800
C  44.14700 11.25900 36.01500
H  37.45100 8.43500 32.31200
H  37.63200 8.96500 25.88200
H  43.45000 11.40100 26.23700
H  41.17000 10.67600 34.45400
H  38.10700 10.50400 33.75900
H  40.09700 8.71200 34.96300
H  38.97500 7.89900 33.80900
H  38.33500 8.77800 35.20600
H  39.15900 12.71100 33.33400
H  40.75900 12.98300 34.11300
H  38.59400 11.64500 35.67700
H  38.50100 13.26700 35.35300
H  34.63400 7.31200 30.24600
H  35.50900 7.97300 31.64900
H  35.90300 6.41700 30.86300
H  33.84700 6.24400 27.01800
H  33.53600 7.59600 28.06600
H  34.58100 6.26000 28.64900
H  39.20400 10.34400 24.29200
H  42.20700 9.87300 24.64000
H  40.92900 8.09500 23.99000
H  39.38100 8.44600 23.26100
H  39.27100 7.65800 24.77500
H  40.87400 11.94100 23.39000
H  42.42400 12.34900 24.15400
H  41.78100 13.42600 25.67400
H  40.13700 12.82700 25.95800
H  40.50000 13.86700 24.48800
H  45.11100 12.75100 27.22700
H  45.98600 11.44700 28.08600
H  45.79400 13.06700 28.78400
H  43.08400 13.13000 32.83300
H  43.33000 10.58700 36.28100
H  44.35800 11.96400 36.81900
H  45.07700 10.71500 35.85400
Mg 49.68300 35.38700 26.68100
C  47.61000 34.16400 29.28400
C  50.06400 38.24600 28.60700
C  51.21700 36.85600 24.06900
C  48.92900 32.56900 24.80100
N  48.92200 36.11000 28.68300
C  48.22000 35.37400 29.57700
C  48.26200 35.99000 30.88200
C  48.67800 37.44600 30.60000
C  49.24000 37.32800 29.15300
C  47.50100 38.49500 30.77900
C  49.28400 35.30500 31.79600
C  49.14600 35.42100 33.29600
H  47.95500 36.19500 33.89800
N  50.53900 37.30300 26.38400
C  50.65400 38.28200 27.30200
C  51.38700 39.37200 26.75100
C  51.88600 38.90100 25.45800
C  51.19800 37.59400 25.25400
C  51.77700 40.48200 27.56500
C  52.76700 39.54600 24.42700
O  53.15100 38.94600 23.41500
C  53.30900 40.98600 24.62700
N  49.85700 34.85900 24.63300
C  50.72600 35.58900 23.78900
C  51.00700 34.73800 22.51400
C  50.42500 33.31300 22.92700
C  49.65200 33.62400 24.17800
C  50.31500 35.39500 21.21400
C  51.45100 32.07700 22.92400
C  50.96700 30.76500 22.19700
N  48.58400 33.70000 27.00300
C  48.32000 32.60000 26.12900
C  47.55500 31.59200 26.73700
C  47.21800 32.14000 27.95900
C  47.84600 33.40900 28.05400
C  47.08900 30.27400 26.17800
C  46.44700 31.86400 29.19200
O  45.80200 30.86200 29.56800
C  46.57800 33.24800 30.01900
C  47.06100 32.82800 31.38200
O  48.08300 32.26300 31.57500
O  46.09300 32.86000 32.36100
C  46.41600 32.23400 33.66600
H  50.22800 39.04700 29.33100
H  51.61000 37.35200 23.17900
H  48.80900 31.67100 24.19200
H  47.24600 35.89400 31.26700
H  49.54400 37.68300 31.21800
H  47.23000 38.86200 29.78900
H  47.74000 39.37400 31.37700
H  46.66500 37.99600 31.26900
H  50.27400 35.69500 31.55900
H  49.33300 34.25100 31.52500
H  50.05600 35.93300 33.60900
H  49.08600 34.43100 33.74600
H  51.62900 40.38400 28.64000
H  51.24100 41.36000 27.20500
H  52.85100 40.56600 27.39400
H  52.59400 41.61500 25.15700
H  53.49700 41.26300 23.58900
H  54.27100 40.99000 25.14000
H  52.07000 34.61500 22.30600
H  49.74900 33.06600 22.10800
H  49.72000 36.24400 21.54900
H  49.68200 34.67300 20.69800
H  51.04600 35.88600 20.57200
H  51.59500 31.81200 23.97100
H  52.36200 32.49000 22.49200
H  49.93100 30.85700 21.87100
H  51.04600 29.92200 22.88300
H  51.55800 30.52400 21.31300
H  47.69600 29.38300 26.33400
H  46.78100 30.46400 25.15000
H  46.18400 30.00300 26.72300
H  45.65100 33.80600 30.15000
H  45.82600 32.57400 34.51700
H  47.46600 32.26800 33.95500
H  46.28600 31.17000 33.46900

