158

Mg 0.59300 8.68700 27.08400
C  1.51200 10.72200 29.83200
C  1.34500 5.89200 29.16300
C  0.18400 6.63600 24.41500
C  0.89300 11.47100 24.96000
N  1.59200 8.39200 29.16900
C  1.61400 9.37600 30.14000
C  1.63900 8.73200 31.50400
C  1.89600 7.23800 31.21200
C  1.70400 7.12100 29.73600
C  3.21100 6.56900 31.73100
C  0.25400 8.86800 32.26500
C  0.21700 8.81400 33.81600
H  1.44300 8.19700 34.63100
N  0.58800 6.54100 26.86700
C  0.88200 5.62700 27.85400
C  0.72800 4.33700 27.20100
C  0.27400 4.55200 25.89500
C  0.29100 5.95500 25.68800
C  1.12300 3.12200 27.93900
C  -0.16500 3.53200 24.83100
O  -0.58800 3.82100 23.70500
C  0.09900 2.08200 25.20300
N  0.56700 9.03000 24.90300
C  0.32000 8.06100 24.02200
C  0.39100 8.63600 22.58200
C  0.18000 10.13000 22.89600
C  0.65400 10.24100 24.32100
C  1.70900 8.26800 21.91400
C  -1.32100 10.45100 22.78400
C  -1.75800 11.88700 22.58400
N  0.98900 10.69600 27.25300
C  1.17000 11.74100 26.34100
C  1.53000 12.94000 27.02400
C  1.56500 12.58900 28.42900
C  1.26700 11.22100 28.52300
C  1.74900 14.29700 26.41800
C  1.82500 13.14900 29.70900
O  2.15100 14.28100 30.08600
C  1.66100 11.95600 30.65600
C  2.71400 11.96100 31.67400
O  3.94500 12.13200 31.40900
O  2.27400 11.91600 32.95700
C  3.28200 12.28300 33.99800
H  1.35600 5.06100 29.87100
H  0.04900 6.02400 23.52000
H  0.88200 12.34900 24.31100
H  2.43100 9.20400 32.08500
H  1.10900 6.65400 31.69000
H  3.60800 7.06000 32.62000
H  3.93200 6.61800 30.91500
H  2.94900 5.56500 32.06500
H  -0.43200 8.09600 31.91600
H  -0.26600 9.74300 31.87500
H  -0.63900 8.24400 34.17700
H  0.06300 9.81700 34.21300
H  1.60000 3.38800 28.88200
H  1.74400 2.45000 27.34600
H  0.13900 2.70300 28.14900
H  -0.32000 1.70300 26.13500
H  1.18800 2.05500 25.23600
H  -0.17900 1.46800 24.34600
H  -0.40100 8.13900 22.02200
H  0.82500 10.79700 22.32500
H  1.44700 7.93400 20.91100
H  2.11700 7.43600 22.48800
H  2.32400 9.16600 21.85100
H  -1.94300 10.17300 23.63500
H  -1.68000 9.92000 21.90200
H  -0.88700 12.54200 22.58700
H  -2.34100 12.17700 23.45800
H  -2.49900 12.07900 21.80800
H  1.68700 14.25500 25.33100
H  2.66000 14.72400 26.83800
H  1.00300 14.94900 26.87200
H  0.69600 11.94300 31.16300
H  3.32800 13.37200 34.00900
H  4.30000 11.93100 33.83400
H  3.00600 11.91700 34.98700
Mg 48.65300 15.85600 29.34000
C  46.38900 15.30300 31.92400
C  50.83000 17.23300 31.59800
C  50.77500 16.29100 26.71400
C  46.30200 14.44200 27.12100
N  48.54100 16.30200 31.57300
C  47.60000 15.84000 32.42100
C  48.10200 15.99400 33.86500
C  49.34100 16.94500 33.71300
C  49.67300 16.76600 32.19100
C  49.18100 18.41500 34.16300
C  48.50500 14.60500 34.45400
C  48.36100 14.26300 36.00700
H  48.08200 15.52200 36.84300
N  50.53200 16.65600 29.18700
C  51.23300 17.21900 30.20100
C  52.43200 17.70100 29.63600
C  52.48800 17.38900 28.25700
C  51.19500 16.82000 27.98400
C  53.45000 18.47600 30.46700
C  53.50500 17.77400 27.14900
O  53.26500 17.68100 25.91100
C  54.83100 18.25600 27.61400
N  48.53100 15.38800 27.15100
C  49.47300 15.81200 26.31900
C  49.11300 15.54900 24.83400
C  47.77400 14.77100 25.02900
C  47.49500 14.86200 26.48900
C  48.92400 16.85600 24.07900
C  47.79700 13.24000 24.66000
C  47.00600 12.71600 23.48200
N  46.69900 15.21600 29.41100
C  45.85400 14.63100 28.45500
C  44.62000 14.18700 29.01000
C  44.84100 14.42700 30.39200
C  46.04900 15.13900 30.56700
C  43.56300 13.29400 28.28900
C  44.27000 14.26500 31.72400
O  43.28500 13.63600 32.04600
C  45.22000 14.84100 32.75400
C  44.44200 15.78500 33.60600
O  44.26300 16.92600 33.26800
O  44.16800 15.20700 34.80900
C  43.40200 16.07200 35.76900
H  51.55100 17.67100 32.29200
H  51.41200 16.32000 25.82800
H  45.58600 14.03700 26.40300
H  47.28700 16.43200 34.44100
H  50.24600 16.65000 34.24500
H  49.63900 19.18100 33.53700
H  49.69300 18.52300 35.11900
H  48.13400 18.70300 34.25900
H  49.54400 14.48300 34.14700
H  47.93700 13.90400 33.84300
H  49.27900 13.72800 36.25000
H  47.51800 13.58100 36.11900
H  53.99900 19.19500 29.85800
H  54.09900 17.73800 30.93900
H  52.86100 19.05400 31.17900
H  54.62400 19.32100 27.72200
H  55.62400 18.04500 26.89600
H  55.01200 17.72400 28.54700
H  49.81200 14.95300 24.24700
H  46.95700 15.16700 24.42700
H  49.13700 16.59300 23.04300
H  49.53900 17.68400 24.43400
H  47.90500 17.23600 24.15000
H  47.47300 12.61200 25.49000
H  48.84200 12.97900 24.49200
H  46.85700 13.55300 22.79900
H  45.98700 12.43000 23.74400
H  47.50900 11.88200 22.99300
H  42.92200 13.93300 27.68200
H  42.96300 12.68100 28.96100
H  44.04400 12.61300 27.58700
H  45.59600 14.01300 33.35500
H  42.39600 15.65300 35.76700
H  43.35800 17.14000 35.55200
H  43.92600 16.08700 36.72500

