158

Mg 35.24700 0.44800 29.43300
C  33.05900 1.52200 31.68900
C  37.79300 0.62400 31.83800
C  37.71200 -0.09600 27.03300
C  32.88600 0.70500 26.90100
N  35.46000 1.06400 31.48100
C  34.35700 1.50100 32.19900
C  34.72400 1.68600 33.73800
C  36.34500 1.63900 33.65000
C  36.56200 1.04000 32.30300
C  37.10900 2.99200 33.88400
C  34.11400 0.62700 34.69900
C  33.97300 1.04900 36.10200
H  35.05900 2.03000 36.74500
N  37.39600 0.09300 29.43000
C  38.19500 0.13900 30.57200
C  39.55100 -0.26700 30.21700
C  39.54800 -0.44900 28.79600
C  38.18800 -0.07200 28.35600
C  40.73800 -0.40600 31.18000
C  40.79900 -0.80800 27.86200
O  40.83000 -0.77700 26.63000
C  42.05000 -1.21500 28.49800
N  35.28000 0.31700 27.23900
C  36.40100 0.06900 26.50300
C  36.09700 0.06000 25.01900
C  34.51300 0.17500 24.91500
C  34.16600 0.43400 26.42000
C  36.80100 1.39400 24.44400
C  33.79200 -1.15500 24.58400
C  32.40700 -1.02000 23.87600
N  33.29600 0.97100 29.25100
C  32.41400 0.96500 28.18500
C  31.05700 1.18800 28.64900
C  31.25400 1.52500 30.04000
C  32.67200 1.33400 30.33600
C  29.77900 1.22800 27.79200
C  30.69200 1.94400 31.29900
O  29.50400 2.14700 31.61100
C  31.79100 1.86600 32.38800
C  31.77600 3.24400 33.02800
O  31.62700 4.34500 32.53200
O  31.93700 3.14000 34.36500
C  31.97700 4.39100 35.19400
H  38.58600 0.62400 32.58800
H  38.41100 -0.25100 26.20900
H  32.25600 0.81300 26.01600
H  34.46200 2.71900 33.96600
H  36.78800 0.95900 34.37700
H  37.93300 2.81300 34.57500
H  36.42900 3.75500 34.26300
H  37.62400 3.35600 32.99500
H  34.68200 -0.29700 34.59300
H  33.17700 0.26900 34.27300
H  34.10700 0.11100 36.64100
H  32.96200 1.44200 36.20600
H  41.47300 0.38400 31.02500
H  41.14500 -1.39600 30.97000
H  40.44300 -0.48900 32.22600
H  41.80300 -1.93800 29.27600
H  42.27900 -0.38000 29.16000
H  42.84500 -1.54500 27.82900
H  36.50400 -0.88400 24.65600
H  34.22600 0.94900 24.20300
H  37.51700 1.84500 25.13000
H  36.07500 2.16500 24.18600
H  37.33400 1.11400 23.53500
H  33.59100 -1.78200 25.45300
H  34.52800 -1.73800 24.03100
H  31.62900 -1.54700 24.42800
H  32.67200 -1.46800 22.91800
H  32.13900 0.03700 23.85700
H  30.04400 0.62800 26.92200
H  29.29400 2.19000 27.62600
H  28.97500 0.70900 28.31300
H  31.42900 1.04400 33.00600
H  30.98600 4.84100 35.12500
H  32.74000 5.04500 34.77400
H  32.27400 4.29100 36.23800
Mg 26.36900 50.66100 26.51600
C  24.00300 51.55000 28.95900
C  28.56500 50.01900 29.06300
C  28.57600 49.68600 24.12100
C  24.25400 51.75400 24.06100
N  26.20500 50.68300 28.71800
C  25.22400 51.04800 29.48500
C  25.35100 50.70800 30.91400
C  26.85500 50.38700 30.97700
C  27.25600 50.42400 29.49800
C  27.65400 51.45400 31.76500
C  24.39700 49.57500 31.50700
C  23.87800 49.71000 32.89900
H  24.54100 50.73300 33.79700
N  28.36600 49.96500 26.54700
C  29.04000 49.69400 27.71500
C  30.31200 49.06400 27.32000
C  30.29200 48.91200 25.96100
C  29.04900 49.52100 25.44300
C  31.33800 48.58600 28.35500
C  31.38300 48.29900 25.11100
O  31.29500 48.31700 23.87500
C  32.66600 47.80800 25.75700
N  26.35500 50.76200 24.44200
C  27.33300 50.14200 23.70200
C  26.97300 49.97000 22.24600
C  25.48200 50.63400 22.10900
C  25.27100 51.01000 23.64600
C  27.92000 50.57100 21.21500
C  24.43900 49.59400 21.67300
C  23.35800 50.21200 20.81300
N  24.52600 51.55100 26.44400
C  23.81200 51.98700 25.39300
C  22.50500 52.56400 25.83700
C  22.56900 52.39100 27.27200
C  23.84800 51.76900 27.56800
C  21.41300 52.86100 25.03500
C  21.80700 52.64000 28.47000
O  20.71500 53.14700 28.69200
C  22.76900 52.17200 29.57700
C  23.11000 53.39700 30.43400
O  23.87400 54.27500 30.19200
O  22.49900 53.21500 31.59000
C  22.28000 54.39000 32.46400
H  29.23500 49.58000 29.80500
H  29.14600 49.20800 23.32200
H  23.62100 52.03400 23.21600
H  25.14900 51.64400 31.43400
H  26.96400 49.35100 31.29900
H  28.23100 52.11400 31.11700
H  28.33500 51.00400 32.48800
H  27.07100 52.02000 32.49200
H  24.82700 48.57500 31.45600
H  23.53800 49.48500 30.84100
H  23.93500 48.74300 33.39900
H  22.81700 49.94900 32.83300
H  31.25000 47.50400 28.25400
H  31.11500 48.79100 29.40200
H  32.24600 49.14100 28.12200
H  33.37100 47.36000 25.05700
H  32.46400 47.05500 26.51900
H  33.10400 48.71600 26.17100
H  26.83600 48.92600 21.96300
H  25.46700 51.47600 21.41700
H  28.85300 50.93700 21.64200
H  27.61400 51.43100 20.62000
H  28.17300 49.77900 20.51000
H  23.98900 49.06100 22.51000
H  24.91500 48.77400 21.13400
H  22.32400 49.91000 20.97900
H  23.61800 49.99800 19.77600
H  23.37500 51.29900 20.89800
H  20.60700 52.13500 25.14500
H  21.68900 52.83400 23.98100
H  21.09800 53.86300 25.32500
H  22.30100 51.37300 30.15300
H  22.61100 55.23300 31.85800
H  22.83800 54.40000 33.40100
H  21.22300 54.53600 32.68700

