158

Mg 7.81200 53.56400 40.38000
C  7.07000 50.14400 39.96000
C  11.02800 52.99400 39.68800
C  8.06200 56.89100 39.93700
C  4.36900 54.09300 41.07700
N  8.86900 51.72800 39.86000
C  8.43500 50.46300 39.70700
C  9.63000 49.52100 39.41300
C  10.89100 50.45100 39.87100
C  10.24300 51.82800 39.78200
C  11.25000 50.08800 41.35900
C  9.87300 48.92000 38.01400
C  9.79600 50.03100 36.87000
H  8.42300 50.21100 36.15500
N  9.30900 54.74700 39.86000
C  10.65200 54.35400 39.72500
C  11.48000 55.52700 39.58300
C  10.58900 56.68700 39.69600
C  9.23300 56.16000 39.85300
C  13.02300 55.37700 39.37700
C  10.99800 58.11500 39.61400
O  12.19600 58.32700 39.42800
C  10.08500 59.32900 39.74100
N  6.33300 55.28800 40.32600
C  6.70200 56.57600 40.13400
C  5.53000 57.54100 40.34800
C  4.39200 56.54700 40.80200
C  5.08200 55.24700 40.73300
C  5.82300 58.72800 41.35400
C  3.09800 56.61500 39.86400
C  1.85100 57.33400 40.37300
N  6.11100 52.41000 40.60200
C  4.82800 52.78000 40.86400
C  4.04000 51.66000 40.90800
C  4.85500 50.54100 40.55000
C  6.14300 51.09700 40.38900
C  2.59400 51.61800 41.14900
C  4.84700 49.09300 40.30100
O  3.95100 48.26800 40.37600
C  6.40500 48.84700 39.90400
C  6.34500 48.15800 38.60400
O  5.78800 48.45700 37.56600
O  6.85400 46.86100 38.82100
C  6.94400 45.97600 37.68400
H  12.09100 52.81800 39.51200
H  8.18800 57.97100 39.83500
H  3.33800 54.34800 41.33000
H  9.57900 48.64500 40.05900
H  11.70400 50.35700 39.15200
H  10.90500 50.87100 42.03400
H  12.33600 50.17700 41.33200
H  10.91300 49.10200 41.67700
H  8.98400 48.29000 37.96200
H  10.87800 48.50100 37.96900
H  10.44000 49.59300 36.10800
H  10.15700 51.02800 37.12400
H  13.54900 56.28600 39.66900
H  13.20700 55.19700 38.31800
H  13.41300 54.61000 40.04600
H  9.39800 59.33000 38.89400
H  10.71700 60.20900 39.62700
H  9.61100 59.37800 40.72200
H  5.26800 57.88400 39.34700
H  4.26300 56.77500 41.86000
H  6.80800 58.64000 41.81200
H  5.11200 58.85800 42.17000
H  5.99500 59.66500 40.82500
H  2.77200 55.59500 39.66300
H  3.40400 56.91100 38.86000
H  1.53000 57.10000 41.38800
H  1.03800 57.17900 39.66300
H  2.11000 58.39300 40.40700
H  2.19900 52.34400 41.86000
H  2.30000 50.68900 41.63700
H  2.10200 51.73800 40.18400
H  6.77900 48.09700 40.60100
H  7.59900 45.14000 37.93000
H  7.39100 46.58900 36.90200
H  5.93000 45.64900 37.45300
Mg -11.13200 16.24700 42.45000
C  -7.83200 17.31800 42.33300
C  -12.10200 19.65200 42.24100
C  -14.41600 15.42100 42.29900
C  -10.24500 12.95500 42.60600
N  -10.05800 18.23000 41.93800
C  -8.75900 18.37900 42.10400
C  -8.37800 19.90900 42.01100
C  -9.72300 20.52800 42.39000
C  -10.73200 19.44100 42.11200
C  -9.76900 21.31700 43.74400
C  -7.86700 20.28600 40.57500
C  -6.31700 20.57900 40.22800
H  -5.53500 19.54600 39.38300
N  -13.04200 17.34300 42.20800
C  -13.20600 18.73100 42.22900
C  -14.58300 19.01600 42.25400
C  -15.26500 17.83000 42.14000
C  -14.26200 16.74600 42.28600
C  -15.12400 20.44700 42.40500
C  -16.73800 17.70100 42.11000
O  -17.46900 18.70900 42.14400
C  -17.41400 16.34200 41.91800
N  -12.13400 14.45600 42.32100
C  -13.52900 14.39100 42.33400
C  -13.89600 12.91900 42.50100
C  -12.63100 12.16900 42.11900
C  -11.60100 13.23000 42.30200
C  -14.37100 12.65300 43.95300
C  -12.65100 11.54800 40.71600
C  -12.88600 10.02800 40.89100
N  -9.37200 15.31700 42.47500
C  -9.15900 13.96900 42.64300
C  -7.68800 13.72100 42.84700
C  -7.14100 15.03900 42.73600
C  -8.22300 15.94300 42.54900
C  -7.09500 12.37100 42.83500
C  -5.88300 15.85000 42.72500
O  -4.71900 15.55400 42.98100
C  -6.35300 17.29100 42.70400
C  -6.18900 17.81700 44.03700
O  -6.29000 17.20800 45.07900
O  -5.84600 19.12800 43.98600
C  -5.10500 19.62900 45.18700
H  -12.39300 20.67500 42.48600
H  -15.40200 14.96600 42.18400
H  -9.90300 11.95000 42.86500
H  -7.70900 20.13700 42.84100
H  -9.98900 21.35600 41.73200
H  -8.81600 21.47200 44.24900
H  -10.35100 20.71500 44.44200
H  -10.42900 22.18400 43.70700
H  -8.37900 21.21100 40.31000
H  -8.29000 19.53500 39.90900
H  -5.78700 20.53000 41.17900
H  -6.27500 21.50800 39.66000
H  -15.87200 20.63700 41.63500
H  -14.34900 21.19600 42.24600
H  -15.59500 20.53600 43.38400
H  -18.46300 16.38900 41.62700
H  -17.50800 15.78700 42.85100
H  -16.86100 15.85500 41.11500
H  -14.74400 12.72300 41.84500
H  -12.42200 11.43500 42.89800
H  -15.38300 12.24600 43.96700
H  -14.24200 13.53800 44.57500
H  -13.80200 11.84900 44.41800
H  -11.67900 11.67600 40.23900
H  -13.42000 12.07200 40.14900
H  -11.97000 9.56000 40.53100
H  -13.73900 9.68700 40.30300
H  -12.91400 9.61600 41.90000
H  -6.92200 12.09500 41.79500
H  -7.82300 11.71600 43.31300
H  -6.17200 12.53300 43.39100
H  -5.79500 17.90400 41.99600
H  -4.51900 18.78100 45.54000
H  -5.79800 19.93500 45.97100
H  -4.52600 20.52300 44.95300

