158

Mg 24.01000 -5.82300 45.63100
C  26.19400 -3.43700 44.30800
C  21.47800 -4.32400 43.80700
C  22.03700 -8.45400 46.39600
C  26.88900 -7.62000 46.83500
N  23.94700 -4.28200 44.07200
C  24.96700 -3.43900 43.70000
C  24.51300 -2.40800 42.71900
C  22.93200 -2.49200 42.81800
C  22.77400 -3.80000 43.54400
C  22.12700 -1.30000 43.58800
C  25.17900 -2.70400 41.29100
C  25.76300 -1.45400 40.59500
H  25.78000 -1.49100 39.00500
N  22.00400 -6.31800 45.28300
C  21.15100 -5.45600 44.58400
C  19.82300 -6.15500 44.64600
C  19.95400 -7.41200 45.29300
C  21.34200 -7.45300 45.73700
C  18.57200 -5.57100 43.97500
C  18.77200 -8.30300 45.64300
O  17.59700 -8.06500 45.37400
C  19.00400 -9.54500 46.43300
N  24.40600 -7.72800 46.57700
C  23.34700 -8.55200 46.87500
C  23.85000 -9.84300 47.47500
C  25.40000 -9.57600 47.68500
C  25.57400 -8.23000 47.02000
C  22.99500 -10.29500 48.73000
C  26.35700 -10.65100 47.05700
C  25.98000 -12.17800 47.23300
N  26.05200 -5.52300 45.83500
C  27.06900 -6.31500 46.29300
C  28.30100 -5.62900 46.05700
C  28.00600 -4.44800 45.30400
C  26.64200 -4.43700 45.15800
C  29.64600 -6.08700 46.57500
C  28.54700 -3.30000 44.58800
O  29.72700 -3.06100 44.43600
C  27.39200 -2.54600 43.96000
C  27.27900 -1.16900 44.50900
O  26.39400 -0.75900 45.26200
O  28.22500 -0.38600 43.95600
C  28.19300 1.06600 44.23300
H  20.68100 -3.81000 43.26500
H  21.49400 -9.38400 46.57500
H  27.64300 -8.31000 47.21900
H  24.76500 -1.39400 43.02700
H  22.53000 -2.60800 41.81200
H  21.91300 -1.49400 44.63900
H  21.21000 -1.31600 42.99900
H  22.63500 -0.34200 43.47900
H  24.50700 -3.16200 40.56500
H  26.00100 -3.41300 41.39400
H  26.83100 -1.51900 40.80100
H  25.30700 -0.52100 40.92600
H  18.33600 -6.20200 43.11800
H  18.80700 -4.56900 43.61600
H  17.66700 -5.47000 44.57400
H  18.12000 -10.18100 46.38000
H  19.26900 -9.14200 47.41100
H  19.72600 -10.23200 45.99300
H  23.73600 -10.54200 46.64700
H  25.72000 -9.45800 48.72100
H  22.05200 -9.75900 48.84200
H  23.51100 -10.05400 49.65900
H  22.85300 -11.37500 48.74900
H  27.38400 -10.50200 47.38800
H  26.48300 -10.46700 45.99100
H  25.89600 -12.62200 46.24100
H  25.02200 -12.29200 47.74000
H  26.67000 -12.67400 47.91500
H  29.90100 -6.93400 45.93900
H  29.63900 -6.46100 47.59800
H  30.33100 -5.24100 46.51700
H  27.58800 -2.58200 42.88800
H  28.50200 1.30500 45.25100
H  27.16700 1.43300 44.20200
H  28.73900 1.72900 43.56200
Mg -2.33700 34.41500 25.82300
C  -3.94800 32.51400 28.32600
C  -0.75000 36.03400 28.35200
C  -1.17600 36.50300 23.50600
C  -4.42900 32.85500 23.49800
N  -2.52600 34.37900 28.08000
C  -3.03300 33.42900 28.88800
C  -2.65200 33.65300 30.37000
C  -1.86000 34.99000 30.30300
C  -1.77900 35.19500 28.80100
C  -2.38500 36.14100 31.24300
C  -1.84400 32.46100 31.07200
C  -2.36300 31.95000 32.39600
H  -1.49200 32.12000 33.72800
N  -1.08200 35.93700 25.88000
C  -0.43100 36.44700 27.03700
C  0.60800 37.38200 26.56100
C  0.45500 37.58200 25.13200
C  -0.66700 36.65600 24.78800
C  1.54000 38.07900 27.47500
C  1.32300 38.37500 24.12600
O  1.19500 38.24700 22.95800
C  2.56200 39.14600 24.64500
N  -3.13300 34.95400 23.75200
C  -2.24900 35.72900 23.00000
C  -2.64300 35.58100 21.49400
C  -3.37200 34.21300 21.51700
C  -3.68600 33.94500 23.00500
C  -3.32900 36.83200 20.97500
C  -2.51500 33.02600 20.82600
C  -1.58900 32.25100 21.74400
N  -3.95900 33.01300 25.84500
C  -4.57200 32.38700 24.85100
C  -5.39600 31.30500 25.36100
C  -5.09000 31.30200 26.75600
C  -4.29600 32.41200 26.99000
C  -6.07000 30.20700 24.61000
C  -5.30600 30.53200 27.97300
O  -5.96800 29.50700 28.20600
C  -4.64800 31.32100 29.09100
C  -5.75900 31.79500 29.97900
O  -6.74500 32.37600 29.53000
O  -5.52900 31.50600 31.31300
C  -6.63400 31.92700 32.19600
H  -0.25200 36.54700 29.17800
H  -0.82000 37.11100 22.67200
H  -4.85500 32.14200 22.78900
H  -3.60900 33.81300 30.86500
H  -0.82200 34.84500 30.60200
H  -2.86000 36.95200 30.69000
H  -1.46600 36.50300 31.70500
H  -3.13800 35.73700 31.91900
H  -0.86700 32.91700 31.22700
H  -1.68800 31.65100 30.35900
H  -2.57700 30.89100 32.24800
H  -3.23400 32.51600 32.72700
H  1.55200 37.72500 28.50600
H  1.43700 39.16400 27.48900
H  2.57800 37.91200 27.18900
H  2.98000 39.82100 23.89800
H  3.17800 38.34800 25.06100
H  2.20100 39.82800 25.41500
H  -1.69800 35.56500 20.95000
H  -4.32000 34.23500 20.97900
H  -3.82800 37.33400 21.80500
H  -4.13300 36.57100 20.28700
H  -2.71400 37.60400 20.51300
H  -1.87700 33.40000 20.02500
H  -3.24900 32.33000 20.42000
H  -2.14200 31.33600 21.95400
H  -1.38700 32.74400 22.69500
H  -0.65100 32.01600 21.24200
H  -6.75500 30.70000 23.91900
H  -6.68200 29.76400 25.39600
H  -5.38400 29.50500 24.13700
H  -4.00100 30.67500 29.68300
H  -6.48800 32.89600 32.67400
H  -6.68800 31.10800 32.91200
H  -7.61000 31.86300 31.71300

