158

Mg 9.22900 3.45000 28.44500
C  10.71700 1.91200 31.22900
C  7.96800 5.87200 30.40600
C  7.93300 4.75400 25.56800
C  10.57900 0.78800 26.50900
N  9.30900 3.72800 30.62000
C  9.98800 3.04700 31.56800
C  9.74200 3.77000 32.91800
C  8.86500 5.06400 32.59300
C  8.65500 4.85900 31.06000
C  7.49300 5.22200 33.41000
C  11.09700 4.06800 33.75600
C  11.06100 5.24600 34.69100
H  11.84000 5.14600 36.03900
N  8.03800 5.07600 28.01100
C  7.59700 5.94300 29.00200
C  6.65100 6.87400 28.36200
C  6.75700 6.66400 26.92100
C  7.59600 5.42900 26.77100
C  5.82300 7.92400 29.17900
C  5.84400 7.30000 25.76400
O  5.79800 6.87400 24.58700
C  4.95800 8.47100 26.08100
N  9.24400 2.95300 26.38100
C  8.67700 3.63700 25.37900
C  8.97700 2.99700 23.98600
C  9.71600 1.73000 24.33800
C  9.95400 1.81600 25.88800
C  7.73100 2.80100 23.07600
C  10.99200 1.47900 23.53400
C  11.06500 0.27300 22.52900
N  10.32300 1.74000 28.74900
C  10.73500 0.74900 27.87600
C  11.44300 -0.28100 28.57800
C  11.52600 0.20900 29.90300
C  10.74900 1.32200 29.95900
C  11.95200 -1.52800 27.98100
C  12.12300 -0.14500 31.19200
O  12.99700 -0.96000 31.41100
C  11.55200 1.04500 32.17600
C  10.75700 0.38100 33.30000
O  9.60800 -0.04500 33.27700
O  11.51800 0.44600 34.41600
C  10.87200 0.13100 35.74800
H  7.52000 6.61700 31.06700
H  7.62500 5.24500 24.64200
H  10.83800 -0.16500 26.04300
H  9.05900 3.11600 33.46100
H  9.48000 5.96200 32.65700
H  7.37900 6.24800 33.75800
H  7.33600 4.42300 34.13500
H  6.65700 5.13600 32.71600
H  11.86900 4.22600 33.00300
H  11.32900 3.19600 34.36800
H  10.01500 5.37300 34.97200
H  11.56100 6.00800 34.09300
H  6.61300 8.59400 29.51800
H  5.31600 7.48600 30.03900
H  5.06800 8.51000 28.65400
H  4.40300 8.87800 25.23700
H  5.44900 9.21800 26.70500
H  4.13300 8.07700 26.67400
H  9.69400 3.67700 23.52500
H  9.06400 0.86100 24.24400
H  7.60400 1.74500 22.83700
H  7.75400 3.41000 22.17300
H  6.82900 2.87100 23.68400
H  11.83800 1.49900 24.22100
H  11.17100 2.36800 22.92900
H  10.18300 -0.36600 22.48700
H  11.87800 -0.41000 22.77400
H  11.23300 0.60700 21.50500
H  11.33600 -2.03000 27.23500
H  11.97300 -2.19700 28.84100
H  13.00300 -1.44300 27.70200
H  12.38700 1.58900 32.61800
H  9.81700 -0.13600 35.80500
H  10.86100 0.95600 36.46100
H  11.45800 -0.68800 36.16600
Mg -10.38500 40.18500 42.18400
C  -9.47900 37.04100 40.90800
C  -7.49300 41.49700 40.81100
C  -11.63500 43.34200 42.67000
C  -13.67100 38.84100 42.68300
N  -8.79500 39.33000 40.92400
C  -8.55900 38.10900 40.60000
C  -7.23800 37.91000 39.85200
C  -6.48200 39.24000 40.01200
C  -7.62100 40.07700 40.68800
C  -5.13600 39.19100 40.78200
C  -7.33300 37.49500 38.34400
C  -6.55700 36.22300 37.93000
H  -5.51000 36.37400 36.87400
N  -9.62100 42.12200 42.01500
C  -8.37000 42.44100 41.40600
C  -8.09700 43.85500 41.51700
C  -9.29100 44.45200 42.13900
C  -10.22700 43.31200 42.35500
C  -6.90200 44.54900 40.96700
C  -9.53100 45.81800 42.55300
O  -8.66200 46.67100 42.31000
C  -10.73900 46.28500 43.40900
N  -12.34500 40.96800 42.57100
C  -12.58200 42.30200 42.80500
C  -14.06800 42.57100 43.15500
C  -14.74100 41.12100 43.14000
C  -13.52000 40.26700 42.70900
C  -14.07900 43.36400 44.53900
C  -15.96100 41.04900 42.15400
C  -17.26600 40.54800 42.81400
N  -11.42300 38.28100 42.05700
C  -12.71400 37.89300 42.29800
C  -12.79100 36.48700 42.08800
C  -11.51900 36.03200 41.68700
C  -10.74700 37.22100 41.54500
C  -14.02500 35.67300 42.34700
C  -10.66300 34.88700 41.27800
O  -10.88300 33.67900 41.39500
C  -9.36900 35.58400 40.56900
C  -8.10700 34.87600 41.04500
O  -7.64600 34.93500 42.14500
O  -7.63900 34.07200 40.05100
C  -6.41000 33.35200 40.51600
H  -6.50500 41.72900 40.40900
H  -12.08100 44.32400 42.83900
H  -14.67900 38.46000 42.85900
H  -6.67200 37.23400 40.49300
H  -6.40200 39.73900 39.04600
H  -4.71500 38.18800 40.85900
H  -5.33900 39.66200 41.74400
H  -4.49200 39.88400 40.24100
H  -7.04700 38.30300 37.67100
H  -8.37200 37.33700 38.05300
H  -7.30600 35.46400 37.70500
H  -5.98100 35.77400 38.73900
H  -6.25600 43.90600 40.37000
H  -6.29900 44.83400 41.83000
H  -7.25500 45.44700 40.46100
H  -11.57800 46.37100 42.71900
H  -10.43500 47.23300 43.85200
H  -10.96400 45.54300 44.17500
H  -14.41100 43.11100 42.27200
H  -14.97100 40.80200 44.15600
H  -14.56000 44.34000 44.47900
H  -13.08500 43.45100 44.97700
H  -14.71300 42.83000 45.24800
H  -15.74700 40.33800 41.35500
H  -16.10200 41.91600 41.50800
H  -17.36000 40.93600 43.82800
H  -17.20000 39.46100 42.86200
H  -18.04200 40.91900 42.14400
H  -14.47000 36.01500 43.28100
H  -13.79200 34.61200 42.44100
H  -14.72900 35.85900 41.53500
H  -9.39500 35.60000 39.48000
H  -6.73400 32.69100 41.32000
H  -5.60300 33.98300 40.88700
H  -6.01800 32.60000 39.83100

