158

Mg 41.08300 9.02700 28.92200
C  42.74600 10.34500 31.75600
C  38.95000 7.31200 31.04500
C  39.32100 8.01900 26.34600
C  43.64500 10.34600 26.95600
N  40.91100 8.71400 31.21400
C  41.62100 9.50200 32.14500
C  41.02100 9.27600 33.54600
C  39.80100 8.30700 33.24000
C  39.89500 8.08200 31.77300
C  39.80000 6.90900 34.01300
C  40.56500 10.66700 34.22400
C  40.16100 10.62500 35.71700
H  41.12500 11.19400 36.72800
N  39.42800 7.79800 28.67800
C  38.69700 7.18200 29.67000
C  37.54400 6.51400 29.16600
C  37.57100 6.75900 27.77800
C  38.77500 7.51400 27.55800
C  36.63600 5.61300 30.08300
C  36.55400 6.33000 26.72700
O  36.79200 6.63400 25.54500
C  35.32200 5.59800 27.09100
N  41.57300 9.00700 26.92900
C  40.61800 8.60200 26.02300
C  41.10500 8.90100 24.58200
C  42.41700 9.77000 24.76700
C  42.57000 9.68800 26.28500
C  41.24800 7.77900 23.54300
C  42.47100 11.17300 24.15900
C  41.84100 12.36300 24.86200
N  42.84700 10.13700 29.19100
C  43.76800 10.56900 28.33800
C  44.75500 11.39900 29.06800
C  44.35700 11.39000 30.40100
C  43.26300 10.55100 30.45600
C  45.96100 12.16100 28.48000
C  44.67800 11.84800 31.69800
O  45.59200 12.50100 32.16100
C  43.56500 11.36600 32.64100
C  44.19200 10.62500 33.84200
O  44.31000 9.39800 34.03900
O  44.75300 11.54900 34.66800
C  45.43000 10.95200 35.88500
H  38.16900 6.92900 31.70400
H  38.66000 7.91300 25.48400
H  44.41800 10.83800 26.36300
H  41.83200 8.87200 34.15300
H  38.88500 8.84100 33.49300
H  39.19500 7.03700 34.91000
H  40.77500 6.56500 34.36100
H  39.42100 6.14200 33.33800
H  39.72400 11.09600 33.67900
H  41.46800 11.27600 34.25600
H  39.89900 9.62100 36.04900
H  39.27300 11.25700 35.73500
H  36.29400 6.37200 30.78700
H  37.44900 5.02000 30.50100
H  35.87500 4.95700 29.65800
H  35.60700 4.60600 27.44100
H  34.72500 5.58500 26.17900
H  34.61800 6.17000 27.69600
H  40.47100 9.68100 24.16100
H  43.32700 9.26600 24.43900
H  42.29900 7.51900 23.41500
H  40.75900 8.15200 22.64300
H  40.57600 6.98500 23.86900
H  42.11200 11.02700 23.14000
H  43.51700 11.36300 23.91400
H  41.45900 12.10300 25.84900
H  41.00700 12.74400 24.27300
H  42.64300 13.09000 24.98700
H  45.66500 12.80300 27.65000
H  46.69300 11.47800 28.04800
H  46.49000 12.77100 29.21200
H  42.96000 12.22000 32.94400
H  44.64500 10.53800 36.51800
H  45.96600 11.75500 36.39200
H  46.16100 10.18400 35.63200
Mg 35.40900 48.68400 24.67300
C  35.12800 47.04000 27.85600
C  34.07800 51.50400 26.05800
C  35.10300 49.79500 21.56000
C  36.70600 45.65400 23.46600
N  34.68600 49.19200 26.77300
C  34.72600 48.37600 27.87800
C  34.41700 49.14000 29.10200
C  34.04700 50.64000 28.53000
C  34.23900 50.44500 26.97800
C  32.63900 51.08500 28.75600
C  35.61200 49.09100 30.06400
C  35.27700 49.34200 31.59700
H  33.82600 49.64400 32.18600
N  34.70100 50.43100 23.96900
C  34.24900 51.52000 24.65700
C  33.81200 52.53200 23.75700
C  34.00800 52.00500 22.41400
C  34.65400 50.68500 22.61600
C  33.25200 53.79600 24.29300
C  33.45300 52.62900 21.14800
O  33.58400 52.10800 20.01300
C  32.55900 53.80800 21.14000
N  35.78100 47.76100 22.80800
C  35.63300 48.49900 21.66200
C  36.40000 47.84200 20.51700
C  37.17800 46.62900 21.13400
C  36.55900 46.64700 22.52500
C  35.43600 47.51000 19.36600
C  38.71500 46.81200 21.25700
C  39.51100 45.50800 21.12000
N  35.90200 46.73200 25.40700
C  36.38200 45.61900 24.80000
C  36.51400 44.51300 25.69500
C  35.96400 44.97400 26.84600
C  35.71100 46.38300 26.69100
C  36.92000 43.13300 25.30500
C  35.62700 44.63200 28.21300
O  35.71900 43.59500 28.89500
C  35.13700 45.91800 28.94300
C  33.86300 45.78600 29.82000
O  32.74100 46.23600 29.65500
O  34.25100 45.12400 30.98000
C  33.22000 44.86100 32.00100
H  33.60400 52.35700 26.54800
H  35.18800 50.26000 20.57600
H  37.25900 44.90000 22.90300
H  33.50200 48.87100 29.63000
H  34.80200 51.36100 28.84400
H  31.99800 50.23700 28.99900
H  32.16100 51.58600 27.91500
H  32.63900 51.62700 29.70200
H  36.25000 49.93100 29.78900
H  36.21600 48.18500 30.00400
H  35.94000 50.14300 31.92400
H  35.61900 48.51000 32.21200
H  33.28600 54.71200 23.70500
H  33.37500 54.03500 25.35000
H  32.23100 53.41500 24.25300
H  31.78500 53.64100 21.89000
H  32.07200 53.89800 20.16900
H  33.20500 54.66000 21.35200
H  37.07500 48.66300 20.27600
H  36.87000 45.70300 20.64800
H  34.75300 46.71600 19.66600
H  36.08400 47.25200 18.52800
H  34.81900 48.37700 19.13000
H  38.96500 47.11600 22.27400
H  39.12600 47.61000 20.63900
H  40.08200 45.38100 22.04000
H  40.08800 45.47800 20.19500
H  38.89200 44.61300 21.06600
H  36.85800 42.48400 26.17900
H  37.92200 43.14700 24.87600
H  36.28200 42.72600 24.52100
H  35.85900 46.18500 29.71400
H  32.72700 43.97300 31.60600
H  32.46600 45.64500 32.06500
H  33.60300 44.68400 33.00600

