158

Mg 17.27100 -1.89500 27.69100
C  16.18400 0.22600 30.29000
C  19.19200 -3.58600 29.95300
C  18.71400 -3.51900 25.05300
C  15.47100 0.15700 25.42900
N  17.68600 -1.64000 29.87600
C  17.03600 -0.79000 30.75500
C  17.36300 -1.05100 32.22100
C  18.45400 -2.22400 32.16000
C  18.44100 -2.54100 30.60000
C  19.94200 -1.97000 32.72600
C  16.22100 -1.39600 33.15500
C  16.20100 -0.57100 34.43500
H  17.53900 -0.44800 35.15700
N  18.77700 -3.35600 27.58600
C  19.41000 -3.93600 28.61900
C  20.24600 -5.04800 28.14000
C  20.12400 -4.97300 26.67100
C  19.24800 -3.88900 26.35000
C  21.19900 -5.90700 29.03500
C  20.90600 -5.85400 25.65000
O  20.74800 -5.62900 24.44600
C  21.93700 -6.92200 26.05700
N  17.29100 -1.59800 25.58500
C  17.88000 -2.41200 24.71000
C  17.46900 -2.13600 23.24400
C  16.18800 -1.18000 23.42400
C  16.29900 -0.87400 24.95600
C  18.70500 -1.55700 22.47600
C  14.81100 -1.84200 22.99800
C  13.94600 -2.55500 24.02100
N  16.02000 -0.17400 27.74400
C  15.34000 0.53500 26.74200
C  14.50100 1.52500 27.32600
C  14.85900 1.54400 28.71500
C  15.78400 0.40900 28.89000
C  13.39500 2.29200 26.70100
C  14.68400 2.13400 30.06700
O  13.96900 3.11700 30.28500
C  15.53700 1.35500 31.09000
C  16.38200 2.26100 31.89600
O  17.61900 2.31900 31.91000
O  15.58600 2.82100 32.86800
C  16.29400 3.49600 33.93500
H  19.72500 -4.28500 30.60100
H  19.06400 -4.14900 24.23200
H  14.75200 0.75000 24.86000
H  17.83400 -0.12400 32.54900
H  18.21700 -3.15700 32.66900
H  20.70000 -2.00100 31.94300
H  20.29500 -2.67500 33.47900
H  20.04300 -0.96200 33.12600
H  16.26100 -2.44500 33.44900
H  15.34300 -1.11500 32.57200
H  15.53600 -0.99900 35.18500
H  15.92300 0.42900 34.10200
H  20.84800 -6.93200 28.91000
H  21.21700 -5.73500 30.11100
H  22.23100 -5.82700 28.69300
H  22.22500 -7.63400 25.28400
H  21.48100 -7.49300 26.86700
H  22.80300 -6.41900 26.48600
H  17.25100 -3.13300 22.86100
H  16.35400 -0.19100 22.99700
H  18.31000 -0.73700 21.87700
H  19.17900 -2.25300 21.78500
H  19.44700 -1.20400 23.19200
H  14.79600 -2.49200 22.12300
H  14.35300 -1.00200 22.47600
H  14.43200 -2.77300 24.97100
H  13.58900 -3.50000 23.61300
H  13.06900 -1.96800 24.29500
H  13.73900 3.25900 26.33300
H  12.52300 2.31600 27.35400
H  12.97200 1.67200 25.91100
H  14.74000 0.95500 31.71700
H  17.08100 4.12300 33.51800
H  16.71400 2.83700 34.69500
H  15.67300 4.21300 34.47200
Mg 6.59800 53.96900 41.79200
C  5.71200 50.72300 41.16600
C  9.71700 53.43600 40.42100
C  7.13300 57.35200 41.81100
C  3.20900 54.67200 42.74400
N  7.53100 52.31800 40.81900
C  7.02800 51.05900 40.60600
C  8.11200 50.09000 40.10100
C  9.44800 50.90500 40.35500
C  8.89600 52.29300 40.51800
C  10.32400 50.49900 41.58100
C  7.92500 49.60900 38.65600
C  6.95800 50.46800 37.77000
H  7.51900 51.39400 36.71400
N  8.13900 55.18000 41.31000
C  9.38800 54.72900 40.82400
C  10.28200 55.88800 40.60100
C  9.54700 57.00900 41.04000
C  8.22600 56.56900 41.40300
C  11.59600 55.87100 39.93100
C  10.18200 58.38200 41.23800
O  11.27100 58.73900 40.88400
C  9.43900 59.50900 41.92500
N  5.28700 55.75500 42.07500
C  5.81600 56.97400 42.10700
C  4.77900 58.08700 42.43400
C  3.42300 57.26400 42.44700
C  3.95600 55.79200 42.36800
C  5.05700 58.80000 43.79200
C  2.49100 57.65000 41.27200
C  0.96600 57.73400 41.53500
N  4.81300 52.98000 41.81700
C  3.51700 53.32200 42.39200
C  2.76200 52.12100 42.59000
C  3.53400 51.12500 41.99800
C  4.77700 51.74100 41.62100
C  1.42100 51.97800 43.21800
C  3.57200 49.70300 41.74400
O  2.75200 48.80900 41.99900
C  5.02700 49.37200 41.30300
C  4.97000 48.55400 40.04800
O  4.63200 48.87800 38.94400
O  5.28800 47.30400 40.38200
C  5.32500 46.25100 39.38000
H  10.72700 53.21000 40.07400
H  7.25900 58.43400 41.73600
H  2.22500 54.93300 43.14100
H  8.10200 49.25600 40.80300
H  10.14600 50.85400 39.51800
H  11.32700 50.27900 41.21600
H  9.95600 49.60000 42.07600
H  10.43800 51.30500 42.30700
H  7.67500 48.56000 38.81300
H  8.90700 49.54900 38.18700
H  6.25100 50.99800 38.40800
H  6.44500 49.66700 37.23800
H  11.48900 54.99300 39.29400
H  12.49700 55.70400 40.52000
H  11.64300 56.73600 39.26900
H  8.72200 59.97900 41.25200
H  10.23500 60.22800 42.11900
H  8.97300 59.19400 42.85800
H  4.80500 58.76500 41.58100
H  2.81400 57.35500 43.34700
H  4.24300 58.57800 44.48300
H  5.26300 59.85100 43.59100
H  5.94400 58.29900 44.18000
H  2.54200 56.84000 40.54500
H  2.79900 58.54900 40.73900
H  0.42900 57.53000 40.60900
H  0.72400 58.74500 41.86400
H  0.70200 56.99300 42.28900
H  1.40300 50.95700 43.60000
H  0.53200 52.00600 42.58800
H  1.30900 52.78600 43.94000
H  5.48700 48.85900 42.14700
H  4.42600 45.64400 39.48500
H  6.24100 45.66700 39.47200
H  5.42800 46.65700 38.37300

