158

Mg 25.75800 0.34100 29.24500
C  27.36100 0.27500 32.43800
C  22.81000 0.56300 30.90600
C  24.27400 -0.32500 26.40200
C  28.87500 -0.71100 27.96700
N  25.14400 0.47900 31.55100
C  26.02500 0.52100 32.61600
C  25.29300 0.79600 33.87800
C  23.78300 0.76000 33.34000
C  23.85600 0.62000 31.88300
C  22.88200 -0.30800 34.06400
C  25.68800 2.16300 34.52700
C  26.02000 2.04300 36.02600
H  25.60100 3.10500 37.10900
N  23.87800 0.22000 28.69300
C  22.77700 0.34400 29.54400
C  21.57500 0.13500 28.79800
C  21.92600 -0.00300 27.46200
C  23.39600 0.04400 27.46400
C  20.17900 0.14700 29.44700
C  21.06800 -0.29000 26.23800
O  21.55700 -0.42500 25.11700
C  19.60700 -0.47400 26.35400
N  26.48900 -0.46700 27.42000
C  25.69200 -0.48000 26.34200
C  26.54900 -0.58400 25.04600
C  28.01400 -0.37500 25.57300
C  27.82200 -0.52800 27.08300
C  26.37700 -2.02300 24.45800
C  28.75200 0.94400 25.16600
C  28.05300 2.24400 25.13600
N  27.79300 -0.13000 30.02000
C  28.88100 -0.45700 29.35800
C  30.03300 -0.44100 30.28800
C  29.44600 -0.25700 31.50400
C  28.05300 -0.06100 31.26000
C  31.34500 -0.90400 29.92200
C  29.70600 -0.09000 32.90500
O  30.77300 -0.00100 33.48300
C  28.38400 0.28000 33.59200
C  28.17400 -0.81400 34.58800
O  27.55900 -1.83800 34.40700
O  28.82700 -0.45100 35.77500
C  28.86600 -1.51900 36.82800
H  21.86600 0.70600 31.43600
H  23.84000 -0.72000 25.48200
H  29.88200 -0.70100 27.54500
H  25.43200 -0.00800 34.60000
H  23.23200 1.68000 33.53500
H  22.03800 -0.59200 33.43600
H  22.46900 0.16000 34.95700
H  23.49800 -1.14000 34.40600
H  24.92200 2.92500 34.37700
H  26.53500 2.52500 33.94500
H  27.10600 2.12600 36.05300
H  25.75300 1.10000 36.50400
H  19.74900 1.14500 29.36500
H  20.23500 -0.09700 30.50800
H  19.58700 -0.68700 29.07300
H  19.42600 -1.47500 26.74600
H  19.32000 -0.22100 25.33400
H  19.33000 0.30300 27.06600
H  26.38300 0.15100 24.25900
H  28.61100 -1.19000 25.16300
H  26.47500 -1.97500 23.37300
H  25.46700 -2.51600 24.79700
H  27.20800 -2.67600 24.72400
H  29.25700 0.87800 24.20200
H  29.55200 1.01600 25.90300
H  28.12800 2.71100 24.15400
H  28.16300 3.01500 25.89800
H  26.98700 2.05300 25.26100
H  31.92400 -0.23500 29.28600
H  31.51900 -1.95100 29.67500
H  31.83900 -0.86400 30.89200
H  28.33900 1.32000 33.91600
H  29.40200 -2.40100 36.47700
H  27.93300 -1.68200 37.36700
H  29.47400 -1.20100 37.67500
Mg 35.49200 1.17100 29.04100
C  33.44300 2.49300 31.60000
C  38.09000 0.97200 31.45400
C  37.52300 0.44000 26.56000
C  32.84700 1.77700 26.77700
N  35.75500 1.72200 31.30500
C  34.72500 2.17000 32.07800
C  35.14100 2.24800 33.55900
C  36.63600 1.78800 33.53800
C  36.88200 1.50400 32.05100
C  37.67300 2.65400 34.25500
C  34.38000 1.55100 34.67700
C  34.18300 2.15000 36.11200
H  35.07700 3.29500 36.62300
N  37.47600 0.58600 29.00400
C  38.37000 0.56900 30.11100
C  39.66600 0.13200 29.57600
C  39.53100 0.07500 28.13100
C  38.14600 0.39200 27.82400
C  40.89700 -0.10900 30.45900
C  40.67200 -0.17000 27.05900
O  40.39900 -0.34400 25.84900
C  42.06100 -0.44900 27.42800
N  35.29600 1.06300 26.97700
C  36.29000 0.84300 26.15700
C  35.82100 0.71500 24.72400
C  34.30200 0.91700 24.73300
C  34.07100 1.28800 26.24500
C  36.50600 1.71200 23.73000
C  33.44800 -0.30600 24.27900
C  32.51600 -0.17100 23.07100
N  33.55700 1.84900 29.12800
C  32.62200 2.13600 28.10400
C  31.45000 2.78900 28.62300
C  31.76400 2.89700 29.99900
C  33.03200 2.39000 30.26200
C  30.34300 3.27700 27.87900
C  31.19700 3.32700 31.20800
O  30.10400 3.88000 31.44000
C  32.22200 3.00600 32.31800
C  32.55600 4.25300 33.02900
O  33.24300 5.19500 32.60700
O  31.82300 4.33100 34.17000
C  31.91600 5.54600 35.00700
H  38.90900 0.97800 32.17700
H  38.17400 0.06700 25.76600
H  32.00500 1.91500 26.09500
H  35.12200 3.31200 33.79600
H  36.75100 0.83000 34.04500
H  37.21900 3.59300 34.57200
H  38.49000 2.90500 33.57900
H  38.24300 2.23800 35.08600
H  34.71400 0.53300 34.87800
H  33.40500 1.24300 34.29900
H  34.36900 1.25100 36.70100
H  33.16000 2.46600 36.31500
H  41.43800 -0.92500 29.98000
H  40.58400 -0.39200 31.46400
H  41.45300 0.81300 30.63300
H  42.20900 -1.42600 27.88600
H  42.32400 0.34600 28.12500
H  42.65400 -0.33900 26.52000
H  36.14600 -0.26800 24.38400
H  34.01900 1.70200 24.03200
H  37.01900 2.52200 24.25000
H  35.77900 2.31500 23.18500
H  37.00800 1.13500 22.95400
H  32.83800 -0.56100 25.14600
H  34.02600 -1.21400 24.10800
H  31.51200 -0.46700 23.37600
H  32.81200 -0.80900 22.23800
H  32.48000 0.87900 22.78100
H  29.48700 2.62100 28.03300
H  30.53300 3.29300 26.80500
H  30.07100 4.30600 28.11300
H  31.66300 2.34500 32.98000
H  30.91800 5.94400 35.19500
H  32.55100 6.32800 34.59100
H  32.31800 5.04200 35.88600

