158

Mg 26.24900 -0.09300 29.40300
C  28.12900 -0.61500 32.30800
C  23.51500 0.18700 31.31800
C  24.55400 0.06400 26.58300
C  29.20100 -0.88400 27.53300
N  25.85300 -0.47400 31.59700
C  26.84000 -0.35100 32.60400
C  26.23400 -0.23400 33.91400
C  24.70100 -0.04800 33.59000
C  24.63700 -0.08300 32.08300
C  23.68800 -1.04800 34.33400
C  26.96200 0.66400 34.97300
C  26.26500 1.04700 36.26500
H  26.57600 0.23500 37.51400
N  24.24300 0.10700 29.01400
C  23.28300 0.18300 29.93600
C  22.05600 0.45800 29.25800
C  22.24900 0.29300 27.84500
C  23.71000 0.12300 27.68300
C  20.76200 0.75200 30.06300
C  21.27800 0.24900 26.67100
O  21.52900 0.03300 25.49200
C  19.96700 0.56300 27.04600
N  26.82600 -0.35200 27.34400
C  25.89300 -0.18400 26.34100
C  26.52900 -0.16100 24.91200
C  28.05500 -0.18900 25.31300
C  28.07000 -0.49100 26.83000
C  26.11900 -1.30700 23.96600
C  28.93100 0.96500 24.97200
C  30.41700 0.73000 24.80700
N  28.33000 -0.66800 29.79400
C  29.35700 -0.98500 28.92700
C  30.51200 -1.28000 29.66200
C  30.10700 -1.04900 30.97200
C  28.75100 -0.71700 31.04800
C  31.77700 -1.74900 29.14500
C  30.57700 -1.11500 32.35500
O  31.73400 -1.30800 32.77800
C  29.32000 -0.77300 33.25100
C  29.21300 -1.83000 34.26900
O  28.60900 -2.91300 34.04000
O  29.83400 -1.51800 35.48200
C  29.75000 -2.49200 36.53500
H  22.62900 0.35300 31.93400
H  24.02000 0.09400 25.63000
H  30.05600 -0.93500 26.85500
H  26.35200 -1.21500 34.37300
H  24.31000 0.93600 33.84800
H  22.92100 -1.37500 33.63200
H  23.25800 -0.52100 35.18600
H  24.17400 -1.86600 34.86600
H  27.41300 1.58300 34.59900
H  27.87100 0.14400 35.27700
H  25.18100 1.11300 36.16600
H  26.48700 2.10300 36.41900
H  20.25500 1.55800 29.53200
H  21.04300 1.14700 31.03900
H  20.03500 -0.05800 30.12200
H  19.36500 0.53700 26.13800
H  19.87000 1.62000 27.29400
H  19.50400 -0.08100 27.79300
H  26.27800 0.81300 24.49000
H  28.52600 -1.08100 24.90000
H  25.41400 -1.95700 24.48500
H  26.95900 -1.83400 23.51400
H  25.49900 -0.93900 23.14900
H  28.95400 1.77400 25.70200
H  28.65700 1.51200 24.06900
H  30.62800 1.13000 23.81600
H  30.67100 -0.33000 24.76500
H  31.04200 1.15300 25.59300
H  32.26200 -2.17200 30.02400
H  32.42800 -1.09800 28.56100
H  31.43500 -2.53400 28.47000
H  29.60200 0.17300 33.71500
H  29.79200 -3.52400 36.18400
H  28.74900 -2.38400 36.95400
H  30.44500 -2.45700 37.37400
Mg 40.62400 41.75600 26.51300
C  39.94600 43.85400 29.39200
C  41.70000 39.32500 28.80600
C  41.49000 39.67600 23.90800
C  40.00200 44.34500 24.46000
N  40.85400 41.70400 28.83900
C  40.38900 42.55700 29.81300
C  40.38700 42.05600 31.24300
C  40.98400 40.60100 31.05600
C  41.18500 40.52900 29.46700
C  42.32100 40.44900 31.79200
C  38.96400 42.02900 31.88900
C  38.81300 41.19400 33.12500
H  38.10500 41.88400 34.32200
N  41.55100 39.85600 26.40800
C  41.84500 39.03700 27.46600
C  42.21300 37.71400 26.99300
C  42.17900 37.72800 25.54600
C  41.81100 39.13700 25.20900
C  42.55300 36.51300 27.94100
C  42.52300 36.69600 24.53700
O  42.69600 36.93500 23.30800
C  42.73400 35.23400 25.06500
N  40.69100 41.98900 24.48700
C  40.98700 40.96800 23.56400
C  41.11800 41.53400 22.14200
C  40.35000 42.91300 22.33900
C  40.43700 43.15600 23.87900
C  42.61500 41.64700 21.78300
C  38.90500 42.77000 21.93600
C  38.27600 44.07800 21.33800
N  39.96500 43.63300 26.77800
C  39.67800 44.60700 25.84100
C  39.20000 45.83800 26.47300
C  39.26800 45.59500 27.85900
C  39.67800 44.25800 28.01900
C  38.96800 47.13500 25.72000
C  39.06200 46.19000 29.18900
O  38.81300 47.34200 29.54100
C  39.34300 45.01100 30.16000
C  40.33700 45.47700 31.12900
O  41.47800 45.72000 30.91800
O  39.68900 45.85000 32.30100
C  40.52800 46.43400 33.36200
H  41.64700 38.57000 29.59300
H  41.62200 38.94400 23.10800
H  39.72200 45.12800 23.75100
H  41.06300 42.62900 31.87800
H  40.49000 39.72000 31.46500
H  43.09100 40.27100 31.04000
H  42.15900 39.60000 32.45600
H  42.58900 41.16000 32.57300
H  38.28800 41.60900 31.14400
H  38.70800 43.04500 32.18900
H  39.77000 40.78500 33.44800
H  38.21000 40.32200 32.87000
H  43.53100 36.17000 27.60100
H  41.85900 35.67300 27.95000
H  42.61600 36.78800 28.99400
H  41.87700 34.89300 25.64600
H  43.68500 35.16800 25.59200
H  42.84100 34.61900 24.17100
H  40.57500 40.86900 21.47000
H  40.81300 43.75900 21.83000
H  43.17500 41.08800 22.53200
H  42.94800 42.68400 21.79500
H  42.83900 41.11900 20.85600
H  38.40300 42.42100 22.83800
H  38.67000 42.05100 21.15200
H  37.60000 43.69700 20.57200
H  39.00200 44.82700 21.02400
H  37.60500 44.52800 22.06900
H  38.99100 48.04500 26.31900
H  37.98500 47.16500 25.25000
H  39.79200 47.24700 25.01400
H  38.50300 44.64100 30.74800
H  41.42800 45.83200 33.48300
H  39.96800 46.48600 34.29600
H  40.74100 47.48900 33.18900

