158

Mg 25.30700 1.67000 30.66000
C  27.58500 1.73200 33.40800
C  22.68800 2.09500 32.86400
C  23.18100 1.45700 28.11000
C  27.91300 0.79900 28.60800
N  25.17600 2.04600 32.84800
C  26.23500 1.94600 33.77100
C  25.71900 2.24800 35.17700
C  24.11900 2.23000 35.02500
C  23.96100 2.03700 33.51900
C  23.45900 1.15800 35.87500
C  26.44800 3.54700 35.68500
C  27.51100 3.49300 36.76600
H  27.37900 4.30800 38.07500
N  23.22300 1.86000 30.49300
C  22.35200 2.04900 31.52600
C  21.04300 2.19300 30.99800
C  21.16200 2.06800 29.57900
C  22.56700 1.80600 29.27200
C  19.81900 2.63100 31.74900
C  20.14600 2.03100 28.51600
O  20.41800 1.99000 27.34800
C  18.67700 1.99800 28.92100
N  25.45200 0.80100 28.74300
C  24.42400 0.98100 27.86200
C  24.87000 0.77000 26.35700
C  26.44500 0.63700 26.55900
C  26.63500 0.65000 28.09400
C  24.22700 -0.35700 25.50700
C  27.12900 1.59200 25.58900
C  27.46600 3.04900 26.03500
N  27.37600 1.35800 30.79800
C  28.34200 0.97500 29.93900
C  29.63800 0.99500 30.53500
C  29.39500 1.19300 31.92100
C  27.99000 1.44000 32.09100
C  30.91100 0.68000 29.86800
C  30.06900 1.36700 33.23500
O  31.23700 1.20800 33.65000
C  28.90600 1.62400 34.24900
C  28.82200 0.44000 35.17900
O  28.18800 -0.61400 35.06600
O  29.67600 0.67600 36.20600
C  29.71500 -0.38400 37.30700
H  21.92200 2.24600 33.62700
H  22.60400 1.62300 27.19700
H  28.74700 0.67100 27.91500
H  25.97300 1.47900 35.90600
H  23.73300 3.19900 35.34400
H  22.64600 1.67400 36.38700
H  24.12200 0.70400 36.61200
H  23.03400 0.42100 35.19300
H  25.63200 4.18700 36.02100
H  26.76700 4.04100 34.76800
H  28.46900 3.76300 36.32100
H  27.64000 2.48600 37.16300
H  19.12100 1.79400 31.75800
H  19.42700 3.48400 31.19500
H  20.01500 2.75400 32.81500
H  18.53000 1.24100 29.69100
H  18.08500 1.76600 28.03600
H  18.33100 2.87500 29.46700
H  24.69700 1.72500 25.86200
H  26.86300 -0.36200 26.43500
H  24.74900 -1.31400 25.52400
H  24.15600 0.16600 24.55300
H  23.26100 -0.59100 25.95400
H  26.39100 1.71200 24.79500
H  28.05000 1.18200 25.17500
H  27.23500 3.68500 25.18100
H  28.53500 3.02500 26.24500
H  26.86600 3.28300 26.91400
H  30.79800 1.04800 28.84900
H  31.06200 -0.39900 29.89400
H  31.69600 1.19900 30.41800
H  29.23500 2.48200 34.83500
H  29.31700 0.06700 38.21600
H  30.77100 -0.54800 37.52200
H  29.34800 -1.40800 37.24600
Mg 2.01200 42.19400 24.28700
C  2.90100 42.36100 27.67000
C  -1.06600 40.99300 25.31900
C  1.35900 41.27200 21.17400
C  5.37300 42.81100 23.59600
N  1.12800 41.57100 26.20900
C  1.56400 41.94700 27.48000
C  0.56400 41.66800 28.53800
C  -0.65100 41.07800 27.75700
C  -0.18400 41.24000 26.35100
C  -1.03000 39.64100 28.11500
C  0.23700 42.90800 29.44300
C  -0.90100 42.95800 30.48200
H  -1.73000 41.71400 30.83500
N  0.28400 41.37600 23.27500
C  -0.91300 41.03500 23.90400
C  -1.82100 40.67200 22.87400
C  -1.11000 40.69800 21.59000
C  0.20300 41.14300 21.95300
C  -3.15400 40.10700 23.16500
C  -1.56900 40.47100 20.16300
O  -0.90600 40.62400 19.13200
C  -3.01200 40.04000 19.95000
N  3.21600 41.96500 22.66100
C  2.72700 41.55100 21.44000
C  3.79700 41.63100 20.38200
C  4.91800 42.45700 21.04600
C  4.55100 42.35600 22.56300
C  4.23600 40.18600 19.87300
C  5.07500 43.87200 20.61500
C  3.98700 44.94700 20.74500
N  3.82200 42.67400 25.34700
C  5.09400 42.90500 24.98800
C  5.93300 43.24500 26.13100
C  5.12900 43.05600 27.23800
C  3.86200 42.68000 26.70700
C  7.33800 43.66000 26.06800
C  5.12100 42.91300 28.66400
O  6.03100 42.97900 29.42600
C  3.68100 42.49700 28.96900
C  3.83000 41.14000 29.60500
O  4.61500 40.27800 29.20900
O  2.87400 40.96800 30.58200
C  2.64300 39.60100 31.00700
H  -2.09400 40.76000 25.60300
H  1.28200 41.04700 20.10900
H  6.42700 42.87600 23.32000
H  0.93300 40.82400 29.12100
H  -1.43200 41.83500 27.82300
H  -0.65000 39.34100 29.09200
H  -0.62200 38.88000 27.45000
H  -2.11100 39.53200 28.19600
H  0.03000 43.75500 28.78900
H  1.15400 43.23700 29.93300
H  -1.61000 43.71000 30.13400
H  -0.46100 43.36800 31.39100
H  -3.83100 40.07900 22.31100
H  -3.70200 40.56400 23.98900
H  -3.02500 39.05100 23.39800
H  -3.15400 39.09000 20.46500
H  -3.03900 39.97900 18.86200
H  -3.75000 40.74600 20.33000
H  3.56500 42.02600 19.39300
H  5.90900 42.00600 20.99400
H  3.76400 39.93600 18.92300
H  3.87600 39.44300 20.58400
H  5.32400 40.13500 19.84000
H  5.04800 43.79000 19.52900
H  6.02000 44.26100 20.99300
H  3.29000 44.54900 21.48300
H  3.49500 45.05500 19.77900
H  4.39200 45.86900 21.16300
H  7.65300 44.12500 25.13400
H  7.93500 42.78000 26.30600
H  7.72000 44.38000 26.79200
H  3.27800 43.12700 29.76300
H  3.28100 39.37800 31.86200
H  2.82800 38.85800 30.23200
H  1.59900 39.63600 31.31900

