158

Mg 1.75700 -2.16900 45.13600
C  5.02400 -1.05500 44.64500
C  0.72100 0.67000 43.37200
C  -1.47000 -3.45900 44.92900
C  2.88500 -5.28700 46.08400
N  2.78200 -0.39900 44.22400
C  4.13600 -0.08700 44.14800
C  4.39900 1.34600 43.68700
C  2.98700 1.78600 43.28000
C  2.10500 0.63100 43.64000
C  2.48800 3.21300 43.73000
C  5.55400 1.39700 42.60700
C  5.63300 0.39200 41.38200
H  5.42500 1.03200 39.99800
N  -0.12100 -1.41200 44.37900
C  -0.31500 -0.23300 43.68700
C  -1.72100 -0.04600 43.35900
C  -2.37700 -1.15200 43.91600
C  -1.33700 -2.11900 44.47200
C  -2.13200 1.13000 42.50900
C  -3.91900 -1.36800 43.90500
O  -4.62900 -0.54900 43.30600
C  -4.60900 -2.44500 44.63400
N  0.76400 -4.14000 45.47500
C  -0.53500 -4.37500 45.51100
C  -0.82000 -5.81800 45.97500
C  0.62900 -6.36200 46.24200
C  1.51100 -5.15500 45.94800
C  -1.85700 -5.95200 47.07100
C  0.97500 -7.58800 45.37600
C  0.87500 -8.91600 46.20000
N  3.57400 -3.02800 45.46400
C  3.88500 -4.26000 45.90800
C  5.38700 -4.36900 46.01200
C  5.88500 -3.12300 45.57800
C  4.72400 -2.36400 45.23600
C  6.06700 -5.62200 46.31500
C  7.02800 -2.33700 45.41800
O  8.19500 -2.65300 45.58200
C  6.52200 -0.98600 44.80600
C  6.88300 0.16100 45.79600
O  6.48700 0.27000 46.94900
O  7.80400 1.01200 45.23500
C  8.21400 2.24400 45.99500
H  0.41000 1.56900 42.83600
H  -2.49000 -3.84800 44.94400
H  3.32200 -6.25000 46.35800
H  4.62100 1.86500 44.61900
H  3.09600 1.77200 42.19600
H  1.61100 3.08400 44.36500
H  2.35300 3.85300 42.85800
H  3.25700 3.72600 44.30800
H  6.57000 1.48000 42.99000
H  5.34900 2.37400 42.17100
H  4.93400 -0.42700 41.55400
H  6.64300 -0.01000 41.30700
H  -2.07000 0.91600 41.44200
H  -1.54300 2.03300 42.67000
H  -3.18000 1.34600 42.71500
H  -5.63000 -2.13000 44.84600
H  -4.11100 -2.76300 45.55000
H  -4.63800 -3.21900 43.86700
H  -1.31700 -6.30200 45.13500
H  0.58500 -6.62300 47.30000
H  -2.78900 -6.32400 46.64500
H  -2.09500 -5.02800 47.59800
H  -1.63300 -6.77700 47.74700
H  1.98100 -7.48500 44.97000
H  0.25200 -7.65300 44.56300
H  0.46100 -8.74000 47.19200
H  1.81500 -9.44400 46.36200
H  0.21500 -9.60500 45.67300
H  6.22300 -6.28600 45.46400
H  5.41000 -5.98100 47.10600
H  7.06400 -5.36200 46.67100
H  7.03500 -0.91600 43.84700
H  7.30700 2.79600 46.24300
H  8.78100 2.88600 45.32000
H  8.59000 1.96200 46.97900
Mg 44.27800 5.23700 47.35300
C  42.16600 8.20700 47.34700
C  41.33500 3.50600 47.14400
C  46.11300 2.77000 46.90700
C  47.00200 7.50200 47.16500
N  42.06100 5.87100 47.24800
C  41.42200 7.06800 47.19100
C  39.88200 6.94700 47.02500
C  39.68500 5.39700 46.94800
C  41.15300 4.86900 47.18300
C  38.64900 4.81400 47.91300
C  39.09800 7.73100 45.88900
C  39.85100 8.09700 44.57100
H  39.07700 7.59900 43.28400
N  43.78700 3.38200 47.01400
C  42.57900 2.82900 47.05700
C  42.77000 1.43900 46.75600
C  44.13300 1.14600 46.64000
C  44.78000 2.46200 46.78400
C  41.55500 0.48700 46.75300
C  44.81700 -0.21200 46.37700
O  44.11500 -1.21000 46.35800
C  46.16500 -0.37100 46.16800
N  46.30100 5.18500 46.97600
C  46.84500 3.93800 47.00100
C  48.40800 3.94500 46.97600
C  48.62200 5.48800 47.17300
C  47.22500 6.14900 47.11400
C  49.00900 3.09600 48.07300
C  49.44800 6.01400 45.97300
C  50.96600 5.78700 46.09700
N  44.59000 7.39700 47.38600
C  45.75900 8.11300 47.28700
C  45.50000 9.51600 47.30200
C  44.09200 9.57300 47.35700
C  43.55300 8.30100 47.43900
C  46.50100 10.63800 46.95800
C  42.96900 10.55100 47.37800
O  42.91500 11.74200 47.26500
C  41.67300 9.65500 47.19000
C  40.55100 10.02100 48.15000
O  40.41200 9.67400 49.27700
O  39.80300 11.07700 47.64200
C  38.86800 11.76100 48.57300
H  40.45200 2.88000 47.00000
H  46.80500 1.92900 46.82100
H  47.82100 8.22500 47.16300
H  39.52700 7.39200 47.95400
H  39.50600 5.19600 45.89200
H  37.88100 5.58800 47.91900
H  39.09000 4.75400 48.90800
H  38.24500 3.88000 47.52300
H  38.72900 8.66100 46.32200
H  38.21600 7.13300 45.66200
H  40.89900 7.80300 44.63100
H  39.80400 9.17800 44.43600
H  41.63400 -0.37400 46.09000
H  40.76000 0.95700 46.17500
H  41.26800 0.30200 47.78800
H  46.56300 0.25800 45.37200
H  46.51900 -1.37100 45.91800
H  46.81300 -0.18100 47.02400
H  48.62900 3.59300 45.96800
H  49.09300 5.65300 48.14200
H  48.21100 2.70500 48.70400
H  49.61900 3.69500 48.75000
H  49.45500 2.18800 47.66800
H  49.26400 7.08000 45.83800
H  49.13700 5.50100 45.06300
H  51.30700 4.99100 45.43400
H  51.30100 5.51900 47.09900
H  51.49100 6.72700 45.93200
H  46.04300 11.57500 47.27200
H  46.69400 10.58300 45.88700
H  47.43400 10.50000 47.50400
H  41.21900 9.89000 46.22700
H  39.50700 11.96900 49.43100
H  38.03200 11.17900 48.96100
H  38.47600 12.64800 48.07600

