158

Mg -2.25000 17.61700 26.67800
C  -2.90400 15.86800 29.61500
C  -3.02500 20.47900 28.60500
C  -2.19600 19.52500 23.88700
C  -2.46400 14.83200 24.79100
N  -3.03100 18.10000 28.90000
C  -3.00900 17.23400 29.92700
C  -3.34800 17.88800 31.26700
C  -3.90500 19.29600 30.83600
C  -3.29600 19.37200 29.32800
C  -5.37100 19.63800 30.97800
C  -2.11600 17.93000 32.23800
C  -2.39100 17.47900 33.65300
H  -1.20500 17.41200 34.53200
N  -2.30700 19.72200 26.32100
C  -2.57900 20.67800 27.24600
C  -2.46900 22.01000 26.59900
C  -2.16500 21.82500 25.21900
C  -2.14700 20.30300 25.03900
C  -2.80600 23.34100 27.19000
C  -1.90000 22.81100 24.08000
O  -1.69500 22.44000 22.95300
C  -2.05900 24.30400 24.39600
N  -2.56400 17.32800 24.57400
C  -2.37500 18.18800 23.58200
C  -2.01200 17.56700 22.25300
C  -2.20700 16.06300 22.58300
C  -2.38100 16.02500 24.12300
C  -2.93000 18.15000 21.12200
C  -1.08700 15.17400 21.95200
C  0.37400 15.43000 22.40800
N  -2.53200 15.72300 27.03000
C  -2.60000 14.66000 26.20100
C  -2.67500 13.43000 27.00400
C  -2.77600 13.85400 28.32400
C  -2.73700 15.25800 28.33000
C  -2.53200 12.08000 26.38100
C  -2.88300 13.45800 29.71400
O  -3.02300 12.28900 30.12800
C  -2.86200 14.66900 30.56300
C  -1.65100 14.63800 31.46100
O  -0.55800 15.15200 31.23700
O  -1.97500 13.82900 32.56200
C  -0.94900 13.53500 33.55000
H  -3.19500 21.36400 29.22200
H  -2.16700 20.12300 22.97400
H  -2.31100 13.93400 24.18900
H  -4.17200 17.33300 31.71600
H  -3.53000 20.14700 31.40400
H  -5.44800 20.43800 31.71500
H  -5.99900 18.85300 31.40100
H  -5.73900 20.04800 30.03800
H  -1.90700 18.99800 32.30700
H  -1.23400 17.51200 31.75400
H  -2.82600 16.48000 33.66300
H  -3.13100 18.12300 34.12900
H  -3.05200 23.26300 28.24900
H  -3.55600 23.88900 26.61900
H  -1.85000 23.85500 27.09000
H  -1.93600 24.76500 23.41600
H  -1.38100 24.68100 25.16200
H  -3.05100 24.47700 24.81400
H  -0.95700 17.76000 22.05800
H  -3.13300 15.69100 22.14300
H  -3.61800 18.90900 21.49300
H  -3.62800 17.40200 20.74800
H  -2.21700 18.44400 20.35100
H  -1.21300 15.37800 20.88900
H  -1.19000 14.09800 22.09300
H  0.35700 15.87700 23.40200
H  0.94800 15.97400 21.65800
H  0.80000 14.43700 22.54800
H  -1.85900 11.41000 26.91700
H  -1.96700 12.23800 25.46200
H  -3.46000 11.51700 26.28300
H  -3.77300 14.85200 31.13200
H  -1.07900 13.97100 34.54000
H  0.01300 13.90400 33.19500
H  -0.93300 12.44500 33.54900
Mg 26.44200 50.39600 27.80600
C  24.20200 51.71000 30.18700
C  28.57300 49.52900 30.41700
C  28.58100 49.29300 25.52300
C  24.33400 51.65800 25.26400
N  26.41200 50.70300 30.06800
C  25.36900 51.17200 30.86200
C  25.71600 51.02700 32.40800
C  27.15800 50.40400 32.33500
C  27.40600 50.16200 30.82100
C  28.35500 51.19400 33.00000
C  24.67500 50.16000 33.17200
C  24.31700 50.59700 34.52200
H  25.40600 50.88000 35.51600
N  28.33400 49.52400 27.98400
C  29.04600 49.24300 29.10100
C  30.35600 48.70800 28.79400
C  30.34500 48.55800 27.36500
C  29.00200 49.09600 26.91400
C  31.27300 48.16200 29.88300
C  31.35900 47.95900 26.47600
O  31.05400 47.78700 25.31600
C  32.75400 47.54200 26.97800
N  26.52700 50.61400 25.73700
C  27.50300 49.99000 25.00200
C  27.13500 50.05300 23.41900
C  25.73000 50.60100 23.36800
C  25.49500 50.97000 24.85000
C  28.17400 50.89000 22.62100
C  24.72000 49.46400 22.89600
C  23.55300 49.99300 21.98500
N  24.59300 51.34800 27.68000
C  23.94500 51.85200 26.58600
C  22.73200 52.47200 27.01200
C  22.78400 52.42200 28.40300
C  23.99400 51.74700 28.79300
C  21.67400 53.00000 26.06300
C  22.09200 52.82100 29.67600
O  21.06900 53.49600 29.88100
C  22.98400 52.38900 30.81000
C  23.29100 53.51200 31.66900
O  23.92100 54.49200 31.29300
O  22.90500 53.19000 33.00100
C  23.11700 54.25700 33.96500
H  29.31900 49.23000 31.15700
H  29.32000 49.11100 24.74000
H  23.65000 52.07200 24.52000
H  25.89000 52.03800 32.77600
H  27.12000 49.45000 32.86100
H  28.81500 50.52600 33.72800
H  27.82900 52.05400 33.41500
H  28.97300 51.56800 32.18300
H  24.93400 49.11300 33.32600
H  23.78300 50.19700 32.54700
H  23.56800 49.92400 34.93800
H  23.81400 51.56400 34.54800
H  32.30200 48.44000 29.65900
H  31.18300 47.07700 29.81900
H  31.14600 48.64100 30.85400
H  32.68200 46.58500 27.49400
H  33.30300 48.30900 27.52500
H  33.38100 47.36800 26.10400
H  27.17500 49.03800 23.02300
H  25.72600 51.41200 22.64000
H  29.22000 50.87000 22.92800
H  28.02500 51.96600 22.70700
H  28.19400 50.52800 21.59300
H  24.20400 48.93000 23.69400
H  25.23600 48.69200 22.32400
H  23.82200 50.83400 21.34600
H  22.68200 50.12800 22.62600
H  23.21000 49.15300 21.38100
H  20.94300 53.56000 26.64600
H  21.22800 52.11200 25.61600
H  22.09500 53.49400 25.18700
H  22.44100 51.66800 31.42100
H  24.11000 54.21700 34.41200
H  22.34900 54.13400 34.72700
H  22.89100 55.19600 33.45800

