158

Mg -2.24600 17.34400 26.88900
C  -2.84300 15.29600 29.63300
C  -2.42000 20.02200 28.97200
C  -2.10400 19.32500 24.11600
C  -2.73500 14.57000 24.73300
N  -2.76400 17.62600 29.15000
C  -2.79400 16.63500 30.08100
C  -2.76500 17.22200 31.57800
C  -2.78700 18.79500 31.25600
C  -2.67100 18.86600 29.72900
C  -4.12700 19.47600 31.69000
C  -1.61700 16.77900 32.49400
C  -1.18400 17.63900 33.59800
H  -0.94500 16.81400 34.92800
N  -1.95500 19.28600 26.61300
C  -2.05600 20.22200 27.62900
C  -1.67400 21.54600 27.11600
C  -1.65100 21.36400 25.73500
C  -1.90400 19.89000 25.41700
C  -1.58200 22.77700 27.99500
C  -1.39800 22.51600 24.69300
O  -1.48300 22.39400 23.51300
C  -1.21000 23.82500 25.20700
N  -2.74900 17.03600 24.78300
C  -2.58100 18.07200 23.84200
C  -2.77700 17.46700 22.43800
C  -2.40900 15.99000 22.66500
C  -2.60400 15.81400 24.15500
C  -4.21800 17.67900 21.99100
C  -0.95200 15.58900 22.24100
C  0.14000 16.06900 23.13300
N  -2.68600 15.34600 27.07500
C  -2.83600 14.37800 26.14500
C  -3.05700 13.09300 26.78600
C  -3.04900 13.37400 28.19000
C  -2.82000 14.79100 28.30800
C  -3.30400 11.69800 26.19100
C  -3.25600 12.84400 29.53900
O  -3.40700 11.70200 29.97600
C  -3.09200 14.02200 30.50000
C  -1.90700 13.61000 31.33700
O  -0.71500 13.90300 31.19300
O  -2.43400 12.92700 32.40500
C  -1.48500 12.45700 33.39900
H  -2.36100 20.87200 29.65600
H  -2.10300 19.97700 23.24000
H  -2.79400 13.62500 24.18800
H  -3.64600 16.86800 32.11300
H  -2.06000 19.43000 31.76200
H  -3.88000 20.47600 32.04800
H  -4.60600 18.96800 32.52700
H  -4.78300 19.59500 30.82800
H  -0.79300 16.51400 31.83100
H  -2.07700 15.85000 32.83200
H  -1.84800 18.49100 33.74600
H  -0.28600 18.16000 33.26800
H  -1.40900 22.57800 29.05300
H  -2.42300 23.46000 27.88500
H  -0.63000 23.24300 27.73900
H  -0.24300 23.79000 25.70900
H  -2.02000 24.09100 25.88700
H  -1.13400 24.51200 24.36500
H  -2.04100 17.88800 21.75400
H  -3.10400 15.36600 22.10400
H  -4.82900 17.95100 22.85100
H  -4.51300 16.77100 21.46500
H  -4.24500 18.59800 21.40500
H  -0.89300 16.03700 21.25000
H  -0.92000 14.51900 22.03300
H  0.68700 15.19900 23.49800
H  -0.28900 16.58500 23.99100
H  0.73200 16.79100 22.57100
H  -2.36700 11.14700 26.27100
H  -3.66600 11.82200 25.17000
H  -4.10700 11.25500 26.78100
H  -4.00700 14.13500 31.08100
H  -1.12700 11.59700 32.83300
H  -1.97300 12.04800 34.28400
H  -0.72800 13.18500 33.69000
Mg 16.56700 -1.92400 28.11800
C  15.45500 0.01200 31.00000
C  18.71200 -3.49400 30.20100
C  17.76900 -3.29100 25.36000
C  14.89900 0.55100 26.14200
N  17.03800 -1.67800 30.29800
C  16.53600 -0.85600 31.27500
C  17.17200 -1.09100 32.60700
C  18.24600 -2.12900 32.30600
C  18.06200 -2.42000 30.84800
C  19.70600 -1.72100 32.70900
C  16.15800 -1.61700 33.69400
C  16.20700 -0.97600 35.10900
H  17.53200 -0.23400 35.47400
N  17.88200 -3.36100 27.84300
C  18.55800 -3.99400 28.87300
C  19.14400 -5.23200 28.31600
C  18.93400 -5.19500 26.88800
C  18.09600 -3.94300 26.63700
C  19.83100 -6.21700 29.20700
C  19.38500 -6.18000 25.83400
O  19.06300 -6.04900 24.68400
C  20.18000 -7.43800 26.24800
N  16.29400 -1.47700 26.05400
C  17.02100 -2.17000 25.12100
C  16.89200 -1.45300 23.74100
C  15.74700 -0.45300 23.92800
C  15.61300 -0.44200 25.41100
C  18.27600 -0.91800 23.25300
C  14.43100 -0.78300 23.18600
C  14.20000 -0.03900 21.84100
N  15.23200 -0.26900 28.38500
C  14.60700 0.56300 27.49600
C  13.83500 1.57400 28.17100
C  14.10100 1.36300 29.56700
C  14.99600 0.22700 29.66500
C  13.14700 2.70100 27.56600
C  13.87400 1.89300 30.91600
O  13.18300 2.88800 31.27500
C  14.78500 0.99200 31.95400
C  15.67600 2.05200 32.62500
O  16.84600 2.41900 32.38200
O  14.99800 2.65400 33.70500
C  15.69100 3.66200 34.48200
H  19.44700 -4.08000 30.75700
H  18.20100 -3.82600 24.51200
H  14.34500 1.21000 25.47000
H  17.61000 -0.15800 32.96100
H  18.16300 -3.01800 32.93100
H  20.37600 -1.71100 31.85000
H  20.03200 -2.41500 33.48400
H  19.73300 -0.77100 33.24200
H  16.20700 -2.69200 33.86700
H  15.18700 -1.44500 33.23100
H  15.77300 -1.63900 35.85600
H  15.47600 -0.16800 35.13400
H  19.22000 -6.42500 30.08600
H  20.76500 -5.80400 29.58600
H  19.92800 -7.22100 28.79500
H  19.41100 -8.02100 26.75500
H  21.08600 -7.20700 26.80800
H  20.37700 -7.96500 25.31400
H  16.64900 -2.28100 23.07500
H  16.09600 0.54600 23.66800
H  18.17100 0.15900 23.12300
H  18.63600 -1.37100 22.32900
H  19.04500 -1.08600 24.00700
H  13.62800 -0.47600 23.85500
H  14.40100 -1.87100 23.11400
H  15.12700 0.38300 21.45100
H  13.66000 0.84800 22.17200
H  13.51600 -0.65500 21.25800
H  13.22500 3.48100 28.32300
H  12.11500 2.38500 27.41800
H  13.43700 3.04600 26.57300
H  14.09500 0.47900 32.62400
H  15.67200 4.53600 33.83100
H  16.72400 3.39200 34.70300
H  15.13200 3.88600 35.39000

