158

Mg 17.43000 52.39500 25.30700
C  19.27800 51.01700 28.01300
C  14.83500 52.98400 27.49600
C  15.82700 53.81000 22.84400
C  20.08600 51.45700 23.24900
N  17.08000 51.78400 27.46500
C  18.06000 51.51400 28.40900
C  17.67200 51.92900 29.82700
C  16.10000 51.91800 29.65000
C  15.92400 52.26100 28.09700
C  15.32900 50.68300 30.16200
C  18.38200 53.17900 30.35800
C  18.60200 53.20900 31.89500
H  17.82600 52.36800 32.84200
N  15.59100 53.20900 25.21800
C  14.69100 53.46200 26.19900
C  13.65900 54.36000 25.68500
C  13.82300 54.40800 24.28700
C  15.17400 53.84200 24.06600
C  12.64500 55.03700 26.56600
C  12.84000 54.93400 23.20900
O  13.03900 55.00000 21.99900
C  11.53300 55.56900 23.68200
N  17.88400 52.56600 23.36700
C  17.03600 53.22700 22.47800
C  17.64300 53.40200 21.07600
C  19.00100 52.57600 21.21900
C  19.00700 52.15800 22.66800
C  16.66300 52.99800 19.91300
C  20.24400 53.40000 20.71300
C  20.76700 54.46200 21.66000
N  19.29700 51.38000 25.54200
C  20.22800 51.05600 24.57100
C  21.34800 50.41200 25.23700
C  21.04200 50.38800 26.65800
C  19.77500 50.96300 26.73700
C  22.62900 50.00000 24.60200
C  21.58300 50.08100 27.91900
O  22.61000 49.47400 28.23100
C  20.45400 50.53800 28.84500
C  20.21300 49.35700 29.69100
O  19.76000 48.30700 29.31800
O  20.40100 49.66400 31.03300
C  19.95600 48.66800 31.97600
H  14.15400 53.26600 28.30100
H  15.18100 54.36900 22.16400
H  21.00700 51.26600 22.69400
H  17.87300 51.07400 30.47100
H  15.78800 52.71600 30.32400
H  15.77800 50.25100 31.05600
H  15.14700 49.97100 29.35700
H  14.37900 51.01700 30.57700
H  17.77400 54.07400 30.22700
H  19.25400 53.37500 29.73500
H  18.54700 54.24000 32.24500
H  19.60900 52.79800 31.96700
H  12.83400 56.10900 26.51400
H  12.72700 54.75300 27.61500
H  11.61700 54.81300 26.27800
H  11.60000 56.49500 24.25200
H  11.01200 54.75400 24.18400
H  10.92900 55.87400 22.82800
H  17.85200 54.45500 20.89100
H  18.81500 51.65600 20.66400
H  15.71900 52.79200 20.41600
H  16.98300 52.11100 19.36600
H  16.76300 53.85400 19.24600
H  19.97900 53.95600 19.81400
H  21.00200 52.67500 20.41800
H  20.59900 54.12600 22.68300
H  20.32600 55.45000 21.52500
H  21.84300 54.60200 21.55900
H  22.84200 50.63200 23.74000
H  22.51900 48.99800 24.18800
H  23.39500 50.09100 25.37200
H  20.96900 51.33000 29.39000
H  20.71800 47.89300 31.89000
H  18.94300 48.33400 31.75400
H  19.88900 48.97400 33.02000
Mg -2.19100 35.05000 26.95200
C  -3.59900 33.18200 29.66200
C  -1.12700 37.32400 29.49000
C  -1.07200 37.06500 24.59200
C  -3.77500 33.07600 24.67500
N  -2.31700 35.18300 29.32300
C  -2.88500 34.29400 30.19000
C  -2.74400 34.80600 31.69000
C  -2.05900 36.22900 31.52200
C  -1.85700 36.30900 30.04100
C  -2.79100 37.49800 32.17500
C  -2.01500 33.77600 32.61500
C  -2.85200 33.37900 33.81200
H  -2.10600 32.78400 35.02400
N  -1.09800 36.86200 27.08000
C  -0.78000 37.59200 28.15100
C  0.17200 38.60200 27.71700
C  0.19100 38.59800 26.26700
C  -0.71200 37.55300 25.89000
C  0.94500 39.45500 28.64900
C  0.92500 39.41900 25.22600
O  0.65600 39.38800 24.03600
C  2.08800 40.37900 25.65300
N  -2.41500 35.03900 24.90700
C  -1.89200 35.99500 24.15400
C  -2.01200 35.61800 22.65000
C  -2.83700 34.38300 22.68300
C  -2.97500 34.08100 24.19800
C  -2.51600 36.69500 21.65000
C  -2.42000 33.22000 21.79900
C  -1.68700 32.04600 22.40000
N  -3.54000 33.52400 27.09200
C  -4.03400 32.73300 26.03300
C  -4.94800 31.75700 26.50800
C  -4.70600 31.89100 27.93100
C  -3.85900 32.90200 28.24600
C  -5.76400 30.87000 25.69200
C  -5.05000 31.23600 29.25900
O  -5.68800 30.24900 29.55900
C  -4.33900 32.14800 30.33800
C  -5.35300 32.64300 31.28500
O  -6.00000 33.69400 31.14400
O  -5.58500 31.76400 32.30400
C  -6.63400 32.15700 33.25700
H  -0.87800 38.11000 30.20600
H  -0.68700 37.67100 23.76900
H  -4.27100 32.39200 23.98400
H  -3.74600 34.84000 32.11900
H  -1.03400 36.35300 31.87400
H  -3.25500 38.06000 31.36500
H  -2.00300 38.16700 32.52200
H  -3.47900 37.26700 32.98900
H  -1.04800 34.18500 32.90800
H  -1.88500 32.90100 31.97700
H  -3.57200 32.62200 33.50300
H  -3.43900 34.22200 34.17800
H  0.84800 39.32400 29.72700
H  0.50700 40.44200 28.50400
H  2.00400 39.55200 28.41300
H  3.01400 39.88200 25.94300
H  1.75800 41.12200 26.37900
H  2.40500 40.88900 24.74400
H  -0.99600 35.34800 22.36300
H  -3.79000 34.65500 22.22900
H  -2.75100 37.57500 22.25000
H  -3.36700 36.32800 21.07700
H  -1.72700 36.87500 20.92100
H  -1.81400 33.44100 20.92000
H  -3.38200 32.87100 21.42100
H  -0.90300 31.79000 21.68600
H  -2.36800 31.21600 22.58500
H  -1.15200 32.26200 23.32500
H  -6.41300 31.33300 24.94900
H  -6.49100 30.34500 26.31200
H  -5.15900 30.02700 25.35900
H  -3.58700 31.59700 30.90100
H  -7.62400 32.45400 32.90900
H  -6.38200 33.08000 33.77900
H  -6.67200 31.38600 34.02600

