158

Mg 1.39700 7.64000 26.14800
C  2.14600 9.77300 28.79100
C  1.49300 4.93900 28.35700
C  0.71700 5.67100 23.57000
C  1.71700 10.40700 23.90600
N  1.71300 7.44800 28.33800
C  1.97500 8.45800 29.18900
C  1.88300 7.96000 30.59800
C  1.73400 6.39700 30.49100
C  1.63100 6.23100 28.97900
C  2.96200 5.58700 30.99700
C  0.65000 8.58800 31.33600
C  0.73700 8.77300 32.91200
H  1.85500 7.95400 33.56800
N  1.26400 5.61800 25.98000
C  1.39100 4.66100 26.95500
C  1.19400 3.33300 26.38500
C  0.86200 3.55700 25.03000
C  0.95500 4.99500 24.76500
C  1.15300 2.03300 27.23300
C  0.70800 2.50700 23.97700
O  0.58800 2.81100 22.78300
C  0.55600 1.05200 24.32800
N  1.38600 8.00000 23.98200
C  0.92400 6.95300 23.21500
C  0.87100 7.37200 21.67700
C  0.77100 8.92400 21.91300
C  1.32600 9.14300 23.31300
C  2.16100 6.84900 20.95700
C  -0.55200 9.70600 21.56700
C  -0.76600 10.67300 20.37500
N  1.65700 9.68600 26.23100
C  1.78600 10.68300 25.27000
C  2.11000 11.98200 25.87000
C  2.22200 11.63000 27.27100
C  2.06600 10.20700 27.45600
C  1.91100 13.36700 25.33400
C  2.48200 12.14600 28.62900
O  2.69000 13.28600 29.05600
C  2.37200 11.02200 29.63700
C  3.56300 11.08900 30.58600
O  4.63400 10.59000 30.33100
O  3.12600 11.70000 31.77700
C  4.04300 11.95200 32.92700
H  1.37900 4.05500 28.98700
H  0.56700 5.01800 22.70800
H  1.87800 11.22700 23.20200
H  2.78900 8.25700 31.12800
H  0.83100 6.12600 31.03800
H  2.61500 4.55800 31.09200
H  3.47900 5.97400 31.87500
H  3.69500 5.60400 30.18900
H  -0.31000 8.17500 31.02700
H  0.60400 9.59400 30.91800
H  -0.21800 8.41200 33.29500
H  0.79400 9.82500 33.19100
H  1.75900 1.29100 26.71300
H  0.13700 1.64500 27.30700
H  1.47300 2.16100 28.26600
H  1.54200 0.64000 24.54200
H  0.22200 0.48400 23.45900
H  -0.05300 0.95400 25.22600
H  -0.07700 7.14000 21.19100
H  1.58200 9.29900 21.29000
H  2.75500 6.27800 21.67100
H  2.75800 7.66000 20.54000
H  1.84100 6.09400 20.23900
H  -0.78000 10.25900 22.47800
H  -1.34100 8.95800 21.48300
H  0.10800 10.77000 19.73000
H  -0.91600 11.65200 20.83000
H  -1.64600 10.51900 19.75200
H  1.61400 13.46500 24.28900
H  2.94200 13.71400 25.28300
H  1.23400 13.96100 25.94800
H  1.47600 11.32000 30.18100
H  4.78300 12.71000 32.67000
H  4.79500 11.17000 33.03400
H  3.61400 12.12000 33.91500
Mg 26.01000 51.43000 26.26100
C  23.76500 52.55400 28.57100
C  28.09000 50.41300 28.97100
C  28.43100 50.86700 24.10900
C  24.04100 52.83300 23.72600
N  26.03800 51.74300 28.54600
C  24.91200 52.10500 29.26400
C  25.18900 52.01500 30.81300
C  26.63200 51.57000 30.80000
C  27.01100 51.21600 29.35100
C  27.59700 52.67700 31.34500
C  24.18400 50.97700 31.55300
C  23.47300 51.51500 32.75600
H  24.27300 51.94300 34.04300
N  27.93200 50.64100 26.48000
C  28.52700 50.23800 27.60100
C  29.90500 49.91300 27.30800
C  30.10300 50.08500 25.89800
C  28.76300 50.58200 25.41700
C  30.87600 49.31300 28.44100
C  31.24200 49.83100 24.94600
O  31.22900 50.04100 23.72500
C  32.47400 49.36200 25.56900
N  26.23100 51.94800 24.17800
C  27.30300 51.44800 23.48700
C  27.14400 51.79700 22.03200
C  25.64200 52.25100 21.85500
C  25.28000 52.36300 23.32500
C  28.28700 52.61300 21.32600
C  24.83600 51.13700 21.12400
C  23.61400 51.60600 20.41200
N  24.16200 52.38100 26.15200
C  23.46900 52.78700 25.04000
C  22.09600 53.24700 25.49100
C  22.20900 53.12400 26.88000
C  23.45900 52.58300 27.19700
C  20.95600 53.83300 24.63100
C  21.47600 53.41800 28.14600
O  20.36400 53.86300 28.40100
C  22.51600 53.07000 29.29000
C  22.73800 54.29700 30.13100
O  23.83200 54.93900 30.16400
O  21.77900 54.37200 31.13700
C  22.11800 55.27900 32.23600
H  28.68300 50.12300 29.84000
H  29.19600 50.66500 23.35700
H  23.49200 53.18700 22.85100
H  25.03900 53.01000 31.23000
H  26.77100 50.69300 31.43300
H  27.08400 53.28600 32.09000
H  27.92200 53.29500 30.50900
H  28.56600 52.27500 31.64100
H  24.86800 50.22900 31.95300
H  23.44200 50.57700 30.86200
H  22.77200 50.70200 32.94300
H  23.01800 52.43800 32.39700
H  30.29600 48.95500 29.29200
H  31.50300 50.11000 28.84100
H  31.48400 48.48400 28.07800
H  32.32100 48.33000 25.88300
H  32.70600 49.90100 26.48800
H  33.30000 49.52600 24.87800
H  27.35100 50.80600 21.62800
H  25.59300 53.24400 21.40800
H  29.05700 52.73900 22.08800
H  28.00500 53.57900 20.90900
H  28.77500 51.95500 20.60600
H  24.45900 50.44100 21.87300
H  25.44900 50.64700 20.36900
H  23.94000 51.99900 19.44800
H  23.06800 52.29900 21.05200
H  23.00900 50.73200 20.17100
H  20.85900 53.23700 23.72400
H  21.24300 54.80500 24.23000
H  20.00700 53.89800 25.16400
H  22.07400 52.24800 29.85300
H  23.12700 54.93100 32.45500
H  21.37800 55.41300 33.02500
H  22.26800 56.30600 31.90300

