158

Mg 48.37400 34.80000 26.80500
C  46.49100 33.32000 29.49100
C  48.70500 37.60900 28.70800
C  49.87300 36.15800 24.18800
C  47.46900 32.07600 24.99900
N  47.41300 35.40100 28.82200
C  46.90100 34.64600 29.78000
C  47.06400 35.32900 31.17200
C  47.39200 36.77600 30.72900
C  47.88600 36.59400 29.34000
C  46.23700 37.80000 30.99000
C  48.16600 34.47800 31.94000
C  47.98200 34.39800 33.45700
H  46.82000 35.23700 34.02700
N  49.14300 36.65700 26.51700
C  49.27000 37.63500 27.41100
C  50.04300 38.74700 26.80200
C  50.38500 38.29900 25.46800
C  49.77600 36.96800 25.36700
C  50.36200 40.14700 27.49400
C  51.27200 38.97000 24.38200
O  51.51300 38.67100 23.22500
C  52.03000 40.22300 24.82000
N  48.52400 34.30600 24.88100
C  49.24000 34.99700 23.91600
C  49.11100 34.25000 22.60100
C  48.67500 32.85400 22.92900
C  48.17700 33.02700 24.33800
C  48.32700 35.02100 21.59300
C  49.76600 31.75700 22.98700
C  50.53200 31.50700 21.66100
N  47.19900 32.99700 27.08800
C  46.93400 31.96800 26.24200
C  46.15000 30.92000 26.89100
C  45.93800 31.38800 28.13300
C  46.61400 32.67400 28.23500
C  45.74800 29.59000 26.33100
C  45.27700 31.08500 29.40100
O  44.57200 30.15300 29.66000
C  45.61300 32.30000 30.35700
C  46.28800 31.75100 31.51700
O  47.41100 31.28700 31.58200
O  45.31300 31.67900 32.51700
C  45.72600 31.00800 33.74300
H  48.93800 38.55700 29.19700
H  50.35200 36.73500 23.39400
H  47.16400 31.24700 24.35600
H  46.03700 35.23300 31.52300
H  48.13000 37.11000 31.45700
H  45.31000 37.46000 31.45300
H  45.92900 38.15500 30.00700
H  46.63700 38.68800 31.48000
H  49.03900 35.05700 31.63900
H  48.26400 33.46100 31.56000
H  48.92700 34.79100 33.83300
H  47.91400 33.34700 33.73900
H  51.40200 40.45500 27.37800
H  50.22000 40.12700 28.57400
H  49.72600 40.98900 27.22000
H  52.91500 40.40100 24.21000
H  52.59700 40.00400 25.72500
H  51.34900 41.06600 24.93700
H  50.11600 34.16200 22.18800
H  47.82600 32.57800 22.30300
H  47.88800 35.86000 22.13300
H  47.57900 34.35700 21.16000
H  48.80200 35.44700 20.71000
H  49.26900 30.86600 23.37100
H  50.51800 32.00200 23.73800
H  50.65500 30.42800 21.57100
H  51.54100 31.91900 21.64800
H  49.92600 31.90700 20.84900
H  46.47600 29.38300 25.54700
H  44.69600 29.54500 26.05200
H  45.83300 28.92400 27.19000
H  44.72300 32.78800 30.75400
H  45.40400 29.98200 33.56600
H  45.12700 31.45000 34.53900
H  46.79400 31.12600 33.92600
Mg -10.01800 16.96600 40.44500
C  -6.60900 16.84400 40.54400
C  -9.76700 20.35800 39.57300
C  -13.40000 17.04400 39.95900
C  -10.05800 13.48900 40.44500
N  -8.35200 18.34600 39.96100
C  -7.07600 18.05000 40.10500
C  -6.26500 19.22300 39.53500
C  -7.17000 20.43900 39.74400
C  -8.50400 19.71300 39.75300
C  -6.95000 21.30900 40.98700
C  -5.79100 18.94200 38.07100
C  -4.37800 18.61500 37.66000
H  -4.14500 17.22900 37.01400
N  -11.38200 18.53400 39.92200
C  -11.08300 19.86600 39.54600
C  -12.30800 20.56900 39.28300
C  -13.37600 19.61400 39.44900
C  -12.72100 18.33200 39.82200
C  -12.27700 22.02200 38.99900
C  -14.79100 19.91200 39.36000
O  -15.10400 21.08400 39.13600
C  -15.87000 18.96200 39.59200
N  -11.47900 15.49300 40.18700
C  -12.85600 15.76700 40.06300
C  -13.68500 14.47500 39.98300
C  -12.51000 13.33500 39.95300
C  -11.25600 14.16500 40.19800
C  -14.67100 14.23600 41.10800
C  -12.33000 12.57000 38.58200
C  -12.39500 11.00400 38.63600
N  -8.67500 15.36900 40.57100
C  -8.82700 14.09400 40.64100
C  -7.46200 13.46200 40.98600
C  -6.58300 14.54100 41.06600
C  -7.37000 15.63200 40.70800
C  -7.30300 11.99400 41.20600
C  -5.20900 14.94900 41.25600
O  -4.25700 14.26300 41.66500
C  -5.10900 16.42700 40.82400
C  -4.62600 17.36500 41.93400
O  -5.30200 18.17500 42.53600
O  -3.32900 17.10800 42.24300
C  -2.73800 18.01100 43.24000
H  -9.60500 21.38900 39.25100
H  -14.44700 17.01300 39.65100
H  -10.18500 12.40500 40.47200
H  -5.38000 19.24900 40.17100
H  -7.25700 21.17200 38.94200
H  -6.04800 21.00600 41.51800
H  -7.80200 21.18000 41.65500
H  -6.75600 22.34300 40.70500
H  -6.02300 19.79500 37.43400
H  -6.41600 18.16000 37.64000
H  -3.75500 18.72000 38.54800
H  -4.14500 19.32500 36.86700
H  -12.25200 22.59300 39.92700
H  -13.03100 22.25300 38.24700
H  -11.32800 22.28300 38.52900
H  -15.70100 18.51800 40.57300
H  -15.86100 18.20200 38.81000
H  -16.84600 19.44500 39.56600
H  -14.27800 14.46100 39.06800
H  -12.67200 12.64200 40.77900
H  -14.47300 14.93900 41.91700
H  -14.55400 13.20300 41.43400
H  -15.71100 14.48300 40.89200
H  -11.34200 12.78700 38.17400
H  -13.00900 12.91400 37.80200
H  -12.00800 10.70800 39.61100
H  -11.63900 10.58200 37.97300
H  -13.39800 10.62300 38.44500
H  -6.47100 11.66100 41.82700
H  -7.15100 11.46600 40.26500
H  -8.12200 11.51300 41.74100
H  -4.53100 16.53800 39.90700
H  -2.80400 18.98600 42.75700
H  -1.69400 17.91700 43.54100
H  -3.36100 17.99200 44.13400

