158

Mg 1.87300 -1.02000 43.88800
C  5.22100 -0.39000 43.59800
C  1.19800 2.06500 42.39000
C  -1.34500 -1.91600 43.30600
C  2.59300 -4.36600 44.88000
N  3.09300 0.57300 42.89200
C  4.49700 0.69600 42.99600
C  4.95400 1.88900 42.30900
C  3.66400 2.69700 42.13500
C  2.51400 1.73300 42.48300
C  3.57600 4.04600 42.89300
C  5.58800 1.40800 40.90700
C  6.92600 1.93600 40.49000
H  7.17900 2.17100 39.03500
N  0.10600 -0.00500 43.09800
C  0.04800 1.22700 42.61600
C  -1.34000 1.52000 42.24400
C  -2.09300 0.36000 42.44400
C  -1.10100 -0.59700 42.96800
C  -1.79200 2.87200 41.69900
C  -3.49100 0.14600 41.91900
O  -4.13100 1.08600 41.45700
C  -4.23100 -1.12100 42.20800
N  0.82600 -2.96800 44.02900
C  -0.54400 -2.95400 43.85900
C  -1.12700 -4.38200 44.13700
C  0.11200 -5.17300 44.60000
C  1.28100 -4.13300 44.48400
C  -2.24100 -4.41200 45.20300
C  0.55000 -6.44400 43.84500
C  0.48000 -7.73900 44.59800
N  3.57600 -2.18400 44.20500
C  3.66400 -3.46700 44.67600
C  5.09300 -3.72300 44.90600
C  5.69900 -2.53800 44.49600
C  4.77200 -1.65000 44.06300
C  5.72400 -5.02600 45.45000
C  7.09000 -1.89900 44.34900
O  8.18500 -2.27500 44.68100
C  6.78900 -0.47500 43.76600
C  7.39700 0.55800 44.56800
O  7.37500 0.57500 45.74900
O  8.05100 1.47900 43.79700
C  8.63900 2.58700 44.60400
H  1.02200 3.09700 42.07800
H  -2.29900 -2.42500 43.14800
H  2.80800 -5.38200 45.21600
H  5.72800 2.41900 42.86400
H  3.52800 2.92900 41.07900
H  3.63400 4.80800 42.11700
H  4.49900 4.07900 43.47200
H  2.62400 4.15900 43.41100
H  4.95300 1.59500 40.04100
H  5.78400 0.33700 40.87900
H  7.64300 1.20300 40.85900
H  7.15000 2.79500 41.12300
H  -2.25800 2.78800 40.71700
H  -1.04900 3.66700 41.75800
H  -2.66700 3.12200 42.30000
H  -5.30100 -1.01300 42.03300
H  -4.06500 -1.34100 43.26200
H  -3.73700 -1.89300 41.61700
H  -1.48100 -4.76900 43.18100
H  0.02700 -5.37700 45.66700
H  -2.93900 -3.59800 45.00500
H  -1.77900 -4.44500 46.18900
H  -2.72100 -5.38000 45.05800
H  1.56400 -6.36500 43.45200
H  -0.14300 -6.49800 43.00500
H  1.47000 -8.13500 44.37200
H  -0.15800 -8.52100 44.18700
H  0.43900 -7.54800 45.67100
H  6.08400 -5.56700 44.57500
H  5.05700 -5.56200 46.12500
H  6.53900 -4.77700 46.12900
H  7.29600 -0.27800 42.82100
H  9.34500 3.15400 43.99800
H  8.99700 2.39600 45.61600
H  7.82200 3.26300 44.86000
Mg 48.36800 45.25800 42.42000
C  45.10800 45.82600 40.95300
C  48.33500 42.26300 40.97200
C  51.67800 45.34700 42.44300
C  48.15700 48.61700 43.51400
N  46.92700 44.26600 40.97700
C  45.58800 44.57900 40.58600
C  44.88000 43.43900 39.84500
C  45.81700 42.23700 40.23300
C  47.16200 42.92600 40.78300
C  45.24200 41.27900 41.34900
C  44.70900 43.82500 38.36800
C  43.52700 43.20800 37.68800
H  43.75900 42.70200 36.24800
N  49.81700 43.90400 42.00200
C  49.55300 42.66100 41.34200
C  50.86000 41.94000 41.19300
C  51.84900 42.90400 41.69500
C  51.13800 44.12400 42.01700
C  51.09100 40.66600 40.66400
C  53.30600 42.60100 41.92600
O  53.75200 41.51200 41.58400
C  54.28700 43.48600 42.58900
N  49.66600 46.75800 42.88300
C  50.99300 46.51000 42.92000
C  51.78300 47.77500 43.40400
C  50.67900 48.70000 43.80200
C  49.39500 47.96200 43.48100
C  52.93100 47.60100 44.43300
C  50.73200 50.03500 43.15900
C  50.41300 51.23200 44.14100
N  46.93900 46.90900 42.31500
C  46.98100 48.16800 42.87900
C  45.74500 48.88900 42.63800
C  44.98700 47.92400 41.91600
C  45.79000 46.79500 41.71300
C  45.45300 50.32500 43.00500
C  43.65100 47.69100 41.30000
O  42.67700 48.48000 41.23400
C  43.72600 46.34500 40.62800
C  42.62500 45.62400 41.36600
O  41.72200 45.00300 40.89100
O  42.88300 45.79000 42.75000
C  42.01000 44.94500 43.54700
H  48.25700 41.22500 40.64200
H  52.76900 45.34500 42.39600
H  48.16600 49.62700 43.93100
H  43.91600 43.27200 40.32700
H  45.93100 41.58100 39.37000
H  44.62900 41.89500 42.00600
H  45.98800 40.68000 41.87100
H  44.55500 40.53200 40.95000
H  45.58500 43.39400 37.88300
H  44.79400 44.88200 38.11700
H  42.74900 43.97000 37.63900
H  43.06600 42.39500 38.24800
H  50.10400 40.23900 40.48400
H  51.65300 40.14900 41.44200
H  51.58800 40.76800 39.70000
H  53.84900 43.87200 43.50900
H  54.55600 44.27000 41.88000
H  55.15200 42.86900 42.83200
H  52.22200 48.09300 42.45800
H  50.68500 48.87400 44.87800
H  52.98200 46.56200 44.75700
H  53.01500 48.22400 45.32300
H  53.89500 47.71400 43.93800
H  49.99500 50.11100 42.35900
H  51.74300 50.15100 42.77000
H  49.63700 51.08600 44.89200
H  50.12500 52.07400 43.51200
H  51.30000 51.34800 44.76500
H  45.92700 51.09200 42.39200
H  45.82300 50.44500 44.02300
H  44.38300 50.52900 43.01800
H  43.42700 46.39900 39.58100
H  41.61300 44.07800 43.01700
H  41.20800 45.56900 43.94100
H  42.59000 44.66100 44.42500

