158

Mg 41.74600 40.80600 26.45500
C  41.13100 43.06400 29.02500
C  43.10400 38.58700 28.81800
C  42.38800 38.37700 24.04200
C  41.10000 43.20700 24.14300
N  42.09400 40.83800 28.62400
C  41.58200 41.80100 29.43700
C  41.56700 41.31500 30.90500
C  42.48300 39.99900 30.85100
C  42.58300 39.79700 29.34600
C  43.83600 40.20700 31.62400
C  40.20600 41.09400 31.58400
C  40.02400 41.94100 32.90300
H  39.45000 41.24200 34.18100
N  42.59000 38.77400 26.40200
C  43.02400 38.04000 27.52000
C  43.53800 36.74400 27.13000
C  43.32400 36.70100 25.74500
C  42.65400 37.94700 25.34200
C  44.12000 35.72500 28.05600
C  43.76100 35.61500 24.79500
O  43.35100 35.55600 23.61500
C  44.50800 34.50100 25.28900
N  41.88300 40.85500 24.37600
C  42.06100 39.70900 23.55300
C  42.09000 40.14700 22.07500
C  41.44700 41.58300 22.15500
C  41.45900 41.97600 23.64700
C  43.50800 40.12000 21.49300
C  39.97500 41.69500 21.70600
C  38.95100 40.75400 22.40000
N  41.25800 42.78900 26.59200
C  41.01100 43.63400 25.48600
C  40.55800 44.88300 25.99900
C  40.53900 44.71000 27.41500
C  41.07300 43.38800 27.70300
C  40.28100 46.13700 25.19600
C  40.17600 45.29500 28.68500
O  39.79700 46.42400 28.93500
C  40.50800 44.24300 29.86500
C  41.41300 44.86600 30.88100
O  42.64600 44.77100 30.82000
O  40.68000 45.51100 31.87300
C  41.40900 46.09600 33.02500
H  43.61200 38.05500 29.62500
H  42.68600 37.63800 23.29600
H  40.83500 43.96700 23.40500
H  42.03000 42.17200 31.39400
H  41.91000 39.23200 31.37200
H  44.65200 39.78900 31.03300
H  43.64000 39.59100 32.50100
H  44.18400 41.21700 31.84100
H  40.08300 40.03300 31.80100
H  39.47600 41.31000 30.80400
H  39.29000 42.73900 32.78600
H  40.89800 42.56800 33.07700
H  43.50200 34.83500 27.93300
H  44.15600 36.16400 29.05300
H  45.18400 35.54400 27.89700
H  44.12100 33.79200 26.02100
H  45.51500 34.82100 25.55600
H  44.72600 33.90500 24.40300
H  41.52900 39.34300 21.59900
H  42.15400 42.30100 21.73900
H  43.62700 39.79600 20.45900
H  44.16600 39.67600 22.23900
H  43.86600 41.14900 21.47100
H  39.99300 41.44200 20.64600
H  39.68600 42.73600 21.85400
H  39.41400 40.21200 23.22500
H  38.60800 39.99400 21.69900
H  38.06400 41.23800 22.80800
H  39.59600 45.82200 24.41000
H  41.24300 46.39100 24.75100
H  39.89700 46.87400 25.90200
H  39.52600 44.02600 30.28600
H  42.12200 46.76200 32.53900
H  41.87500 45.24000 33.51200
H  40.79300 46.56000 33.79500
Mg 6.46700 54.55900 40.43900
C  5.73700 51.09000 40.14600
C  9.66900 53.86900 39.96500
C  6.83300 57.59600 39.49400
C  2.98300 54.98500 40.90700
N  7.48200 52.75400 39.93200
C  7.04900 51.43400 39.92600
C  8.24200 50.42700 39.63100
C  9.38600 51.41100 40.05700
C  8.85200 52.77400 40.06200
C  9.98900 51.05900 41.48400
C  8.26700 49.95200 38.19300
C  8.01600 50.99300 37.09700
H  6.84100 50.65900 36.09800
N  8.15800 55.66500 39.99900
C  9.41900 55.26800 39.90400
C  10.28600 56.32800 39.64700
C  9.43800 57.50900 39.32400
C  8.05800 56.96500 39.56400
C  11.85600 56.26400 39.58900
C  9.90500 58.94400 38.98100
O  11.06900 59.25100 38.93900
C  8.97800 60.09600 38.95000
N  5.07400 56.06000 40.18000
C  5.52900 57.27000 39.81100
C  4.27400 58.27500 39.58900
C  3.09400 57.47400 40.17800
C  3.66400 56.07200 40.36200
C  4.51500 59.54500 40.49800
C  1.78800 57.47300 39.26900
C  0.43600 57.84900 39.84700
N  4.67900 53.30200 40.54600
C  3.43500 53.62500 40.92100
C  2.67600 52.47200 41.25200
C  3.53300 51.40300 40.84000
C  4.72800 51.98400 40.42600
C  1.23900 52.48100 41.65000
C  3.66500 49.91100 40.82100
O  2.96800 49.00600 41.28900
C  5.09900 49.73500 40.32800
C  5.02300 48.93500 38.99600
O  4.59800 49.45300 37.96000
O  5.37300 47.66500 39.20600
C  5.40000 46.89900 37.99000
H  10.71700 53.56800 40.02800
H  6.93000 58.60200 39.08000
H  1.97900 55.23900 41.25100
H  8.12300 49.60900 40.34200
H  10.27100 51.35100 39.42400
H  10.94700 50.58500 41.27400
H  9.35900 50.35100 42.02300
H  10.09700 51.89200 42.17900
H  7.58100 49.11500 38.06600
H  9.28500 49.65500 37.93900
H  8.91200 51.17300 36.50300
H  7.76400 51.93900 37.57600
H  12.25700 56.23100 38.57600
H  12.20400 55.40300 40.15800
H  12.36800 56.97000 40.24300
H  9.52200 60.99800 39.23100
H  8.19000 60.07100 39.70200
H  8.58200 60.14700 37.93600
H  4.22900 58.49100 38.52200
H  2.77700 57.83700 41.15600
H  4.16500 60.40600 39.92800
H  5.53200 59.60100 40.88600
H  3.93100 59.50900 41.41800
H  1.56100 56.43100 39.04100
H  1.92500 58.07500 38.37100
H  -0.38300 57.13200 39.79700
H  0.09100 58.66500 39.21200
H  0.61600 58.09200 40.89400
H  1.12000 53.32100 42.33400
H  0.90300 51.66100 42.28500
H  0.55600 52.64000 40.81600
H  5.59700 49.05300 41.01700
H  5.76500 47.49900 37.15800
H  4.36500 46.60100 37.82400
H  5.96700 45.97800 38.13300

