158

Mg 29.82000 58.06700 41.65400
C  26.96000 56.64000 39.99500
C  31.73300 55.99400 39.89800
C  32.34400 60.28300 42.22200
C  27.50800 60.66700 42.91800
N  29.40100 56.69200 40.06600
C  28.19600 56.16000 39.60100
C  28.36700 55.02700 38.64300
C  29.88300 54.64200 38.87600
C  30.36800 55.88900 39.65500
C  30.35100 53.26700 39.46500
C  27.99400 55.28800 37.11100
C  26.88000 54.46600 36.48100
H  26.16600 54.97400 35.25100
N  31.85700 57.97400 41.34600
C  32.45900 56.99100 40.59800
C  33.93700 57.19400 40.73600
C  34.09600 58.43700 41.44400
C  32.71900 58.98000 41.72100
C  34.82800 56.14400 40.11000
C  35.46800 59.17400 41.70500
O  36.52000 58.60100 41.48000
C  35.61500 60.57300 42.24900
N  29.89700 60.30600 42.38700
C  31.08200 60.92000 42.54800
C  30.90900 62.32800 43.07100
C  29.39200 62.34800 43.42100
C  28.85200 61.05500 42.84600
C  31.95800 62.88800 44.06800
C  28.60000 63.66200 43.12100
C  27.86500 64.35100 44.23300
N  27.65700 58.46900 41.71200
C  26.95400 59.55500 42.18000
C  25.56700 59.33400 41.90600
C  25.58600 58.14800 41.14100
C  26.85500 57.72300 40.92600
C  24.39600 60.05000 42.41500
C  24.73700 57.31800 40.42100
O  23.53200 57.43700 40.32100
C  25.55600 56.29200 39.66900
C  25.25700 54.96800 40.19100
O  25.51500 54.56200 41.34100
O  24.51300 54.20500 39.32300
C  23.76700 53.03000 39.77400
H  32.33200 55.14900 39.55200
H  33.15500 61.01200 42.28900
H  26.76300 61.37800 43.28300
H  27.69600 54.20800 38.89900
H  30.45700 54.74100 37.95500
H  30.59200 53.24400 40.52700
H  31.24000 52.93800 38.92600
H  29.52600 52.61500 39.17600
H  28.88500 55.03500 36.53700
H  27.71300 56.33700 37.01900
H  26.16000 54.32600 37.28600
H  27.30300 53.51400 36.16100
H  34.79400 55.21900 40.68600
H  35.82800 56.56700 40.02000
H  34.50700 55.96000 39.08500
H  35.27400 61.24000 41.45600
H  36.63100 60.79100 42.57800
H  34.93000 60.68100 43.09000
H  30.95100 62.97200 42.19200
H  29.29600 62.09400 44.47700
H  31.65700 62.75600 45.10700
H  32.14000 63.94700 43.88400
H  32.97300 62.50900 43.94800
H  27.82900 63.29300 42.44400
H  29.16600 64.42500 42.58600
H  27.92800 65.43000 44.08900
H  28.31500 64.15700 45.20700
H  26.81300 64.07000 44.18200
H  24.20900 59.69600 43.42900
H  23.48300 60.01900 41.81900
H  24.69300 61.08300 42.59500
H  25.22800 56.34200 38.63000
H  22.70100 53.22900 39.66900
H  23.95900 52.64400 40.77600
H  23.99300 52.21600 39.08600
Mg -5.31500 25.85400 26.10300
C  -4.10200 27.48300 28.89100
C  -7.03600 23.68900 28.03100
C  -6.00200 24.10600 23.29400
C  -3.25600 27.76600 24.10100
N  -5.35500 25.51900 28.21000
C  -4.91400 26.42900 29.14700
C  -5.70500 26.16500 30.52600
C  -6.38400 24.81900 30.25200
C  -6.21000 24.62600 28.72800
C  -5.93600 23.51100 31.04400
C  -6.67700 27.32900 31.02600
C  -7.12900 27.29100 32.47300
H  -6.49300 26.26200 33.46500
N  -6.53800 24.18800 25.67100
C  -7.23100 23.49000 26.62600
C  -8.01500 22.57200 25.97700
C  -7.72400 22.60000 24.55900
C  -6.69800 23.68100 24.43900
C  -9.01600 21.64900 26.64800
C  -8.41700 21.90100 23.42100
O  -8.12700 22.12000 22.22800
C  -9.52400 20.90900 23.73200
N  -4.79700 26.07300 23.95200
C  -5.08300 25.08700 23.05200
C  -4.36100 25.35600 21.70100
C  -3.65400 26.67900 21.97900
C  -3.86000 26.83000 23.45700
C  -3.54000 24.15800 21.11800
C  -4.21600 27.86600 21.07900
C  -3.13300 28.81000 20.44600
N  -4.04600 27.47300 26.36000
C  -3.28000 28.15000 25.43400
C  -2.41600 29.00700 26.17300
C  -2.72500 28.93800 27.53600
C  -3.73500 27.90900 27.58900
C  -1.41200 29.93000 25.52800
C  -2.36800 29.27800 28.88600
O  -1.40900 29.93900 29.36300
C  -3.39400 28.48000 29.81400
C  -2.61600 27.82500 30.97500
O  -1.73600 26.98500 30.93800
O  -3.14600 28.26600 32.16600
C  -2.42700 27.85300 33.39800
H  -7.61400 22.95700 28.59900
H  -6.19100 23.58300 22.35400
H  -2.50400 28.18300 23.42800
H  -4.92700 25.95500 31.26000
H  -7.43800 24.95800 30.49100
H  -5.06600 23.75700 31.65200
H  -5.82000 22.63200 30.41000
H  -6.74200 23.19600 31.70800
H  -7.60700 27.41500 30.46400
H  -6.10000 28.25300 30.98700
H  -8.21800 27.25200 32.47000
H  -7.04600 28.32500 32.80700
H  -10.00700 21.78400 26.21400
H  -9.04800 21.90300 27.70800
H  -8.74000 20.62200 26.41000
H  -10.35500 21.56100 24.00300
H  -9.16700 20.25400 24.52600
H  -9.73600 20.25500 22.88600
H  -5.25400 25.42100 21.07900
H  -2.60200 26.55800 21.72100
H  -3.43500 23.34700 21.83800
H  -2.57500 24.51800 20.76100
H  -3.99000 23.61900 20.28400
H  -4.97900 28.34400 21.69200
H  -4.67800 27.35900 20.23200
H  -3.31000 28.77400 19.37100
H  -2.10800 28.48400 20.62400
H  -3.34500 29.85700 20.66100
H  -1.03500 30.56500 26.33000
H  -1.94000 30.52400 24.78200
H  -0.55400 29.46200 25.04600
H  -4.00700 29.24600 30.28800
H  -2.03100 28.74000 33.89300
H  -1.61900 27.13700 33.24400
H  -3.15200 27.43400 34.09500

