158

Mg 10.14300 47.75900 26.03300
C  7.79600 48.09200 28.75100
C  12.32300 49.39700 27.95000
C  12.07200 47.94200 23.41500
C  7.36600 46.93700 23.88100
N  10.05500 48.42500 28.10900
C  9.10500 48.42400 29.08700
C  9.63300 48.93800 30.48200
C  10.86000 49.74000 29.94500
C  11.09900 49.17900 28.55600
C  10.70600 51.28500 29.91200
C  9.98900 47.80000 31.47400
C  10.01800 48.08800 33.00100
H  9.47500 47.12000 34.07400
N  12.02800 48.34200 25.84000
C  12.83500 48.94000 26.72000
C  14.16400 49.02200 26.21700
C  14.10800 48.60000 24.85800
C  12.67900 48.27600 24.64000
C  15.24900 49.48000 27.16300
C  15.15500 48.50700 23.84700
O  14.90600 48.10900 22.71000
C  16.61500 48.82000 24.14200
N  9.78300 47.63800 23.88200
C  10.78100 47.56600 23.06300
C  10.41600 47.19000 21.59700
C  9.00700 46.60100 21.82900
C  8.71000 47.04300 23.30000
C  10.31400 48.42300 20.68900
C  8.87100 45.01100 21.60200
C  9.24800 44.13000 22.78000
N  8.03300 47.53000 26.24800
C  7.07500 47.10700 25.27700
C  5.78600 47.28400 25.88000
C  6.03500 47.63300 27.24000
C  7.42800 47.79300 27.39200
C  4.51400 47.06200 25.22700
C  5.39400 47.84900 28.47700
O  4.19100 47.73700 28.65400
C  6.51900 48.31400 29.53600
C  6.38600 47.46700 30.71500
O  6.82200 46.34500 30.88400
O  5.66500 48.15300 31.64300
C  5.52000 47.50800 32.95400
H  12.89200 50.10500 28.55700
H  12.71400 47.99300 22.53400
H  6.52100 46.68100 23.23800
H  8.90100 49.58600 30.96300
H  11.67600 49.71900 30.66800
H  9.74500 51.62700 30.29600
H  10.81900 51.65700 28.89400
H  11.58800 51.76700 30.33300
H  10.96700 47.43400 31.16200
H  9.32200 46.95300 31.31200
H  9.52600 49.05700 33.08500
H  11.07700 48.23600 33.20800
H  15.05500 49.35900 28.22900
H  15.43600 50.53200 26.94800
H  16.18500 48.96600 26.94600
H  16.96700 48.09500 24.87600
H  16.56400 49.82600 24.55800
H  17.19100 48.78100 23.21800
H  11.10400 46.47400 21.14800
H  8.28900 47.12900 21.20100
H  11.12400 48.22400 19.98700
H  10.59100 49.25100 21.34200
H  9.42800 48.58100 20.07400
H  9.68200 44.73500 20.92900
H  7.90800 44.88600 21.10500
H  8.83100 44.43600 23.74000
H  10.30700 43.98800 22.99800
H  8.88300 43.13800 22.51200
H  3.95600 47.99400 25.13200
H  3.99000 46.38800 25.90500
H  4.57500 46.52900 24.27900
H  6.39700 49.39000 29.65700
H  5.46700 46.41900 32.95400
H  4.52800 47.75300 33.33300
H  6.32700 47.81700 33.61800
Mg 0.96100 43.06200 26.51700
C  2.97400 43.28700 29.31800
C  -1.81700 42.47900 28.67700
C  -1.04300 42.95300 23.87900
C  3.73100 43.32500 24.58100
N  0.55000 42.80800 28.73700
C  1.59200 43.02500 29.63900
C  1.11200 43.13900 31.05600
C  -0.37900 42.54600 30.85600
C  -0.57000 42.51900 29.34900
C  -0.49200 41.10100 31.42600
C  1.04400 44.57500 31.68700
C  1.23500 44.65200 33.16800
H  0.88900 43.36600 34.01200
N  -1.18000 42.82100 26.29800
C  -2.12700 42.68000 27.30900
C  -3.40500 42.64300 26.62600
C  -3.18100 42.93200 25.24700
C  -1.76900 42.91600 25.08300
C  -4.69700 42.48400 27.44100
C  -4.16300 43.18800 24.16800
O  -3.81000 43.51400 23.03000
C  -5.66000 43.20000 24.32800
N  1.28900 43.15500 24.52200
C  0.32000 43.06100 23.54400
C  0.78300 43.06400 22.13700
C  2.29000 43.43900 22.45800
C  2.46100 43.38800 23.97000
C  0.54000 41.70600 21.44600
C  2.63900 44.82100 21.93600
C  3.81500 44.98100 20.93100
N  2.95700 43.22500 26.84200
C  4.01300 43.37900 25.97900
C  5.29700 43.34800 26.68600
C  4.89800 43.38100 28.01900
C  3.52700 43.26200 28.07600
C  6.61800 43.45000 26.17200
C  5.44800 43.46800 29.38400
O  6.60000 43.60200 29.76700
C  4.12700 43.42100 30.25400
C  4.32500 42.14800 31.05500
O  4.19000 41.01300 30.71900
O  4.71400 42.55900 32.32000
C  4.96900 41.41400 33.24800
H  -2.63300 42.31700 29.38400
H  -1.54900 42.93000 22.91100
H  4.54100 43.37200 23.85000
H  1.76900 42.50400 31.65000
H  -1.14300 43.19000 31.29000
H  0.13400 40.99000 32.31200
H  -0.28000 40.33800 30.67700
H  -1.50800 40.98200 31.80200
H  0.08300 45.02500 31.43600
H  1.81400 45.11800 31.14000
H  0.66700 45.52500 33.49000
H  2.29600 44.84700 33.32700
H  -5.38000 41.71200 27.08700
H  -5.25300 43.41700 27.35200
H  -4.44100 42.19400 28.46100
H  -5.95600 42.15800 24.45400
H  -6.23700 43.67200 23.53200
H  -5.93500 43.75000 25.22800
H  0.23000 43.89400 21.69600
H  2.87400 42.69000 21.92300
H  1.44100 41.13400 21.22700
H  -0.00600 41.89300 20.52200
H  -0.00700 40.98900 22.05800
H  2.79700 45.43900 22.82100
H  1.81900 45.26800 21.37500
H  4.46000 44.16900 20.59600
H  4.38400 45.83900 21.29000
H  3.42900 45.35300 19.98200
H  6.66700 44.18200 25.36500
H  7.11500 42.51800 25.90300
H  7.21600 43.92300 26.95200
H  4.05600 44.25100 30.95600
H  5.61200 40.72700 32.69800
H  3.98100 41.05800 33.54000
H  5.65800 41.81800 33.98900

