158

Mg 8.27700 3.72800 27.95000
C  9.97900 2.33600 30.58000
C  6.71700 5.87300 30.07300
C  6.57000 4.87900 25.27000
C  9.97900 1.50700 25.88400
N  8.10800 3.94800 30.08100
C  9.00800 3.25900 30.96500
C  9.01300 3.86300 32.35900
C  7.86000 4.92200 32.22100
C  7.50100 4.92600 30.72000
C  6.57500 4.73300 33.16900
C  10.36200 4.50800 32.83200
C  11.14000 3.81300 33.97600
H  11.22100 4.57900 35.30100
N  6.83100 5.18300 27.69700
C  6.30000 5.99700 28.67300
C  5.27300 6.79700 28.03400
C  5.23100 6.58000 26.65200
C  6.25100 5.44600 26.47100
C  4.46500 7.81600 28.89700
C  4.36000 7.21400 25.51800
O  4.53400 6.89000 24.34200
C  3.41400 8.34400 25.81200
N  8.28500 3.23900 25.88900
C  7.50200 3.89200 24.97000
C  7.86200 3.57600 23.50900
C  9.04800 2.56700 23.76600
C  9.05200 2.37500 25.29400
C  6.66200 3.00400 22.70400
C  10.44400 2.98400 23.09500
C  11.14600 1.96200 22.08100
N  9.58900 2.13300 28.16500
C  10.15000 1.29900 27.21500
C  11.09300 0.41000 27.85400
C  11.06100 0.80900 29.20600
C  10.12500 1.85700 29.33600
C  11.91700 -0.67800 27.23400
C  11.55800 0.45800 30.48400
O  12.37800 -0.38900 30.73800
C  10.88400 1.40400 31.50100
C  10.08900 0.61800 32.54300
O  8.92500 0.21200 32.49800
O  10.97600 0.37000 33.54600
C  10.34100 -0.20500 34.69400
H  6.17200 6.51200 30.76900
H  6.07900 5.22900 24.36000
H  10.46600 0.89900 25.11800
H  8.69400 3.16600 33.13400
H  8.29000 5.90000 32.43900
H  5.69500 4.63400 32.53400
H  6.57700 5.53800 33.90300
H  6.54300 3.86900 33.83300
H  10.13400 5.52800 33.14200
H  11.02300 4.50000 31.96500
H  12.15100 3.48400 33.73600
H  10.63600 2.87800 34.21900
H  4.74300 7.68600 29.94300
H  3.44600 7.50600 28.66900
H  4.73400 8.81700 28.55900
H  2.66400 8.19300 26.58900
H  2.97300 8.80400 24.92900
H  4.07800 9.14600 26.13400
H  8.14700 4.58500 23.21200
H  8.90400 1.53600 23.44400
H  5.79700 2.96700 23.36700
H  6.80600 1.95800 22.43500
H  6.55200 3.61100 21.80500
H  11.05600 3.21500 23.96700
H  10.26900 3.94900 22.62000
H  11.08600 2.37000 21.07200
H  10.65100 0.99300 22.02400
H  12.21200 1.90800 22.30000
H  12.30400 -0.18800 26.34000
H  11.46900 -1.64000 26.98800
H  12.71000 -0.88100 27.95400
H  11.71600 1.98600 31.89700
H  9.65600 -0.99400 34.38400
H  9.79800 0.57000 35.23600
H  11.11000 -0.55500 35.38200
Mg -2.26500 34.25700 25.51800
C  -4.04000 32.79200 28.14900
C  -0.67100 36.28400 27.74400
C  -0.77300 35.80800 22.92200
C  -4.12700 32.28600 23.27500
N  -2.50400 34.67900 27.68800
C  -3.16900 33.80600 28.54700
C  -2.74400 34.05400 30.04500
C  -1.93700 35.44100 29.96000
C  -1.68600 35.49300 28.44500
C  -2.46400 36.74100 30.55100
C  -1.97700 32.83600 30.76000
C  -2.77100 32.14400 31.92000
H  -2.04500 31.89700 33.27300
N  -0.97000 35.80400 25.32700
C  -0.35200 36.44400 26.38700
C  0.66500 37.39800 25.89600
C  0.69600 37.13900 24.51700
C  -0.34800 36.20100 24.17200
C  1.55300 38.20200 26.76100
C  1.71600 37.60300 23.53500
O  1.75800 37.26500 22.33900
C  2.82000 38.50800 23.91000
N  -2.47100 34.11200 23.39500
C  -1.67000 34.80500 22.54500
C  -1.94500 34.37700 21.05500
C  -2.88400 33.21000 21.17600
C  -3.21900 33.22300 22.65200
C  -2.37400 35.50200 20.07600
C  -2.37800 31.76600 20.70100
C  -1.54600 30.86900 21.56700
N  -3.82000 32.89600 25.62100
C  -4.36500 32.08700 24.64600
C  -5.34300 31.17000 25.32400
C  -5.21000 31.45500 26.73000
C  -4.33200 32.44800 26.84400
C  -6.24700 30.15600 24.60400
C  -5.71600 31.11800 27.98800
O  -6.52200 30.28900 28.33700
C  -4.91900 31.93300 28.98800
C  -5.87800 32.67700 29.82000
O  -6.18200 33.79200 29.56400
O  -6.08800 32.03400 30.98500
C  -6.83900 32.80100 32.03600
H  -0.05300 36.66500 28.56000
H  -0.25700 36.23200 22.05800
H  -4.80200 31.75600 22.60000
H  -3.64000 34.14400 30.65900
H  -0.93500 35.33800 30.37600
H  -3.34400 36.56900 31.17000
H  -2.67100 37.44300 29.74300
H  -1.69400 37.18300 31.18400
H  -1.01400 33.23200 31.08400
H  -1.65900 32.22300 29.91700
H  -3.05600 31.15200 31.56800
H  -3.69300 32.69000 32.11600
H  2.55500 37.78500 26.66200
H  1.26400 38.20400 27.81200
H  1.62800 39.28000 26.62200
H  2.44900 39.28000 24.58500
H  3.13200 39.11700 23.06100
H  3.75700 38.05800 24.23700
H  -1.05200 33.90000 20.65000
H  -3.81800 33.42600 20.65700
H  -1.58800 35.99300 19.50300
H  -2.85600 36.31900 20.61300
H  -3.18000 35.24900 19.38800
H  -1.76200 31.99900 19.83200
H  -3.23700 31.27100 20.24800
H  -0.67600 30.64200 20.95100
H  -2.04500 29.93100 21.81000
H  -1.27500 31.37600 22.49300
H  -5.79000 30.01600 23.62500
H  -7.20700 30.59200 24.32800
H  -6.28500 29.26200 25.22700
H  -4.27300 31.24900 29.53800
H  -6.49400 33.81000 32.26000
H  -6.72500 32.32800 33.01200
H  -7.88300 32.83300 31.72400

