158

Mg 2.35800 -1.46800 44.29100
C  5.38200 -0.02700 43.26600
C  0.64200 0.83500 42.40700
C  -0.45600 -3.10200 44.97900
C  4.21300 -4.20200 45.57600
N  2.97500 0.22800 43.14500
C  4.25100 0.64900 42.80400
C  4.18300 1.85500 41.86000
C  2.62900 2.21500 41.76600
C  2.02400 0.97700 42.47800
C  2.16300 3.64700 42.40300
C  4.99100 1.72200 40.58000
C  6.03600 2.82600 40.23000
H  5.93800 3.52900 38.85700
N  0.26200 -1.17000 43.82400
C  -0.17900 -0.16900 42.99300
C  -1.59800 -0.32900 42.79400
C  -1.95100 -1.48600 43.51100
C  -0.70500 -1.97400 44.08900
C  -2.38700 0.64700 41.93000
C  -3.34500 -2.09100 43.49400
O  -4.24700 -1.68300 42.78900
C  -3.65200 -3.32800 44.33200
N  1.92900 -3.46400 45.10700
C  0.72300 -3.68200 45.55500
C  0.71500 -4.97000 46.38500
C  2.24000 -5.41600 46.37400
C  2.81300 -4.28600 45.70000
C  0.05800 -5.00300 47.87000
C  2.43400 -6.83700 45.74200
C  3.36400 -7.66600 46.57200
N  4.33300 -2.08800 44.35400
C  4.91300 -3.20500 44.93000
C  6.36800 -3.16900 44.68900
C  6.57200 -1.91000 44.08900
C  5.32600 -1.26100 43.96400
C  7.27600 -4.19300 45.29400
C  7.55600 -0.97900 43.65200
O  8.79500 -1.10100 43.70500
C  6.84700 0.29300 43.07100
C  7.27700 1.47300 43.85900
O  6.85800 1.68300 44.98100
O  8.27100 2.24500 43.25600
C  8.78500 3.38900 44.04500
H  0.02500 1.54700 41.85400
H  -1.36100 -3.53500 45.41200
H  4.71700 -5.03100 46.07800
H  4.65200 2.67700 42.40000
H  2.31200 2.24300 40.72300
H  1.44700 3.61100 43.22500
H  1.67300 4.17800 41.58800
H  2.99200 4.22400 42.81100
H  4.32700 1.68800 39.71600
H  5.42000 0.72400 40.66400
H  6.99000 2.30100 40.17100
H  5.96200 3.52200 41.06500
H  -2.64000 0.24100 40.95100
H  -1.96200 1.63500 41.75300
H  -3.34600 0.86200 42.40100
H  -4.68300 -3.54600 44.05300
H  -3.59100 -3.01800 45.37500
H  -2.98200 -4.12000 43.99900
H  0.12000 -5.69000 45.82300
H  2.53900 -5.41200 47.42200
H  0.09800 -4.12000 48.50700
H  0.68500 -5.63700 48.49700
H  -0.96100 -5.33200 47.66800
H  3.01500 -6.73500 44.82600
H  1.57300 -7.45800 45.49500
H  3.36300 -8.65300 46.11000
H  3.01700 -7.71800 47.60400
H  4.31800 -7.14000 46.60000
H  7.21900 -5.08900 44.67600
H  7.01700 -4.59100 46.27500
H  8.25900 -3.79700 45.03500
H  7.32100 0.58600 42.13500
H  9.49700 3.10400 44.81900
H  7.96600 3.86600 44.58400
H  9.14200 4.22100 43.43800
Mg 49.29200 44.51700 43.83300
C  46.07300 45.02400 42.70300
C  49.14700 41.25900 43.22100
C  52.66400 44.51000 44.20900
C  49.46200 48.16800 44.21900
N  47.75500 43.29800 43.07600
C  46.52000 43.67400 42.68500
C  45.76300 42.45700 42.18600
C  46.60800 41.22300 42.75600
C  47.97600 41.91300 43.04200
C  46.00600 40.62500 44.11300
C  45.66200 42.36700 40.66700
C  44.34800 42.04400 39.98200
H  43.68000 42.97800 38.95500
N  50.74600 43.09400 43.56100
C  50.50400 41.76200 43.38400
C  51.72100 41.06500 43.38100
C  52.77200 42.01500 43.52500
C  52.05300 43.27400 43.87200
C  51.83000 39.57000 43.20600
C  54.33100 41.74400 43.41900
O  54.54000 40.54700 43.24800
C  55.49300 42.77200 43.36900
N  50.81700 46.12000 44.25100
C  52.14700 45.75800 44.30500
C  53.12600 46.99700 44.41000
C  52.09200 48.15300 44.42300
C  50.64800 47.47600 44.24700
C  54.16600 46.99700 45.63700
C  52.34100 49.22600 43.29500
C  52.44600 50.67700 43.81400
N  48.00700 46.23700 43.51500
C  48.20800 47.62500 43.78000
C  47.02100 48.44500 43.39700
C  46.11300 47.41100 42.92400
C  46.79300 46.07700 43.10700
C  46.98500 50.01500 43.45500
C  44.78900 47.22400 42.35800
O  43.97800 48.00700 41.95800
C  44.73100 45.62500 42.24400
C  43.61000 45.06900 43.09400
O  43.63700 45.07800 44.33600
O  42.55700 44.62900 42.30000
C  41.33100 44.44900 43.06800
H  49.02400 40.17400 43.18700
H  53.68900 44.33600 44.54100
H  49.51500 49.25700 44.28500
H  44.76500 42.61200 42.59800
H  46.65400 40.49500 41.94600
H  45.59800 41.35600 44.81100
H  46.80300 40.14600 44.68200
H  45.32000 39.82500 43.83300
H  46.36500 41.62900 40.28000
H  45.86700 43.35600 40.25800
H  43.57900 41.89000 40.74000
H  44.39000 41.09700 39.44400
H  52.54100 39.34000 42.41200
H  50.91700 39.03200 42.95000
H  52.27900 39.17800 44.11900
H  55.18500 43.63800 42.78300
H  56.31100 42.23800 42.88800
H  55.80700 42.95400 44.39700
H  53.67600 47.02900 43.47000
H  52.19800 48.67700 45.37300
H  54.36600 46.03300 46.10400
H  53.77000 47.76600 46.30000
H  55.13500 47.32200 45.25800
H  51.53000 49.23400 42.56700
H  53.28800 48.91600 42.85500
H  52.23300 50.72400 44.88200
H  51.80400 51.37700 43.27900
H  53.46700 51.00300 43.61800
H  46.93700 50.30000 44.50600
H  46.05600 50.35600 42.99700
H  47.84500 50.44600 42.94200
H  44.45400 45.39000 41.21600
H  40.63800 44.26200 42.24800
H  41.01200 45.31700 43.64500
H  41.28300 43.51400 43.62700

