158

Mg 7.50800 3.23200 28.08700
C  8.93800 1.75000 30.92600
C  5.59600 5.19400 30.29000
C  5.71500 4.22600 25.46500
C  9.20800 0.86400 26.05400
N  7.17000 3.34500 30.40200
C  8.05500 2.82000 31.27900
C  7.84600 3.49400 32.64700
C  6.40900 4.20400 32.57900
C  6.41400 4.25400 30.97500
C  5.27900 3.25300 33.09300
C  9.00500 4.39400 33.06000
C  10.02200 4.02300 34.17900
H  10.12600 4.95200 35.41700
N  5.95800 4.60400 27.86400
C  5.38700 5.33000 28.87600
C  4.41700 6.18700 28.25400
C  4.52400 6.09500 26.84200
C  5.44700 4.94700 26.68700
C  3.52400 7.04200 29.14100
C  3.85300 6.86400 25.75000
O  4.14700 6.57500 24.64200
C  2.88000 7.91500 26.03600
N  7.39700 2.57800 26.13700
C  6.65800 3.25000 25.18300
C  6.97500 2.73100 23.76400
C  8.10100 1.71000 23.97100
C  8.30200 1.76800 25.44700
C  5.68200 2.19500 23.09300
C  9.45200 2.06600 23.26200
C  10.51100 2.90900 24.01300
N  8.86300 1.57300 28.35300
C  9.44400 0.71400 27.44000
C  10.23700 -0.24500 28.19100
C  10.20000 0.13700 29.55000
C  9.24700 1.22100 29.62400
C  10.92700 -1.46400 27.71600
C  10.66100 -0.10700 30.88500
O  11.46400 -0.93500 31.40600
C  10.01100 1.06000 31.74000
C  9.36900 0.53100 32.95200
O  8.18600 0.15000 32.95800
O  10.29600 0.50900 34.02300
C  9.81100 0.05700 35.41600
H  5.04600 5.82600 30.99000
H  5.07400 4.44400 24.60900
H  9.70100 0.11200 25.43400
H  7.76700 2.69900 33.38800
H  6.30700 5.17600 33.06200
H  5.03700 3.59900 34.09800
H  5.63000 2.22600 33.19400
H  4.41600 3.28200 32.42800
H  8.62400 5.38200 33.31500
H  9.71100 4.54600 32.24400
H  10.99500 3.96000 33.69200
H  9.84300 2.99800 34.50500
H  2.58200 6.49200 29.15300
H  3.56600 8.06900 28.77900
H  3.86700 7.14900 30.17000
H  1.94800 7.42500 26.31800
H  2.61800 8.45500 25.12600
H  3.09100 8.65700 26.80500
H  7.37600 3.55600 23.17500
H  7.83200 0.70300 23.65100
H  4.87700 2.32700 23.81600
H  5.74300 1.11700 22.93900
H  5.52100 2.88100 22.26200
H  9.13400 2.59800 22.36600
H  9.96300 1.14100 22.99400
H  11.21200 2.18800 24.43200
H  9.95400 3.50600 24.73600
H  11.04300 3.65600 23.42300
H  10.83200 -1.58900 26.63700
H  10.68400 -2.38100 28.25300
H  12.00600 -1.36500 27.83200
H  10.72500 1.79700 32.10900
H  9.03300 -0.65500 35.14100
H  9.53900 0.87600 36.08200
H  10.66900 -0.41600 35.89400
Mg 30.58700 58.06500 41.37800
C  27.98300 56.09300 40.01700
C  32.73300 55.82300 39.90300
C  33.08000 60.25400 41.94600
C  28.21500 60.42500 42.11100
N  30.32700 56.21200 40.07900
C  29.21400 55.56000 39.71800
C  29.48800 54.25900 39.03200
C  30.93000 54.02700 39.46300
C  31.42600 55.42000 39.84200
C  31.17500 52.96000 40.50100
C  29.18800 54.24800 37.49300
C  28.07200 53.38000 36.87500
H  27.04700 54.21700 36.02200
N  32.55000 58.00900 41.02600
C  33.27400 56.96600 40.45900
C  34.66600 57.28800 40.37100
C  34.74100 58.54200 40.89100
C  33.40700 58.99400 41.37700
C  35.74900 56.28200 39.91000
C  36.02400 59.28700 41.00900
O  37.14500 58.80800 40.70000
C  36.12600 60.69600 41.41900
N  30.67000 60.11900 41.96600
C  31.80900 60.82100 42.13900
C  31.57700 62.24500 42.71300
C  30.02000 62.28200 42.62600
C  29.58400 60.82400 42.15900
C  32.29200 62.61400 44.03800
C  29.49600 63.47000 41.74100
C  28.42200 64.40700 42.38300
N  28.46900 58.27600 41.28400
C  27.62700 59.21000 41.74500
C  26.22900 58.77400 41.51600
C  26.33900 57.53400 40.89200
C  27.72300 57.32000 40.74600
C  24.96400 59.49900 41.86500
C  25.54700 56.43500 40.30600
O  24.32800 56.28300 40.27400
C  26.61500 55.45000 39.78300
C  26.47400 54.16400 40.47200
O  26.95800 53.90000 41.55500
O  25.69100 53.33700 39.69800
C  25.14800 52.12800 40.27600
H  33.34800 54.98700 39.56300
H  33.86300 60.95900 42.23400
H  27.54200 61.26400 42.30100
H  28.96700 53.43500 39.51900
H  31.49100 53.69800 38.58800
H  30.24300 52.63300 40.96100
H  31.64900 53.39300 41.38300
H  31.79400 52.18700 40.04500
H  30.07000 53.87600 36.97200
H  29.10100 55.31900 37.31200
H  27.53200 52.84300 37.65500
H  28.51100 52.62300 36.22600
H  36.02200 56.43200 38.86500
H  35.50900 55.23700 40.10500
H  36.69500 56.46500 40.42000
H  35.46700 61.25500 40.75400
H  37.16500 61.01600 41.35000
H  35.79200 60.84800 42.44500
H  31.92200 62.80400 41.84300
H  29.66500 62.36500 43.65300
H  32.98600 61.79600 44.23100
H  31.53400 62.85200 44.78400
H  32.93000 63.46200 43.79200
H  29.11600 62.94200 40.86700
H  30.33200 64.07900 41.39600
H  28.48100 65.45600 42.09100
H  28.42600 64.21500 43.45500
H  27.40500 64.09700 42.14300
H  25.13700 60.57400 41.83500
H  24.76100 59.23600 42.90400
H  24.17500 59.16600 41.19000
H  26.34200 55.45200 38.72800
H  24.11800 52.39200 40.51500
H  25.73800 51.63900 41.05100
H  25.06100 51.33800 39.53000

