158

Mg 25.47700 51.29600 26.38800
C  23.20300 51.99600 29.10000
C  27.65300 50.19500 28.88000
C  27.82200 51.13100 24.07100
C  23.17400 52.44900 24.11300
N  25.44200 51.21700 28.79500
C  24.40700 51.51400 29.65900
C  24.77500 51.25400 31.15400
C  26.24100 50.68600 31.02200
C  26.44000 50.66000 29.47700
C  27.22500 51.58200 31.60900
C  23.78300 50.31400 31.82200
C  23.44600 50.55700 33.34100
H  24.45800 51.29900 34.24500
N  27.43900 50.68800 26.45600
C  28.14900 50.24500 27.53300
C  29.50000 49.75400 27.03800
C  29.55000 50.13500 25.71000
C  28.23400 50.64000 25.34900
C  30.59000 49.21200 27.96700
C  30.76300 49.99400 24.77400
O  30.73600 50.32900 23.59700
C  32.12800 49.60100 25.27200
N  25.55200 51.72700 24.39700
C  26.62700 51.65400 23.62600
C  26.27100 51.76300 22.05300
C  24.74300 52.18800 22.08300
C  24.43700 52.12500 23.64500
C  27.22100 52.77000 21.33500
C  23.89300 51.28400 21.15800
C  23.51300 49.86300 21.51400
N  23.65800 52.07200 26.55000
C  22.78600 52.42700 25.50800
C  21.55700 52.77900 26.07200
C  21.70000 52.65000 27.42400
C  22.95500 52.18400 27.72600
C  20.35400 53.23700 25.40900
C  20.98500 52.84700 28.69000
O  19.84600 53.23800 28.90000
C  21.91500 52.40100 29.84000
C  22.08300 53.66600 30.62100
O  22.56200 54.69800 30.24000
O  21.58100 53.47600 31.94800
C  21.93100 54.50400 32.95100
H  28.35800 49.92500 29.67000
H  28.52400 50.78300 23.31100
H  22.41300 52.71600 23.37700
H  24.62100 52.20200 31.67000
H  26.43800 49.66600 31.35400
H  26.86500 52.11200 32.49100
H  27.41000 52.48500 31.02900
H  28.19200 51.16200 31.88700
H  24.27300 49.34100 31.84900
H  22.88600 50.30900 31.20400
H  23.22900 49.58800 33.79000
H  22.61600 51.26300 33.33100
H  30.21100 49.15300 28.98700
H  31.42600 49.91100 27.93300
H  30.89300 48.19800 27.70400
H  32.25900 48.74700 25.93700
H  32.54000 50.41800 25.86500
H  32.81800 49.33100 24.47200
H  26.44500 50.79700 21.58100
H  24.53500 53.14300 21.60300
H  28.19000 52.93300 21.80600
H  26.77600 53.75200 21.49600
H  27.27900 52.57100 20.26500
H  24.43000 51.26800 20.20900
H  22.97000 51.77900 20.85800
H  23.87000 49.20400 20.72200
H  22.43300 49.74900 21.42100
H  23.67100 49.55000 22.54600
H  20.25400 54.32200 25.37300
H  19.51200 52.81600 25.95900
H  20.23000 52.88600 24.38500
H  21.29800 51.78600 30.49500
H  21.70100 54.19500 33.97000
H  21.34900 55.38400 32.67700
H  22.95300 54.85800 32.81400
Mg 6.47600 57.00700 41.62800
C  6.03400 53.36500 41.83800
C  9.58600 56.22300 40.28100
C  6.83400 60.14800 40.98000
C  3.28000 57.18300 42.80000
N  7.60400 54.95100 40.97600
C  7.22000 53.66300 41.11100
C  8.32300 52.68600 40.65700
C  9.59700 53.62200 40.52700
C  8.93800 55.04800 40.64000
C  10.77100 53.46300 41.61200
C  7.82500 52.02900 39.27900
C  8.04300 50.51600 39.04300
H  7.70700 49.89900 37.64500
N  7.96000 58.00100 40.65100
C  9.18500 57.59100 40.25700
C  9.92100 58.73200 39.60100
C  9.10100 59.92400 39.70600
C  7.89100 59.42100 40.48400
C  11.30100 58.56400 39.11000
C  9.36900 61.29200 39.16600
O  10.31500 61.49200 38.39400
C  8.47700 62.48600 39.48600
N  5.19000 58.43500 41.61000
C  5.63200 59.73900 41.58900
C  4.59500 60.69500 42.22500
C  3.36700 59.75900 42.64800
C  3.95600 58.34200 42.34000
C  5.35300 61.56400 43.30900
C  1.99500 60.05700 41.89900
C  1.79900 61.47600 41.18900
N  5.01000 55.60000 42.36100
C  3.72400 55.88200 42.79100
C  3.12700 54.70500 43.34900
C  3.99100 53.67800 43.00300
C  5.13500 54.29700 42.38200
C  1.84400 54.65700 44.12900
C  4.14000 52.23500 43.05200
O  3.41200 51.36200 43.47900
C  5.44500 51.92500 42.14800
C  5.01300 51.09500 40.99500
O  4.23400 51.48200 40.12100
O  5.43900 49.79300 41.16100
C  4.88100 48.81300 40.22000
H  10.64200 56.16400 40.01000
H  6.75900 61.22500 40.81500
H  2.35600 57.25000 43.37800
H  8.46700 51.88900 41.38700
H  10.04500 53.61200 39.53300
H  10.67200 52.59400 42.26300
H  10.87600 54.37700 42.19700
H  11.75500 53.43200 41.14300
H  8.48400 52.45100 38.52000
H  6.80700 52.38900 39.12900
H  7.50400 50.03800 39.86000
H  9.08700 50.23900 39.18800
H  11.97100 58.04000 39.79100
H  11.62900 59.58300 38.90300
H  11.40700 58.09200 38.13300
H  8.35100 62.46900 40.56800
H  7.53600 62.55800 38.94100
H  8.98600 63.41200 39.22000
H  4.25400 61.42800 41.49400
H  3.24200 59.85200 43.72600
H  6.41100 61.30700 43.26500
H  5.02400 61.26400 44.30400
H  5.17500 62.62800 43.14800
H  1.17100 59.92200 42.60000
H  1.93400 59.28600 41.13100
H  2.43700 61.69500 40.33300
H  1.80000 62.33300 41.86200
H  0.77400 61.30900 40.85800
H  1.18000 55.50800 43.97200
H  2.12900 54.68000 45.18000
H  1.35600 53.69100 43.99400
H  6.22700 51.36900 42.66400
H  4.04000 49.10900 39.59300
H  4.60500 48.00900 40.90100
H  5.60500 48.46900 39.48100

