158

Mg 44.81900 3.66200 46.87100
C  42.69600 6.42600 46.92600
C  42.10000 1.56600 46.94800
C  46.93700 1.16400 46.44700
C  47.61500 5.99500 46.87300
N  42.63400 3.99400 46.75100
C  41.99200 5.18700 46.73500
C  40.43700 5.03700 46.88400
C  40.24700 3.46100 47.07700
C  41.74100 2.93600 46.90600
C  39.52900 2.96700 48.35200
C  39.56700 5.65900 45.79400
C  39.84800 5.25800 44.42100
H  40.22900 6.40700 43.52400
N  44.56900 1.66000 46.64300
C  43.36300 0.97200 46.75500
C  43.70100 -0.39100 46.68000
C  45.01000 -0.59400 46.26800
C  45.61700 0.75200 46.43600
C  42.62700 -1.45400 46.86200
C  45.71400 -1.90700 45.86500
O  45.11700 -2.98200 45.83600
C  47.13000 -1.94100 45.54100
N  46.94600 3.65700 46.40900
C  47.49900 2.40300 46.54200
C  48.96800 2.44700 46.81500
C  49.26700 4.03000 46.62800
C  47.86400 4.65200 46.75600
C  49.41000 1.81400 48.19700
C  50.14700 4.50800 45.45600
C  51.65300 4.18200 45.66200
N  45.11700 5.77900 46.82900
C  46.31600 6.52700 46.87300
C  45.88600 7.91600 47.07000
C  44.48300 7.90100 47.09300
C  44.07100 6.53900 46.99400
C  46.83300 9.13800 47.16700
C  43.36000 8.80900 47.33400
O  43.23700 10.02800 47.47900
C  42.15400 7.86600 47.23800
C  41.40300 7.82500 48.45700
O  41.74500 7.15200 49.40600
O  40.15700 8.36900 48.27500
C  39.22100 8.38100 49.40500
H  41.19900 0.94900 46.93600
H  47.63400 0.34900 46.24100
H  48.46100 6.68600 46.87300
H  40.10200 5.49400 47.81500
H  39.73900 3.08000 46.19100
H  38.83100 2.22700 47.96100
H  39.06000 3.73000 48.97300
H  40.21400 2.42400 49.00300
H  39.73100 6.73200 45.89900
H  38.50900 5.51500 46.01400
H  38.91000 4.84300 44.05300
H  40.70200 4.59800 44.26600
H  41.76500 -1.17400 47.46700
H  43.03300 -2.35300 47.32500
H  42.28600 -1.77600 45.87800
H  47.67800 -1.76900 46.46700
H  47.30500 -1.19500 44.76600
H  47.29200 -2.93100 45.11500
H  49.53300 1.91600 46.04900
H  49.77300 4.36600 47.53300
H  50.22700 1.11700 48.01200
H  48.62900 1.15100 48.56900
H  49.72000 2.60600 48.87800
H  50.01200 5.57700 45.29400
H  49.79300 3.93800 44.59700
H  52.03700 3.51700 44.88900
H  51.82300 3.84800 46.68600
H  52.19500 5.12800 45.62300
H  47.83500 8.76700 47.38100
H  46.35100 9.65300 47.99800
H  46.77400 9.77500 46.28500
H  41.50700 8.12000 46.39800
H  38.38500 7.76300 49.07700
H  38.88400 9.39600 49.61800
H  39.49900 7.80800 50.28900
Mg 35.24700 2.53500 29.63300
C  32.94300 3.59000 32.10500
C  37.55800 2.42900 32.14000
C  37.52000 2.38400 27.26700
C  32.62900 2.62600 27.27100
N  35.24000 3.03800 31.90000
C  34.18800 3.35600 32.70400
C  34.61100 3.31800 34.24100
C  36.17700 3.07200 34.13700
C  36.31200 2.77000 32.63500
C  37.19500 4.24500 34.65100
C  33.84700 2.16300 34.96900
C  33.71400 2.38800 36.39300
H  34.51000 3.60500 37.00700
N  37.20900 2.28100 29.66600
C  38.04500 2.27500 30.81900
C  39.45500 2.03900 30.37400
C  39.37100 2.06300 28.96200
C  37.99300 2.23300 28.56900
C  40.65200 1.71900 31.30200
C  40.52600 1.84300 28.02800
O  40.39400 1.78600 26.81300
C  42.00200 1.84700 28.52900
N  35.06000 2.32700 27.55200
C  36.15300 2.25700 26.80000
C  35.69800 2.29100 25.31800
C  34.16500 1.91200 25.40700
C  33.92900 2.29300 26.82100
C  35.91400 3.71700 24.61100
C  33.85600 0.44900 25.03800
C  32.66800 -0.22000 25.73900
N  33.24600 2.97300 29.59300
C  32.31500 3.01500 28.59600
C  31.01900 3.52000 29.15800
C  31.24500 3.72600 30.48900
C  32.59600 3.34800 30.77700
C  29.72000 3.67600 28.43000
C  30.62100 4.13300 31.81700
O  29.47500 4.51800 32.09200
C  31.66100 3.98100 32.88600
C  31.85600 5.21700 33.65600
O  32.33000 6.24400 33.28000
O  31.24700 5.07100 34.88200
C  31.34100 6.20300 35.81400
H  38.31000 2.42600 32.93200
H  38.25700 2.31600 26.46400
H  31.71800 2.64200 26.67000
H  34.38400 4.32900 34.58100
H  36.50200 2.24600 34.76900
H  37.40400 4.78800 33.73000
H  38.14100 3.79700 34.95500
H  36.78400 4.87900 35.43600
H  34.40700 1.23000 34.91000
H  32.89200 1.96800 34.48000
H  34.06700 1.49200 36.90300
H  32.65700 2.49000 36.63800
H  40.43100 1.71000 32.37000
H  41.41700 2.45800 31.06400
H  41.11500 0.78300 30.99000
H  42.33500 2.71400 29.09900
H  42.67400 1.99400 27.68300
H  42.28900 0.89700 28.97900
H  36.17800 1.47400 24.77800
H  33.61100 2.64900 24.82600
H  36.40100 3.56900 23.64700
H  36.63600 4.34500 25.13200
H  34.98800 4.29000 24.55900
H  34.73100 -0.10800 25.37400
H  33.65400 0.41800 23.96800
H  32.07400 0.60300 26.13600
H  33.04500 -0.99000 26.41100
H  32.05000 -0.81100 25.06300
H  29.78300 3.57200 27.34700
H  29.38700 4.70200 28.58600
H  28.93200 3.01900 28.79700
H  31.34200 3.20900 33.58600
H  32.38000 6.53300 35.83900
H  31.01500 6.02400 36.83800
H  30.86100 7.09500 35.41100

