158

Mg 8.00500 2.98700 26.99100
C  8.94400 1.57800 29.94500
C  5.76400 5.05300 28.78100
C  6.49500 4.25900 24.10100
C  9.26000 0.29900 25.31100
N  7.37400 3.27900 29.17600
C  8.04900 2.64400 30.17500
C  7.56500 3.29300 31.57900
C  6.41200 4.31400 31.17000
C  6.43100 4.18700 29.61300
C  5.08100 4.10200 31.85800
C  8.85000 3.90500 32.24700
C  8.49000 4.79200 33.51600
H  9.28300 4.41800 34.77400
N  6.45400 4.50500 26.55500
C  5.72300 5.22500 27.42400
C  4.86000 6.19000 26.70800
C  5.10400 6.00700 25.32700
C  6.05000 4.91400 25.27100
C  3.98400 7.20500 27.35900
C  4.64200 6.84800 24.10700
O  4.62400 6.44900 22.97500
C  4.09300 8.17600 24.38100
N  8.02000 2.47800 24.97400
C  7.40700 3.18100 23.96700
C  7.59600 2.49900 22.66400
C  8.52000 1.24500 23.07400
C  8.58700 1.30600 24.57300
C  6.23200 2.14000 21.95800
C  9.94400 1.14800 22.30800
C  10.21700 -0.17700 21.62000
N  9.04100 1.35900 27.44100
C  9.70100 0.45700 26.67300
C  10.42600 -0.53800 27.46900
C  10.30800 0.01000 28.78900
C  9.38400 1.05800 28.68800
C  11.31100 -1.61500 26.95600
C  10.59500 -0.23000 30.14600
O  11.31100 -1.07900 30.75000
C  9.71000 0.76300 30.95100
C  8.74100 -0.04400 31.81400
O  7.64300 -0.56900 31.47600
O  9.31300 -0.17300 33.06100
C  8.62900 -1.01500 34.08900
H  5.08900 5.70700 29.33700
H  6.11400 4.76100 23.21000
H  9.56300 -0.54300 24.68600
H  7.22700 2.50100 32.24600
H  6.68100 5.35500 31.35100
H  4.80500 5.04500 32.33000
H  5.20700 3.41000 32.69000
H  4.27100 3.77900 31.20400
H  9.49300 4.36800 31.49800
H  9.40200 3.11100 32.75000
H  7.44000 4.68500 33.78500
H  8.61700 5.85700 33.32100
H  2.95300 7.03900 27.04600
H  4.36900 8.18600 27.08100
H  4.03600 7.27500 28.44500
H  3.15500 8.06200 24.92300
H  3.77600 8.69400 23.47600
H  4.91400 8.71900 24.85000
H  8.15200 3.15100 21.99100
H  7.90700 0.36700 22.87000
H  6.19400 2.76600 21.06600
H  5.47500 2.27300 22.73000
H  6.16200 1.07300 21.74400
H  10.77600 1.28100 23.00000
H  10.15100 2.04300 21.72000
H  11.13800 -0.48400 22.11600
H  10.50100 -0.02500 20.57900
H  9.42200 -0.90600 21.77700
H  11.91700 -1.16800 26.16800
H  10.64400 -2.41700 26.64000
H  11.94300 -1.70900 27.83900
H  10.44200 1.31400 31.54100
H  9.44700 -1.58000 34.53600
H  7.87300 -1.69100 33.69000
H  8.22700 -0.34300 34.84700
Mg 34.80300 2.22400 29.94100
C  32.64900 3.31200 32.50300
C  37.45100 2.55900 32.03500
C  36.86800 1.66200 27.26900
C  32.20900 3.05800 27.64200
N  35.02400 3.01400 31.99700
C  33.99100 3.12000 32.89700
C  34.56000 3.15000 34.39800
C  36.11400 3.07500 34.21200
C  36.22300 2.92600 32.66400
C  36.93300 4.27700 34.75600
C  34.01100 1.92300 35.25700
C  33.83900 2.07300 36.72500
H  34.34600 3.33400 37.33000
N  36.85200 1.97600 29.69500
C  37.78100 2.17500 30.73800
C  39.07900 1.95800 30.17800
C  38.97500 1.65200 28.81200
C  37.51300 1.73200 28.54500
C  40.34300 2.10700 31.01200
C  40.03500 1.44000 27.81700
O  39.82500 1.12100 26.62700
C  41.46200 1.48300 28.29400
N  34.53300 2.23000 27.84500
C  35.57800 1.86900 26.94000
C  35.12900 1.85600 25.46200
C  33.55500 2.24000 25.64500
C  33.40000 2.50000 27.14900
C  35.88200 2.87300 24.57800
C  32.58700 1.09700 25.15000
C  32.61000 -0.17800 26.02400
N  32.76300 2.94900 29.99900
C  31.89200 3.22300 28.97800
C  30.55300 3.49300 29.50600
C  30.81100 3.47100 30.92000
C  32.15700 3.26300 31.16900
C  29.29800 3.67700 28.72700
C  30.23300 3.73100 32.25600
O  29.08100 4.03500 32.61500
C  31.30200 3.46900 33.32800
C  31.30500 4.66900 34.25000
O  31.81000 5.74500 34.03000
O  30.68600 4.29200 35.47500
C  30.46200 5.49300 36.32400
H  38.32400 2.66500 32.68300
H  37.46100 1.39500 26.39200
H  31.35900 3.08400 26.95700
H  34.28500 4.06600 34.92000
H  36.43400 2.11200 34.60800
H  36.30100 5.11200 35.05600
H  37.58900 4.59200 33.94500
H  37.60000 4.00700 35.57500
H  34.62800 1.03000 35.16100
H  33.05600 1.59100 34.85000
H  34.27300 1.18900 37.19200
H  32.75200 2.03000 36.77900
H  40.82900 3.00200 30.62400
H  40.95200 1.22400 30.82000
H  40.12000 2.27700 32.06600
H  41.70500 2.41900 28.79700
H  42.06100 1.43000 27.38500
H  41.60000 0.66100 28.99600
H  35.32900 0.82100 25.18500
H  33.18200 3.11000 25.10500
H  35.14800 3.24500 23.86300
H  36.61700 2.55300 23.84000
H  36.23300 3.69900 25.19700
H  32.70600 0.79900 24.10900
H  31.57700 1.44400 25.37200
H  31.58600 -0.54100 26.11400
H  32.95800 0.00100 27.04100
H  33.25000 -0.94300 25.58500
H  29.41100 2.80300 28.08500
H  29.16700 4.55600 28.09700
H  28.43000 3.48000 29.35700
H  31.01000 2.56900 33.86900
H  29.64300 6.04600 35.86500
H  31.42100 6.00000 36.43700
H  30.15500 5.17400 37.32000

