158

Mg -1.74200 17.39400 26.06200
C  -1.81700 15.27200 28.84300
C  -2.34500 20.12100 28.08200
C  -1.42800 19.35000 23.28300
C  -0.91700 14.60200 24.06100
N  -2.30200 17.62200 28.21600
C  -2.16700 16.64100 29.20900
C  -2.45100 17.24100 30.56900
C  -2.87000 18.70200 30.20300
C  -2.47100 18.87200 28.73200
C  -4.40100 18.95700 30.43400
C  -1.26300 17.21300 31.63400
C  -1.62100 16.63600 32.99300
H  -2.30200 17.58600 34.07700
N  -1.93100 19.45600 25.74800
C  -2.15000 20.42300 26.69300
C  -2.17800 21.69000 26.01400
C  -1.87500 21.49500 24.59200
C  -1.72000 20.04200 24.46500
C  -2.38800 23.01700 26.81500
C  -1.77700 22.44200 23.44300
O  -1.42400 22.08200 22.27600
C  -1.88400 23.97700 23.68400
N  -1.34600 16.96000 23.97300
C  -1.37100 17.96100 23.01900
C  -0.97200 17.44800 21.57800
C  -0.47500 15.91700 21.95100
C  -0.92100 15.84100 23.43000
C  -2.17100 17.43800 20.58700
C  1.00100 15.62000 21.68100
C  2.09300 16.60900 22.18100
N  -1.75200 15.38500 26.26200
C  -1.40700 14.36200 25.38500
C  -1.45000 13.10400 26.10000
C  -1.60700 13.42600 27.43300
C  -1.70900 14.78700 27.51300
C  -1.23800 11.76600 25.47300
C  -1.67400 12.80300 28.71500
O  -1.57900 11.61900 29.05800
C  -1.94200 13.99800 29.68100
C  -0.94000 13.83400 30.76500
O  0.21200 14.19200 30.70900
O  -1.54900 13.22900 31.88900
C  -0.66000 13.01600 33.07100
H  -2.55000 21.02900 28.65400
H  -1.21000 19.90800 22.37100
H  -0.56200 13.73900 23.49400
H  -3.32100 16.82800 31.08100
H  -2.38600 19.45800 30.82100
H  -4.84400 19.42100 29.55300
H  -4.51100 19.62900 31.28500
H  -4.92200 18.01000 30.57300
H  -0.94300 18.23600 31.82800
H  -0.37400 16.70600 31.25900
H  -0.69400 16.16000 33.31400
H  -2.35400 15.84100 32.85600
H  -2.38300 22.89400 27.89800
H  -3.39400 23.29600 26.50100
H  -1.72700 23.83600 26.53300
H  -2.11200 24.45600 22.73200
H  -0.98800 24.39800 24.13900
H  -2.73900 24.06800 24.35400
H  -0.16400 18.04700 21.15600
H  -0.98200 15.10200 21.43600
H  -2.91100 18.11600 21.01200
H  -2.72000 16.49800 20.53900
H  -1.78200 17.70800 19.60600
H  1.01800 15.66500 20.59200
H  1.14300 14.58800 22.00100
H  1.57000 17.47100 22.59600
H  2.68400 16.76100 21.27700
H  2.73200 16.17900 22.95200
H  -1.14300 11.01500 26.25700
H  -0.41500 11.80500 24.75900
H  -2.18500 11.47500 25.01800
H  -2.84800 13.89000 30.27700
H  0.41100 12.97700 32.87100
H  -1.04700 12.13000 33.57300
H  -0.82300 13.85200 33.75200
Mg -8.56900 41.35800 42.33900
C  -7.99300 37.86100 41.36400
C  -5.92500 42.05900 40.15500
C  -9.67000 44.51400 42.08700
C  -11.55800 40.34600 43.72300
N  -7.06600 40.08400 41.04700
C  -7.08900 38.69000 40.69900
C  -5.77000 38.18300 40.01000
C  -5.04400 39.61700 39.78100
C  -6.00100 40.68000 40.39800
C  -3.65700 39.68800 40.55600
C  -6.21600 37.43000 38.78400
C  -5.41800 36.11500 38.38900
H  -4.51300 36.44300 37.18400
N  -7.82100 42.99300 41.28900
C  -6.78700 43.08500 40.50700
C  -6.61700 44.39500 39.95800
C  -7.61600 45.16900 40.57700
C  -8.43900 44.26400 41.38800
C  -5.59400 44.85900 38.95500
C  -7.79400 46.74000 40.49600
O  -6.97500 47.34800 39.86500
C  -8.83200 47.50100 41.07400
N  -10.40800 42.32500 42.74600
C  -10.54300 43.65600 42.77100
C  -11.95200 44.05700 43.44600
C  -12.41600 42.72700 44.13600
C  -11.37900 41.71300 43.52700
C  -11.67100 45.17900 44.43900
C  -13.88800 42.42700 43.96300
C  -14.32100 41.52100 42.80900
N  -9.50600 39.49700 42.76500
C  -10.75200 39.27300 43.32200
C  -11.01800 37.83000 43.25500
C  -9.90200 37.24100 42.58900
C  -9.07400 38.28900 42.20800
C  -12.18900 37.10100 43.75200
C  -9.28400 35.97100 42.26300
O  -9.59000 34.84500 42.57600
C  -8.04300 36.28200 41.31500
C  -6.78200 35.76300 41.91900
O  -6.20700 36.27800 42.89000
O  -6.42800 34.60700 41.27600
C  -5.40800 33.77600 41.91400
H  -5.01400 42.22800 39.57600
H  -10.09300 45.51800 42.00800
H  -12.43900 39.98300 44.25600
H  -5.32500 37.57000 40.79400
H  -4.88000 39.81500 38.72200
H  -3.68600 39.06900 41.45300
H  -3.38300 40.69500 40.87000
H  -2.83000 39.49000 39.87400
H  -6.27300 38.11200 37.93600
H  -7.26500 37.13500 38.80400
H  -6.09600 35.31800 38.08300
H  -4.74000 35.82500 39.19200
H  -4.75000 45.40000 39.38200
H  -5.99300 45.62700 38.29300
H  -5.17700 44.08200 38.31300
H  -8.91400 48.49400 40.63300
H  -8.87600 47.53000 42.16300
H  -9.72600 47.07900 40.61500
H  -12.55200 44.52500 42.66600
H  -12.06700 42.78900 45.16700
H  -11.83700 46.16800 44.01200
H  -10.63500 45.16500 44.77700
H  -12.33600 45.01500 45.28600
H  -14.36100 43.37500 43.70500
H  -14.37400 42.10000 44.88300
H  -14.89700 42.20100 42.18100
H  -14.92400 40.65800 43.08900
H  -13.46300 41.18600 42.22600
H  -12.61700 36.56300 42.90600
H  -12.93100 37.71700 44.26000
H  -11.83400 36.27200 44.36400
H  -8.21600 35.87000 40.32000
H  -6.00500 33.23900 42.65100
H  -4.63300 34.28700 42.48600
H  -4.85600 33.12700 41.23400

