158

Mg 1.25500 8.12000 25.15100
C  1.79500 10.01800 28.03800
C  1.19700 5.29800 27.01200
C  1.07700 6.48300 22.25700
C  1.81800 11.23300 23.26900
N  1.83900 7.72500 27.27200
C  1.74000 8.65200 28.26300
C  1.72400 8.03100 29.67700
C  1.77600 6.50700 29.26900
C  1.53300 6.48100 27.72000
C  3.10100 5.73400 29.54700
C  0.44600 8.36100 30.51100
C  0.70300 8.34800 32.06900
H  1.97700 7.77000 32.61700
N  1.11300 6.14700 24.68100
C  1.09800 5.11400 25.60000
C  1.14800 3.86200 24.92800
C  0.93400 4.16000 23.49300
C  1.00700 5.62700 23.40000
C  1.19400 2.56500 25.72900
C  0.79600 3.24500 22.29000
O  0.99400 3.61700 21.12600
C  0.50100 1.75600 22.50100
N  1.48100 8.79900 23.04000
C  1.36600 7.87100 22.08500
C  1.23500 8.55500 20.73600
C  1.51100 10.09700 21.05200
C  1.68100 10.08800 22.54400
C  2.11100 7.91400 19.59300
C  0.39800 10.96200 20.50200
C  -0.97000 11.02300 21.22200
N  1.79400 10.22700 25.51900
C  1.80400 11.33600 24.68600
C  1.91000 12.51300 25.50700
C  1.92800 12.00400 26.84800
C  1.86200 10.64700 26.77500
C  1.91900 13.94200 25.11000
C  1.91900 12.44300 28.27900
O  1.85800 13.51500 28.83000
C  1.76300 11.13800 29.08900
C  2.98700 11.25200 29.91800
O  4.13100 11.09000 29.47400
O  2.59900 11.38100 31.22300
C  3.78000 11.72000 32.08600
H  1.11500 4.37600 27.59200
H  0.97200 5.88200 21.35100
H  1.69000 12.17200 22.72500
H  2.66800 8.39500 30.08300
H  1.08500 5.90500 29.85700
H  3.02700 4.98000 30.33000
H  3.87500 6.37700 29.96800
H  3.39700 5.13000 28.68900
H  -0.24800 7.55800 30.26300
H  -0.07500 9.26400 30.19200
H  -0.14100 7.75100 32.41600
H  0.55900 9.38400 32.37500
H  1.31400 1.59200 25.25300
H  0.19700 2.55600 26.16900
H  1.95400 2.54400 26.51000
H  1.22000 1.25600 23.14900
H  0.52200 1.17700 21.57800
H  -0.44200 1.45000 22.95200
H  0.20700 8.34800 20.43600
H  2.44100 10.40000 20.57100
H  2.96300 7.36600 19.99400
H  2.44000 8.73900 18.96000
H  1.50900 7.25400 18.96800
H  0.25600 10.49100 19.52900
H  0.78900 11.96500 20.33100
H  -1.72100 11.21800 20.45600
H  -0.90300 11.71300 22.06300
H  -1.24800 10.09100 21.71600
H  0.96500 14.31700 25.48000
H  2.00400 14.02700 24.02600
H  2.80400 14.45300 25.48800
H  0.84400 11.32400 29.64500
H  4.24500 10.80600 32.45500
H  3.57800 12.24800 33.01800
H  4.46800 12.34500 31.51700
Mg -6.89700 25.75500 26.13900
C  -5.17900 27.73400 28.50900
C  -7.56400 23.65800 28.68100
C  -7.98800 23.57900 23.84600
C  -5.47400 27.74800 23.55800
N  -6.48900 25.78800 28.43200
C  -5.87400 26.68300 29.17000
C  -6.11200 26.48500 30.60400
C  -6.71700 25.03800 30.65100
C  -6.97800 24.79300 29.15200
C  -5.75600 24.00500 31.30800
C  -7.16600 27.39000 31.22000
C  -7.35500 27.71100 32.72000
H  -6.93400 26.79200 33.87800
N  -7.84300 23.95200 26.27500
C  -8.08600 23.24700 27.45600
C  -8.91400 22.19300 27.17100
C  -9.04200 22.09400 25.78300
C  -8.25200 23.17200 25.20900
C  -9.64300 21.35600 28.31800
C  -9.88500 21.08700 25.01300
O  -9.87500 21.14300 23.78800
C  -10.75700 19.89200 25.74900
N  -6.69500 25.68900 23.91000
C  -7.35500 24.66000 23.22900
C  -7.12000 24.91800 21.69000
C  -6.54500 26.39700 21.62500
C  -6.29400 26.72300 23.12500
C  -6.13800 23.90700 21.08600
C  -7.44400 27.44900 21.03100
C  -6.85200 28.31600 19.91200
N  -5.56200 27.33500 26.03800
C  -5.01500 28.03100 24.89300
C  -4.10800 29.09100 25.31800
C  -4.15300 28.96800 26.70900
C  -5.02000 27.93200 27.07400
C  -3.29900 30.06500 24.52600
C  -3.63700 29.53900 27.91100
O  -2.83400 30.46600 27.98900
C  -4.33900 28.76700 29.11500
C  -3.26400 28.25300 30.00900
O  -2.29000 27.54300 29.68600
O  -3.44200 28.66900 31.33200
C  -2.67800 27.98900 32.38900
H  -7.68800 23.12800 29.62700
H  -8.28600 22.92300 23.02600
H  -5.15600 28.39600 22.73900
H  -5.13400 26.44700 31.08400
H  -7.70300 24.93100 31.10500
H  -5.13200 24.51300 32.04400
H  -5.25400 23.39600 30.55700
H  -6.51500 23.40900 31.81400
H  -8.13800 27.04300 30.87100
H  -6.94900 28.42100 30.93900
H  -8.44200 27.78700 32.69800
H  -6.96800 28.70400 32.94800
H  -9.60300 20.28800 28.10400
H  -10.66400 21.72300 28.42000
H  -9.11800 21.44400 29.26900
H  -11.51500 20.32600 26.40000
H  -10.09100 19.20600 26.27100
H  -11.38200 19.24100 25.13700
H  -8.06100 24.78000 21.15700
H  -5.55200 26.34600 21.17800
H  -5.80300 23.24400 21.88500
H  -5.23500 24.25800 20.58700
H  -6.69900 23.23800 20.43400
H  -7.71500 28.15400 21.81700
H  -8.36200 27.03500 20.61200
H  -6.15400 27.74900 19.29600
H  -6.29400 29.15900 20.32000
H  -7.54000 28.83900 19.24900
H  -3.79400 31.02500 24.67800
H  -3.26000 29.98400 23.44000
H  -2.28800 30.16500 24.92200
H  -4.92200 29.46500 29.71500
H  -1.88700 28.59700 32.82800
H  -2.42600 26.97800 32.06600
H  -3.36500 27.84300 33.22300

