158

Mg 24.16800 -5.69900 46.32500
C  26.14400 -3.30500 44.60700
C  21.62600 -4.90100 43.99800
C  22.56800 -8.52000 47.23800
C  26.94900 -6.75100 47.94600
N  23.93900 -4.27700 44.44200
C  24.87400 -3.42000 43.99200
C  24.32200 -2.58900 42.87200
C  22.80700 -2.76100 43.06600
C  22.75200 -4.09100 43.81000
C  22.04600 -1.71300 43.90900
C  24.86900 -2.99600 41.45300
C  25.32300 -1.69100 40.68300
H  24.72100 -1.46600 39.20400
N  22.32200 -6.45100 45.86300
C  21.45700 -6.05600 44.86200
C  20.31100 -6.92900 44.87700
C  20.45800 -7.85800 45.89700
C  21.84000 -7.63600 46.44800
C  19.05100 -6.65300 43.93700
C  19.40700 -8.91300 46.29600
O  18.32600 -8.89600 45.72900
C  19.53000 -10.08500 47.28700
N  24.73500 -7.47600 47.33600
C  23.85100 -8.45700 47.70600
C  24.57400 -9.57200 48.65300
C  25.85300 -8.67500 49.11900
C  25.88600 -7.59400 48.05300
C  23.63600 -10.24900 49.76300
C  27.10400 -9.55300 49.29500
C  27.88400 -9.18900 50.57700
N  26.08400 -5.15800 46.37600
C  27.10500 -5.64100 47.08200
C  28.36100 -4.88900 46.89100
C  27.99500 -4.05200 45.93400
C  26.61900 -4.20700 45.60600
C  29.69600 -5.04200 47.52500
C  28.50300 -2.89900 45.15000
O  29.59400 -2.40700 45.07800
C  27.27800 -2.43900 44.25300
C  27.21300 -0.93000 44.38100
O  26.48300 -0.33700 45.15000
O  28.03700 -0.32000 43.47500
C  28.13600 1.13300 43.43100
H  20.89500 -4.52900 43.27700
H  21.95900 -9.38200 47.51800
H  27.72900 -6.99300 48.67000
H  24.50400 -1.55500 43.16400
H  22.34600 -2.84600 42.08200
H  21.57100 -2.15600 44.78500
H  21.23100 -1.32800 43.29700
H  22.66100 -0.83000 44.08400
H  24.24600 -3.54300 40.74500
H  25.79100 -3.55200 41.62200
H  26.41300 -1.66200 40.70500
H  25.07800 -0.82400 41.29700
H  18.91700 -7.53500 43.31100
H  19.16100 -5.72500 43.37500
H  18.18600 -6.33400 44.51900
H  20.01700 -9.65700 48.16300
H  20.13700 -10.90000 46.89500
H  18.54400 -10.46600 47.55400
H  24.94900 -10.44000 48.11100
H  25.56700 -8.16400 50.03800
H  22.64400 -9.79700 49.73700
H  23.94200 -10.03200 50.78600
H  23.61800 -11.33200 49.64000
H  27.74400 -9.37700 48.43100
H  26.73500 -10.57800 49.33900
H  28.90200 -8.84600 50.39200
H  27.92800 -10.12700 51.13100
H  27.31000 -8.45900 51.14800
H  30.47400 -4.85700 46.78500
H  29.66700 -6.05400 47.92900
H  29.97900 -4.34400 48.31200
H  27.55800 -2.62400 43.21600
H  27.47900 1.64800 44.13100
H  27.94000 1.45500 42.40800
H  29.15200 1.44600 43.66900
Mg 49.80000 46.30600 41.98400
C  46.90500 48.06800 41.11700
C  48.56700 43.60300 40.26100
C  52.78200 44.89400 41.95500
C  51.20600 49.31800 43.17000
N  47.81600 45.88100 40.95200
C  46.79100 46.73000 40.72300
C  45.65500 46.01900 39.92800
C  46.33300 44.58400 39.75100
C  47.68900 44.63400 40.34200
C  45.47500 43.42600 40.26800
C  45.29900 46.71300 38.53300
C  43.97800 46.19000 37.88900
H  44.00500 45.02500 36.90100
N  50.49400 44.38100 41.43900
C  49.80700 43.41200 40.79900
C  50.64500 42.24100 40.65300
C  51.94700 42.61700 41.11000
C  51.78200 44.01200 41.57100
C  50.15800 40.85800 40.04000
C  53.09100 41.69100 41.24300
O  53.00500 40.49700 40.80200
C  54.37600 41.96400 41.95600
N  51.75700 47.08600 42.54900
C  52.84500 46.25200 42.36900
C  54.08800 47.07400 42.76800
C  53.58400 48.47100 43.18200
C  52.10000 48.30000 43.02900
C  55.08300 46.27700 43.65200
C  54.32600 49.72000 42.49700
C  55.71500 50.06700 43.16700
N  49.16000 48.27200 42.18600
C  49.88900 49.36000 42.69700
C  48.90600 50.50600 42.79600
C  47.76000 49.98200 42.21100
C  47.94100 48.63400 41.85800
C  49.09100 51.91200 43.31200
C  46.40900 50.31600 41.83000
O  45.76100 51.31200 41.95700
C  45.93600 49.12000 40.93900
C  44.67300 48.63300 41.45400
O  44.48900 48.14300 42.55100
O  43.73700 48.68700 40.47600
C  42.36400 48.42000 41.03400
H  48.11200 42.73500 39.77900
H  53.73500 44.36500 41.89000
H  51.66300 50.25700 43.49000
H  44.77400 46.05500 40.56800
H  46.42200 44.34500 38.69100
H  45.33300 42.73000 39.44100
H  44.49900 43.74800 40.63200
H  46.09100 42.90100 40.99900
H  46.12100 46.43400 37.87400
H  45.36900 47.79900 38.57700
H  43.46000 47.04300 37.45000
H  43.31500 45.80300 38.66200
H  50.78700 40.69100 39.16500
H  49.09400 40.80000 39.81200
H  50.25300 40.06900 40.78600
H  54.92500 41.02200 41.94400
H  54.15200 42.34200 42.95400
H  54.98000 42.62500 41.33600
H  54.62900 47.36600 41.86900
H  53.65800 48.61900 44.25900
H  54.48800 45.43800 44.01100
H  55.43400 46.81800 44.53000
H  55.85100 45.91800 42.96700
H  53.62200 50.54800 42.58500
H  54.53500 49.51500 41.44700
H  56.53900 50.11900 42.45600
H  55.96400 49.30200 43.90200
H  55.61300 51.02600 43.67500
H  50.01500 52.34500 42.92900
H  49.14300 51.85000 44.39900
H  48.29400 52.48700 42.84100
H  45.82400 49.49600 39.92200
H  42.24500 47.68100 41.82600
H  41.93300 47.92700 40.16200
H  41.91800 49.40200 41.19200

