158

Mg -0.75900 17.34800 26.58000
C  -1.23200 14.96100 29.28700
C  -1.31500 19.87900 28.94000
C  -0.71200 19.55300 24.14400
C  -0.47600 14.73800 24.52500
N  -1.37900 17.36200 28.93600
C  -1.47200 16.29300 29.80400
C  -1.67100 16.85400 31.22700
C  -1.64400 18.37400 31.02200
C  -1.38900 18.56900 29.54200
C  -2.93800 19.19600 31.44400
C  -0.78400 16.20200 32.41800
C  -0.45100 17.17200 33.58200
H  -0.48400 16.62900 34.97600
N  -0.98200 19.43500 26.53100
C  -1.04600 20.32600 27.63100
C  -1.04100 21.65600 27.07000
C  -0.80000 21.60300 25.67400
C  -0.75300 20.18400 25.40100
C  -1.32800 22.90500 27.90900
C  -0.62500 22.62000 24.67800
O  -0.54700 22.46300 23.46200
C  -0.50100 24.12800 25.10600
N  -0.67200 17.16900 24.60200
C  -0.62800 18.19900 23.74100
C  -0.76400 17.73500 22.35000
C  -0.20900 16.28600 22.50800
C  -0.43000 16.04500 23.98800
C  -2.24700 17.76800 21.80100
C  1.35100 16.07200 22.13100
C  2.51000 16.49600 23.10000
N  -0.91800 15.26200 26.76600
C  -0.78400 14.31000 25.87600
C  -0.95500 13.03500 26.42900
C  -1.04600 13.26100 27.73700
C  -1.05200 14.59200 27.96800
C  -1.06800 11.82200 25.58000
C  -1.18100 12.50000 29.01000
O  -1.32600 11.29100 29.17500
C  -1.28400 13.62800 30.09600
C  -0.14700 13.32000 30.97800
O  0.97100 13.76000 30.89600
O  -0.57300 12.36100 31.84200
C  0.29400 12.07200 32.97900
H  -1.27400 20.64000 29.72300
H  -0.62500 20.19400 23.26400
H  -0.43200 13.97600 23.74400
H  -2.66100 16.49100 31.50600
H  -0.82400 18.81800 31.58700
H  -3.45200 19.63900 30.59100
H  -2.68900 19.78600 32.32600
H  -3.70500 18.46100 31.68800
H  0.17000 16.02600 31.92000
H  -1.14200 15.25300 32.81700
H  -1.17400 17.98700 33.56300
H  0.55100 17.56700 33.41500
H  -1.86800 23.63500 27.30600
H  -0.49600 23.44000 28.36600
H  -1.94500 22.59900 28.75400
H  0.42200 24.15800 25.68500
H  -1.39300 24.53700 25.58100
H  -0.29300 24.84700 24.31400
H  -0.18300 18.39800 21.70900
H  -0.84300 15.53900 22.03100
H  -2.61900 18.68900 22.25200
H  -2.80200 16.93800 22.23900
H  -2.12400 17.74700 20.71800
H  1.48400 16.62400 21.20100
H  1.34500 15.07000 21.70300
H  2.09700 16.59500 24.10300
H  3.05700 17.41900 22.90500
H  3.21600 15.66500 23.09100
H  -1.57400 12.18600 24.68500
H  -1.68000 11.08000 26.09300
H  -0.08700 11.45500 25.28000
H  -2.21600 13.54900 30.65700
H  0.90500 11.17400 32.89300
H  -0.32700 11.89400 33.85700
H  0.89300 12.97200 33.11900
Mg -4.39800 24.64200 26.83200
C  -3.06000 26.63200 29.16500
C  -5.77300 22.61200 29.27900
C  -5.77400 22.60100 24.35200
C  -2.73300 26.36000 24.23900
N  -4.20800 24.53000 28.96600
C  -3.77300 25.59500 29.72300
C  -4.15500 25.34600 31.22600
C  -4.52800 23.85200 31.21600
C  -4.90900 23.62100 29.69500
C  -3.36600 22.93600 31.57600
C  -5.37400 26.24600 31.63500
C  -5.34900 26.77000 33.12500
H  -6.39400 26.28300 33.99900
N  -5.71000 22.91500 26.83600
C  -6.15800 22.28900 27.93300
C  -6.95500 21.15800 27.59400
C  -7.03200 21.12100 26.17400
C  -6.13900 22.25000 25.68300
C  -7.53900 20.13700 28.54600
C  -7.80800 20.14500 25.29400
O  -7.65100 20.14100 24.10800
C  -8.75000 19.11700 25.92700
N  -4.27900 24.50800 24.56700
C  -5.04000 23.65800 23.82600
C  -4.76100 23.81400 22.31400
C  -3.75400 25.01400 22.29500
C  -3.56200 25.34100 23.79400
C  -4.18000 22.49600 21.57200
C  -4.07300 26.21700 21.41100
C  -5.35000 26.95200 21.84100
N  -3.13900 26.24300 26.66400
C  -2.45200 26.80400 25.54700
C  -1.70300 27.89700 26.04200
C  -1.94700 27.95300 27.45100
C  -2.78200 26.86600 27.74800
C  -0.95400 28.82500 25.11900
C  -1.80500 28.63700 28.71800
O  -1.31600 29.71400 28.98000
C  -2.50000 27.81800 29.86200
C  -1.54100 27.39000 30.86700
O  -0.83100 26.39400 30.79800
O  -1.58000 28.29200 31.93800
C  -0.84000 27.79600 33.15200
H  -6.12200 21.96700 30.08800
H  -6.20200 21.92100 23.61400
H  -2.20700 26.97300 23.50300
H  -3.25600 25.59500 31.79000
H  -5.38800 23.81100 31.88300
H  -3.46300 21.97500 31.07000
H  -3.25400 22.77800 32.64800
H  -2.49500 23.49700 31.23700
H  -6.30300 25.77000 31.32100
H  -5.31800 27.19100 31.09500
H  -5.26800 27.85600 33.16800
H  -4.39300 26.54100 33.59500
H  -8.61400 20.27400 28.42900
H  -7.19100 20.25900 29.57200
H  -7.28700 19.10100 28.32100
H  -9.22900 18.57700 25.11000
H  -9.47300 19.66200 26.53200
H  -8.13300 18.42800 26.50400
H  -5.72400 24.09100 21.88400
H  -2.73700 24.70300 22.05700
H  -4.04100 21.74900 22.35300
H  -3.24600 22.75200 21.07100
H  -4.89700 22.13200 20.83600
H  -4.31700 25.70000 20.48300
H  -3.19900 26.82200 21.16900
H  -5.10800 27.78100 22.50600
H  -5.98100 26.36800 22.51000
H  -5.88800 27.24500 20.93900
H  -0.11400 28.36900 24.59500
H  -0.69600 29.68500 25.73700
H  -1.52500 29.09400 24.23100
H  -3.22500 28.45400 30.37100
H  -0.99400 26.72600 33.28900
H  -1.19500 28.40000 33.98700
H  0.24300 27.88100 33.06300

