158

Mg 17.53600 -1.16300 27.73300
C  16.65500 0.66400 30.68200
C  19.35000 -3.17900 29.74700
C  18.62600 -2.67000 24.96100
C  15.82800 1.10600 25.84200
N  17.91400 -1.27200 30.01200
C  17.55500 -0.31000 30.93500
C  17.97200 -0.76900 32.35800
C  19.08200 -1.79800 31.94000
C  18.74700 -2.12900 30.49200
C  20.56700 -1.21600 31.99400
C  16.90600 -1.39500 33.32300
C  17.19500 -1.76300 34.79900
H  18.55700 -1.61200 35.37400
N  18.68600 -2.80100 27.38600
C  19.39300 -3.45600 28.37600
C  20.14400 -4.55200 27.75600
C  19.88700 -4.45200 26.39400
C  18.98700 -3.26000 26.16300
C  21.03700 -5.55500 28.65200
C  20.44700 -5.27400 25.25700
O  20.04300 -5.17700 24.07200
C  21.28700 -6.45500 25.65500
N  17.37800 -0.74600 25.64600
C  17.91500 -1.54900 24.64000
C  17.52300 -1.12100 23.19000
C  16.53600 0.06000 23.59000
C  16.50600 0.10200 25.13600
C  18.76400 -0.66000 22.26900
C  15.15900 0.05200 22.82800
C  15.11000 0.60900 21.43500
N  16.38200 0.46800 28.08000
C  15.73900 1.29200 27.25000
C  14.87700 2.20700 28.01800
C  15.16500 1.91600 29.32100
C  16.14900 0.95600 29.35700
C  13.88800 3.13200 27.43600
C  14.90700 2.45100 30.66000
O  14.17100 3.35600 31.05700
C  15.81500 1.54800 31.59700
C  16.60900 2.46000 32.44900
O  17.73500 2.77200 32.05200
O  15.82700 3.05800 33.37000
C  16.45500 4.14200 33.99900
H  20.02500 -3.80300 30.33800
H  18.94700 -3.18700 24.05500
H  15.31300 1.92700 25.33800
H  18.34900 0.08500 32.92000
H  19.06000 -2.72500 32.51300
H  20.66500 -0.23300 32.45400
H  20.91700 -1.14000 30.96500
H  21.26000 -1.80000 32.60100
H  16.58000 -2.28700 32.78800
H  16.01000 -0.77800 33.25000
H  16.95100 -2.81900 34.91600
H  16.49000 -1.16600 35.37800
H  20.85800 -6.57300 28.30500
H  20.73300 -5.56200 29.69800
H  22.10800 -5.36000 28.60200
H  22.05700 -6.14100 26.36000
H  21.79800 -6.67500 24.71800
H  20.63400 -7.27100 25.96600
H  16.92000 -1.96500 22.85600
H  16.92500 1.03700 23.30300
H  18.54100 0.31700 21.84000
H  18.68100 -1.46300 21.53700
H  19.69300 -0.83700 22.81000
H  14.57900 0.70800 23.47800
H  14.81800 -0.96300 23.03000
H  14.67100 1.60700 21.42300
H  14.52100 -0.14000 20.90500
H  16.11900 0.70300 21.03500
H  14.39400 3.63300 26.61100
H  13.59500 3.88300 28.16900
H  12.98800 2.68000 27.02000
H  15.17500 1.03200 32.31300
H  15.62300 4.69100 34.44200
H  16.99400 4.82100 33.33800
H  17.17200 3.84100 34.76200
Mg 9.93900 47.90800 26.37800
C  7.93700 48.09200 29.29200
C  12.46000 49.27100 28.19700
C  11.51600 47.95500 23.57900
C  6.80600 47.32000 24.62300
N  10.14400 48.60700 28.59400
C  9.22200 48.51200 29.60200
C  9.82300 48.96000 30.90300
C  11.11400 49.58700 30.43400
C  11.27700 49.19000 28.99200
C  11.17200 51.11000 30.72200
C  10.09600 47.75300 31.88900
C  9.59200 48.08200 33.33800
H  9.48300 46.78100 34.28700
N  11.71100 48.40800 25.92600
C  12.66700 48.79100 26.88200
C  14.01800 48.66700 26.23300
C  13.78400 48.49300 24.88800
C  12.29400 48.23200 24.72000
C  15.38700 48.92100 27.07100
C  14.76300 48.44100 23.76200
O  14.40600 48.27400 22.60900
C  16.24200 48.64000 23.99900
N  9.27300 47.62300 24.36100
C  10.12400 47.68600 23.39300
C  9.52500 47.35200 22.02000
C  8.07300 47.04300 22.38600
C  8.00700 47.26300 23.89000
C  9.77900 48.38700 20.91000
C  7.63000 45.55300 21.99700
C  7.66200 45.22600 20.47900
N  7.83700 47.61700 26.80700
C  6.76900 47.41500 26.01200
C  5.54900 47.27800 26.72500
C  5.92600 47.49800 28.06400
C  7.36300 47.70400 28.04400
C  4.13800 46.99200 26.15800
C  5.46400 47.73800 29.37200
O  4.27900 47.79700 29.78300
C  6.75200 48.02700 30.26300
C  6.84100 46.90400 31.25100
O  7.52700 45.90500 31.24200
O  5.70200 47.05700 32.07400
C  5.45900 46.00000 33.04800
H  13.37800 49.62500 28.67200
H  12.16300 47.53800 22.80400
H  5.86000 47.21700 24.08700
H  9.18100 49.71200 31.36400
H  11.96400 49.05400 30.86200
H  12.07900 51.22900 31.31600
H  10.38100 51.50000 31.36300
H  11.35300 51.68600 29.81400
H  11.17500 47.62900 31.98000
H  9.78800 46.74900 31.59600
H  8.55900 48.42800 33.29500
H  10.14900 48.89900 33.79700
H  15.16400 48.88600 28.13700
H  15.86500 49.88000 26.86800
H  16.10200 48.11400 26.90800
H  16.71600 48.80800 23.03200
H  16.80500 47.85900 24.51100
H  16.32800 49.53900 24.60900
H  9.90400 46.39500 21.66200
H  7.40900 47.64000 21.76100
H  9.83700 49.39800 21.31300
H  9.01200 48.48100 20.14100
H  10.74000 48.29000 20.40400
H  6.68600 45.31000 22.48500
H  8.36800 44.86800 22.41400
H  8.43500 44.49500 20.24400
H  7.87400 46.11400 19.88300
H  6.67600 44.90400 20.14500
H  3.72400 47.88100 25.68200
H  3.45900 46.52800 26.87200
H  4.26300 46.27900 25.34300
H  6.83400 48.93900 30.85300
H  5.70500 46.47500 33.99800
H  6.04200 45.11600 32.79000
H  4.39900 45.75100 32.99600

