158

Mg -2.08900 17.51700 26.33200
C  -2.57600 15.11700 28.91100
C  -2.75300 19.98200 28.64700
C  -2.03900 19.67100 23.79100
C  -2.33000 14.78500 24.00300
N  -2.77500 17.48100 28.54400
C  -2.70000 16.42800 29.37800
C  -2.66300 16.96400 30.79700
C  -2.94600 18.45400 30.64700
C  -2.69600 18.66700 29.16200
C  -4.33500 19.05900 31.11800
C  -1.44500 16.68400 31.71000
C  -1.21500 17.50800 33.02900
H  -0.68600 16.87600 34.35200
N  -2.39500 19.53900 26.24500
C  -2.57500 20.37800 27.31400
C  -2.70600 21.73000 26.81400
C  -2.72300 21.64600 25.37700
C  -2.35100 20.25000 25.05200
C  -2.90700 22.91700 27.83900
C  -2.97400 22.70200 24.32300
O  -2.91600 22.47800 23.08800
C  -3.36900 24.04200 24.70400
N  -1.88300 17.23500 24.17300
C  -2.00900 18.30900 23.33100
C  -1.89200 17.88700 21.86700
C  -2.29200 16.36000 21.91100
C  -2.12800 16.08600 23.46600
C  -2.66400 18.80500 20.85800
C  -1.39900 15.45100 20.94800
C  -2.13500 14.59900 19.94300
N  -2.17400 15.36900 26.38900
C  -2.29100 14.43300 25.37500
C  -2.43600 13.11400 25.88400
C  -2.43000 13.34000 27.29000
C  -2.33600 14.73700 27.56400
C  -2.46200 11.80000 25.17800
C  -2.53600 12.68100 28.52100
O  -2.67400 11.46900 28.65500
C  -2.65900 13.80600 29.65900
C  -1.56500 13.64300 30.54400
O  -0.43600 13.92200 30.24600
O  -1.92000 12.89200 31.65500
C  -0.94100 12.49800 32.63500
H  -2.93600 20.78600 29.36300
H  -2.15900 20.30600 22.91100
H  -2.50900 14.02000 23.24400
H  -3.52700 16.49500 31.26800
H  -2.26100 19.04900 31.25000
H  -4.15300 19.74500 31.94500
H  -4.90400 18.20700 31.48900
H  -4.90700 19.54200 30.32600
H  -0.58500 16.68200 31.04100
H  -1.57800 15.63300 31.96600
H  -2.16500 18.01900 33.18600
H  -0.49000 18.25500 32.70500
H  -2.15900 23.66300 27.56800
H  -2.54600 22.59600 28.81600
H  -3.91000 23.34300 27.81700
H  -4.36800 24.11600 25.13500
H  -3.57300 24.53900 23.75500
H  -2.70700 24.61200 25.35700
H  -0.82500 17.91400 21.64400
H  -3.33000 16.27900 21.58600
H  -1.98000 19.14700 20.08200
H  -3.22800 19.56700 21.39600
H  -3.37900 18.23100 20.26900
H  -0.85600 14.86200 21.68700
H  -0.69800 15.99600 20.31600
H  -1.91600 13.57600 20.25000
H  -1.62400 14.75300 18.99300
H  -3.21900 14.71000 19.94000
H  -3.48600 11.64500 24.84000
H  -2.27900 10.98700 25.88100
H  -1.89600 11.81500 24.24700
H  -3.55600 13.61400 30.24700
H  -0.12200 11.91900 32.20600
H  -1.45500 12.09500 33.50800
H  -0.40300 13.37700 32.98800
Mg 25.45900 1.55300 29.49700
C  27.64700 1.02400 32.29700
C  22.85100 1.67600 31.63200
C  23.46900 1.50200 26.82400
C  28.15800 0.73400 27.38900
N  25.26200 1.30700 31.73700
C  26.34800 1.20200 32.70800
C  25.79500 1.47100 34.14400
C  24.24900 1.48500 33.90800
C  24.07600 1.41900 32.33100
C  23.42500 0.43200 34.67000
C  26.45900 2.62600 34.82700
C  27.06900 2.27000 36.23300
H  26.95800 3.45000 37.23900
N  23.41000 1.53600 29.26100
C  22.50400 1.59200 30.31000
C  21.19100 1.60600 29.70900
C  21.33700 1.46800 28.30000
C  22.80700 1.43500 28.03400
C  19.91700 1.74300 30.61100
C  20.23800 1.38600 27.21800
O  20.47100 1.10000 26.04100
C  18.77900 1.61200 27.57400
N  25.80700 1.28500 27.37400
C  24.83900 1.38100 26.48400
C  25.35900 1.14000 25.07300
C  26.90500 1.07500 25.22700
C  26.94300 0.97400 26.76400
C  24.75500 -0.25500 24.51900
C  27.76100 2.31700 24.75500
C  29.04200 2.00300 24.04200
N  27.54700 1.10300 29.68400
C  28.45200 0.84200 28.74900
C  29.75000 0.62100 29.40100
C  29.48000 0.73800 30.76700
C  28.12900 0.96600 30.88300
C  31.03200 0.27400 28.76300
C  30.01600 0.77000 32.09500
O  31.15400 0.48400 32.51400
C  28.85300 1.00000 33.10400
C  28.84900 -0.18300 34.04000
O  28.16300 -1.17100 33.93600
O  29.61100 0.17200 35.13900
C  29.30300 -0.62600 36.29600
H  22.10800 2.03200 32.34800
H  22.81200 1.39200 25.95900
H  28.99500 0.40700 26.76900
H  26.03800 0.56800 34.70500
H  23.74300 2.40700 34.19500
H  22.63400 0.71400 35.36500
H  23.97900 -0.19500 35.37000
H  23.04100 -0.21300 33.87900
H  25.75500 3.45900 34.85100
H  27.26900 3.01400 34.20900
H  28.11900 2.03900 36.04900
H  26.59400 1.44100 36.75900
H  20.18400 1.54300 31.64900
H  19.21900 1.03500 30.16400
H  19.48800 2.73500 30.47300
H  18.48700 0.80900 28.25100
H  18.13900 1.79400 26.71100
H  18.72400 2.57000 28.09000
H  25.03300 2.00600 24.49600
H  27.41900 0.22800 24.77100
H  24.28800 -0.04500 23.55700
H  24.08800 -0.65300 25.28400
H  25.60700 -0.89300 24.28200
H  28.06100 2.89100 25.63200
H  27.21600 2.98100 24.08400
H  29.01700 2.50700 23.07600
H  29.14400 0.94500 23.80100
H  29.85500 2.34500 24.68300
H  30.77900 0.08300 27.72000
H  31.39700 -0.70900 29.06100
H  31.81900 1.00500 28.94600
H  29.04700 1.79700 33.82200
H  28.40600 -0.22900 36.77000
H  29.96200 -0.47900 37.15100
H  29.31900 -1.69700 36.09400

