158

Mg 48.92800 34.93300 27.41400
C  46.93800 33.14700 29.92400
C  49.36300 37.35600 29.70300
C  50.25300 36.65900 24.96900
C  48.21200 32.25900 25.18200
N  48.18800 35.18900 29.54800
C  47.56700 34.32800 30.39800
C  47.67100 34.89500 31.80700
C  47.88900 36.41100 31.59700
C  48.50100 36.33400 30.22900
C  46.52000 37.28500 31.63200
C  48.68500 34.10600 32.60700
C  48.74500 33.90900 34.09300
H  47.73200 34.80300 34.83200
N  49.70500 36.68200 27.39200
C  49.96100 37.52800 28.51300
C  50.69700 38.67800 28.07500
C  50.79300 38.60500 26.67100
C  50.24600 37.26600 26.30900
C  51.26100 39.81900 29.01100
C  51.40900 39.49000 25.65500
O  51.29900 39.22400 24.48500
C  52.19700 40.61800 26.07000
N  49.14900 34.52300 25.34400
C  49.78100 35.41300 24.58500
C  50.26000 34.79900 23.27300
C  49.77600 33.30200 23.40900
C  48.97900 33.34000 24.65100
C  49.86700 35.46800 21.95300
C  50.86600 32.19200 23.47000
C  50.49200 30.81100 22.82000
N  47.84000 33.12200 27.48500
C  47.67500 32.19500 26.49400
C  46.84900 31.08700 27.03800
C  46.54100 31.41600 28.37800
C  47.12500 32.64500 28.59100
C  46.34800 29.89500 26.34400
C  45.90000 30.94900 29.50700
O  45.41900 29.83800 29.73700
C  46.05500 32.10500 30.56000
C  46.52900 31.53000 31.81800
O  47.55800 30.93100 31.96700
O  45.62400 31.76800 32.76100
C  45.81700 31.28300 34.10200
H  49.68400 38.06600 30.46800
H  50.83000 37.13100 24.17100
H  48.04000 31.44500 24.47400
H  46.73000 34.66500 32.30700
H  48.48600 36.75800 32.44000
H  46.25800 37.49900 30.59500
H  46.73100 38.18100 32.21500
H  45.68800 36.68100 31.99200
H  49.59200 34.68700 32.44400
H  48.85700 33.14900 32.11500
H  49.78600 34.09300 34.35800
H  48.55500 32.84000 34.19800
H  50.56400 40.05400 29.81500
H  51.23800 40.79900 28.53400
H  52.28700 39.65200 29.33900
H  52.77900 40.27700 26.92600
H  51.47600 41.42800 26.17800
H  52.88300 40.93100 25.28200
H  51.34800 34.75000 23.22200
H  49.14300 33.05100 22.55800
H  50.64300 35.34100 21.19900
H  49.81700 36.55000 22.08000
H  48.88100 35.23300 21.55300
H  50.92500 31.95700 24.53200
H  51.86900 32.51000 23.18500
H  49.84100 31.01900 21.97200
H  50.04000 30.18900 23.59300
H  51.37800 30.37800 22.35600
H  45.69300 30.46500 25.68600
H  45.81900 29.18300 26.97700
H  47.10300 29.39300 25.73800
H  45.09100 32.57900 30.74200
H  45.91500 30.19700 34.12000
H  45.00500 31.59200 34.76100
H  46.74400 31.67200 34.52300
Mg 4.70800 55.40400 40.52200
C  3.52100 52.09100 40.67800
C  7.57600 54.34400 38.89400
C  5.67400 58.56300 40.06400
C  1.58400 56.50200 41.81300
N  5.30100 53.40800 39.67200
C  4.74300 52.20900 39.92300
C  5.42500 51.11400 39.08600
C  6.81400 51.77900 38.95200
C  6.57900 53.32200 39.15600
C  7.98600 51.23100 39.88300
C  4.56700 50.91100 37.77200
C  4.55200 49.50500 37.06000
H  5.18500 49.35800 35.63300
N  6.51500 56.31400 39.75200
C  7.61900 55.67200 39.26100
C  8.64900 56.62200 39.07200
C  8.06600 57.93600 39.20600
C  6.71400 57.65100 39.72100
C  10.02800 56.34200 38.50300
C  8.66900 59.24400 38.99300
O  9.78800 59.33900 38.50800
C  8.07500 60.55400 39.43000
N  3.66800 57.26500 40.72300
C  4.37000 58.40900 40.61600
C  3.54000 59.65100 41.14200
C  2.22000 58.94100 41.47500
C  2.50000 57.47700 41.40500
C  4.27300 60.39900 42.28500
C  1.06200 59.28600 40.46500
C  -0.26500 59.83700 41.08900
N  2.80900 54.53000 41.03100
C  1.68900 55.07900 41.63000
C  0.88100 54.04600 42.06100
C  1.47500 52.81800 41.67200
C  2.71500 53.21800 41.12600
C  -0.43700 54.17700 42.75700
C  1.42700 51.38000 41.75900
O  0.51800 50.71600 42.22000
C  2.78700 50.84900 41.08300
C  2.49700 49.87900 40.03800
O  1.69200 50.07400 39.14200
O  3.19700 48.72400 40.31800
C  2.78700 47.53900 39.50800
H  8.48800 53.92600 38.46300
H  6.07200 59.57900 40.04400
H  0.72500 56.92900 42.33400
H  5.29900 50.28800 39.78600
H  7.19500 51.61500 37.94400
H  7.73600 50.29200 40.37700
H  8.28900 51.91100 40.67800
H  8.81300 51.06200 39.19300
H  5.00500 51.43900 36.92500
H  3.63100 51.45100 37.91000
H  3.53300 49.14000 36.93500
H  5.09700 48.75400 37.63300
H  10.12600 55.27000 38.32900
H  10.79700 56.69700 39.19000
H  10.24900 56.88900 37.58700
H  8.78600 61.38000 39.39100
H  7.95400 60.62300 40.51100
H  7.13500 60.74700 38.91300
H  3.49100 60.41200 40.36300
H  1.95000 59.17200 42.50600
H  5.35400 60.26700 42.30900
H  3.75300 60.14900 43.21100
H  4.23100 61.47500 42.11900
H  0.80300 58.31900 40.03400
H  1.38100 59.97400 39.68200
H  -0.95400 59.76300 40.24800
H  -0.27300 60.86100 41.46300
H  -0.68800 59.29100 41.93300
H  -0.65400 55.21900 42.99100
H  -0.40800 53.55300 43.65000
H  -1.26200 53.83800 42.13100
H  3.42800 50.33200 41.79800
H  2.67100 47.80200 38.45600
H  1.80800 47.22600 39.87200
H  3.53100 46.75400 39.64700

