158

Mg 46.91300 24.77700 28.70400
C  47.71900 27.19200 31.17800
C  45.76900 22.77500 31.22000
C  46.41700 22.45900 26.51400
C  48.26000 26.87900 26.26500
N  46.76400 24.97300 30.87900
C  47.07800 26.02600 31.69200
C  46.83700 25.81900 33.17500
C  46.32600 24.35800 33.20000
C  46.34500 23.93700 31.69800
C  47.22100 23.26700 33.88600
C  45.69800 26.73700 33.72400
C  45.77200 27.28800 35.14300
H  46.01800 26.40700 36.35900
N  46.13100 22.90800 28.78100
C  45.68100 22.26300 29.90300
C  45.18500 20.94200 29.54200
C  45.32100 20.83100 28.13600
C  45.94000 22.06900 27.72400
C  44.63600 19.87000 30.52100
C  44.79800 19.66100 27.22700
O  45.06400 19.63200 26.06000
C  44.10000 18.51700 27.86000
N  47.47200 24.62700 26.57400
C  47.00600 23.59100 25.88900
C  47.22500 23.78300 24.38500
C  47.55700 25.28300 24.30500
C  47.74300 25.67100 25.83600
C  48.29100 22.80300 23.92200
C  46.54100 26.28500 23.64300
C  45.04800 25.93200 23.60400
N  47.80100 26.63600 28.63000
C  48.30500 27.37900 27.57400
C  48.81600 28.67000 28.08500
C  48.62100 28.62300 29.50100
C  48.02800 27.36000 29.77800
C  49.32600 29.69900 27.23400
C  48.78000 29.38300 30.78800
O  49.25900 30.50000 30.97700
C  48.19600 28.42400 31.90200
C  49.31500 28.22400 32.91800
O  50.38800 27.60000 32.72600
O  48.96200 28.74900 34.10300
C  49.84200 28.59000 35.26600
H  45.43600 22.15400 32.05500
H  46.14700 21.64400 25.83900
H  48.68400 27.61800 25.58200
H  47.68600 26.13900 33.77800
H  45.33800 24.14600 33.61000
H  47.81300 23.87300 34.57200
H  47.76000 22.50200 33.32800
H  46.61500 22.66400 34.56200
H  44.76000 26.18500 33.67900
H  45.59900 27.56700 33.02400
H  44.76400 27.67600 35.29400
H  46.38000 28.18400 35.27500
H  45.06400 18.87000 30.44800
H  43.55900 19.70000 30.52200
H  44.77000 20.14000 31.56800
H  44.80800 17.82300 28.31300
H  43.57300 17.94700 27.09500
H  43.29400 18.69500 28.57200
H  46.37100 23.47300 23.78400
H  48.50200 25.41300 23.77700
H  48.40400 22.06000 24.71100
H  49.22500 23.26000 23.59300
H  47.92500 22.30300 23.02600
H  46.93400 26.46900 22.64300
H  46.67900 27.20300 24.21300
H  44.79100 25.04200 24.17900
H  44.77300 25.68400 22.57900
H  44.39400 26.70200 24.01300
H  49.08100 29.58800 26.17800
H  50.38900 29.70800 27.47700
H  48.94500 30.67700 27.52700
H  47.42000 28.90500 32.49700
H  50.31000 29.54800 35.49300
H  50.59400 27.87400 34.93500
H  49.28100 28.15800 36.09500
Mg -2.70300 34.71000 26.59100
C  -3.97900 32.85200 29.42200
C  -1.13000 36.70500 29.03300
C  -2.08500 36.80800 24.23300
C  -4.59900 32.69900 24.50700
N  -2.58400 34.77900 29.02400
C  -3.11800 33.85100 29.90900
C  -2.61900 34.06300 31.32000
C  -1.84600 35.37200 31.16600
C  -1.82900 35.67000 29.67900
C  -2.36600 36.52000 32.02200
C  -1.66100 32.89600 32.00500
C  -2.10400 32.33100 33.37200
H  -1.25400 32.24000 34.62700
N  -1.67200 36.50000 26.57700
C  -1.16200 37.17700 27.64900
C  -0.37200 38.28900 27.17700
C  -0.61300 38.29900 25.75000
C  -1.50700 37.18200 25.43300
C  0.62600 39.03000 28.06600
C  -0.26900 39.32600 24.69500
O  -0.59100 39.21900 23.52900
C  0.53200 40.48900 25.17100
N  -3.35700 34.80400 24.73700
C  -2.85000 35.74700 23.82500
C  -3.28000 35.51700 22.37000
C  -3.86200 34.08600 22.53100
C  -4.03000 33.87700 24.02200
C  -4.25600 36.65000 21.89200
C  -2.87600 33.00900 21.93600
C  -3.38500 32.08800 20.84100
N  -4.01900 33.11500 26.87000
C  -4.68000 32.33900 25.93200
C  -5.38800 31.28300 26.52500
C  -5.16400 31.46700 27.87500
C  -4.39400 32.63500 28.09800
C  -6.18900 30.22800 25.82300
C  -5.54400 30.93600 29.12300
O  -6.13900 29.96900 29.42600
C  -4.76500 31.75500 30.23700
C  -5.78700 32.43200 31.06200
O  -6.71600 33.02500 30.55400
O  -5.57700 32.25800 32.43900
C  -6.58400 32.87900 33.30900
H  -0.61800 37.36100 29.74000
H  -1.94900 37.47100 23.37600
H  -5.22300 32.01500 23.93000
H  -3.44200 34.21800 32.01700
H  -0.82200 35.21800 31.50600
H  -2.87400 36.23800 32.94400
H  -3.06000 37.13100 31.44400
H  -1.47400 37.03800 32.37200
H  -0.65700 33.30400 32.12300
H  -1.67800 32.05400 31.31200
H  -2.33500 31.29400 33.12800
H  -3.06000 32.76100 33.66800
H  0.23200 39.97100 28.45000
H  1.63500 39.17200 27.67700
H  0.86700 38.39300 28.91700
H  0.71000 41.04400 24.25000
H  1.41800 40.02200 25.59900
H  -0.13000 40.98200 25.88400
H  -2.44100 35.56000 21.67600
H  -4.88900 33.94200 22.19700
H  -4.56800 37.38600 22.63300
H  -5.23000 36.28500 21.56300
H  -3.85100 37.23200 21.06400
H  -2.55500 32.44800 22.81300
H  -1.91800 33.40700 21.60200
H  -3.76000 31.17200 21.29700
H  -2.56200 31.83300 20.17400
H  -4.24600 32.43700 20.27000
H  -5.75700 29.24300 26.00200
H  -6.26400 30.31300 24.73900
H  -7.18700 30.31100 26.25400
H  -4.14200 31.11100 30.85700
H  -7.41200 33.37900 32.80700
H  -6.08000 33.55800 33.99600
H  -7.04800 32.03200 33.81400

