158

Mg 9.26200 4.20700 27.67600
C  10.66300 2.69100 30.64700
C  7.74000 6.51700 29.77600
C  7.93200 5.42600 24.94400
C  10.90800 1.72700 25.81000
N  9.25600 4.53300 29.92600
C  9.92500 3.85600 30.86800
C  9.61700 4.46300 32.24400
C  8.73200 5.62800 31.99000
C  8.54800 5.56100 30.46100
C  7.37400 5.79500 32.73000
C  10.83200 4.94500 33.21600
C  10.79700 4.35900 34.65900
H  11.41000 5.17800 35.85300
N  7.98500 5.74600 27.36700
C  7.45400 6.60700 28.35800
C  6.62500 7.58200 27.71800
C  6.70500 7.25100 26.32000
C  7.61000 6.13300 26.12100
C  5.84300 8.63600 28.50200
C  5.87800 7.95000 25.22000
O  5.90300 7.63100 24.04300
C  4.94000 8.96900 25.62200
N  9.42300 3.59600 25.70700
C  8.74800 4.31800 24.73200
C  9.03500 3.82200 23.34600
C  10.18400 2.81300 23.62800
C  10.12600 2.66300 25.14700
C  7.85100 3.02700 22.69700
C  11.58700 3.47100 23.37700
C  12.10100 3.20700 21.92700
N  10.35900 2.44600 28.15600
C  10.99900 1.65400 27.25800
C  11.71500 0.62100 28.01100
C  11.64900 1.04000 29.37500
C  10.83500 2.16400 29.36500
C  12.47600 -0.58500 27.40500
C  12.03700 0.71000 30.68700
O  12.57900 -0.27400 31.14000
C  11.45000 1.80000 31.59900
C  10.74200 1.17700 32.69100
O  9.52300 0.94500 32.58500
O  11.46100 0.99200 33.83400
C  10.71400 0.38900 34.94700
H  7.22700 7.20200 30.45500
H  7.60800 5.91800 24.02400
H  11.47000 0.98400 25.23900
H  9.11100 3.74400 32.88800
H  9.39900 6.48300 32.10400
H  7.21100 5.01100 33.47000
H  6.51900 5.93700 32.06900
H  7.42100 6.67500 33.37100
H  10.82400 6.02700 33.34800
H  11.72300 4.52800 32.74800
H  11.36800 3.43100 34.66700
H  9.80500 4.12200 35.04500
H  6.02700 9.60600 28.04100
H  6.25700 8.74800 29.50400
H  4.77600 8.42600 28.42500
H  5.48200 9.82600 26.02000
H  4.24900 8.41300 26.25600
H  4.33300 9.28100 24.77200
H  9.31400 4.62000 22.65600
H  10.13000 1.86800 23.08800
H  7.40200 3.64700 21.92100
H  7.06800 2.99800 23.45500
H  8.05600 2.02100 22.33000
H  12.32400 2.99900 24.02600
H  11.71200 4.52300 23.63300
H  12.98000 2.56500 21.96900
H  12.46900 4.10000 21.42200
H  11.35000 2.71200 21.31100
H  12.48200 -1.42900 28.09400
H  13.52600 -0.30700 27.32200
H  12.09300 -0.78200 26.40300
H  12.32900 2.38200 31.87400
H  10.22100 -0.54100 34.66400
H  10.06800 1.14800 35.39000
H  11.38700 0.16400 35.77400
Mg 26.21000 50.24200 26.19600
C  24.13100 51.51100 28.47900
C  28.65800 49.65400 28.57900
C  28.38300 49.52300 23.70700
C  23.93600 51.50800 23.57600
N  26.35100 50.39400 28.29400
C  25.37700 51.05000 29.06600
C  25.75500 50.95400 30.55800
C  27.31300 50.68700 30.52500
C  27.46200 50.13200 29.07500
C  28.22700 51.87200 30.97600
C  24.92500 49.81500 31.30900
C  24.17400 50.22400 32.61100
H  24.41500 49.36600 33.81700
N  28.13900 49.49500 26.19700
C  28.94000 49.30400 27.26400
C  30.18600 48.72400 26.76500
C  30.22200 48.76900 25.37500
C  28.90600 49.29900 25.07600
C  31.26400 48.19500 27.72100
C  31.33400 48.36200 24.40500
O  31.32900 48.65700 23.21200
C  32.57600 47.53800 24.71000
N  26.20300 50.62700 23.97400
C  27.22800 50.14100 23.24600
C  27.05800 50.41000 21.71900
C  25.53400 50.77700 21.70100
C  25.17700 51.04400 23.14300
C  27.93700 51.59100 21.25400
C  24.52500 49.72900 21.11500
C  23.35100 50.24000 20.17800
N  24.41500 51.29100 26.00600
C  23.55800 51.77100 24.94200
C  22.27400 52.10800 25.49300
C  22.48900 51.99400 26.87400
C  23.77400 51.55100 27.09600
C  21.18400 52.53100 24.60300
C  21.85300 52.36800 28.11000
O  20.72500 52.85800 28.25500
C  22.88100 51.91800 29.22100
C  23.00700 53.05800 30.21600
O  23.57000 54.15000 30.01100
O  22.34700 52.67900 31.28600
C  22.42800 53.57400 32.48500
H  29.36900 49.41300 29.37200
H  29.15700 49.36100 22.95400
H  23.25100 51.81400 22.78300
H  25.56800 51.93000 31.00500
H  27.56600 49.89000 31.22400
H  28.71200 52.27200 30.08500
H  28.98200 51.60700 31.71500
H  27.68600 52.69800 31.43700
H  25.60600 48.98600 31.50300
H  24.12700 49.36100 30.72200
H  23.10300 50.32100 32.43500
H  24.44500 51.25100 32.85600
H  32.19800 48.70000 27.47400
H  31.49500 47.15000 27.51200
H  31.06300 48.50600 28.74600
H  33.27100 48.11700 25.31700
H  33.02900 47.33000 23.74000
H  32.35600 46.65300 25.30700
H  27.27300 49.57500 21.05300
H  25.41800 51.72300 21.17200
H  27.29100 52.41100 20.93900
H  28.49600 51.31100 20.36100
H  28.56900 51.91400 22.08200
H  24.16800 49.07800 21.91300
H  25.17200 49.15700 20.45000
H  23.25500 49.63500 19.27700
H  23.54100 51.27000 19.87400
H  22.37500 50.22200 20.66300
H  20.31200 52.22900 25.18300
H  21.09900 52.16700 23.57900
H  21.22400 53.61900 24.55500
H  22.39200 51.10900 29.76400
H  23.15500 54.37500 32.35200
H  22.78000 52.95400 33.30900
H  21.40200 53.86500 32.71000

