158

Mg 23.73800 -4.92900 45.55700
C  26.33900 -2.80500 44.02100
C  21.64600 -3.92300 42.97600
C  21.90300 -7.58400 46.09600
C  26.40200 -6.25700 47.33400
N  23.97300 -3.51900 43.78200
C  25.08700 -2.79600 43.37400
C  24.78200 -2.04800 42.04100
C  23.25300 -2.40600 41.79000
C  22.91900 -3.29500 42.97800
C  22.33400 -1.24900 41.66800
C  25.66600 -2.49100 40.83600
C  26.55400 -1.47100 40.05000
H  26.10500 -1.48400 38.54800
N  21.89800 -5.66200 44.74500
C  21.20200 -4.99100 43.77300
C  19.84700 -5.61300 43.74700
C  19.91100 -6.78300 44.53800
C  21.24500 -6.75000 45.17200
C  18.75400 -5.09400 42.82500
C  18.80800 -7.75800 44.73200
O  17.68300 -7.50000 44.26100
C  18.85700 -9.01600 45.58200
N  24.16000 -6.73300 46.38800
C  23.16000 -7.65700 46.61700
C  23.69900 -8.88600 47.33200
C  25.01900 -8.32600 47.96200
C  25.22800 -7.05200 47.21500
C  22.68200 -9.61500 48.33100
C  26.30200 -9.31500 48.03100
C  26.11500 -10.92700 47.76200
N  25.82300 -4.43200 45.94100
C  26.75300 -5.05800 46.68800
C  28.02300 -4.52500 46.58500
C  27.87000 -3.56800 45.61600
C  26.55100 -3.62600 45.20500
C  29.27200 -4.98800 47.18700
C  28.64500 -2.62800 44.81100
O  29.83800 -2.35800 44.81300
C  27.66200 -2.09700 43.73900
C  27.61700 -0.58500 43.77300
O  27.17100 0.05400 44.66200
O  28.08400 0.04000 42.64300
C  28.23200 1.46900 42.65600
H  20.91400 -3.57600 42.24400
H  21.27300 -8.43200 46.37000
H  27.16500 -6.68400 47.98800
H  24.93700 -0.99300 42.26900
H  23.08000 -3.01700 40.90500
H  21.51100 -1.35700 42.37500
H  21.82700 -1.36400 40.71000
H  22.81800 -0.27200 41.66200
H  25.16200 -3.06000 40.05400
H  26.30300 -3.25200 41.28700
H  27.63900 -1.56900 40.06300
H  26.43000 -0.52000 40.56900
H  18.57400 -5.87000 42.08200
H  19.02800 -4.25600 42.18300
H  17.80600 -4.98700 43.35100
H  17.97400 -9.65200 45.51700
H  19.09500 -8.72900 46.60600
H  19.63700 -9.67100 45.19200
H  23.97700 -9.54100 46.50600
H  24.94800 -8.04700 49.01300
H  21.84200 -8.99600 48.64400
H  23.23700 -9.91600 49.22000
H  22.29200 -10.54900 47.92700
H  26.72000 -9.23000 49.03400
H  27.03600 -9.02100 47.28100
H  26.51700 -11.31500 46.82600
H  25.10400 -11.33200 47.81300
H  26.71200 -11.36100 48.56500
H  29.03600 -5.49100 48.12500
H  29.92000 -4.13000 47.36400
H  29.86500 -5.64100 46.54700
H  27.96000 -2.43000 42.74500
H  29.06400 1.73500 43.30800
H  27.40800 1.94500 43.18700
H  28.35800 1.97400 41.69800
Mg -10.83300 17.24200 41.08800
C  -7.25500 17.13800 40.89500
C  -10.60400 20.50000 40.30900
C  -13.94100 17.03400 40.01100
C  -10.72000 13.73500 41.18300
N  -9.09500 18.55300 40.38600
C  -7.75900 18.37700 40.60300
C  -6.96900 19.56900 40.14900
C  -8.02600 20.68300 40.42500
C  -9.34700 19.86700 40.37600
C  -7.82200 21.56100 41.75600
C  -6.54400 19.40000 38.60400
C  -5.08000 19.08400 38.43200
H  -4.76500 17.93500 37.49300
N  -12.13600 18.61100 40.20800
C  -11.89400 19.93800 40.15100
C  -13.05100 20.65400 39.81200
C  -14.08700 19.66200 39.77900
C  -13.44000 18.33300 40.04500
C  -12.99300 22.13700 39.47000
C  -15.59700 19.92500 39.28300
O  -15.95300 21.08100 38.94300
C  -16.59200 18.76600 39.16600
N  -12.14300 15.48400 40.48400
C  -13.38800 15.72700 40.20200
C  -14.24300 14.46100 40.25800
C  -13.21900 13.35400 40.70500
C  -12.00300 14.22900 40.86500
C  -15.57200 14.52900 41.02500
C  -12.95700 12.03800 39.93900
C  -13.60100 10.82600 40.58500
N  -9.42400 15.67600 41.40500
C  -9.50200 14.33000 41.48800
C  -8.15300 13.80400 41.74300
C  -7.31300 14.86900 41.51900
C  -8.08700 16.01300 41.27300
C  -7.74100 12.38700 41.94400
C  -5.83700 15.20000 41.50200
O  -4.84500 14.46600 41.59000
C  -5.76300 16.76200 41.17200
C  -5.15200 17.53400 42.36200
O  -3.96100 17.72100 42.41400
O  -6.12100 17.95600 43.27100
C  -5.53800 18.72900 44.38100
H  -10.62100 21.58400 40.17700
H  -15.02800 17.10200 40.08900
H  -10.68400 12.67600 41.44400
H  -6.05800 19.61500 40.74500
H  -8.03600 21.35600 39.56700
H  -6.87300 21.33600 42.24300
H  -8.59600 21.34000 42.49100
H  -7.88600 22.63200 41.56600
H  -6.70700 20.32300 38.04900
H  -7.08800 18.58800 38.12200
H  -4.66300 19.08000 39.43900
H  -4.57000 19.93800 37.98700
H  -13.01400 22.65500 40.42900
H  -13.86700 22.53700 38.95600
H  -12.10000 22.40400 38.90500
H  -16.26000 17.98400 38.48200
H  -17.49200 19.08200 38.64000
H  -16.95700 18.47600 40.15100
H  -14.51400 14.26900 39.22000
H  -13.50100 13.05900 41.71600
H  -16.32800 14.25200 40.29000
H  -15.85900 15.46500 41.50400
H  -15.56300 13.71700 41.75200
H  -11.88500 11.88600 39.81100
H  -13.40200 12.24600 38.96600
H  -14.40800 10.41300 39.98000
H  -13.86100 11.01300 41.62700
H  -12.76900 10.12300 40.62200
H  -8.62100 11.75800 41.81000
H  -7.45300 12.29700 42.99200
H  -6.93100 11.93900 41.36800
H  -5.05700 16.87800 40.35000
H  -6.33800 18.83800 45.11300
H  -5.15500 19.69900 44.06200
H  -4.68100 18.23200 44.83600

