158

Mg 47.81300 34.63300 27.59100
C  45.79300 33.10600 29.83800
C  48.16400 37.29700 29.50200
C  49.42800 36.32200 24.99200
C  47.13700 32.02000 25.19800
N  47.01200 35.13600 29.45900
C  46.29100 34.28600 30.28900
C  46.26300 34.89400 31.70700
C  46.65700 36.40100 31.51300
C  47.26800 36.33200 30.07000
C  45.50500 37.45400 31.63400
C  47.28900 34.08700 32.66000
C  46.77500 33.80900 34.07100
H  47.62800 34.57600 35.13600
N  48.83800 36.41700 27.32200
C  48.87000 37.34000 28.31100
C  49.78100 38.35600 27.97400
C  50.30800 38.03400 26.68200
C  49.50000 36.87800 26.26700
C  50.00500 39.60900 28.78500
C  51.29100 38.82800 25.78900
O  51.53700 38.43300 24.64200
C  52.11600 40.04800 26.29100
N  48.04400 34.32300 25.33200
C  48.90700 35.07700 24.61100
C  49.03800 34.54100 23.14800
C  48.33300 33.11200 23.23000
C  47.75100 33.17800 24.65200
C  48.44600 35.39600 22.03000
C  49.44500 31.96000 23.03400
C  50.26500 31.50500 24.32800
N  46.67000 33.01500 27.43500
C  46.62600 31.95200 26.53700
C  45.88000 30.88700 27.09200
C  45.50700 31.28900 28.34300
C  45.97900 32.56300 28.48600
C  45.43800 29.59700 26.42100
C  44.78400 30.97900 29.55600
O  44.27700 29.89900 29.92000
C  44.82100 32.22400 30.43900
C  44.91500 31.79400 31.84300
O  45.85900 31.16100 32.41900
O  43.69900 32.00600 32.51500
C  43.69700 31.56000 33.89100
H  48.24400 38.11400 30.22300
H  49.81800 36.85000 24.12000
H  47.22600 31.08300 24.64400
H  45.23400 34.77300 32.04600
H  47.43700 36.70600 32.21100
H  44.64300 37.16700 32.23600
H  45.17500 37.78200 30.64800
H  45.84200 38.32300 32.19900
H  48.21700 34.65400 32.58800
H  47.63400 33.17100 32.17900
H  46.87100 32.75700 34.34000
H  45.75000 34.11900 34.27300
H  49.71600 40.41200 28.10800
H  51.06900 39.67000 29.01600
H  49.46100 39.69300 29.72600
H  51.48800 40.93800 26.32500
H  52.93500 40.21600 25.59100
H  52.46200 39.90800 27.31500
H  50.11600 34.52800 22.98600
H  47.57300 32.90600 22.47600
H  49.14100 35.54900 21.20400
H  48.20000 36.33100 22.53300
H  47.48100 35.10000 21.62100
H  50.02800 32.25000 22.16000
H  48.99700 31.03000 22.68400
H  49.87900 31.91500 25.26100
H  51.31200 31.80100 24.26000
H  50.37200 30.42100 24.36000
H  45.32900 28.84900 27.20500
H  46.21900 29.36500 25.69700
H  44.47200 29.83200 25.97400
H  43.81400 32.63000 30.34300
H  42.86600 30.85400 33.89000
H  43.51100 32.39200 34.56900
H  44.60200 31.26800 34.42400
Mg -11.27900 17.15900 42.90400
C  -7.67700 17.77600 43.14100
C  -11.51800 20.48700 42.42100
C  -14.40800 16.55800 42.33600
C  -10.45700 13.68500 43.05500
N  -9.65300 18.83300 42.52500
C  -8.41000 18.95500 42.89600
C  -7.79400 20.29500 42.68100
C  -9.09800 21.11700 42.86000
C  -10.19500 20.08500 42.64500
C  -9.26900 21.83000 44.29100
C  -7.12200 20.44800 41.22600
C  -5.85600 21.22500 41.15300
H  -4.71900 20.71400 40.23300
N  -12.81100 18.39200 42.37400
C  -12.69200 19.78400 42.25600
C  -14.02800 20.35000 42.04900
C  -14.93600 19.19300 41.94600
C  -14.08800 17.96300 42.29500
C  -14.26300 21.80000 41.78200
C  -16.35100 19.23300 41.54300
O  -16.88700 20.28300 41.28300
C  -17.23900 18.03300 41.37600
N  -12.22700 15.41800 42.60800
C  -13.58200 15.42000 42.53800
C  -14.13200 14.00500 42.58600
C  -12.86000 13.11400 42.68400
C  -11.75400 14.14900 42.74900
C  -15.28200 13.91200 43.69100
C  -12.74200 12.05200 41.48200
C  -12.79200 10.50000 41.89400
N  -9.43200 15.89900 43.06000
C  -9.31200 14.47200 43.12200
C  -7.92400 14.15000 43.37600
C  -7.28500 15.41300 43.33600
C  -8.24400 16.42000 43.16700
C  -7.27700 12.78300 43.50600
C  -6.00900 16.08800 43.34000
O  -4.85100 15.66400 43.34300
C  -6.20700 17.57500 43.32900
C  -5.80700 18.24200 44.57800
O  -5.94600 17.75600 45.70800
O  -5.01700 19.34800 44.35700
C  -4.42900 19.97100 45.54200
H  -11.72400 21.55500 42.33100
H  -15.42700 16.30400 42.03700
H  -10.40500 12.59400 43.03300
H  -7.08800 20.50900 43.48400
H  -9.02100 21.80900 42.02100
H  -8.32500 21.70700 44.82300
H  -10.00600 21.22800 44.82200
H  -9.67600 22.84000 44.24600
H  -7.83400 20.79500 40.47800
H  -6.85100 19.42600 40.96000
H  -5.47500 21.30300 42.17200
H  -6.16500 22.20600 40.79300
H  -14.03400 22.06200 40.74900
H  -13.46300 22.29500 42.33100
H  -15.28700 22.11700 41.97900
H  -18.24500 18.42100 41.21800
H  -17.23900 17.65700 42.39900
H  -16.93900 17.28100 40.64700
H  -14.47200 13.87700 41.55800
H  -12.80300 12.58200 43.63400
H  -14.90400 13.20400 44.42900
H  -16.21400 13.53400 43.27100
H  -15.40100 14.91600 44.09700
H  -11.82800 12.22400 40.91300
H  -13.46200 12.19100 40.67500
H  -12.63100 10.29800 42.95300
H  -12.02700 9.99600 41.30300
H  -13.78400 10.17900 41.57600
H  -6.56800 12.55500 42.71000
H  -8.05000 12.02000 43.59700
H  -6.63900 12.68200 44.38400
H  -5.63800 17.97500 42.49000
H  -5.18500 20.25100 46.27500
H  -3.92000 20.86400 45.17900
H  -3.75000 19.24400 45.98800

