158

Mg 25.52900 0.08700 29.27100
C  27.28900 -0.12400 32.26300
C  22.68600 0.14900 31.09500
C  23.86900 0.54400 26.26900
C  28.46800 -0.06400 27.47500
N  25.08600 -0.05500 31.42700
C  25.94600 0.00600 32.50000
C  25.24400 0.06900 33.88100
C  23.72600 -0.14400 33.43500
C  23.81500 0.00700 31.91600
C  23.03600 -1.43000 33.96100
C  25.57700 1.33900 34.77800
C  26.11900 1.06200 36.19600
H  25.07400 0.64200 37.27400
N  23.54100 0.25900 28.80000
C  22.50100 0.20300 29.68500
C  21.28700 0.24800 28.92500
C  21.60900 0.39600 27.49900
C  23.07000 0.45500 27.46200
C  19.85400 0.17200 29.60800
C  20.70700 0.46500 26.24100
O  21.15600 0.62400 25.08800
C  19.24300 0.36000 26.51300
N  26.08200 -0.07000 27.11800
C  25.25100 0.25300 26.10100
C  25.95400 0.37000 24.72000
C  27.46900 0.18700 25.16900
C  27.33400 0.06300 26.71200
C  25.38700 -0.55000 23.65200
C  28.45700 1.35100 24.80600
C  29.87100 0.95100 24.28800
N  27.49400 -0.09500 29.74000
C  28.61100 -0.13300 28.88700
C  29.79700 -0.40300 29.70600
C  29.33700 -0.38800 31.04000
C  27.92100 -0.24100 31.04000
C  31.16600 -0.59300 29.17300
C  29.80300 -0.49800 32.40300
O  30.92200 -0.66700 32.83100
C  28.51500 -0.17600 33.28300
C  28.42300 -1.29600 34.26900
O  27.69900 -2.28400 34.15500
O  29.22600 -1.11200 35.33500
C  28.99900 -2.02500 36.41700
H  21.88900 0.18500 31.84100
H  23.27400 0.80500 25.39200
H  29.32200 -0.14400 26.79900
H  25.43400 -0.81400 34.49100
H  23.02800 0.62100 33.77800
H  23.64400 -2.07200 34.59900
H  22.62800 -2.08500 33.19200
H  22.24600 -1.09600 34.63300
H  24.70600 1.98900 34.86900
H  26.29800 1.93300 34.21800
H  26.65800 1.89700 36.64300
H  26.72200 0.15500 36.15700
H  19.92300 0.10700 30.69400
H  19.41700 -0.79600 29.36600
H  19.18300 0.96300 29.27200
H  18.80200 1.27900 26.89900
H  19.15300 -0.46900 27.21500
H  18.78000 0.08300 25.56600
H  25.80900 1.34500 24.25500
H  27.83700 -0.80300 24.90300
H  25.52500 -0.14100 22.65100
H  24.31500 -0.42700 23.80900
H  25.69200 -1.59500 23.69900
H  28.61100 1.92000 25.72300
H  28.03500 2.06100 24.09600
H  29.84900 -0.10600 24.02500
H  30.52500 1.11100 25.14500
H  30.12300 1.55700 23.41800
H  31.79400 -0.56300 30.06300
H  31.31700 0.09400 28.34000
H  31.24500 -1.64100 28.88400
H  28.64700 0.73800 33.86100
H  28.02900 -1.61700 36.69800
H  29.78300 -1.86200 37.15600
H  28.71500 -3.05100 36.18000
Mg -9.31600 18.65600 42.93700
C  -5.90200 17.79800 43.08300
C  -8.48200 21.97800 42.60200
C  -12.54500 19.32700 42.38600
C  -10.04700 15.14500 42.76600
N  -7.36100 19.70000 42.63600
C  -6.03800 19.20600 42.82500
C  -5.01800 20.38600 42.81300
C  -5.96300 21.67500 42.97800
C  -7.37800 21.07900 42.61900
C  -5.88500 22.55200 44.31900
C  -4.14300 20.19700 41.55200
C  -4.71000 19.52700 40.27800
H  -4.35400 20.08500 38.91500
N  -10.40400 20.41500 42.68700
C  -9.82900 21.63500 42.57800
C  -10.90600 22.57700 42.26100
C  -12.15700 21.88600 42.18200
C  -11.68300 20.47600 42.42200
C  -10.80200 24.07200 42.04900
C  -13.56900 22.49900 42.08700
O  -13.79400 23.73200 41.94700
C  -14.92600 21.66200 42.16600
N  -10.96600 17.39900 42.46500
C  -12.21900 17.95800 42.46500
C  -13.31500 16.90100 42.34200
C  -12.50000 15.62100 42.57100
C  -11.09900 16.07200 42.56100
C  -14.48100 17.00500 43.34600
C  -12.76300 14.43800 41.55700
C  -13.48100 13.15500 42.16400
N  -8.28400 16.79800 43.03200
C  -8.71300 15.48300 43.01800
C  -7.58200 14.58300 43.32000
C  -6.52800 15.53900 43.39600
C  -6.90800 16.79600 43.13900
C  -7.63900 13.13000 43.58700
C  -5.07600 15.61800 43.61900
O  -4.25800 14.69300 43.93000
C  -4.65800 17.07900 43.42500
C  -3.79800 17.42200 44.65100
O  -2.57700 17.43200 44.70500
O  -4.66100 17.63100 45.69800
C  -3.98800 18.01200 46.98300
H  -8.22700 23.04000 42.58700
H  -13.62200 19.44600 42.24800
H  -10.18200 14.06100 42.77300
H  -4.34100 20.32700 43.66500
H  -5.62800 22.39100 42.22700
H  -5.01600 22.43400 44.96700
H  -6.84600 22.47900 44.82900
H  -5.91500 23.58900 43.98600
H  -3.18900 19.79000 41.88700
H  -3.82200 21.16500 41.16600
H  -5.78800 19.69200 40.28700
H  -4.44100 18.47300 40.21400
H  -10.96600 24.40600 41.02400
H  -9.79000 24.31000 42.37700
H  -11.63800 24.52600 42.58100
H  -14.93800 20.99500 43.02800
H  -15.22900 21.19000 41.23100
H  -15.73600 22.37500 42.31900
H  -13.78900 16.84700 41.36200
H  -12.69000 15.25500 43.58000
H  -14.09300 17.75100 44.04000
H  -14.55200 16.05400 43.87300
H  -15.35100 17.36300 42.79700
H  -11.81400 14.12600 41.12000
H  -13.35100 14.72400 40.68500
H  -13.87700 13.25100 43.17500
H  -12.68200 12.41900 42.25100
H  -14.27500 12.76600 41.52500
H  -6.61400 12.81300 43.77900
H  -7.92600 12.57400 42.69500
H  -8.17200 12.86100 44.49900
H  -4.10200 17.12100 42.48800
H  -4.65600 18.70800 47.49000
H  -2.99300 18.44400 46.87200
H  -3.91400 17.17500 47.67700

