158

Mg -3.37500 17.15900 26.70200
C  -3.75000 14.95900 29.31500
C  -3.48500 19.76300 28.87400
C  -3.30500 19.33600 24.10700
C  -3.72400 14.51300 24.50700
N  -3.65700 17.21600 28.84000
C  -3.70700 16.22200 29.74400
C  -3.66100 16.75100 31.26300
C  -3.61300 18.28800 31.06900
C  -3.60600 18.45900 29.48800
C  -4.74700 19.11600 31.73500
C  -2.43800 16.14400 32.08500
C  -1.88400 16.95800 33.28300
H  -1.49000 16.29500 34.60800
N  -3.23100 19.19300 26.53000
C  -3.30500 20.12900 27.52300
C  -2.96100 21.44200 26.96500
C  -2.73900 21.28200 25.55800
C  -3.07200 19.85200 25.36800
C  -2.74100 22.69200 27.80200
C  -2.17900 22.16700 24.46900
O  -2.02900 21.77500 23.36700
C  -1.67900 23.59500 24.82000
N  -3.72600 16.92200 24.61400
C  -3.56100 18.00500 23.77000
C  -3.63400 17.54100 22.31500
C  -3.83600 16.03300 22.46000
C  -3.68900 15.78900 23.97100
C  -4.76300 18.24700 21.51200
C  -2.77700 15.21800 21.67200
C  -1.24100 15.23700 22.11900
N  -3.59300 15.09500 26.79400
C  -3.80900 14.17000 25.88600
C  -3.90900 12.86800 26.43100
C  -3.75800 13.06100 27.81200
C  -3.69600 14.48100 27.96200
C  -4.15100 11.54200 25.77300
C  -3.67000 12.45500 29.05300
O  -3.63700 11.24900 29.19600
C  -3.84900 13.66700 30.13200
C  -2.74800 13.37700 31.03700
O  -1.60000 13.63300 30.70200
O  -3.16200 12.72300 32.14700
C  -2.08800 12.35000 33.14600
H  -3.47900 20.68400 29.46100
H  -3.54000 20.05300 23.31800
H  -3.84100 13.58300 23.94800
H  -4.59800 16.46100 31.73900
H  -2.69800 18.79100 31.38300
H  -5.22400 19.76200 30.99800
H  -4.39000 19.88000 32.42600
H  -5.39700 18.45900 32.31200
H  -1.60500 15.91400 31.42000
H  -2.73300 15.21700 32.57600
H  -2.59000 17.73400 33.58000
H  -1.00400 17.46800 32.89300
H  -3.29600 23.54300 27.40800
H  -1.68700 22.96800 27.83500
H  -3.12000 22.55500 28.81500
H  -0.74600 23.57600 25.38200
H  -2.52100 24.08800 25.30600
H  -1.44300 24.15600 23.91600
H  -2.68200 17.84900 21.88200
H  -4.82500 15.64600 22.21300
H  -5.29600 19.00400 22.08800
H  -5.45600 17.56700 21.01700
H  -4.25100 18.79400 20.72100
H  -2.79800 15.67700 20.68400
H  -3.20800 14.21700 21.64700
H  -1.04300 15.93500 22.93300
H  -0.70800 15.69400 21.28600
H  -0.77800 14.27000 22.31800
H  -3.18000 11.11500 25.52200
H  -4.76500 11.67000 24.88100
H  -4.65800 10.90200 26.49500
H  -4.84700 13.65400 30.57000
H  -1.83100 11.30300 32.98400
H  -2.55700 12.56400 34.10700
H  -1.16700 12.92800 33.06700
Mg 40.80700 9.54600 29.83100
C  42.37500 10.19100 32.95000
C  38.23800 7.81700 31.76100
C  39.38900 8.62800 27.06700
C  43.48200 10.92600 28.19200
N  40.37900 9.18800 32.09400
C  41.09500 9.69000 33.13300
C  40.35400 9.60700 34.46600
C  39.23700 8.55800 34.07300
C  39.25400 8.49700 32.49700
C  39.52300 7.17600 34.57000
C  39.80400 10.99000 34.89700
C  39.48700 11.00400 36.35300
H  40.43500 11.77800 37.26600
N  38.98200 8.47600 29.43900
C  38.09500 7.81200 30.30500
C  36.97400 7.35700 29.57100
C  37.15000 7.67300 28.17600
C  38.57000 8.27000 28.14600
C  35.79000 6.58000 30.16000
C  36.24200 7.43500 26.87500
O  36.64800 7.74000 25.76700
C  34.83000 6.85400 27.03700
N  41.31700 9.74300 27.99500
C  40.58900 9.27500 26.96300
C  41.30000 9.25400 25.60100
C  42.48900 10.21000 25.93200
C  42.46900 10.35200 27.48700
C  41.78900 7.85100 25.11500
C  42.37200 11.62600 25.26800
C  40.96800 12.30500 25.27700
N  42.69000 10.28700 30.42600
C  43.69000 10.79900 29.59600
C  44.73900 11.38700 30.41800
C  44.20000 11.20600 31.79500
C  42.94800 10.55500 31.72400
C  45.97300 12.18800 30.05000
C  44.46600 11.57800 33.14300
O  45.39700 12.22400 33.59400
C  43.35000 10.91200 33.99600
C  44.09800 9.91500 34.84500
O  44.39300 8.81500 34.54100
O  44.52100 10.50500 36.03200
C  45.10300 9.58400 37.02300
H  37.45200 7.31000 32.32500
H  38.95700 8.25800 26.13500
H  44.38000 11.32900 27.72000
H  41.06200 9.24500 35.21300
H  38.22800 8.86900 34.34400
H  40.26100 6.72400 33.90800
H  38.60400 6.58900 34.56600
H  39.89800 7.30100 35.58600
H  38.92000 11.22300 34.30300
H  40.58100 11.73700 34.73000
H  39.44200 9.99500 36.76300
H  38.48400 11.38000 36.55600
H  36.03800 5.55400 29.88800
H  34.83000 6.90100 29.75600
H  35.72800 6.70100 31.24100
H  34.21400 6.90100 26.13900
H  34.39800 7.46100 27.83300
H  35.02700 5.83200 27.36200
H  40.68300 9.72400 24.83600
H  43.39100 9.65900 25.66600
H  42.82300 7.61800 25.37100
H  41.59600 7.78400 24.04400
H  41.11100 7.10300 25.52500
H  42.78700 11.66400 24.26100
H  43.07100 12.27400 25.79500
H  40.54100 12.29000 24.27400
H  41.16400 13.34900 25.52200
H  40.23100 11.98600 26.01400
H  46.67700 11.57800 29.48400
H  46.36900 12.36000 31.05100
H  45.60600 13.03400 29.47000
H  42.88500 11.70300 34.58500
H  44.66100 8.58800 36.99000
H  44.94600 10.03700 38.00200
H  46.18000 9.43000 36.96300

