158

Mg 40.37700 8.57200 28.93800
C  42.48200 9.80400 31.56100
C  38.38400 7.05200 31.40300
C  38.52900 7.44100 26.48800
C  42.83700 9.66000 26.57100
N  40.48500 8.42300 31.16400
C  41.35900 9.13500 32.01700
C  40.87600 9.02200 33.51800
C  39.75200 7.86200 33.40100
C  39.51200 7.71200 31.91600
C  39.96300 6.58000 34.16800
C  40.28200 10.42300 34.02500
C  41.07900 11.12100 35.15700
H  40.42300 11.94900 36.22600
N  38.71200 7.35900 28.91200
C  37.96900 6.85500 30.00000
C  36.82300 6.10000 29.51400
C  36.84100 6.20400 28.03500
C  38.04400 7.06700 27.76200
C  35.72500 5.48100 30.36300
C  35.97100 5.54700 27.01300
O  36.01000 5.76700 25.82300
C  34.95400 4.44700 27.34600
N  40.69100 8.48700 26.80900
C  39.71100 8.09300 26.02600
C  40.08400 8.30200 24.53100
C  41.37600 9.05000 24.60000
C  41.65900 9.08600 26.05300
C  40.09400 7.05900 23.59700
C  41.42500 10.37900 23.91900
C  40.76500 11.58500 24.53900
N  42.26300 9.54900 28.97900
C  43.12700 9.84800 27.96100
C  44.28300 10.49200 28.52000
C  44.00400 10.54500 29.92200
C  42.83100 9.92100 30.18200
C  45.59700 10.76300 27.92300
C  44.61000 10.84100 31.18600
O  45.72700 11.27700 31.39600
C  43.60000 10.49300 32.28800
C  44.30500 9.69000 33.31900
O  44.85300 8.60600 33.14000
O  44.34100 10.32000 34.55200
C  44.79100 9.38700 35.59100
H  37.72700 6.70300 32.20300
H  37.88800 7.09700 25.67400
H  43.63700 9.95200 25.88700
H  41.65800 8.73000 34.22000
H  38.82800 8.30800 33.76800
H  39.14700 6.30600 34.83600
H  40.85600 6.75000 34.76900
H  40.04000 5.66900 33.57400
H  39.25200 10.44500 34.37900
H  40.27900 11.05200 33.13400
H  41.77800 11.86000 34.76600
H  41.63900 10.28000 35.56600
H  34.76000 5.96800 30.21800
H  35.80300 5.64300 31.43800
H  35.76900 4.44600 30.02500
H  35.39400 3.73700 28.04600
H  34.78200 3.96600 26.38300
H  34.06700 4.86900 27.81700
H  39.26700 8.87700 24.09500
H  42.14400 8.41100 24.16400
H  40.72600 7.38800 22.77200
H  39.12600 6.79000 23.17400
H  40.53900 6.16600 24.03700
H  40.99100 10.23800 22.92900
H  42.48600 10.62700 23.89000
H  41.40500 12.45000 24.36600
H  40.42600 11.56200 25.57500
H  39.86200 11.83400 23.98100
H  46.41700 10.27500 28.45000
H  45.75600 11.84100 27.93200
H  45.80200 10.74400 26.85300
H  43.38000 11.48900 32.67100
H  44.11400 8.55000 35.76100
H  44.78400 10.00700 36.48800
H  45.75700 8.91500 35.41200
Mg 9.75400 48.22900 25.80200
C  7.74400 48.38300 28.73300
C  12.35200 49.43200 27.62700
C  11.51200 47.94800 23.08800
C  6.76600 47.75100 23.99300
N  9.96000 48.79600 27.97400
C  9.05700 48.77600 28.95400
C  9.67100 49.16400 30.31100
C  11.03200 49.80200 29.92300
C  11.17500 49.38200 28.34800
C  11.14200 51.36100 30.03100
C  9.85100 47.96500 31.23200
C  9.27800 48.10100 32.66400
H  8.97800 46.85000 33.43500
N  11.69900 48.43500 25.51700
C  12.62000 48.92400 26.40900
C  13.88900 48.81100 25.80100
C  13.67600 48.38700 24.42000
C  12.25800 48.19200 24.30300
C  15.14200 49.20400 26.57300
C  14.73700 48.23900 23.29500
O  14.42100 48.04000 22.09600
C  16.15700 48.32600 23.63700
N  9.11700 48.10100 23.74600
C  10.15300 47.79000 22.87100
C  9.58200 47.54800 21.46300
C  8.00400 47.44500 21.74600
C  7.89000 47.84700 23.21800
C  9.90900 48.57800 20.40200
C  7.43000 45.99600 21.51300
C  6.14800 45.91500 20.62000
N  7.62100 48.26100 26.19600
C  6.58500 47.91300 25.36500
C  5.41400 47.70700 26.18400
C  5.80800 48.04200 27.46600
C  7.16900 48.22500 27.47000
C  4.03400 47.37000 25.72100
C  5.26800 48.11900 28.77900
O  4.12900 48.01700 29.17000
C  6.51700 48.30400 29.72900
C  6.57500 47.11000 30.65600
O  7.02000 46.00700 30.31300
O  5.99800 47.39600 31.90300
C  5.69900 46.21800 32.69800
H  13.14300 49.81300 28.27600
H  12.13400 47.83500 22.19800
H  5.87000 47.60500 23.38500
H  8.94500 49.75900 30.86600
H  11.87100 49.40700 30.49500
H  10.10600 51.64700 30.21000
H  11.56700 51.92700 29.20200
H  11.72900 51.68400 30.89200
H  10.91100 47.77500 31.40200
H  9.37400 47.04200 30.90500
H  8.29500 48.55700 32.54200
H  9.98400 48.70300 33.23600
H  15.84900 48.38000 26.47500
H  15.05100 49.42200 27.63700
H  15.64400 50.06900 26.14100
H  16.49100 47.32700 23.91700
H  16.25900 49.03300 24.46000
H  16.61500 48.77500 22.75500
H  9.99000 46.57400 21.19400
H  7.43600 48.19100 21.18900
H  9.10300 49.30300 20.29400
H  9.94900 48.11200 19.41700
H  10.84900 49.10900 20.55100
H  7.28000 45.40700 22.41800
H  8.11900 45.52300 20.81300
H  5.50800 46.73400 20.94900
H  5.59100 44.98700 20.75300
H  6.36500 46.01200 19.55700
H  3.58900 46.63700 26.39400
H  4.19800 46.77500 24.82200
H  3.54200 48.31600 25.49600
H  6.48900 49.30400 30.16300
H  4.62400 46.07900 32.81100
H  6.19100 46.45900 33.64000
H  6.06100 45.24500 32.36700

