158

Mg 48.34800 24.42900 27.98100
C  48.99100 26.81900 30.36300
C  47.40800 22.24800 30.57500
C  47.36800 22.29500 25.63900
C  49.16900 26.81900 25.46800
N  48.38200 24.53800 30.29700
C  48.51700 25.70000 31.02200
C  48.32900 25.43100 32.51000
C  47.75800 23.92600 32.53400
C  47.85800 23.54600 31.03600
C  48.46000 22.97700 33.45200
C  47.58700 26.51300 33.26300
C  47.94900 26.75700 34.76700
H  46.95700 26.71300 35.94700
N  47.54600 22.49200 28.05900
C  47.24000 21.77800 29.23100
C  46.73900 20.48000 28.70600
C  46.66200 20.51600 27.26200
C  47.20200 21.74700 26.93300
C  46.31500 19.45500 29.71200
C  46.38800 19.39000 26.34700
O  46.63900 19.47300 25.13100
C  45.42700 18.32500 26.75900
N  48.57500 24.44800 25.74400
C  48.00900 23.43300 25.06000
C  47.97800 23.72100 23.57900
C  48.27300 25.27700 23.59000
C  48.67700 25.56800 25.00200
C  49.00000 22.82800 22.79900
C  47.07400 26.14300 23.08500
C  45.69000 25.80300 23.68300
N  49.10500 26.26500 27.87100
C  49.38700 27.15600 26.80200
C  49.90400 28.43500 27.28500
C  49.76500 28.33200 28.67500
C  49.21700 27.02800 28.96000
C  50.42100 29.63200 26.57400
C  50.01800 29.04400 29.88500
O  50.51600 30.10400 30.09900
C  49.52400 28.07200 31.08400
C  50.59900 27.84500 32.08900
O  51.27800 26.84300 32.06600
O  50.58700 28.87000 32.98200
C  51.43900 28.63700 34.11400
H  47.04100 21.76400 31.48300
H  47.23300 21.51000 24.89200
H  49.27400 27.60500 24.71700
H  49.33500 25.47700 32.92600
H  46.73800 24.16900 32.83200
H  48.81200 23.51200 34.33500
H  49.23600 22.42500 32.92200
H  47.75700 22.25200 33.86200
H  46.55400 26.18600 33.37900
H  47.51400 27.45200 32.71500
H  48.47700 27.69900 34.91200
H  48.67100 25.96300 34.95400
H  45.24100 19.32400 29.84600
H  46.58400 19.68400 30.74400
H  46.81400 18.53500 29.40900
H  44.49000 18.58200 27.25300
H  45.85200 17.62700 27.48100
H  45.20700 17.77000 25.84700
H  47.00500 23.48700 23.14700
H  49.18600 25.55900 23.06600
H  48.62200 22.28900 21.93100
H  49.41700 22.07200 23.46400
H  49.73700 23.50100 22.36000
H  46.87200 25.85100 22.05400
H  47.26900 27.21200 23.17400
H  45.09000 25.41800 22.85900
H  45.15700 26.71600 23.94700
H  45.61300 25.06400 24.48000
H  51.47800 29.71400 26.82700
H  49.88400 30.50200 26.95200
H  50.39100 29.38600 25.51200
H  48.78000 28.71900 31.54900
H  50.73700 28.11700 34.76600
H  51.73800 29.60100 34.52700
H  52.33800 28.08600 33.83600
Mg 17.13900 51.91100 25.89600
C  18.90600 50.56000 28.47300
C  14.72600 52.95700 27.97800
C  15.29500 52.84300 23.20200
C  19.82400 50.98400 23.72400
N  16.82900 51.62400 27.96200
C  17.71600 51.19600 28.88600
C  17.17900 51.22700 30.28700
C  15.69200 51.90200 30.12000
C  15.69000 52.16400 28.54500
C  14.45800 51.14300 30.69300
C  18.11300 52.03700 31.23900
C  17.71400 52.14400 32.67100
H  16.65300 51.25900 33.30700
N  15.33700 52.87000 25.66300
C  14.47600 53.27300 26.65000
C  13.35000 54.00800 26.12300
C  13.62200 54.00800 24.71300
C  14.72300 53.17300 24.43300
C  12.22000 54.57500 27.00000
C  12.83900 54.75900 23.68900
O  13.09200 54.69000 22.51200
C  11.51100 55.48300 24.09200
N  17.48400 52.05200 23.84800
C  16.61200 52.42700 22.83200
C  17.19100 52.39400 21.48200
C  18.68300 51.98300 21.74700
C  18.70000 51.63200 23.21400
C  16.43500 51.38500 20.64600
C  19.67900 53.09200 21.34500
C  19.92800 54.28400 22.24300
N  18.93300 50.94800 26.02700
C  19.88900 50.51900 25.03000
C  20.99500 49.77600 25.69500
C  20.64800 49.74400 27.05000
C  19.37500 50.43300 27.15600
C  22.21800 49.24000 24.99700
C  21.10900 49.40800 28.28500
O  22.17100 48.92300 28.69300
C  20.02800 49.89000 29.31700
C  19.54000 48.73000 30.11300
O  18.92700 47.75900 29.68400
O  19.85000 48.95500 31.46300
C  19.29100 47.93800 32.34300
H  14.05200 53.33400 28.75000
H  14.65200 53.07700 22.35000
H  20.68000 50.71400 23.10200
H  17.09700 50.19900 30.63800
H  15.62600 52.89000 30.57500
H  13.89700 51.79900 31.35900
H  14.91800 50.36200 31.29900
H  13.77600 50.69600 29.96900
H  17.93600 53.02700 30.81900
H  19.18400 51.85200 31.15200
H  17.44000 53.18700 32.83000
H  18.50400 51.87700 33.37200
H  12.22900 55.66100 26.90900
H  12.29400 54.22800 28.03100
H  11.23100 54.17800 26.77000
H  11.72300 56.37800 24.67700
H  10.75900 54.85600 24.57200
H  10.97300 55.59400 23.15100
H  17.08600 53.39100 21.05400
H  18.94500 51.05400 21.24100
H  16.74000 50.36600 20.88500
H  16.52200 51.56600 19.57400
H  15.37600 51.53400 20.85500
H  19.48000 53.38600 20.31500
H  20.60800 52.52700 21.26400
H  19.03500 54.42600 22.85200
H  20.11800 55.17700 21.64800
H  20.68300 54.11800 23.01200
H  22.34000 49.10500 23.92200
H  22.20400 48.16500 25.17800
H  23.10100 49.70800 25.43300
H  20.56100 50.61300 29.93300
H  19.67700 48.22200 33.32200
H  19.70500 46.97600 32.04100
H  18.20700 47.83500 32.29900

