158

Mg 24.22500 -4.53100 45.85400
C  26.37400 -2.08600 44.33000
C  21.72800 -3.30800 43.93600
C  22.53200 -7.40900 46.36100
C  26.88200 -5.70900 47.64500
N  24.10500 -2.98300 44.31000
C  25.03500 -2.08300 43.91100
C  24.46800 -1.20300 42.75200
C  22.92300 -1.24800 43.13100
C  22.85100 -2.54700 43.85700
C  22.45000 0.05300 43.87300
C  24.75100 -1.66400 41.21500
C  25.79300 -0.81200 40.48900
H  25.74500 -0.94600 38.98400
N  22.30700 -5.29700 45.27900
C  21.47700 -4.63700 44.41000
C  20.30200 -5.43400 44.20300
C  20.49200 -6.70200 44.83900
C  21.82200 -6.57100 45.52100
C  19.07000 -5.00200 43.38900
C  19.57700 -7.90700 44.78800
O  18.43200 -7.73200 44.31700
C  19.88900 -9.19300 45.53100
N  24.65700 -6.25400 46.81300
C  23.78000 -7.31100 46.98500
C  24.31100 -8.42400 47.93500
C  25.62500 -7.70400 48.52500
C  25.72400 -6.42700 47.59900
C  23.40700 -8.95500 48.99300
C  26.82800 -8.62600 48.51300
C  27.56800 -8.85100 49.75500
N  26.26600 -3.97600 46.10400
C  27.22100 -4.58100 46.81800
C  28.42000 -3.74700 46.66200
C  28.21100 -2.87900 45.65700
C  26.83100 -2.99000 45.31900
C  29.60700 -3.91200 47.54200
C  28.68700 -1.80100 44.77100
O  29.80900 -1.31300 44.63100
C  27.58600 -1.24900 43.81600
C  27.26300 0.19900 44.15100
O  27.28600 0.74900 45.24900
O  27.06400 0.97900 42.98100
C  26.97300 2.46800 43.18500
H  20.82400 -2.93800 43.44900
H  22.02500 -8.34700 46.59700
H  27.44600 -5.88600 48.56300
H  24.91800 -0.22400 42.91900
H  22.23500 -1.36600 42.29400
H  23.27200 0.59800 44.33800
H  21.67100 -0.20200 44.59100
H  22.04600 0.68000 43.07900
H  23.92600 -1.86700 40.53300
H  25.38200 -2.55300 41.25000
H  26.79400 -1.14200 40.76600
H  25.88800 0.24900 40.72400
H  18.94500 -5.69600 42.55900
H  19.24200 -3.99300 43.01300
H  18.24200 -4.88000 44.08900
H  20.93500 -9.41200 45.31700
H  19.31700 -9.99200 45.05900
H  19.67800 -9.18900 46.60100
H  24.57400 -9.14700 47.16200
H  25.40300 -7.33000 49.52400
H  22.59000 -8.24800 49.13900
H  23.90600 -8.99700 49.96100
H  23.06500 -9.97000 48.78900
H  27.62800 -8.32000 47.83900
H  26.46400 -9.61500 48.23400
H  26.97300 -8.48100 50.59000
H  28.56000 -8.41000 49.85500
H  27.69400 -9.93100 49.83600
H  30.58200 -3.61900 47.15400
H  29.74300 -4.95300 47.83200
H  29.46500 -3.30900 48.44000
H  27.78500 -1.25100 42.74400
H  27.50500 2.89200 44.03600
H  25.91000 2.59600 43.39000
H  27.34100 2.95600 42.28200
Mg 54.65100 24.22800 44.89900
C  52.00800 26.46500 43.87000
C  52.50200 21.58500 44.16600
C  57.37000 22.24500 44.61700
C  56.76400 27.03100 45.30700
N  52.51500 24.10100 43.98500
C  51.65300 25.13600 43.63200
C  50.31800 24.49000 43.07000
C  50.34600 23.03200 43.71500
C  51.84500 22.87500 44.02000
C  49.46900 22.86700 45.00000
C  50.19800 24.63100 41.57400
C  48.76900 24.59100 41.02400
H  48.64000 23.87400 39.63200
N  54.91700 22.21500 44.50600
C  53.92700 21.25500 44.35600
C  54.48600 19.95900 44.31700
C  55.86300 20.14200 44.29700
C  56.09800 21.55800 44.43400
C  53.75100 18.72500 43.90700
C  56.92500 19.04300 44.02800
O  56.58100 17.86300 44.02800
C  58.37900 19.30300 43.61700
N  56.78100 24.63000 44.77200
C  57.60700 23.61000 44.79400
C  59.07100 24.01700 45.18500
C  58.84400 25.56800 45.37600
C  57.39000 25.79400 45.13000
C  59.67800 23.28000 46.38800
C  59.72200 26.47100 44.30100
C  60.59200 27.63800 44.87400
N  54.42700 26.31300 44.84400
C  55.39900 27.30400 45.07100
C  54.72400 28.52500 45.04800
C  53.41400 28.28500 44.57700
C  53.27800 26.90800 44.46200
C  55.30000 29.82000 45.41400
C  52.14600 28.86800 44.18400
O  51.83900 30.03500 44.10300
C  51.19900 27.74400 43.58000
C  51.02700 28.04600 42.17300
O  51.91800 28.01700 41.33200
O  49.68200 28.25200 41.92500
C  49.37500 28.49000 40.50600
H  51.81800 20.77900 43.89400
H  58.35400 21.77500 44.67800
H  57.45400 27.83500 45.57000
H  49.53800 25.09100 43.53700
H  50.07400 22.33900 42.92000
H  50.01800 22.54500 45.88500
H  48.72700 22.10800 44.75200
H  48.90000 23.77700 45.18900
H  50.79800 23.81400 41.17500
H  50.59400 25.59800 41.26300
H  48.50300 25.64600 40.96200
H  48.15300 24.09700 41.77600
H  53.88800 18.68800 42.82700
H  52.66900 18.78000 44.01900
H  54.19000 17.85700 44.39900
H  58.59600 18.57100 42.84000
H  58.97800 19.35900 44.52600
H  58.36600 20.20300 43.00200
H  59.64600 23.79300 44.28700
H  58.98800 25.86600 46.41500
H  59.01200 22.57700 46.88800
H  60.11600 23.96300 47.11600
H  60.55700 22.74200 46.03400
H  59.03100 26.89000 43.56900
H  60.37800 25.79400 43.75400
H  60.12200 28.61900 44.80200
H  61.55900 27.72600 44.37900
H  60.86200 27.59300 45.92900
H  55.68600 29.81600 46.43300
H  54.46000 30.51300 45.44600
H  56.07800 30.15400 44.72800
H  50.33400 27.77300 44.24200
H  49.14700 29.52200 40.23900
H  48.37900 28.07100 40.36600
H  50.12700 28.19300 39.77500

