158

Mg 46.90500 16.71200 28.50100
C  44.63600 16.42800 31.22000
C  49.14700 18.35100 30.56100
C  48.42300 17.71500 25.81100
C  44.32700 15.20800 26.47700
N  46.82600 17.46000 30.63200
C  45.84600 17.12100 31.53400
C  46.28100 17.55600 32.97200
C  47.61600 18.36700 32.70500
C  47.92900 18.04900 31.24300
C  47.53900 19.83500 32.94800
C  46.47600 16.41600 33.90800
C  45.94800 16.61200 35.35900
H  45.51100 17.97800 35.83200
N  48.65000 17.74000 28.22200
C  49.42300 18.30200 29.15700
C  50.61300 18.82100 28.55400
C  50.36900 18.79800 27.15400
C  49.04700 18.11800 26.98700
C  51.76300 19.31800 29.34000
C  51.19600 19.32000 26.08600
O  50.78200 19.40200 24.94800
C  52.66800 19.63400 26.36200
N  46.45000 16.44500 26.47000
C  47.22800 16.99600 25.49300
C  46.77700 16.69400 24.09300
C  45.74100 15.58500 24.35100
C  45.44400 15.70700 25.83800
C  46.14900 17.96700 23.47500
C  46.29500 14.11700 24.13600
C  45.85500 13.53200 22.81000
N  44.87500 15.95300 28.72300
C  44.00700 15.42600 27.79500
C  42.86200 14.87000 28.50800
C  43.11200 15.21800 29.86400
C  44.28200 15.93600 29.90400
C  41.69800 14.08000 27.97600
C  42.48100 15.09100 31.18000
O  41.50400 14.49900 31.53600
C  43.48000 15.96000 32.19900
C  42.60100 17.02500 32.81300
O  42.25200 18.12600 32.31200
O  42.19400 16.58900 34.05300
C  41.18800 17.37000 34.78500
H  49.84000 18.79000 31.28200
H  48.85500 17.83000 24.81400
H  43.72900 14.66000 25.74500
H  45.46800 18.24100 33.21000
H  48.38200 18.05300 33.41500
H  47.30500 20.32500 32.00200
H  48.55100 20.16300 33.18500
H  46.79400 20.12900 33.68700
H  47.52500 16.12300 33.87000
H  45.86000 15.56500 33.61500
H  46.70500 16.34700 36.09700
H  45.17400 15.84900 35.44700
H  52.64400 18.68100 29.26000
H  51.63400 19.54700 30.39800
H  52.19600 20.27100 29.03800
H  53.19400 18.81200 26.84700
H  52.86200 20.55000 26.92000
H  53.13700 19.62500 25.37800
H  47.49500 16.30300 23.37300
H  44.82500 15.76600 23.78800
H  46.61900 18.18400 22.51600
H  46.41000 18.81800 24.10300
H  45.06700 17.85000 23.41400
H  45.90500 13.47600 24.92600
H  47.37500 14.09900 24.28500
H  45.58000 14.20900 22.00100
H  45.04200 12.87100 23.11000
H  46.58800 12.79600 22.48000
H  41.93900 14.10800 26.91300
H  40.71400 14.48200 28.22000
H  41.81300 13.04600 28.30200
H  43.87700 15.23600 32.91000
H  41.79800 18.09600 35.32300
H  40.73300 16.68600 35.50100
H  40.34700 17.75400 34.20700
Mg -1.94900 34.08200 26.30400
C  -3.56300 32.75000 29.00400
C  -0.03200 36.03200 28.56400
C  -0.49100 35.51300 23.73100
C  -3.69700 32.03200 24.11900
N  -1.89500 34.36800 28.53000
C  -2.60800 33.68500 29.42800
C  -2.20800 33.99300 30.90300
C  -1.27200 35.23600 30.65300
C  -1.04700 35.19600 29.11600
C  -1.80000 36.52400 31.21300
C  -1.57700 32.73700 31.56000
C  -2.45100 32.13800 32.64600
H  -1.86000 32.02800 34.00900
N  -0.36600 35.53700 26.11700
C  0.29300 36.22700 27.19100
C  1.22100 37.19900 26.61500
C  1.11300 37.04000 25.15400
C  0.01600 36.03600 24.89900
C  1.93600 38.25400 27.47900
C  1.96700 37.67200 24.07900
O  1.86900 37.56600 22.87000
C  3.22000 38.46300 24.55300
N  -2.26100 33.96600 24.22500
C  -1.52100 34.61600 23.41000
C  -1.62300 34.19400 21.88300
C  -2.41200 32.83800 22.01600
C  -2.87300 32.94400 23.53300
C  -2.28300 35.25500 20.87900
C  -1.43500 31.55500 21.85500
C  -1.95000 30.27400 21.30100
N  -3.43000 32.67800 26.46800
C  -3.94100 31.84800 25.51900
C  -4.91800 30.96600 26.13500
C  -4.74400 31.23100 27.51000
C  -3.88100 32.34800 27.64500
C  -5.83700 30.07700 25.52900
C  -5.13500 30.80500 28.82900
O  -5.85600 29.91000 29.17400
C  -4.45000 31.84300 29.82400
C  -5.46300 32.49700 30.69500
O  -6.03400 33.57400 30.41400
O  -5.71500 31.76900 31.84500
C  -6.77700 32.25400 32.66900
H  0.60800 36.59400 29.24700
H  0.06900 35.87700 22.86700
H  -4.15400 31.22800 23.53900
H  -3.16800 34.16900 31.38700
H  -0.30800 35.01800 31.11200
H  -2.88500 36.59500 31.13200
H  -1.41700 37.29200 30.54000
H  -1.40900 36.74400 32.20600
H  -0.65500 33.05400 32.04700
H  -1.49100 31.99300 30.76900
H  -2.75000 31.13800 32.33100
H  -3.38500 32.69000 32.75300
H  1.53300 38.34000 28.48700
H  1.78800 39.20500 26.96800
H  2.98000 37.95500 27.57400
H  3.65400 38.84400 23.62900
H  3.74400 37.64800 25.05200
H  2.83200 39.29100 25.14700
H  -0.59600 34.06300 21.54200
H  -3.27900 32.77700 21.35800
H  -3.01000 34.67400 20.31200
H  -1.55000 35.65500 20.17900
H  -2.92900 35.99000 21.35900
H  -0.80500 31.27700 22.69900
H  -0.67500 31.89900 21.15400
H  -1.53000 30.19700 20.29800
H  -3.03100 30.25600 21.16500
H  -1.58100 29.46600 21.93400
H  -5.47800 29.60100 24.61600
H  -6.81900 30.54500 25.45900
H  -5.81200 29.24000 26.22600
H  -3.77500 31.36200 30.53100
H  -7.48000 31.42300 32.72900
H  -7.27600 33.13600 32.26700
H  -6.57100 32.52400 33.70500

