158

Mg 1.97400 41.45500 24.87200
C  2.99500 41.72500 28.26200
C  -0.98100 40.06900 26.03100
C  1.04400 40.84200 21.77300
C  5.11700 42.50800 23.92000
N  1.19400 40.85500 26.92400
C  1.70600 41.28500 28.15100
C  0.62800 41.03500 29.26600
C  -0.52100 40.21900 28.55000
C  -0.04200 40.48700 27.07900
C  -0.68600 38.77400 28.93300
C  0.11500 42.42100 29.89900
C  0.00900 42.35200 31.45700
H  -0.81400 41.17100 32.04000
N  0.25200 40.62200 24.04600
C  -0.89100 40.09500 24.64300
C  -1.83300 39.78600 23.63100
C  -1.27100 40.09800 22.37100
C  0.04500 40.62100 22.65900
C  -3.22800 39.31400 23.92700
C  -1.89600 39.95700 20.91800
O  -1.26900 40.33300 19.90800
C  -3.25200 39.33100 20.72700
N  2.95600 41.43500 23.10500
C  2.34600 41.30100 21.94700
C  3.37700 41.38300 20.79800
C  4.41300 42.32200 21.49900
C  4.19500 42.05300 22.93700
C  3.90500 40.03500 20.29500
C  4.44000 43.81200 21.04300
C  3.81600 44.90700 22.03600
N  3.73600 42.04400 25.84500
C  4.93900 42.54900 25.33900
C  5.82300 42.90500 26.43400
C  5.05600 42.56600 27.57200
C  3.81500 42.03900 27.16500
C  7.21000 43.44600 26.37100
C  5.11500 42.80600 28.97400
O  5.92500 43.35000 29.71200
C  3.77500 42.14700 29.51700
C  4.25200 41.08200 30.33700
O  4.21900 39.90200 30.13600
O  4.74100 41.63900 31.52300
C  4.96600 40.60900 32.52600
H  -1.92500 39.60200 26.31900
H  0.91800 40.73800 20.69300
H  6.02500 42.94000 23.49400
H  1.03900 40.29000 29.94700
H  -1.49400 40.70600 28.60900
H  0.12900 38.52100 29.61000
H  -0.73700 38.05500 28.11500
H  -1.67100 38.69600 29.39400
H  -0.84800 42.68500 29.46000
H  0.92000 43.15300 29.83300
H  -0.40700 43.32300 31.72600
H  0.99200 42.25600 31.91900
H  -3.95400 40.10900 23.75900
H  -3.27800 38.87000 24.92100
H  -3.45300 38.44000 23.31500
H  -3.38400 39.29300 19.64500
H  -4.09000 39.86400 21.17500
H  -3.23100 38.34500 21.19000
H  2.99000 42.00000 19.98700
H  5.42400 41.95200 21.32800
H  3.45700 39.28000 20.94000
H  4.98600 39.92100 20.21600
H  3.53900 39.86100 19.28300
H  3.96500 43.94500 20.07100
H  5.49100 44.07700 20.92600
H  3.43400 44.57900 23.00300
H  2.91400 45.35600 21.62000
H  4.59400 45.64800 22.21900
H  7.32800 44.14900 25.54600
H  7.97300 42.67000 26.32600
H  7.40900 43.94200 27.32100
H  3.32900 42.98600 30.05100
H  4.26400 39.78900 32.37800
H  4.83100 41.07300 33.50300
H  5.98600 40.23600 32.62000
Mg -5.26000 25.15900 26.29500
C  -3.63800 26.75600 28.93300
C  -7.24900 23.56300 28.66900
C  -6.57300 23.32500 23.85600
C  -2.90500 26.58500 24.13800
N  -5.40700 25.23300 28.50800
C  -4.63200 25.89400 29.39700
C  -4.91700 25.59500 30.81800
C  -6.04500 24.59500 30.68100
C  -6.26000 24.46800 29.18700
C  -5.76300 23.24800 31.52800
C  -5.17000 26.86000 31.70200
C  -6.08300 26.71200 32.91800
H  -5.68400 25.62600 33.91600
N  -6.67100 23.62700 26.22200
C  -7.42100 23.12700 27.34900
C  -8.47800 22.34600 26.83400
C  -8.40100 22.32900 25.43000
C  -7.24600 23.10400 25.07400
C  -9.47700 21.69900 27.76300
C  -9.32900 21.69500 24.42100
O  -9.20700 21.76700 23.20400
C  -10.52900 20.93200 24.86800
N  -4.92400 25.07300 24.19700
C  -5.52300 24.19300 23.40400
C  -4.85800 24.21100 22.00900
C  -3.66200 25.21300 22.19700
C  -3.85000 25.70200 23.60100
C  -4.48500 22.90500 21.34100
C  -3.61800 26.36400 21.14200
C  -2.48100 26.25400 20.06500
N  -3.68200 26.51100 26.41200
C  -2.82400 27.01500 25.44300
C  -1.86500 27.82300 26.10200
C  -2.09100 27.74700 27.46800
C  -3.22400 27.00900 27.59400
C  -0.79400 28.66500 25.47600
C  -1.64200 28.13700 28.80800
O  -0.61600 28.77300 29.03200
C  -2.55700 27.39200 29.88200
C  -1.82100 26.44800 30.78000
O  -1.39400 25.35900 30.46300
O  -1.69900 27.05800 32.02600
C  -1.20900 26.38700 33.27000
H  -7.81700 23.17400 29.51600
H  -6.98000 22.76600 23.01000
H  -2.06600 26.96400 23.55100
H  -4.08100 24.97000 31.12900
H  -6.95200 25.14500 30.93300
H  -5.82500 22.44400 30.79600
H  -6.53600 23.15100 32.29100
H  -4.83700 23.22300 32.10300
H  -5.30400 27.76100 31.10200
H  -4.20600 27.04300 32.17600
H  -7.13300 26.68600 32.62500
H  -6.06000 27.68000 33.41800
H  -9.52900 20.61100 27.72600
H  -10.42500 22.23200 27.68200
H  -9.29500 21.88200 28.82200
H  -11.04600 21.67000 25.48100
H  -10.21300 20.07500 25.46300
H  -11.09300 20.74800 23.95400
H  -5.56000 24.76900 21.38900
H  -2.70400 24.70300 22.30500
H  -3.58700 22.96300 20.72600
H  -5.21700 22.47100 20.66000
H  -4.30500 22.20800 22.15900
H  -3.47400 27.30000 21.68300
H  -4.59100 26.50200 20.67100
H  -2.14300 25.22200 20.15900
H  -1.67700 26.99000 20.09600
H  -2.93800 26.39700 19.08600
H  -0.81500 28.70000 24.38700
H  0.14300 28.18000 25.74600
H  -0.88900 29.73100 25.68600
H  -3.08800 28.10300 30.51600
H  -0.33600 26.89600 33.67800
H  -1.00500 25.33400 33.07900
H  -1.89500 26.52500 34.10600

