158

Mg 2.13500 -2.19100 44.99100
C  5.47300 -1.24300 44.62600
C  1.32500 0.67500 43.07800
C  -1.08700 -3.14800 45.17800
C  3.21300 -5.26400 46.25500
N  3.22100 -0.44500 44.02700
C  4.64200 -0.29500 43.96400
C  5.11200 0.93700 43.18300
C  3.76500 1.51400 42.75800
C  2.72000 0.53100 43.34600
C  3.56800 2.99400 43.32500
C  6.15800 0.62700 41.97300
C  7.30600 1.64300 41.72500
H  7.35500 2.38700 40.37000
N  0.38700 -1.40100 44.19600
C  0.22600 -0.17700 43.56700
C  -1.18700 0.03300 43.36300
C  -1.89200 -1.08100 43.90200
C  -0.87200 -1.93700 44.50400
C  -1.76500 1.27600 42.81900
C  -3.38700 -1.18300 43.94000
O  -4.10200 -0.25100 43.58600
C  -4.24000 -2.34700 44.52500
N  1.22300 -3.98600 45.47800
C  -0.14100 -4.08700 45.65800
C  -0.54500 -5.45800 46.17400
C  0.81200 -6.16600 46.50800
C  1.81400 -5.03700 46.11100
C  -1.47700 -5.42900 47.36800
C  1.01600 -7.50900 45.76600
C  1.02300 -8.75100 46.59300
N  3.91800 -3.05300 45.46300
C  4.21100 -4.33900 45.93900
C  5.65200 -4.52600 46.06800
C  6.19900 -3.30400 45.62600
C  5.07700 -2.47800 45.20100
C  6.44700 -5.73200 46.58600
C  7.44700 -2.50700 45.54400
O  8.64300 -2.76800 45.82200
C  7.02100 -1.17400 44.82000
C  7.30900 0.05600 45.52500
O  6.68100 0.49400 46.48500
O  8.30100 0.76600 44.88000
C  8.61600 2.07700 45.47100
H  1.02500 1.50400 42.43400
H  -2.13100 -3.40000 45.37500
H  3.38100 -6.26700 46.65400
H  5.49000 1.64600 43.92000
H  3.69400 1.46800 41.67100
H  4.45500 3.62700 43.29800
H  3.08800 2.86800 44.29600
H  2.76000 3.30000 42.66000
H  5.64000 0.54900 41.01700
H  6.60800 -0.36200 42.05500
H  8.26400 1.26900 42.08500
H  7.13600 2.45700 42.42900
H  -2.26600 2.01600 43.44300
H  -2.50000 1.03600 42.05100
H  -0.88600 1.81100 42.46000
H  -4.38500 -2.39100 45.60500
H  -3.89700 -3.26900 44.05600
H  -5.22400 -2.26000 44.06400
H  -1.01200 -5.95000 45.32100
H  0.99900 -6.35100 47.56600
H  -1.10300 -6.10700 48.13500
H  -2.52500 -5.68500 47.21400
H  -1.40200 -4.40000 47.72200
H  1.97500 -7.40200 45.25900
H  0.38100 -7.74200 44.91200
H  1.75600 -9.39800 46.11000
H  0.06500 -9.25800 46.48100
H  1.27200 -8.50400 47.62500
H  7.33100 -5.26300 47.01900
H  6.72300 -6.41400 45.78100
H  5.90500 -6.25100 47.37600
H  7.53200 -1.18700 43.85700
H  7.87500 2.71100 44.98400
H  9.66000 2.30200 45.25000
H  8.36300 2.26100 46.51600
Mg -2.25200 35.44700 26.34300
C  -3.85500 33.42700 28.74900
C  -1.30800 37.57100 29.03700
C  -0.73600 37.49200 24.08600
C  -3.45000 33.50400 23.91200
N  -2.70000 35.53200 28.64700
C  -3.16600 34.48500 29.40600
C  -2.90700 34.73500 30.91800
C  -2.32500 36.20800 30.87400
C  -2.17500 36.53900 29.47000
C  -3.04800 37.24700 31.66300
C  -2.05800 33.62600 31.69600
C  -2.65600 33.03700 33.04100
H  -1.73800 33.07900 34.31500
N  -1.06800 37.22100 26.54400
C  -0.77300 37.83300 27.72400
C  0.04300 38.96700 27.36900
C  0.35500 39.04200 25.95800
C  -0.50200 37.86600 25.43100
C  0.45300 39.84200 28.49100
C  1.18300 39.93500 25.12000
O  1.20500 39.92200 23.89000
C  1.99100 40.97800 25.76300
N  -2.01500 35.38600 24.35000
C  -1.37500 36.35800 23.58000
C  -1.85500 36.17500 22.15900
C  -1.97500 34.62600 22.10600
C  -2.53000 34.44100 23.55400
C  -3.03600 36.97300 21.63000
C  -0.65700 33.87200 21.94300
C  -0.52900 33.12000 20.59900
N  -3.56500 33.94200 26.34300
C  -3.97800 33.24500 25.24600
C  -4.89200 32.15800 25.64500
C  -4.80200 32.19900 27.06600
C  -4.04400 33.37800 27.41800
C  -5.61600 31.14500 24.79000
C  -5.21100 31.53200 28.28000
O  -5.98100 30.56700 28.44800
C  -4.57500 32.28300 29.41600
C  -5.54700 32.64400 30.45000
O  -6.42200 33.55200 30.33100
O  -5.34300 31.89300 31.61400
C  -6.19800 32.13400 32.76100
H  -0.91900 38.14900 29.87800
H  -0.35900 38.15700 23.30700
H  -3.71800 32.82900 23.09800
H  -3.89200 34.83700 31.37400
H  -1.37300 36.21000 31.40400
H  -3.69600 37.81100 30.99200
H  -2.31300 37.83500 32.21300
H  -3.80900 36.91400 32.36800
H  -1.06100 33.97600 31.96600
H  -1.88900 32.78000 31.03000
H  -2.89300 31.98100 32.90500
H  -3.58200 33.55000 33.29700
H  0.56100 39.33200 29.44800
H  -0.36100 40.56300 28.56300
H  1.37100 40.42400 28.40600
H  2.63400 41.54500 25.09000
H  2.59300 40.51500 26.54500
H  1.30500 41.74800 26.11800
H  -0.95400 36.49300 21.63500
H  -2.66600 34.25700 21.34900
H  -3.65700 37.34100 22.44700
H  -3.69400 36.43000 20.95200
H  -2.66800 37.82700 21.06200
H  -0.62400 33.18300 22.78700
H  0.16800 34.57200 22.07400
H  -0.74400 32.05800 20.71700
H  0.53600 33.09000 20.36700
H  -1.01700 33.57400 19.73700
H  -6.64800 31.40700 24.55500
H  -5.70900 30.28100 25.44700
H  -5.08600 30.85500 23.88300
H  -3.83000 31.68600 29.94200
H  -6.15700 31.25300 33.40200
H  -7.24700 32.21100 32.47400
H  -5.82200 32.95900 33.36600

