158

Mg 41.43100 8.64000 29.24300
C  43.18300 9.61000 32.15900
C  39.18900 6.86300 31.22400
C  40.01600 7.55300 26.44900
C  44.06500 9.95400 27.37700
N  41.18400 8.37800 31.37800
C  42.01300 8.89700 32.42000
C  41.39800 8.53700 33.73300
C  40.37500 7.37400 33.43500
C  40.28900 7.42100 31.89300
C  40.81000 5.93000 33.90100
C  40.77900 9.75300 34.53300
C  40.88200 9.69600 36.02800
H  41.58000 10.89000 36.66700
N  39.81200 7.30500 28.92700
C  38.97700 6.79100 29.83400
C  37.90200 6.17200 29.14000
C  38.07900 6.47100 27.74300
C  39.37600 7.08500 27.62700
C  36.75800 5.39200 29.85100
C  37.19300 6.00500 26.60900
O  37.66400 5.92200 25.49000
C  35.87300 5.45500 26.89500
N  42.12900 8.46800 27.31800
C  41.29500 8.07300 26.28500
C  41.95900 8.26900 24.90900
C  43.30200 8.94700 25.21100
C  43.21700 9.08100 26.73600
C  42.12200 6.88800 24.23800
C  43.51800 10.33000 24.48000
C  42.50100 11.47800 24.75800
N  43.22500 9.68900 29.62600
C  44.19600 10.19600 28.77800
C  45.18700 10.86600 29.51300
C  44.83200 10.66100 30.85400
C  43.67400 9.88300 30.88900
C  46.36300 11.58500 28.93600
C  45.27900 10.96600 32.19000
O  46.11700 11.71700 32.64500
C  44.21000 10.28200 33.08600
C  44.77800 9.25100 34.00200
O  45.22500 8.16700 33.72900
O  44.72800 9.76100 35.26900
C  45.18100 9.02800 36.43100
H  38.47900 6.25600 31.78900
H  39.35300 7.40600 25.59300
H  44.86400 10.45800 26.83000
H  42.19000 8.02300 34.27600
H  39.33300 7.51000 33.72500
H  41.06400 5.33100 33.02600
H  40.05600 5.51700 34.57100
H  41.68600 6.04300 34.54000
H  39.70200 9.80000 34.37800
H  41.20000 10.68500 34.15700
H  41.44500 8.78800 36.24600
H  39.94600 9.59000 36.57600
H  36.98200 5.32200 30.91500
H  36.49400 4.38900 29.51600
H  35.83100 5.96500 29.82500
H  35.17600 5.49800 26.05800
H  35.35900 6.06300 27.64000
H  36.10400 4.44500 27.23400
H  41.26000 8.95300 24.42800
H  44.11400 8.23600 25.06100
H  41.78400 6.03700 24.83000
H  43.13100 6.76100 23.84600
H  41.44400 6.88700 23.38400
H  43.49600 10.11600 23.41200
H  44.55700 10.59000 24.68500
H  42.02300 11.08700 25.65600
H  41.77300 11.40600 23.95000
H  42.94500 12.46800 24.85600
H  46.33700 11.99400 27.92600
H  47.10900 10.79200 28.97900
H  46.59000 12.40900 29.61200
H  43.62600 10.96300 33.70600
H  44.34000 8.73100 37.05800
H  45.85000 9.53900 37.12300
H  45.74200 8.16800 36.06500
Mg 5.83400 55.93600 41.01800
C  3.28500 53.35500 41.10900
C  7.91700 53.47800 39.39500
C  8.10000 58.36200 40.38000
C  3.49400 58.21700 41.89200
N  5.57300 53.61500 40.28600
C  4.45000 52.85600 40.45900
C  4.66800 51.44700 39.78700
C  6.27700 51.47600 39.54800
C  6.62400 52.96100 39.69900
C  7.06000 50.65100 40.51900
C  3.89200 51.41000 38.35500
C  3.15900 50.16600 37.96600
H  3.71100 49.43900 36.78200
N  7.75000 55.91400 40.06800
C  8.42400 54.80200 39.53900
C  9.77600 55.25600 39.20600
C  9.80400 56.65300 39.36600
C  8.51800 57.03700 39.90100
C  10.90800 54.27000 38.99400
C  11.00900 57.58300 39.06400
O  12.03300 57.02000 38.58200
C  11.10100 59.02600 39.32500
N  5.73000 58.02700 40.95100
C  6.85600 58.81000 40.78800
C  6.53000 60.33200 40.99600
C  5.08100 60.24200 41.49000
C  4.73700 58.75000 41.51000
C  7.49500 60.92600 42.01200
C  4.02800 61.15100 40.74400
C  3.61900 62.45900 41.55600
N  3.86000 55.87400 41.59900
C  3.00600 56.85400 41.96700
C  1.76500 56.25400 42.38300
C  1.82600 54.92700 42.06500
C  3.10400 54.72600 41.46300
C  0.62400 57.03900 42.84800
C  1.15800 53.62500 42.09800
O  0.03500 53.39000 42.52900
C  2.07900 52.56400 41.52500
C  1.27000 51.89900 40.49700
O  0.98100 52.46900 39.48300
O  1.04600 50.57900 40.74600
C  0.19200 49.82600 39.78000
H  8.66200 52.82100 38.94100
H  8.82400 59.17900 40.33200
H  2.79600 58.95300 42.29600
H  4.29400 50.63400 40.40900
H  6.48200 51.34200 38.48600
H  7.52000 51.30100 41.26400
H  7.87000 50.08300 40.06300
H  6.41600 50.04100 41.15200
H  4.62800 51.62300 37.57900
H  3.21700 52.26400 38.30800
H  2.15000 50.37300 37.60900
H  3.01000 49.43100 38.75700
H  11.19200 54.12900 37.95200
H  10.76500 53.25700 39.37100
H  11.75900 54.63400 39.57000
H  11.96900 59.56200 38.94000
H  11.04000 59.30900 40.37600
H  10.27900 59.46800 38.76200
H  6.60000 60.90800 40.07300
H  4.99600 60.46500 42.55400
H  8.19600 60.19000 42.40500
H  6.90400 61.29800 42.84900
H  8.13500 61.72700 41.64000
H  3.16100 60.53200 40.51400
H  4.47500 61.49500 39.81200
H  4.32300 62.72000 42.34700
H  2.61500 62.40300 41.97500
H  3.51500 63.25400 40.81700
H  0.99700 57.91900 43.37000
H  0.06100 56.39600 43.52500
H  -0.01200 57.35600 42.02100
H  2.32500 51.95800 42.39700
H  -0.74000 50.25600 40.14700
H  0.09400 48.74500 39.88400
H  0.31400 50.05000 38.72000

