158

Mg 41.75900 9.11100 29.63600
C  43.77600 10.17400 32.27600
C  39.50200 7.83100 32.01000
C  39.98700 7.74200 27.06800
C  44.30900 9.91000 27.41900
N  41.75200 8.76600 31.94000
C  42.51600 9.61600 32.73800
C  41.98000 9.65600 34.21400
C  40.84200 8.52500 34.16000
C  40.62800 8.37900 32.66100
C  41.22500 7.24900 34.95900
C  41.67400 11.18100 34.67800
C  40.92400 11.33300 35.99600
H  41.61700 11.91400 37.23200
N  39.92100 8.05600 29.52800
C  39.16700 7.57000 30.62200
C  38.09900 6.78700 30.08500
C  38.08600 7.01600 28.64200
C  39.36300 7.68500 28.34300
C  37.18200 5.91800 30.97500
C  37.03500 6.72600 27.71100
O  37.12500 6.83200 26.48400
C  35.69100 6.27600 28.16500
N  42.18800 8.76300 27.61700
C  41.28000 8.15800 26.78500
C  41.78900 8.02200 25.28900
C  43.15200 8.77900 25.34400
C  43.23800 9.15800 26.88500
C  41.90100 6.46900 24.83800
C  43.31200 9.98900 24.37800
C  42.54400 11.30700 24.52600
N  43.65500 9.89400 29.77400
C  44.51200 10.25200 28.74500
C  45.67400 10.87200 29.35100
C  45.39000 10.90900 30.74500
C  44.14400 10.26200 30.96900
C  46.95400 11.26800 28.67000
C  45.86800 11.44500 32.04600
O  46.85200 12.11600 32.37300
C  44.78500 10.97800 33.07900
C  45.33900 10.22200 34.21000
O  45.91600 9.15600 34.19400
O  45.28600 10.97200 35.35600
C  46.01600 10.50500 36.49000
H  38.64300 7.60200 32.64400
H  39.38700 7.24400 26.30300
H  45.11100 10.19400 26.73400
H  42.70500 9.21900 34.90000
H  39.92200 9.00200 34.49700
H  42.08100 7.43800 35.60800
H  41.57800 6.38900 34.39000
H  40.39400 6.87000 35.55300
H  41.05300 11.52600 33.85200
H  42.53000 11.85300 34.72200
H  40.50600 10.36300 36.26700
H  40.04300 11.92900 35.75700
H  37.75300 5.45700 31.78100
H  36.77300 5.12100 30.35500
H  36.31400 6.35900 31.46600
H  35.39700 6.79800 29.07500
H  35.78600 5.22800 28.45200
H  34.98900 6.44000 27.34700
H  41.11600 8.49800 24.57700
H  43.95800 8.08600 25.10100
H  42.93800 6.17000 24.68800
H  41.20400 6.35100 24.00800
H  41.57200 5.74200 25.58200
H  42.88000 9.54600 23.48000
H  44.34500 10.32100 24.28100
H  41.92300 11.31200 25.42200
H  41.87100 11.44800 23.68000
H  43.21700 12.15900 24.62000
H  47.75200 10.74000 29.19200
H  47.19600 12.32100 28.81400
H  47.10900 10.87600 27.66400
H  44.33900 11.87500 33.50800
H  46.97200 10.04600 36.23800
H  45.40100 9.84100 37.09600
H  46.07000 11.44200 37.04400
Mg 46.93600 25.10500 27.87500
C  48.01800 27.28500 30.29600
C  46.68400 22.72000 30.28700
C  46.53600 22.84500 25.36800
C  47.82400 27.42300 25.32800
N  47.31500 25.04400 30.01900
C  47.69200 26.07500 30.85200
C  47.83900 25.74700 32.32700
C  47.33300 24.23100 32.30000
C  47.17900 23.90200 30.76900
C  48.17300 23.18300 33.09000
C  46.93700 26.66800 33.15500
C  46.21900 26.02500 34.35700
H  46.11900 26.92100 35.60600
N  46.58800 23.08800 27.86800
C  46.47500 22.31700 28.96100
C  46.27000 20.93900 28.53800
C  46.01300 20.94900 27.13700
C  46.38900 22.35100 26.74700
C  46.17600 19.78600 29.46000
C  45.59700 19.79300 26.17300
O  45.48300 19.91900 24.95200
C  45.12600 18.50100 26.67100
N  47.23600 25.06500 25.56600
C  46.87500 24.06800 24.79000
C  46.74800 24.38900 23.33100
C  47.05700 25.94000 23.39800
C  47.37000 26.21300 24.90300
C  47.72400 23.66000 22.44000
C  45.82200 26.74800 22.90200
C  46.07000 27.89900 21.88200
N  47.70800 26.93600 27.76100
C  48.09800 27.77100 26.69100
C  48.51800 29.05000 27.18500
C  48.39800 28.92400 28.57100
C  48.01700 27.62800 28.90600
C  48.69200 30.29300 26.38800
C  48.56000 29.64600 29.84500
O  48.88800 30.80200 30.15200
C  48.30900 28.66400 31.01000
C  49.42800 28.77600 31.99800
O  50.45200 28.21600 31.87000
O  49.01000 29.50600 33.09500
C  49.73900 29.20700 34.30400
H  46.48400 21.91500 30.99700
H  46.34500 22.08200 24.61000
H  47.83100 28.22200 24.58300
H  48.88400 25.78100 32.63600
H  46.32000 24.18300 32.70000
H  48.77700 23.71700 33.82300
H  48.75000 22.62500 32.35200
H  47.49600 22.45500 33.53500
H  46.29300 27.31100 32.55500
H  47.72900 27.23500 33.64300
H  46.73100 25.12500 34.69900
H  45.21600 25.77200 34.01300
H  45.13300 19.50700 29.61200
H  46.50500 19.94000 30.48800
H  46.67100 18.89100 29.08400
H  44.84400 17.91500 25.79700
H  44.34200 18.55800 27.42700
H  45.99500 18.15100 27.22800
H  45.74800 24.17200 22.95600
H  47.95800 26.19000 22.83800
H  48.57200 24.17600 21.99100
H  47.14000 23.38800 21.56100
H  48.03800 22.68100 22.80200
H  45.33000 27.14100 23.79200
H  45.14100 26.05500 22.40800
H  47.12000 27.85100 21.59300
H  45.77700 28.83500 22.35900
H  45.44100 27.69900 21.01500
H  47.91700 30.20200 25.62800
H  49.75800 30.24100 26.16600
H  48.51700 31.21700 26.93900
H  47.37900 29.04700 31.43000
H  49.15600 28.54600 34.94500
H  49.87000 30.09200 34.92600
H  50.70400 28.70900 34.20600

