158

Mg 9.02200 3.32300 27.40800
C  10.28800 1.62400 30.23600
C  7.30500 5.41200 29.50200
C  7.85000 4.73300 24.68900
C  10.56500 0.84700 25.42000
N  8.73400 3.40800 29.72000
C  9.47200 2.70900 30.65900
C  9.18400 3.19100 32.10200
C  8.24500 4.45400 31.80300
C  8.08600 4.44500 30.27100
C  6.83000 4.47800 32.46900
C  10.49000 3.60600 32.96000
C  10.11200 4.14400 34.31900
H  11.08900 3.87900 35.43500
N  7.87000 4.83800 27.14600
C  7.19400 5.62000 28.06700
C  6.38800 6.61500 27.44900
C  6.53100 6.47200 26.03600
C  7.44100 5.29100 25.88000
C  5.66400 7.72100 28.16600
C  5.94800 7.22600 24.81700
O  6.19600 6.90200 23.67300
C  4.89600 8.26200 24.98200
N  9.07700 2.77500 25.37600
C  8.55400 3.56700 24.40600
C  8.92700 3.17300 22.99300
C  9.90800 1.91300 23.30400
C  9.88200 1.81700 24.76900
C  7.83800 2.94000 21.96500
C  11.35600 2.07100 22.67800
C  11.57100 1.25300 21.36300
N  10.12000 1.59500 27.66600
C  10.66400 0.76700 26.77300
C  11.41800 -0.27200 27.47600
C  11.28700 0.02500 28.82500
C  10.49700 1.17300 28.95100
C  12.08100 -1.54500 26.91900
C  11.62600 -0.36500 30.19000
O  12.33000 -1.28800 30.58200
C  11.01200 0.60400 31.11300
C  10.13600 0.03700 32.14300
O  9.00600 -0.36100 31.92700
O  10.70000 0.11000 33.43300
C  9.87600 -0.10300 34.61400
H  6.77400 6.13100 30.13000
H  7.61300 5.20300 23.73200
H  11.01700 0.04400 24.83500
H  8.78000 2.32800 32.63000
H  8.75100 5.38300 32.06700
H  6.54600 5.43100 32.91500
H  6.92600 3.73700 33.26300
H  6.06000 4.13200 31.78000
H  11.00600 4.38100 32.39300
H  11.24300 2.81800 32.95000
H  9.17000 3.71400 34.66200
H  9.84000 5.19800 34.26500
H  5.86500 7.73200 29.23700
H  4.59700 7.72200 27.94500
H  6.18000 8.60400 27.78900
H  5.38500 9.08600 25.50200
H  4.12400 7.76500 25.56900
H  4.43200 8.72500 24.11100
H  9.66500 3.85600 22.57200
H  9.36500 1.07200 22.87300
H  7.51000 3.94900 21.71400
H  6.99900 2.30600 22.25100
H  8.41900 2.50000 21.15500
H  12.14600 1.78300 23.37200
H  11.64600 3.05700 22.31500
H  11.84700 1.88000 20.51500
H  10.66300 0.74000 21.04600
H  12.39800 0.57700 21.58400
H  11.58400 -1.78900 25.98100
H  11.98000 -2.35300 27.64300
H  13.10200 -1.25300 26.67400
H  11.80300 1.16800 31.60800
H  10.39500 -0.83400 35.23400
H  8.92300 -0.61000 34.46500
H  9.82700 0.81400 35.20300
Mg 17.23600 -2.45400 28.16700
C  16.07200 -0.60500 30.81900
C  19.03300 -4.54600 30.20500
C  18.37100 -4.09400 25.46300
C  15.68600 -0.17000 25.89500
N  17.48600 -2.56100 30.25000
C  16.82300 -1.73300 31.18300
C  17.26200 -2.12500 32.64500
C  18.23400 -3.35900 32.47600
C  18.26200 -3.52300 30.87400
C  19.62500 -3.11100 33.10700
C  16.05600 -2.42300 33.59900
C  15.75800 -1.47400 34.80600
H  16.99300 -0.90400 35.53200
N  18.50800 -4.10700 27.86900
C  19.07700 -4.89500 28.80600
C  19.87100 -5.99600 28.24500
C  19.59900 -5.93500 26.80200
C  18.82200 -4.69500 26.66800
C  20.69400 -6.84800 29.09800
C  20.10800 -6.75100 25.67900
O  19.73000 -6.59700 24.54700
C  21.04200 -8.01500 25.97400
N  16.99800 -2.20500 25.99300
C  17.69600 -2.93000 25.16000
C  17.67200 -2.41100 23.72700
C  16.68400 -1.17300 23.84700
C  16.41700 -1.18800 25.34900
C  19.13700 -2.14700 23.12700
C  15.33300 -1.33200 23.11100
C  14.77200 -0.03500 22.52800
N  16.07300 -0.67300 28.25600
C  15.54400 0.09000 27.28600
C  14.78200 1.15700 27.93800
C  15.01100 0.96500 29.29800
C  15.81600 -0.16600 29.44100
C  13.83100 2.08800 27.37200
C  14.66900 1.43700 30.57200
O  13.94000 2.38600 30.92200
C  15.41400 0.50300 31.65400
C  16.42900 1.30900 32.53600
O  17.60500 1.12700 32.44700
O  15.84100 2.29800 33.23500
C  16.84300 3.24800 33.81700
H  19.59700 -5.17600 30.89600
H  18.66900 -4.65600 24.57600
H  15.27700 0.51200 25.14700
H  17.75200 -1.28300 33.13500
H  17.84300 -4.30600 32.84800
H  19.66700 -2.26900 33.79700
H  20.48700 -3.12400 32.44000
H  19.87000 -4.00600 33.67800
H  16.03700 -3.48700 33.83800
H  15.22100 -2.32000 32.90500
H  15.12500 -2.07500 35.45900
H  15.19700 -0.63100 34.40100
H  19.96900 -7.54800 29.51400
H  21.14500 -6.28200 29.91300
H  21.48400 -7.32200 28.51600
H  21.13800 -8.57500 25.04400
H  20.51200 -8.44100 26.82600
H  21.97700 -7.57800 26.32400
H  17.23900 -3.27700 23.22500
H  17.16800 -0.30400 23.40200
H  19.58100 -3.00000 22.61400
H  19.78300 -1.93900 23.98000
H  19.25100 -1.29400 22.45900
H  14.53800 -1.75100 23.72900
H  15.49000 -2.10100 22.35500
H  15.51400 0.75800 22.61600
H  13.82400 0.20500 23.00900
H  14.65400 -0.14400 21.44900
H  14.18300 3.05000 27.00100
H  13.18500 2.50000 28.14800
H  13.17500 1.62000 26.63900
H  14.69400 -0.04100 32.26400
H  17.50700 3.62400 33.03800
H  17.42700 2.71000 34.56300
H  16.43200 4.18600 34.19000

