158

Mg 42.74700 41.92000 25.97000
C  41.83400 44.21300 28.43500
C  43.82700 39.82700 28.29700
C  43.43400 39.83500 23.44500
C  42.05600 44.42400 23.65400
N  42.74400 42.09200 28.15000
C  42.22900 42.99300 28.94100
C  42.37700 42.68800 30.43400
C  43.27900 41.39400 30.35200
C  43.26800 41.03000 28.86100
C  44.73400 41.64600 30.87200
C  41.01100 42.34300 31.14000
C  41.13400 41.86300 32.63000
H  40.36000 42.54900 33.76200
N  43.47100 40.06200 25.88400
C  43.86500 39.31000 26.93900
C  44.31600 38.02400 26.56600
C  44.07700 37.90000 25.13600
C  43.61500 39.29500 24.73100
C  44.73400 36.98000 27.60600
C  44.21200 36.74500 24.20900
O  44.08200 36.76000 22.95300
C  44.50100 35.37100 24.82600
N  42.77700 42.10700 23.81200
C  43.07600 41.11200 22.95600
C  42.85700 41.40200 21.44900
C  42.14800 42.80400 21.63700
C  42.36800 43.18500 23.09600
C  44.18000 41.33100 20.57700
C  40.67100 42.72200 21.17500
C  39.73600 41.71900 21.87000
N  42.25300 44.00900 25.97500
C  41.99300 44.83200 24.94000
C  41.48200 46.05400 25.39600
C  41.42800 45.89600 26.79000
C  41.80500 44.60400 27.09500
C  41.06700 47.24400 24.52500
C  41.00100 46.53800 28.06000
O  40.53700 47.60400 28.30900
C  41.24500 45.43700 29.17300
C  42.20800 45.96900 30.18600
O  43.41800 45.77600 30.29200
O  41.48600 46.67200 31.08400
C  41.80900 46.34200 32.44800
H  44.26000 39.20600 29.08400
H  43.60400 39.14300 22.61800
H  41.86700 45.12800 22.84000
H  42.76200 43.55500 30.97100
H  42.91600 40.61700 31.02500
H  44.90700 42.72200 30.89000
H  45.54100 41.26600 30.24600
H  44.83700 41.31500 31.90500
H  40.47300 41.55600 30.61100
H  40.48700 43.29700 31.17600
H  42.14800 41.74900 33.01300
H  40.71100 40.86600 32.50800
H  44.08000 36.11400 27.50500
H  44.62300 37.36200 28.62100
H  45.77800 36.66800 27.64500
H  45.20400 35.53600 25.64300
H  44.98200 34.70700 24.10700
H  43.55700 34.97300 25.19800
H  42.09300 40.72200 21.07300
H  42.66600 43.53700 21.01900
H  45.07000 41.15900 21.18100
H  44.33900 42.29200 20.08600
H  44.07600 40.68300 19.70600
H  40.71900 42.34600 20.15200
H  40.32200 43.75400 21.17100
H  38.94400 42.20600 22.44000
H  40.30000 41.03200 22.50100
H  39.30600 41.10500 21.07900
H  40.45000 46.93100 23.68400
H  42.00700 47.69300 24.20300
H  40.61700 47.98900 25.18100
H  40.28900 45.23500 29.65600
H  40.93500 45.80600 32.82000
H  41.86700 47.27600 33.00700
H  42.75700 45.81300 32.54200
Mg 27.24600 50.47500 26.19800
C  25.25200 51.37800 28.98000
C  29.56200 49.44700 28.63000
C  29.39000 50.05600 23.74700
C  24.82700 51.45100 24.07800
N  27.38100 50.42300 28.54800
C  26.46500 50.86600 29.44900
C  26.84000 50.64400 30.95100
C  28.35100 50.39000 30.73800
C  28.40800 49.96200 29.22900
C  29.44700 51.54000 31.01600
C  26.06800 49.38900 31.57500
C  25.00200 49.75700 32.64500
H  25.33400 49.24200 34.08300
N  29.10400 49.62500 26.13200
C  29.91400 49.27200 27.27100
C  31.21000 48.86700 26.81100
C  31.17000 49.04600 25.35100
C  29.90300 49.60500 25.00500
C  32.36800 48.35700 27.74400
C  32.28400 48.74600 24.38300
O  32.12100 48.94200 23.17200
C  33.73100 48.28000 24.75900
N  27.19000 50.81300 24.24900
C  28.15900 50.52900 23.35100
C  27.77900 50.93700 21.85600
C  26.19800 50.96600 22.07900
C  26.05000 51.11500 23.59200
C  28.36900 52.22900 21.26100
C  25.39700 49.68100 21.63500
C  24.10000 50.01200 20.94600
N  25.37900 51.26300 26.39700
C  24.47200 51.58100 25.43100
C  23.35300 52.20200 26.11400
C  23.61600 52.11400 27.48300
C  24.87200 51.56100 27.64000
C  22.26400 52.99600 25.45600
C  23.14000 52.49300 28.71800
O  22.02800 53.01000 29.03500
C  24.05400 51.88000 29.73400
C  24.41000 52.91900 30.77900
O  25.34600 53.68700 30.77300
O  23.31800 52.96000 31.66700
C  23.49800 54.07400 32.63600
H  30.35400 49.18100 29.33300
H  30.02400 49.92600 22.86800
H  24.03100 51.74000 23.38800
H  26.76700 51.57000 31.52200
H  28.74500 49.52500 31.27000
H  30.21200 51.16800 31.69700
H  29.06100 52.48400 31.40100
H  29.92500 51.91600 30.11100
H  26.70000 48.61100 32.00200
H  25.43100 48.97800 30.79300
H  24.07200 49.30600 32.29800
H  24.82500 50.83200 32.67700
H  32.19500 48.29000 28.81800
H  33.30900 48.90100 27.65700
H  32.66500 47.35100 27.44900
H  34.25600 48.84200 25.53100
H  34.26900 48.33300 23.81200
H  33.87600 47.23800 25.04500
H  27.95700 50.15400 21.12000
H  25.83100 51.84400 21.54600
H  29.13400 52.52500 21.97900
H  27.60100 53.00000 21.19700
H  28.83100 52.03400 20.29300
H  25.16800 49.02800 22.47700
H  26.01000 48.96900 21.08300
H  23.95000 49.60300 19.94600
H  23.97100 51.08100 20.77400
H  23.24700 49.78200 21.58400
H  21.22900 52.83200 25.75600
H  22.20500 52.85500 24.37700
H  22.58000 54.00800 25.70900
H  23.59700 51.02500 30.23200
H  23.61400 54.93600 31.97800
H  24.39300 53.81800 33.20300
H  22.60300 54.08900 33.25700

