158

Mg 35.45000 1.34400 29.49200
C  33.13300 2.53700 31.74400
C  37.87900 1.83300 32.01700
C  37.82100 0.25700 27.44800
C  33.19500 1.52100 26.95100
N  35.52900 2.31400 31.59000
C  34.38000 2.38400 32.34000
C  34.74800 2.50000 33.82600
C  36.19100 2.78400 33.75600
C  36.60800 2.17500 32.36300
C  36.63600 4.23400 34.01500
C  34.22200 1.21100 34.69600
C  34.32300 1.26600 36.27700
H  34.91900 2.53100 36.89900
N  37.67400 1.17400 29.66900
C  38.42200 1.37300 30.81700
C  39.77400 0.98000 30.51300
C  39.74500 0.36500 29.22300
C  38.37200 0.57200 28.68200
C  40.82200 1.05200 31.62000
C  40.81400 -0.25100 28.43200
O  40.74800 -0.54300 27.25900
C  42.11600 -0.42900 29.16900
N  35.48500 0.94200 27.54000
C  36.59300 0.51900 26.82700
C  36.32600 0.32100 25.34300
C  34.79000 0.62600 25.23900
C  34.40300 1.03400 26.65600
C  37.10800 1.36100 24.45400
C  33.81900 -0.62800 24.76900
C  33.82800 -1.86500 25.59100
N  33.54900 1.84600 29.28200
C  32.74200 1.94400 28.21500
C  31.44300 2.48900 28.59200
C  31.54700 2.72300 30.06500
C  32.84500 2.33000 30.36900
C  30.32200 2.62000 27.65400
C  30.92100 3.18800 31.22600
O  29.77700 3.62400 31.42200
C  31.89700 2.95500 32.36700
C  32.11000 4.29600 33.06000
O  32.63500 5.25400 32.54900
O  31.60000 4.25500 34.29300
C  31.98900 5.46400 35.04500
H  38.57000 2.06300 32.83000
H  38.56400 -0.11500 26.73900
H  32.46300 1.59900 26.14400
H  34.33800 3.40100 34.28100
H  36.73600 2.20800 34.50300
H  35.81100 4.94400 33.95900
H  37.37200 4.53300 33.26900
H  37.17700 4.32500 34.95700
H  34.87100 0.40700 34.35000
H  33.24300 1.05300 34.24400
H  34.87800 0.33600 36.39600
H  33.33600 1.08100 36.70100
H  41.12900 0.01200 31.72600
H  40.43600 1.34400 32.59700
H  41.66500 1.68600 31.34400
H  41.90500 -1.22400 29.88500
H  42.55500 0.50300 29.52300
H  42.82000 -0.86600 28.46100
H  36.52600 -0.69300 24.99700
H  34.54800 1.41900 24.53200
H  37.83900 1.97900 24.97500
H  36.44700 1.87200 23.75500
H  37.81300 0.73600 23.90500
H  34.06100 -0.99300 23.77100
H  32.80800 -0.25000 24.61200
H  34.87100 -1.95000 25.89800
H  33.59000 -2.75400 25.00700
H  33.14500 -1.75400 26.43300
H  30.54500 2.10700 26.71900
H  29.99400 3.63200 27.41700
H  29.49200 2.12800 28.16200
H  31.49100 2.27000 33.11100
H  32.96800 5.93000 34.93000
H  31.93200 5.26400 36.11500
H  31.31500 6.29800 34.85100
Mg 48.00800 15.84700 27.85900
C  45.71200 15.80100 30.49900
C  50.00900 17.88300 29.70600
C  50.12200 15.82000 25.31900
C  45.63100 14.16300 25.81000
N  47.85800 16.81700 29.78800
C  46.88300 16.46800 30.76100
C  47.21500 17.12200 32.15900
C  48.39300 18.10300 31.69800
C  48.80900 17.59100 30.29100
C  48.08700 19.59100 31.60800
C  47.69700 15.99700 33.19600
C  47.12400 16.03700 34.67700
H  48.13400 15.86600 35.81400
N  49.88300 16.68700 27.57800
C  50.50800 17.49000 28.41300
C  51.79700 17.81400 27.87600
C  51.93100 17.15900 26.62700
C  50.62100 16.48500 26.43800
C  52.74400 18.75900 28.61200
C  53.02000 17.29800 25.59700
O  52.85600 16.82700 24.47400
C  54.30500 17.93600 25.88900
N  47.78000 15.31200 25.77100
C  48.83800 15.39200 24.96700
C  48.60300 14.75000 23.62200
C  47.21400 14.02000 23.80300
C  46.78700 14.52100 25.21500
C  48.77400 15.64500 22.33800
C  47.23900 12.52800 23.73800
C  47.79100 11.68400 22.58700
N  46.10200 15.22000 27.97300
C  45.25500 14.48600 27.13600
C  43.98900 14.24300 27.82400
C  44.16500 14.70300 29.12400
C  45.44900 15.24800 29.22200
C  42.76300 13.48800 27.31500
C  43.50300 14.86100 30.44800
O  42.37000 14.56100 30.77800
C  44.56900 15.46900 31.43900
C  44.08900 16.54300 32.26600
O  43.53600 17.56800 31.83200
O  44.39200 16.27700 33.57100
C  43.94900 17.35000 34.45100
H  50.73200 18.50400 30.24000
H  50.82900 15.81400 24.48600
H  44.93600 13.57400 25.20700
H  46.34300 17.68300 32.49400
H  49.26100 17.96300 32.34200
H  48.78400 20.15900 32.22500
H  47.06900 19.80300 31.93600
H  48.28200 20.00400 30.61800
H  48.77700 16.03200 33.33300
H  47.72300 15.03500 32.68400
H  46.32800 15.30700 34.82100
H  46.73600 17.05100 34.77300
H  53.61700 18.17500 28.90300
H  52.57100 19.19200 29.59700
H  52.97800 19.55400 27.90400
H  54.03000 18.94200 26.20500
H  54.83000 17.95800 24.93400
H  54.87200 17.35500 26.61700
H  49.30200 13.92800 23.46700
H  46.54400 14.27000 22.98000
H  48.20500 15.21900 21.51200
H  49.78600 15.45500 21.98100
H  48.70500 16.71200 22.54700
H  46.25800 12.08400 23.90700
H  47.92600 12.33400 24.56200
H  47.15300 10.98500 22.04600
H  48.68300 11.14700 22.91100
H  48.18900 12.37600 21.84500
H  43.02300 12.44100 27.46900
H  42.66800 13.69900 26.25000
H  41.80200 13.79100 27.73200
H  44.74400 14.58500 32.05300
H  44.38900 17.24200 35.44300
H  42.88000 17.15000 34.52600
H  44.14000 18.36600 34.10500

