158

Mg 35.47800 1.82000 29.32400
C  33.40200 3.02500 31.93600
C  38.18400 1.68100 31.53600
C  37.61400 1.21700 26.78900
C  32.94200 2.42900 27.14400
N  35.71200 2.27400 31.45400
C  34.71800 2.65600 32.32500
C  35.25700 2.51800 33.75700
C  36.80800 2.51600 33.61400
C  36.98000 2.13100 32.06800
C  37.50900 3.78900 34.06400
C  34.61200 1.33700 34.58600
C  33.83300 1.75900 35.82200
H  34.35000 2.94700 36.62800
N  37.62100 1.35600 29.18600
C  38.53800 1.27700 30.23900
C  39.87700 0.92300 29.72900
C  39.68300 0.72700 28.32900
C  38.28500 1.13400 28.02500
C  41.10900 0.63100 30.64000
C  40.61900 0.23000 27.23200
O  40.32700 -0.21200 26.07800
C  42.14400 0.17900 27.56500
N  35.27100 1.68700 27.23900
C  36.32400 1.48200 26.33500
C  35.76500 1.42500 24.90100
C  34.18500 1.56900 25.13500
C  34.12600 1.98900 26.60200
C  36.37200 2.51400 24.02500
C  33.34500 0.20800 24.97500
C  32.45600 0.14500 23.64700
N  33.50300 2.60400 29.42900
C  32.63300 2.73600 28.40600
C  31.36500 3.14400 29.05000
C  31.69600 3.47400 30.38500
C  32.97000 3.00000 30.59800
C  30.09800 3.17300 28.20500
C  31.17500 3.86300 31.65300
O  30.10100 4.34900 31.93000
C  32.19300 3.56300 32.75300
C  32.38700 4.83000 33.47100
O  32.96700 5.75900 33.04200
O  31.57800 4.79600 34.58300
C  31.69400 5.96000 35.44800
H  39.04000 1.45700 32.17600
H  38.28500 1.03600 25.94700
H  32.09700 2.52700 26.45900
H  34.91000 3.38600 34.31800
H  37.29400 1.75600 34.22600
H  37.86900 3.82000 35.09200
H  36.81500 4.62600 33.97500
H  38.37600 4.01200 33.44200
H  35.41900 0.68500 34.92000
H  33.95500 0.76700 33.92900
H  33.65700 0.89900 36.46800
H  32.82200 2.02900 35.51800
H  41.58300 -0.28700 30.29400
H  40.70100 0.43600 31.63200
H  41.87400 1.40700 30.64800
H  42.43700 0.96100 28.26600
H  42.82100 0.23100 26.71200
H  42.37100 -0.76700 28.05700
H  35.97400 0.47200 24.41500
H  33.75300 2.35700 24.51800
H  36.44600 2.21000 22.98100
H  37.32500 2.94000 24.33800
H  35.66100 3.32200 23.85500
H  32.69700 -0.07700 25.80500
H  33.96100 -0.69100 24.95700
H  32.89400 -0.56900 22.94900
H  32.35100 1.06700 23.07500
H  31.45200 -0.21900 23.86700
H  30.11100 2.50100 27.34800
H  29.94400 4.17800 27.81000
H  29.29300 2.85000 28.86600
H  31.68300 2.90400 33.45600
H  30.66900 6.16600 35.75500
H  32.14000 6.85700 35.01700
H  32.35000 5.77300 36.29800
Mg -11.98500 38.37700 41.66300
C  -9.89800 35.69800 40.54700
C  -9.70300 40.52400 39.93200
C  -14.10800 41.01900 42.18800
C  -14.28600 36.12900 42.88700
N  -10.07700 38.07900 40.40800
C  -9.40800 36.89800 40.09800
C  -8.08300 37.10200 39.44900
C  -7.93600 38.65900 39.50500
C  -9.30900 39.12800 39.89100
C  -6.81600 39.21500 40.40600
C  -7.98400 36.55500 37.98300
C  -6.79700 35.56400 37.74800
H  -5.68100 36.02100 36.78100
N  -11.92200 40.48400 41.13700
C  -10.93200 41.14000 40.44500
C  -11.20600 42.57300 40.44300
C  -12.39800 42.77500 41.17700
C  -12.89800 41.40900 41.51700
C  -10.19800 43.60800 40.01200
C  -12.93900 44.17900 41.53000
O  -12.51600 45.23900 41.03100
C  -14.12100 44.31500 42.38600
N  -13.92700 38.49400 42.30300
C  -14.60500 39.74500 42.46700
C  -16.07300 39.44900 42.89200
C  -16.15600 37.88400 43.07400
C  -14.76800 37.44400 42.61300
C  -16.59100 40.23900 44.11900
C  -17.21400 37.15600 42.16200
C  -18.63300 37.05900 42.66600
N  -12.10600 36.29500 41.82900
C  -13.05900 35.49800 42.47000
C  -12.58800 34.13400 42.51900
C  -11.42200 34.18400 41.66600
C  -11.10900 35.46900 41.36400
C  -13.23600 32.92500 43.10700
C  -10.42200 33.29600 41.04600
O  -10.32000 32.08900 40.97100
C  -9.42100 34.23000 40.29500
C  -8.00100 34.00600 40.87800
O  -7.48200 34.55500 41.84500
O  -7.29600 32.99400 40.18500
C  -5.93000 32.64800 40.50000
H  -8.90000 41.18500 39.60100
H  -14.79800 41.85700 42.30100
H  -14.99100 35.44100 43.35900
H  -7.46400 36.52500 40.13700
H  -7.72900 39.06300 38.51400
H  -7.06500 39.18200 41.46700
H  -6.51200 40.21600 40.10000
H  -5.97700 38.51800 40.38600
H  -7.81300 37.39300 37.30800
H  -8.86700 35.93300 37.83300
H  -7.11800 34.64700 37.25300
H  -6.37700 35.32700 38.72600
H  -9.23900 43.26000 40.39600
H  -10.32700 44.61600 40.40700
H  -10.12100 43.73200 38.93200
H  -15.10600 44.37000 41.92100
H  -14.05900 45.31000 42.82600
H  -14.06200 43.50500 43.11400
H  -16.64000 39.80600 42.03200
H  -16.35300 37.53300 44.08700
H  -17.13500 41.14000 43.83600
H  -15.76500 40.36400 44.81900
H  -17.27600 39.48600 44.51000
H  -16.87400 36.12300 42.09700
H  -17.26500 37.57100 41.15600
H  -18.99100 37.99200 43.10100
H  -18.94100 36.17700 43.22800
H  -19.34100 36.89600 41.85300
H  -12.68900 32.45000 43.92200
H  -13.43600 32.23400 42.28800
H  -14.17000 33.27800 43.54400
H  -9.29600 33.91200 39.26000
H  -5.27200 33.50100 40.33200
H  -5.67400 31.73000 39.97000
H  -5.81200 32.27600 41.51800

