158

Mg 35.49200 1.17100 29.04100
C  33.44300 2.49300 31.60000
C  38.09000 0.97200 31.45400
C  37.52300 0.44000 26.56000
C  32.84700 1.77700 26.77700
N  35.75500 1.72200 31.30500
C  34.72500 2.17000 32.07800
C  35.14100 2.24800 33.55900
C  36.63600 1.78800 33.53800
C  36.88200 1.50400 32.05100
C  37.67300 2.65400 34.25500
C  34.38000 1.55100 34.67700
C  34.18300 2.15000 36.11200
H  35.07700 3.29500 36.62300
N  37.47600 0.58600 29.00400
C  38.37000 0.56900 30.11100
C  39.66600 0.13200 29.57600
C  39.53100 0.07500 28.13100
C  38.14600 0.39200 27.82400
C  40.89700 -0.10900 30.45900
C  40.67200 -0.17000 27.05900
O  40.39900 -0.34400 25.84900
C  42.06100 -0.44900 27.42800
N  35.29600 1.06300 26.97700
C  36.29000 0.84300 26.15700
C  35.82100 0.71500 24.72400
C  34.30200 0.91700 24.73300
C  34.07100 1.28800 26.24500
C  36.50600 1.71200 23.73000
C  33.44800 -0.30600 24.27900
C  32.51600 -0.17100 23.07100
N  33.55700 1.84900 29.12800
C  32.62200 2.13600 28.10400
C  31.45000 2.78900 28.62300
C  31.76400 2.89700 29.99900
C  33.03200 2.39000 30.26200
C  30.34300 3.27700 27.87900
C  31.19700 3.32700 31.20800
O  30.10400 3.88000 31.44000
C  32.22200 3.00600 32.31800
C  32.55600 4.25300 33.02900
O  33.24300 5.19500 32.60700
O  31.82300 4.33100 34.17000
C  31.91600 5.54600 35.00700
H  38.90900 0.97800 32.17700
H  38.17400 0.06700 25.76600
H  32.00500 1.91500 26.09500
H  35.12200 3.31200 33.79600
H  36.75100 0.83000 34.04500
H  37.21900 3.59300 34.57200
H  38.49000 2.90500 33.57900
H  38.24300 2.23800 35.08600
H  34.71400 0.53300 34.87800
H  33.40500 1.24300 34.29900
H  34.36900 1.25100 36.70100
H  33.16000 2.46600 36.31500
H  41.43800 -0.92500 29.98000
H  40.58400 -0.39200 31.46400
H  41.45300 0.81300 30.63300
H  42.20900 -1.42600 27.88600
H  42.32400 0.34600 28.12500
H  42.65400 -0.33900 26.52000
H  36.14600 -0.26800 24.38400
H  34.01900 1.70200 24.03200
H  37.01900 2.52200 24.25000
H  35.77900 2.31500 23.18500
H  37.00800 1.13500 22.95400
H  32.83800 -0.56100 25.14600
H  34.02600 -1.21400 24.10800
H  31.51200 -0.46700 23.37600
H  32.81200 -0.80900 22.23800
H  32.48000 0.87900 22.78100
H  29.48700 2.62100 28.03300
H  30.53300 3.29300 26.80500
H  30.07100 4.30600 28.11300
H  31.66300 2.34500 32.98000
H  30.91800 5.94400 35.19500
H  32.55100 6.32800 34.59100
H  32.31800 5.04200 35.88600
Mg -11.57700 16.18000 42.44200
C  -8.17700 17.16600 42.30700
C  -12.40500 19.50600 42.22700
C  -14.85100 15.24400 42.07900
C  -10.59900 12.84900 42.29200
N  -10.38300 18.12500 42.37300
C  -9.05700 18.27400 42.28600
C  -8.65600 19.71100 41.98400
C  -10.06600 20.46500 42.34800
C  -11.05600 19.33000 42.30100
C  -9.94400 21.21900 43.73300
C  -8.19100 19.84300 40.42000
C  -7.04500 20.79300 40.10600
H  -6.02400 20.18900 39.09100
N  -13.39400 17.18600 42.33800
C  -13.48700 18.62700 42.22500
C  -14.87700 18.93200 42.12900
C  -15.61500 17.71000 42.15900
C  -14.64800 16.63000 42.21300
C  -15.32900 20.25700 41.99500
C  -17.17700 17.63900 42.22600
O  -17.83200 18.66200 42.29800
C  -17.97000 16.28600 42.36100
N  -12.56900 14.34300 42.31900
C  -13.91200 14.21100 42.18400
C  -14.29400 12.75800 42.28000
C  -12.99000 11.97400 42.00600
C  -11.96300 13.09600 42.27300
C  -14.78900 12.52200 43.62600
C  -12.86000 11.47900 40.52100
C  -13.60200 10.20400 40.35100
N  -9.75900 15.20300 42.15600
C  -9.49100 13.79900 42.22200
C  -8.07100 13.52600 42.24800
C  -7.52900 14.84400 42.24500
C  -8.61200 15.81200 42.24600
C  -7.40500 12.18700 42.45000
C  -6.28900 15.62500 42.36300
O  -5.11800 15.28800 42.41400
C  -6.68000 17.12600 42.42300
C  -6.22800 17.59400 43.81900
O  -6.01100 16.88300 44.82200
O  -5.91700 18.96000 43.87300
C  -5.36300 19.56000 45.11400
H  -12.62400 20.56700 42.09300
H  -15.88600 14.92000 41.95400
H  -10.17900 11.84600 42.18800
H  -7.82800 19.96600 42.64400
H  -10.26400 21.23400 41.60200
H  -10.63300 20.79800 44.46500
H  -10.23500 22.25800 43.57700
H  -8.93100 21.08000 44.11100
H  -9.03400 20.13100 39.79100
H  -7.85600 18.86100 40.08800
H  -6.49200 21.01500 41.01800
H  -7.48900 21.76100 39.87200
H  -14.56900 21.03800 42.02000
H  -15.95500 20.52500 42.84600
H  -15.83800 20.35400 41.03600
H  -18.95200 16.51100 42.77700
H  -17.42000 15.71900 43.11200
H  -18.08400 15.80400 41.39000
H  -15.05500 12.36700 41.60500
H  -12.87500 11.18800 42.75300
H  -15.22000 13.41100 44.08500
H  -14.12600 12.12800 44.39700
H  -15.56200 11.75600 43.57200
H  -11.83800 11.26200 40.20800
H  -13.26000 12.31400 39.94500
H  -14.47800 10.43100 39.74300
H  -13.84100 9.80300 41.33600
H  -12.99700 9.40100 39.92900
H  -7.31700 11.94200 43.50800
H  -6.46200 12.07500 41.91500
H  -7.99500 11.33500 42.11100
H  -6.13200 17.52200 41.56800
H  -5.56700 20.63000 45.11100
H  -4.27600 19.63800 45.13400
H  -5.72300 19.16200 46.06400

