158

Mg 47.88300 16.23900 29.26400
C  45.65400 15.63600 31.96300
C  49.76100 18.12700 31.33700
C  49.58800 17.18500 26.53400
C  45.55600 14.75900 27.14300
N  47.68500 16.79700 31.38000
C  46.82700 16.30200 32.39800
C  47.26700 16.66600 33.75700
C  48.39100 17.71200 33.48600
C  48.65700 17.58000 31.94300
C  48.00800 19.21300 33.79900
C  47.73500 15.34900 34.45800
C  47.90700 15.41200 35.96400
H  47.81500 16.77700 36.73500
N  49.57900 17.29600 29.00000
C  50.24100 18.03200 29.99500
C  51.36500 18.59500 29.40300
C  51.39000 18.31000 28.03000
C  50.14300 17.56300 27.79500
C  52.41100 19.30700 30.24100
C  52.49000 18.54700 26.95100
O  52.16300 18.24100 25.83300
C  53.75900 19.12800 27.27800
N  47.51800 15.96200 27.08000
C  48.46600 16.45600 26.23300
C  48.15100 16.09300 24.78000
C  46.86100 15.17900 24.86500
C  46.58100 15.33400 26.37200
C  48.01800 17.36200 23.90500
C  46.95800 13.74200 24.33800
C  46.37800 13.37800 22.94800
N  45.95800 15.44400 29.47700
C  45.22500 14.82300 28.49500
C  44.01100 14.31200 29.12400
C  44.12700 14.55900 30.47000
C  45.32000 15.32400 30.63300
C  42.97000 13.40100 28.50900
C  43.58900 14.39000 31.79500
O  42.54300 13.88500 32.21500
C  44.54000 15.12500 32.82300
C  43.98800 16.16400 33.63300
O  43.34900 17.13200 33.27400
O  44.22500 15.75700 34.87300
C  43.86700 16.71700 35.94700
H  50.30100 18.77600 32.02900
H  50.02600 17.37900 25.55300
H  44.86600 14.25000 26.46700
H  46.43100 17.10900 34.29800
H  49.30500 17.47500 34.03000
H  48.46700 19.44000 34.76100
H  46.93700 19.21100 34.00500
H  48.23600 19.93600 33.01500
H  48.57200 14.84300 33.97800
H  46.96300 14.59900 34.28800
H  48.80900 14.89200 36.28700
H  46.96000 14.98400 36.29500
H  52.07000 20.24300 30.68300
H  53.39400 19.51300 29.81700
H  52.43400 18.58500 31.05700
H  53.59300 20.14900 27.62100
H  54.31800 19.25400 26.35100
H  54.18800 18.44100 28.00700
H  48.97100 15.43900 24.48200
H  46.06900 15.63000 24.26800
H  48.02600 18.25000 24.53600
H  47.09000 17.47400 23.34500
H  48.94400 17.24200 23.34400
H  46.50900 13.14000 25.12700
H  48.02400 13.52400 24.27000
H  45.92900 14.27900 22.52800
H  45.60200 12.65000 23.18400
H  47.13600 12.98800 22.26800
H  42.15200 13.99800 28.10600
H  42.53300 12.66900 29.18800
H  43.54100 12.87800 27.74200
H  44.86800 14.27400 33.42100
H  44.28000 17.70600 35.74900
H  44.23200 16.21900 36.84600
H  42.81200 16.70900 36.21800
Mg 9.00700 48.79600 25.89200
C  6.91400 49.02800 28.64500
C  11.74200 49.79400 27.96600
C  11.15200 48.33000 23.35600
C  6.35100 48.23600 23.84900
N  9.30600 49.40500 28.05400
C  8.31800 49.20800 29.02000
C  8.95400 49.46200 30.44200
C  10.40100 50.06500 30.10500
C  10.51800 49.75900 28.61300
C  10.67000 51.57500 30.49000
C  9.11800 48.24100 31.43400
C  8.80700 48.50500 32.86800
H  8.58500 47.28800 33.66800
N  11.12100 49.02400 25.63400
C  12.02900 49.47200 26.63600
C  13.40100 49.43300 26.06200
C  13.27800 48.95500 24.72600
C  11.81100 48.73500 24.49100
C  14.66900 49.81700 26.80300
C  14.37900 48.72200 23.70000
O  14.10300 48.20600 22.63400
C  15.89100 49.03400 24.00500
N  8.75900 48.63000 23.80800
C  9.73100 48.26000 23.03800
C  9.24300 47.80200 21.62600
C  7.68300 47.84900 21.75900
C  7.59500 48.27900 23.22700
C  9.83000 48.77900 20.46600
C  6.95300 46.50800 21.48000
C  5.64500 46.72800 20.70900
N  7.05800 48.65200 26.08700
C  6.04500 48.44500 25.16900
C  4.75700 48.40900 25.80400
C  5.03400 48.70400 27.23200
C  6.43400 48.77500 27.31500
C  3.52600 48.09000 25.08700
C  4.45900 48.89400 28.54900
O  3.28400 48.78400 28.98000
C  5.68900 49.10900 29.50400
C  5.58600 48.06200 30.52600
O  5.76800 46.88700 30.43800
O  5.23300 48.76600 31.74800
C  4.91400 47.98900 32.94200
H  12.47200 50.12400 28.70800
H  11.87500 48.05200 22.58600
H  5.46700 48.11400 23.21900
H  8.38700 50.19000 31.02300
H  11.25200 49.62200 30.62200
H  11.16100 51.68100 31.45700
H  9.66200 51.94300 30.67900
H  11.09600 52.18600 29.69400
H  10.12600 47.84000 31.54100
H  8.54900 47.39300 31.05200
H  7.89900 49.09900 32.97600
H  9.58700 49.11100 33.33000
H  15.25400 48.91800 26.99400
H  14.45600 50.33300 27.74000
H  15.19400 50.58000 26.22800
H  16.41700 49.02500 23.05100
H  16.30400 48.32300 24.72100
H  15.93700 50.03400 24.43700
H  9.70700 46.81800 21.56700
H  7.12000 48.54500 21.13700
H  9.35400 49.74600 20.62400
H  9.69800 48.33300 19.48000
H  10.90800 48.84800 20.61500
H  6.81300 45.82500 22.31800
H  7.59600 45.83200 20.91600
H  5.77900 46.05900 19.85900
H  5.56600 47.75900 20.36400
H  4.75300 46.47400 21.28200
H  3.21500 48.91000 24.43900
H  2.94400 47.77400 25.95300
H  3.73400 47.26700 24.40300
H  5.49700 50.10000 29.91600
H  5.83700 47.47900 33.21800
H  4.15400 47.25200 32.68200
H  4.52100 48.54600 33.79200

