158

Mg -1.62400 16.66700 26.13000
C  -1.83800 14.50200 28.93000
C  -2.20100 19.31400 28.28500
C  -1.20400 18.75100 23.54700
C  -1.84400 13.97100 24.14400
N  -2.16500 16.87700 28.31700
C  -2.09200 15.89500 29.27100
C  -2.28400 16.55900 30.60100
C  -2.77500 17.93400 30.39700
C  -2.40600 18.05500 28.87500
C  -4.28200 18.11900 30.61700
C  -1.10300 16.44200 31.56800
C  -1.48300 15.76300 32.90000
H  -2.13000 16.53700 34.06000
N  -1.51400 18.82400 25.92100
C  -1.83800 19.64100 26.95500
C  -1.64300 20.98100 26.44000
C  -1.26900 20.87600 25.06200
C  -1.33000 19.45100 24.75100
C  -1.81400 22.25400 27.20600
C  -0.82200 21.97000 24.15800
O  -0.40800 21.64400 23.04200
C  -0.86200 23.44500 24.57500
N  -1.91000 16.40700 24.08600
C  -1.54700 17.36200 23.19500
C  -1.57600 16.86100 21.75900
C  -1.65400 15.33000 22.07400
C  -1.70700 15.19100 23.55800
C  -2.82600 17.23000 20.88800
C  -0.35800 14.58500 21.48400
C  0.74400 14.17800 22.35600
N  -1.83100 14.69300 26.39800
C  -1.87500 13.66700 25.45800
C  -1.93800 12.44000 26.09100
C  -1.88600 12.69800 27.44900
C  -1.77400 14.08600 27.55900
C  -2.00900 11.17400 25.45800
C  -1.82500 12.04400 28.78200
O  -1.71500 10.86200 29.15100
C  -1.95000 13.27400 29.80700
C  -0.99400 13.17800 31.00300
O  0.20000 13.42400 30.91300
O  -1.59700 12.49000 31.99800
C  -0.73000 12.14900 33.09000
H  -2.47500 20.23300 28.80700
H  -1.07100 19.43800 22.70800
H  -1.95200 13.04900 23.56900
H  -3.09900 15.94500 30.98500
H  -2.38200 18.75000 31.00400
H  -4.46000 19.17200 30.83500
H  -4.64900 17.36500 31.31400
H  -4.77200 17.92000 29.66400
H  -0.80600 17.45900 31.82500
H  -0.23200 16.00500 31.07900
H  -0.56400 15.32200 33.28700
H  -2.15100 14.91300 32.76100
H  -2.60600 22.78600 26.67900
H  -0.88300 22.81700 27.26700
H  -2.22800 22.04900 28.19300
H  -1.89900 23.65800 24.83400
H  -0.61600 23.91200 23.62200
H  -0.09300 23.40600 25.34700
H  -0.61900 17.12900 21.31100
H  -2.46500 14.84100 21.53500
H  -2.65200 17.02500 19.83100
H  -3.07200 18.28700 20.98700
H  -3.71700 16.75300 21.29500
H  0.01000 15.24600 20.70000
H  -0.78200 13.77800 20.88500
H  0.60000 14.62400 23.34100
H  1.64100 14.68100 21.99600
H  0.81100 13.09800 22.48900
H  -0.98200 10.83200 25.33500
H  -2.46500 11.07300 24.47300
H  -2.50600 10.43000 26.08100
H  -2.94100 13.20000 30.25500
H  0.24800 11.75200 32.81800
H  -1.17000 11.42000 33.77000
H  -0.57900 13.04200 33.69800
Mg 46.58000 45.65400 44.42900
C  43.25900 45.05800 43.30700
C  47.41700 42.61100 42.98300
C  49.73400 46.48600 44.88200
C  45.58900 49.00500 44.88700
N  45.46500 44.06200 43.25700
C  44.14700 44.08900 42.91900
C  43.78400 42.86600 42.10700
C  45.04700 41.97900 42.21700
C  46.05200 42.94600 42.80400
C  44.85100 40.65500 43.00200
C  43.35400 43.13100 40.64900
C  42.14500 42.30500 40.08900
H  42.51400 41.28200 38.98600
N  48.36800 44.56300 44.17700
C  48.53900 43.36600 43.59800
C  49.88800 42.96800 43.75900
C  50.59300 44.14600 44.28900
C  49.55600 45.14800 44.51600
C  50.47200 41.54900 43.28400
C  52.07700 44.17000 44.43100
O  52.74100 43.16900 44.22900
C  52.89600 45.35900 44.81300
N  47.52100 47.46900 44.62100
C  48.84700 47.53100 44.93700
C  49.23700 49.00200 45.13100
C  47.98200 49.79300 45.17900
C  46.91800 48.72400 44.88200
C  50.16000 49.34300 46.39600
C  47.94600 51.10300 44.31500
C  47.98700 50.86100 42.70400
N  44.75900 46.78000 44.31900
C  44.52400 48.13100 44.56500
C  43.07400 48.37300 44.53500
C  42.57000 47.11100 44.12800
C  43.64800 46.17800 43.98200
C  42.31000 49.56200 44.96900
C  41.35300 46.37400 43.84800
O  40.15800 46.71800 44.01700
C  41.75900 45.01100 43.26700
C  41.12400 43.97000 44.13500
O  40.21900 43.24600 43.81600
O  41.61800 43.95400 45.43500
C  41.04500 42.92700 46.36600
H  47.62200 41.63900 42.53000
H  50.71700 46.75700 45.27100
H  45.19300 50.02100 44.95200
H  42.93500 42.45000 42.64900
H  45.37500 41.62600 41.23900
H  45.64800 40.56200 43.73900
H  44.87600 39.74900 42.39700
H  43.89500 40.49500 43.50000
H  44.26400 42.98200 40.06900
H  43.06700 44.18200 40.60800
H  41.44500 42.94000 39.54600
H  41.47200 41.88800 40.83900
H  51.39200 41.69700 42.72000
H  49.75500 40.96000 42.71100
H  50.65800 40.81900 44.07100
H  52.72900 46.24100 44.19400
H  53.96400 45.14400 44.84300
H  52.66400 45.74300 45.80600
H  49.78800 49.39300 44.27600
H  47.82000 50.13000 46.20300
H  51.20100 49.42800 46.08400
H  50.03700 48.44800 47.00600
H  49.81100 50.28300 46.82300
H  48.89900 51.56800 44.56800
H  47.09800 51.70300 44.64400
H  48.87700 51.38800 42.36200
H  47.07200 51.26600 42.27200
H  48.04700 49.79600 42.47600
H  42.54500 49.86000 45.99100
H  41.24500 49.33100 44.94800
H  42.48900 50.32500 44.21200
H  41.31900 44.89800 42.27700
H  41.63800 43.04300 47.27400
H  41.22900 41.88400 46.10900
H  40.05200 43.30000 46.62000

