158

Mg 9.42200 3.53300 28.23700
C  10.75500 1.88600 31.08100
C  7.45900 5.47600 30.39100
C  7.72200 4.58200 25.60900
C  10.80600 0.94900 26.22900
N  9.20600 3.66800 30.51700
C  9.90900 2.98300 31.44400
C  9.56200 3.50900 32.90800
C  8.46600 4.58900 32.60000
C  8.31700 4.61600 31.03800
C  7.07700 4.38700 33.29400
C  10.77900 4.13400 33.71200
C  11.10100 3.53400 35.07600
H  11.23400 4.48600 36.31100
N  7.82100 4.84400 27.99400
C  7.22400 5.59900 28.98100
C  6.31200 6.54900 28.29700
C  6.37800 6.34800 26.89700
C  7.35200 5.20200 26.79000
C  5.44000 7.49800 29.10000
C  5.58400 7.02200 25.76700
O  5.85100 6.83400 24.60300
C  4.52400 8.10300 26.09300
N  9.35500 2.90200 26.23100
C  8.62100 3.54000 25.35800
C  8.96800 3.10700 23.94000
C  9.79800 1.90200 24.12800
C  10.04300 1.90000 25.60800
C  7.76700 2.90800 23.00000
C  11.11700 1.86500 23.33200
C  11.48400 0.58500 22.49500
N  10.59600 1.80500 28.55500
C  11.09800 0.87600 27.64400
C  11.88800 -0.07600 28.32100
C  11.72400 0.21700 29.64100
C  11.00800 1.44400 29.77000
C  12.57600 -1.29100 27.77400
C  12.10500 -0.25700 30.99100
O  12.60400 -1.31000 31.29300
C  11.50700 0.87900 31.98300
C  10.62300 0.26900 33.07900
O  9.41800 -0.00300 32.95900
O  11.31300 -0.02000 34.22100
C  10.50100 -0.47700 35.34100
H  6.89400 6.15000 31.03800
H  7.15700 4.90000 24.73100
H  11.15800 0.16800 25.55200
H  9.12800 2.60100 33.32600
H  8.84000 5.54700 32.96100
H  7.22100 3.46600 33.85900
H  6.33600 4.38200 32.49400
H  6.92800 5.18600 34.01900
H  10.62700 5.21100 33.77900
H  11.61400 3.96500 33.03300
H  12.01600 2.97400 34.88300
H  10.29300 2.81700 35.21900
H  5.47000 7.40700 30.18600
H  4.41200 7.19300 28.90900
H  5.79800 8.50500 28.88600
H  3.76900 7.56100 26.66400
H  4.20700 8.47600 25.11900
H  5.02800 8.92100 26.60700
H  9.61000 3.86200 23.48700
H  9.32100 0.94100 23.93400
H  6.88500 2.98000 23.63500
H  7.81400 1.87900 22.64400
H  7.49500 3.54900 22.16100
H  11.94200 2.10700 24.00200
H  11.00900 2.62600 22.56000
H  10.67200 0.26000 21.84500
H  11.66700 -0.27800 23.13500
H  12.41600 0.76600 21.96000
H  13.22700 -1.83000 28.46200
H  13.03900 -1.14500 26.79800
H  11.85100 -2.06700 27.52900
H  12.23800 1.47400 32.52900
H  10.12100 -1.40200 34.90700
H  9.65100 0.17100 35.55800
H  11.01000 -0.66300 36.28700
Mg 53.76800 24.18000 43.99900
C  51.05700 26.20300 43.08200
C  52.39100 21.64700 42.13700
C  56.77100 22.54100 44.14000
C  55.19900 26.96900 45.59900
N  52.10500 24.07300 42.44400
C  51.11800 25.05700 42.33500
C  49.93800 24.49100 41.42400
C  50.24900 22.91800 41.37500
C  51.66400 22.85700 42.04700
C  49.21900 22.00600 41.99700
C  49.75700 25.07700 39.94400
C  51.09800 25.46000 39.38000
H  51.16200 25.99600 37.94600
N  54.38800 22.27400 43.41000
C  53.61100 21.34400 42.76400
C  54.26400 20.06900 42.86400
C  55.59100 20.33600 43.45300
C  55.61800 21.78600 43.66000
C  53.62000 18.77300 42.29400
C  56.64000 19.28400 43.65500
O  56.33600 18.08800 43.49100
C  58.08600 19.60000 44.23900
N  55.78200 24.81900 44.44900
C  56.82000 23.94300 44.51800
C  58.07200 24.64800 45.16900
C  57.46700 25.92700 45.80900
C  56.05700 25.89300 45.31100
C  58.98600 23.84500 46.17900
C  58.20200 27.27400 45.46400
C  58.29100 28.31000 46.59400
N  53.18700 26.14700 44.37500
C  53.82700 27.08900 45.19100
C  52.89800 28.21400 45.40000
C  51.83200 27.89600 44.55000
C  52.06600 26.66600 43.96400
C  53.19800 29.52000 46.16800
C  50.60600 28.43400 44.03100
O  50.10800 29.52700 44.35300
C  49.98200 27.30500 43.30500
C  49.54500 27.87600 42.05800
O  50.27800 28.39100 41.20200
O  48.15700 27.83900 41.95600
C  47.66000 28.49900 40.73200
H  51.92100 20.77700 41.67300
H  57.68900 21.97100 44.29300
H  55.59800 27.66700 46.33700
H  48.96000 24.65000 41.87700
H  50.26700 22.68600 40.31000
H  48.42600 22.64300 42.39000
H  49.65000 21.53900 42.88300
H  48.91900 21.21100 41.31500
H  49.05600 25.90800 39.88200
H  49.30700 24.30600 39.31700
H  51.63800 24.51300 39.39200
H  51.60900 26.15200 40.04900
H  54.23700 18.57200 41.41800
H  52.55100 18.88000 42.10900
H  53.84600 18.05100 43.07900
H  57.91900 20.13300 45.17500
H  58.63700 20.13900 43.46900
H  58.55600 18.63800 44.43800
H  58.60200 25.10800 44.33500
H  57.39200 25.82100 46.89100
H  59.92400 23.70000 45.64300
H  58.38100 22.99700 46.50100
H  59.08100 24.33000 47.15000
H  57.64700 27.84600 44.72000
H  59.20400 27.09300 45.07500
H  59.30600 28.66900 46.76100
H  58.02400 27.99400 47.60300
H  57.64900 29.16800 46.39500
H  52.31900 29.64800 46.79900
H  53.45000 30.28300 45.43200
H  54.13400 29.33800 46.69600
H  49.14800 26.87900 43.86400
H  47.79500 29.57400 40.85400
H  46.57500 28.42200 40.65400
H  48.19700 28.13700 39.85600

