158

Mg 53.04700 23.19100 44.34200
C  50.44400 25.37600 43.33900
C  51.42100 20.61300 42.97600
C  55.87400 21.47300 44.68400
C  54.76100 25.94900 45.79700
N  51.23800 23.04600 43.19500
C  50.29400 24.04700 42.95000
C  48.98000 23.41700 42.43100
C  49.28500 21.89900 42.49400
C  50.77100 21.81000 42.87700
C  48.38800 21.15800 43.48800
C  48.67600 23.86100 40.89900
C  49.78100 23.82400 39.90000
H  49.55600 24.35000 38.48600
N  53.57900 21.25600 43.82300
C  52.73600 20.31900 43.32200
C  53.45300 19.06000 43.21600
C  54.81200 19.32900 43.67100
C  54.82300 20.79000 44.05500
C  52.80200 17.84900 42.65500
C  55.97200 18.29200 43.59400
O  55.90400 17.25100 42.98600
C  57.24100 18.61900 44.32200
N  55.23900 23.78100 44.75000
C  56.09500 22.81200 44.98000
C  57.32500 23.20200 45.83500
C  56.91400 24.71100 46.11400
C  55.52700 24.82700 45.57400
C  57.83100 22.37800 46.95500
C  57.85900 25.82900 45.57100
C  58.58800 26.57700 46.69400
N  52.75000 25.29900 44.65000
C  53.45800 26.19400 45.36400
C  52.61600 27.37900 45.54600
C  51.41000 27.11400 44.78500
C  51.64600 25.87200 44.13800
C  52.98300 28.56700 46.27600
C  50.13800 27.73500 44.35200
O  49.65900 28.82100 44.58400
C  49.51400 26.56100 43.40100
C  49.20000 27.08400 42.02900
O  49.88500 26.97500 41.03700
O  47.94100 27.70900 42.04200
C  47.36000 28.07000 40.73200
H  50.87000 19.73200 42.63900
H  56.66000 20.87700 45.15200
H  55.29000 26.74200 46.33000
H  48.19600 23.76800 43.10200
H  49.15700 21.33300 41.57200
H  47.96400 20.31800 42.93800
H  47.59800 21.80000 43.87800
H  48.75600 20.69200 44.40300
H  48.30700 24.88500 40.94900
H  47.84400 23.20500 40.64500
H  50.29200 22.87100 40.03600
H  50.51300 24.56800 40.21400
H  53.50000 17.01700 42.56100
H  52.55300 18.00200 41.60500
H  52.13500 17.32100 43.33500
H  57.09700 18.86900 45.37300
H  57.68000 19.43400 43.74600
H  57.97500 17.81600 44.25300
H  58.15400 23.28500 45.13200
H  56.81800 24.82600 47.19400
H  57.79400 23.09300 47.77600
H  58.86300 22.04800 46.83700
H  57.15800 21.54300 47.15100
H  57.37700 26.40300 44.77900
H  58.66400 25.31100 45.04800
H  59.59800 26.27000 46.96600
H  57.97000 26.67900 47.58500
H  58.57100 27.62500 46.39400
H  52.02900 28.94100 46.64800
H  53.46500 29.30700 45.63700
H  53.53400 28.42600 47.20600
H  48.60300 26.21800 43.89200
H  47.14900 29.11700 40.51600
H  46.40500 27.54400 40.73600
H  47.92100 27.58900 39.93200
Mg 48.21100 44.18400 43.20500
C  44.77800 44.22000 42.72200
C  48.07000 40.70700 42.52700
C  51.46200 44.19400 43.46200
C  48.22800 47.66000 42.98300
N  46.54900 42.56300 42.47800
C  45.23400 42.86300 42.57800
C  44.40600 41.61700 42.52300
C  45.49600 40.46000 42.61000
C  46.80500 41.24700 42.45200
C  45.44300 39.61600 43.87500
C  43.55300 41.55100 41.23400
C  44.12200 42.23500 40.00800
H  43.77600 41.54600 38.71300
N  49.61200 42.62600 42.97300
C  49.32900 41.27100 42.81800
C  50.59500 40.59500 42.75700
C  51.62900 41.55300 43.07200
C  50.94600 42.89000 43.17600
C  50.81200 39.12000 42.50500
C  53.15200 41.27300 43.34000
O  53.64300 40.18300 43.37100
C  54.06500 42.40900 43.72500
N  49.61300 45.71100 43.07500
C  50.85700 45.44200 43.41500
C  51.77400 46.68000 43.52800
C  50.78000 47.83900 43.16600
C  49.46900 47.07700 43.07100
C  52.55500 46.95600 44.78200
C  51.09400 48.61500 41.85000
C  51.87000 49.97100 42.07400
N  46.84500 45.69300 42.89600
C  46.97800 47.05600 42.93400
C  45.68700 47.71300 42.87300
C  44.74700 46.62500 42.87400
C  45.52400 45.40700 42.85800
C  45.46700 49.21600 42.92400
C  43.29800 46.24900 42.92600
O  42.34500 46.96200 43.00100
C  43.27800 44.65400 42.75500
C  42.24400 44.18400 43.69100
O  41.25900 43.60500 43.28800
O  42.53100 44.47800 44.97700
C  41.63400 44.06600 46.02600
H  47.95400 39.62500 42.43000
H  52.51200 44.35400 43.71200
H  48.30800 48.74700 42.90700
H  43.68400 41.75000 43.33000
H  45.51700 39.77800 41.76000
H  46.01700 38.70400 43.70800
H  44.41600 39.28900 44.03700
H  45.85600 40.11100 44.75400
H  42.61800 42.04600 41.49500
H  43.40200 40.48600 41.05600
H  45.20400 42.30000 40.12100
H  43.75500 43.26100 39.97200
H  51.39600 38.85400 41.62300
H  49.93300 38.49600 42.34300
H  51.05700 38.65100 43.45800
H  54.33800 43.20000 43.02600
H  55.05300 42.00900 43.95800
H  53.66700 42.86200 44.63300
H  52.51600 46.59300 42.73500
H  50.71900 48.60900 43.93400
H  52.22100 46.28600 45.57400
H  52.42300 47.95400 45.20100
H  53.60000 46.70700 44.59700
H  50.16100 48.85600 41.34100
H  51.79600 48.04200 41.24400
H  51.23100 50.83800 41.90500
H  52.63900 49.92400 41.30300
H  52.30600 50.11100 43.06300
H  44.63200 49.46400 42.26900
H  46.37900 49.70900 42.58800
H  45.26000 49.53200 43.94700
H  42.81300 44.37300 41.81000
H  42.10200 43.27500 46.61100
H  40.68200 43.65800 45.68700
H  41.38600 44.87900 46.70800

