158

Mg 24.21500 -4.90200 45.87500
C  26.45200 -2.86100 44.39900
C  21.65200 -3.48300 44.07200
C  22.23800 -7.48700 46.76900
C  26.93300 -6.48200 47.69700
N  24.08700 -3.42100 44.24800
C  25.17000 -2.58400 43.90100
C  24.66000 -1.50100 42.87500
C  23.07400 -1.52600 43.07500
C  22.87200 -2.83400 43.88300
C  22.51800 -0.31900 44.02600
C  25.13800 -1.95100 41.43000
C  25.66100 -0.90000 40.44500
H  25.12000 -0.85000 39.00500
N  22.19000 -5.26600 45.63100
C  21.32300 -4.62500 44.71900
C  20.00000 -5.30400 44.66900
C  20.15900 -6.49800 45.51200
C  21.57000 -6.47600 46.00900
C  18.81600 -4.79900 43.87100
C  18.96200 -7.55700 45.73100
O  17.85300 -7.30000 45.31600
C  19.11400 -8.70500 46.69100
N  24.69600 -6.94800 46.92700
C  23.56700 -7.58700 47.33000
C  24.14300 -8.87500 48.07600
C  25.45800 -8.41400 48.62800
C  25.74800 -7.22600 47.69000
C  23.19000 -9.43600 49.07700
C  26.59200 -9.52400 48.57700
C  27.11800 -9.95200 49.95300
N  26.28200 -4.85000 46.00400
C  27.30500 -5.38900 46.79700
C  28.56400 -4.70300 46.58300
C  28.20800 -3.70300 45.68700
C  26.87100 -3.87700 45.32400
C  29.86600 -5.01800 47.22000
C  28.76200 -2.56000 44.97700
O  29.90300 -2.10900 44.96700
C  27.68900 -2.04700 44.03800
C  27.58800 -0.60800 44.42800
O  27.01300 -0.15200 45.41700
O  28.37600 0.20200 43.58500
C  28.34300 1.64800 43.90800
H  20.89200 -3.10900 43.38300
H  21.56500 -8.31700 46.99400
H  27.73500 -6.83300 48.35000
H  25.02400 -0.51500 43.16400
H  22.57300 -1.57900 42.10900
H  23.19400 0.49000 44.30400
H  22.03800 -0.75900 44.90000
H  21.69500 0.20600 43.54100
H  24.36300 -2.54500 40.94600
H  25.99200 -2.61700 41.55700
H  26.74500 -1.02000 40.42900
H  25.42800 0.01100 40.99500
H  18.26500 -5.63300 43.43800
H  19.06000 -3.97800 43.19600
H  18.20800 -4.34900 44.65600
H  18.19500 -9.28700 46.76300
H  19.49900 -8.39500 47.66300
H  19.83500 -9.37400 46.22100
H  24.26800 -9.69600 47.37000
H  25.24200 -8.12700 49.65700
H  23.61200 -9.50600 50.08000
H  22.96700 -10.44200 48.72100
H  22.21500 -8.95400 49.01200
H  27.44900 -9.19600 47.98900
H  26.17200 -10.45700 48.20100
H  28.08100 -9.52300 50.22700
H  27.05700 -11.02800 50.11500
H  26.45400 -9.49200 50.68500
H  29.64500 -4.94600 48.28500
H  30.58200 -4.26800 46.88300
H  30.14500 -6.05100 47.01600
H  28.04700 -2.13000 43.01200
H  27.37000 2.10700 43.73500
H  29.21500 2.00700 43.36200
H  28.62700 1.67300 44.96000
Mg -12.34000 16.06500 41.72200
C  -9.19900 14.04500 41.56400
C  -10.58400 18.56600 40.13700
C  -15.08100 17.34200 41.11100
C  -13.89000 12.91600 42.59300
N  -10.11300 16.24800 40.82200
C  -9.08200 15.31100 40.95500
C  -7.72800 15.93900 40.45200
C  -8.14200 17.48100 40.30300
C  -9.68500 17.44900 40.32600
C  -7.64000 18.40800 41.45800
C  -7.17700 15.26500 39.16800
C  -5.63600 15.52800 39.00200
H  -5.34900 16.24400 37.64200
N  -12.71200 17.78700 40.91700
C  -11.94100 18.73100 40.30800
C  -12.69700 19.89700 39.93900
C  -14.05300 19.62800 40.32400
C  -13.97900 18.17700 40.76300
C  -12.11100 21.14800 39.32900
C  -15.22100 20.54000 40.14800
O  -15.06900 21.62600 39.65300
C  -16.71100 20.15900 40.50900
N  -14.27900 15.13400 41.58300
C  -15.26300 16.05700 41.41500
C  -16.67600 15.34900 41.57800
C  -16.20600 14.03200 42.34200
C  -14.74200 13.95600 42.11600
C  -17.77000 16.14700 42.39100
C  -16.98900 12.76100 41.82900
C  -17.78400 11.91300 42.90000
N  -11.71300 13.94900 42.12600
C  -12.48500 12.83000 42.48100
C  -11.55900 11.73800 42.67900
C  -10.25200 12.19100 42.34300
C  -10.37600 13.51700 42.00400
C  -11.91800 10.43300 43.39200
C  -8.87100 11.73200 42.23600
O  -8.33400 10.63700 42.50300
C  -8.09900 13.02000 41.71800
C  -7.05300 13.52700 42.68800
O  -7.16700 13.52300 43.90400
O  -5.89000 13.82700 42.02300
C  -4.69000 13.89800 42.85800
H  -10.06600 19.39500 39.65000
H  -16.05500 17.82600 41.01500
H  -14.44800 12.02700 42.89200
H  -6.94500 15.85400 41.20600
H  -7.74200 17.94100 39.40000
H  -6.55900 18.55000 41.47000
H  -7.90500 17.89300 42.38100
H  -8.16600 19.36200 41.41400
H  -7.84000 15.64300 38.39000
H  -7.37600 14.19900 39.27800
H  -5.11900 14.57500 39.11000
H  -5.24900 16.22400 39.74600
H  -12.38300 21.32400 38.28800
H  -11.03000 21.10700 39.45600
H  -12.40700 22.00500 39.93300
H  -16.75400 19.84200 41.55100
H  -17.13400 19.36200 39.89700
H  -17.41200 20.96900 40.30500
H  -17.08900 15.18200 40.58300
H  -16.35300 14.00900 43.42100
H  -18.65500 16.41700 41.81400
H  -17.22400 17.03900 42.69900
H  -18.14600 15.61000 43.26100
H  -16.32700 12.16600 41.19800
H  -17.73800 13.08100 41.10400
H  -18.86700 11.91100 42.78000
H  -17.46900 12.21900 43.89700
H  -17.54700 10.84900 42.88200
H  -10.99300 9.86200 43.31600
H  -12.70200 9.97100 42.79100
H  -12.41300 10.59900 44.34800
H  -7.54000 12.82100 40.80300
H  -4.60000 12.97700 43.43500
H  -4.75200 14.68700 43.60700
H  -3.87100 14.00900 42.14800

