158

Mg 1.96600 -1.18400 45.33500
C  5.23600 0.05400 44.83000
C  0.79100 1.21400 43.24500
C  -0.89300 -2.74600 45.19500
C  3.52600 -4.13900 46.70300
N  2.91600 0.48700 44.12400
C  4.25400 0.79800 44.13700
C  4.44600 2.09300 43.28600
C  2.98800 2.48000 42.90600
C  2.15100 1.37400 43.54000
C  2.56300 3.80000 43.58100
C  5.34500 1.95200 42.05400
C  6.49200 2.94500 41.83100
H  7.41200 2.50000 40.69000
N  0.09000 -0.70300 44.59700
C  -0.18100 0.34200 43.69900
C  -1.55800 0.34400 43.35400
C  -2.07500 -0.87300 44.01400
C  -0.94700 -1.50000 44.63600
C  -2.31100 1.31000 42.36800
C  -3.52300 -1.35100 43.95600
O  -4.40500 -0.81100 43.26100
C  -4.02500 -2.51200 44.68000
N  1.47200 -3.21700 45.59800
C  0.12900 -3.53400 45.65800
C  -0.09000 -4.90700 46.30400
C  1.33400 -5.37800 46.74200
C  2.17800 -4.15800 46.34500
C  -1.00600 -4.86900 47.54300
C  1.80700 -6.78100 46.20700
C  1.86100 -8.00900 47.19700
N  3.91500 -1.96900 45.66000
C  4.40000 -3.12400 46.28500
C  5.87800 -3.02900 46.44800
C  6.13400 -1.77400 45.96700
C  4.96400 -1.18700 45.50700
C  6.71700 -4.10000 47.09200
C  7.26400 -0.86700 45.74600
O  8.38000 -0.98400 46.01700
C  6.66600 0.37800 44.96300
C  6.81900 1.56200 45.84600
O  6.41700 1.69200 47.03400
O  7.46300 2.58200 45.17400
C  7.79600 3.78800 45.93800
H  0.38800 1.87600 42.47600
H  -1.85500 -3.24400 45.33000
H  3.91700 -5.06500 47.13000
H  4.95800 2.83300 43.90200
H  2.81800 2.59300 41.83500
H  1.94900 3.57100 44.45200
H  2.01000 4.40000 42.85800
H  3.45800 4.36300 43.84500
H  4.75100 2.18000 41.16900
H  5.71200 0.94400 41.85900
H  7.08500 2.99000 42.74500
H  6.05100 3.93300 41.69700
H  -1.73300 2.21400 42.17400
H  -3.34000 1.43600 42.70500
H  -2.32600 0.71500 41.45500
H  -3.69400 -2.39200 45.71200
H  -3.59800 -3.44200 44.30300
H  -5.11100 -2.42100 44.64800
H  -0.40500 -5.61300 45.53500
H  1.47500 -5.44400 47.82000
H  -1.70200 -5.69000 47.36900
H  -1.61500 -3.96600 47.58700
H  -0.44900 -4.98900 48.47200
H  2.82200 -6.64200 45.83500
H  1.17900 -7.17500 45.40800
H  1.56500 -8.94200 46.71600
H  1.14500 -7.81200 47.99500
H  2.88100 -8.05100 47.57800
H  6.18400 -5.03400 47.26800
H  7.05400 -3.82500 48.09200
H  7.60400 -4.27400 46.48400
H  7.18100 0.40500 44.00300
H  8.49300 4.34400 45.31200
H  8.43800 3.57700 46.79300
H  6.89800 4.35300 46.18800
Mg 36.25200 48.93500 25.09200
C  36.18200 46.97100 27.89600
C  34.93900 51.63900 26.97100
C  36.33200 50.81700 22.31700
C  37.55200 46.32900 23.16800
N  35.52300 49.20600 27.11000
C  35.67000 48.29200 28.17700
C  35.46100 48.92200 29.50400
C  34.68900 50.24100 29.19600
C  35.06400 50.39700 27.67100
C  33.22200 50.12800 29.22600
C  36.72200 49.07600 30.42000
C  36.56700 48.53400 31.84900
H  35.24000 48.44700 32.62700
N  35.64100 50.92100 24.67100
C  35.14000 51.85300 25.56500
C  34.88800 53.07300 24.89800
C  35.34600 52.92100 23.54200
C  35.72800 51.46700 23.42200
C  34.41600 54.29200 25.51900
C  35.54200 53.92700 22.43500
O  35.66800 53.56900 21.26700
C  35.36300 55.40600 22.69600
N  36.70200 48.62300 23.01400
C  36.61600 49.54000 22.04300
C  37.00700 48.95600 20.59200
C  37.86200 47.80100 21.06100
C  37.29500 47.50100 22.54100
C  35.73300 48.69700 19.77400
C  39.38100 47.94800 20.98200
C  39.97400 47.67600 19.54600
N  36.82300 47.11900 25.40700
C  37.39500 46.17800 24.57800
C  37.52100 44.95800 25.31700
C  37.02900 45.22900 26.58600
C  36.61700 46.56500 26.62100
C  38.09100 43.67600 24.86700
C  36.84800 44.61200 27.92900
O  36.96600 43.42600 28.33800
C  36.38000 45.80200 28.79700
C  35.20100 45.33200 29.62100
O  34.09000 45.61700 29.36800
O  35.58700 44.74300 30.79500
C  34.57600 44.33300 31.69500
H  34.60400 52.41600 27.66200
H  36.28600 51.42200 21.40900
H  38.08500 45.55000 22.62000
H  34.73400 48.23500 29.93500
H  35.14400 51.06400 29.74600
H  32.81500 50.17900 28.21600
H  32.79300 50.99700 29.72700
H  32.89200 49.24500 29.77300
H  36.95500 50.14000 30.38300
H  37.52500 48.57600 29.87800
H  37.13800 49.15300 32.54200
H  36.97500 47.55600 32.10400
H  33.66400 54.10700 26.28700
H  33.93200 55.03400 24.88400
H  35.24500 54.80900 26.00100
H  35.84600 56.02900 21.94400
H  35.89200 55.53300 23.64000
H  34.31700 55.69300 22.80400
H  37.59900 49.74700 20.13100
H  37.63600 46.96000 20.40500
H  34.87600 49.11900 20.29900
H  35.65700 47.61000 19.74300
H  35.72500 49.22100 18.81900
H  39.82300 47.18800 21.62700
H  39.66800 48.97200 21.21800
H  39.24300 47.33600 18.81200
H  40.74000 46.90500 19.63000
H  40.56800 48.53100 19.22300
H  39.12800 43.56500 25.18300
H  37.88700 43.35900 23.84400
H  37.60900 42.87200 25.42400
H  37.22600 45.96700 29.46500
H  34.99600 44.38600 32.70000
H  34.33800 43.33300 31.33300
H  33.70600 44.98500 31.62400

