158

Mg 49.76200 46.05400 43.36400
C  46.59600 46.87600 42.12900
C  49.65500 43.05500 41.51200
C  53.12100 45.67900 43.77300
C  50.02400 49.42500 44.44100
N  48.31000 45.20000 41.85600
C  47.05200 45.63500 41.58600
C  46.33300 44.72400 40.67000
C  47.14000 43.38300 40.88800
C  48.48700 43.87000 41.47300
C  46.47600 42.22300 41.71400
C  46.15300 45.14200 39.14300
C  44.69800 44.86900 38.59200
H  44.68800 43.77000 37.52000
N  51.18300 44.60500 42.79700
C  50.88400 43.42600 42.09400
C  52.14300 42.65300 41.87700
C  53.18400 43.52900 42.38200
C  52.52800 44.68300 43.03100
C  52.33700 41.37500 41.16200
C  54.66800 43.20100 42.32900
O  55.02800 42.15300 41.82000
C  55.83200 44.05200 42.84700
N  51.39400 47.41800 43.92400
C  52.66300 46.95300 44.15900
C  53.46900 48.08500 44.82600
C  52.51000 49.30700 44.91600
C  51.19800 48.66000 44.51800
C  54.11100 47.65100 46.17000
C  52.81200 50.58300 44.00100
C  52.43700 51.90500 44.74500
N  48.54600 47.76000 43.38800
C  48.74400 49.02300 43.92000
C  47.52600 49.82700 43.76300
C  46.66600 48.99200 43.10400
C  47.35900 47.79200 42.88500
C  47.29400 51.27000 44.25400
C  45.27500 48.85400 42.59400
O  44.30200 49.64000 42.58800
C  45.22500 47.44100 41.90900
C  44.12500 46.75400 42.66100
O  44.01500 46.55200 43.85700
O  43.26100 46.17500 41.75400
C  42.32300 45.16300 42.31900
H  49.57600 42.02900 41.14500
H  54.18700 45.54400 43.97000
H  49.98500 50.40300 44.92600
H  45.31400 44.55400 41.01900
H  47.45600 42.90100 39.96400
H  47.13700 41.94000 42.53300
H  46.39400 41.30500 41.13200
H  45.56500 42.56300 42.20600
H  46.88800 44.63700 38.51700
H  46.33300 46.21700 39.12500
H  44.15300 45.77600 38.33100
H  44.11100 44.39500 39.37900
H  51.32800 41.08500 40.87100
H  52.60000 40.58600 41.86600
H  52.98700 41.44400 40.28900
H  56.81700 43.61400 42.68400
H  55.62000 44.19600 43.90700
H  55.76600 44.97900 42.27800
H  54.25100 48.28900 44.09500
H  52.46500 49.60100 45.96400
H  53.56800 48.04600 47.02800
H  55.16400 47.93000 46.12500
H  54.15500 46.56300 46.20900
H  52.38900 50.60100 42.99600
H  53.89600 50.68600 43.96200
H  53.34600 52.48800 44.89500
H  51.99300 51.67500 45.71400
H  51.55000 52.38700 44.33700
H  47.92800 51.96200 43.69900
H  47.62100 51.23900 45.29300
H  46.23200 51.47900 44.12100
H  45.03600 47.46600 40.83600
H  41.65000 45.75000 42.94300
H  42.84500 44.44700 42.95500
H  41.85000 44.74200 41.43200
Mg -10.87100 16.83500 41.33800
C  -7.58300 15.52000 41.02900
C  -9.67400 19.96300 40.75200
C  -14.04200 17.74400 40.99800
C  -11.90000 13.39600 41.64700
N  -8.83900 17.60900 40.83600
C  -7.63100 16.92600 40.87100
C  -6.49900 17.92700 40.58400
C  -7.14800 19.31200 40.81800
C  -8.60900 18.97500 40.81100
C  -6.68100 20.06600 42.04500
C  -5.81700 17.79100 39.06500
C  -4.29000 17.52000 39.00800
H  -3.78200 16.31600 38.17400
N  -11.77800 18.62800 40.94400
C  -11.15100 19.82300 40.70900
C  -12.13200 20.85300 40.49700
C  -13.40700 20.24200 40.62300
C  -13.14100 18.80100 40.81400
C  -11.79500 22.26400 40.14100
C  -14.80300 20.96800 40.45500
O  -14.79100 22.16500 40.21200
C  -16.17500 20.30000 40.55000
N  -12.67500 15.70300 41.30700
C  -13.86400 16.34000 41.13800
C  -15.07400 15.36100 41.31900
C  -14.30600 13.98300 41.50900
C  -12.83900 14.36400 41.53500
C  -16.11800 15.69500 42.45300
C  -14.74300 12.83500 40.55500
C  -14.98800 11.55100 41.35200
N  -10.01400 14.82300 41.41500
C  -10.54300 13.53700 41.58700
C  -9.53900 12.59800 41.63600
C  -8.29900 13.30500 41.48800
C  -8.67000 14.66300 41.24300
C  -9.80500 11.12300 41.89200
C  -6.89000 13.15800 41.53200
O  -6.24200 12.15500 41.78900
C  -6.39900 14.53000 41.09000
C  -5.37000 14.89700 42.00000
O  -5.45100 15.49400 43.05900
O  -4.16900 14.42600 41.45500
C  -2.98500 14.55700 42.32500
H  -9.33100 20.99800 40.69000
H  -15.03700 18.19200 40.95600
H  -12.17400 12.42600 42.06600
H  -5.65200 17.73800 41.24300
H  -6.98500 20.00000 39.98800
H  -5.68400 19.77700 42.37800
H  -7.36100 19.73100 42.82800
H  -6.71100 21.13700 41.84400
H  -6.09500 18.71900 38.56400
H  -6.26200 16.92800 38.57000
H  -3.87600 17.36800 40.00500
H  -3.78700 18.42000 38.65400
H  -12.17500 22.46800 39.14000
H  -10.73400 22.48600 40.02200
H  -12.14800 22.94400 40.91600
H  -16.14400 19.43700 39.88600
H  -17.02300 20.94900 40.32900
H  -16.26800 19.99600 41.59200
H  -15.67800 15.47400 40.41900
H  -14.48200 13.61100 42.51800
H  -16.12900 15.03200 43.31800
H  -17.09500 15.77000 41.97600
H  -15.84000 16.73200 42.64400
H  -13.94500 12.70000 39.82500
H  -15.65700 13.21500 40.09800
H  -15.84100 11.79000 41.98800
H  -14.15300 11.50100 42.05100
H  -15.09900 10.55300 40.93000
H  -10.58400 10.78600 41.20900
H  -10.04600 10.76400 42.89200
H  -8.93000 10.56700 41.55700
H  -5.89700 14.56400 40.12300
H  -2.57800 15.56700 42.38100
H  -2.18100 13.92100 41.95600
H  -3.17400 14.18400 43.33200

