158

Mg 35.34000 2.92100 30.23100
C  32.75500 3.86200 32.35400
C  37.41900 3.05200 32.99700
C  37.99700 2.56900 28.25600
C  33.23400 3.08400 27.59000
N  35.14500 3.48600 32.33300
C  33.99000 3.83900 32.97800
C  34.11600 3.90100 34.53800
C  35.65600 3.87500 34.66200
C  36.13100 3.39800 33.22000
C  36.06000 5.22600 35.09900
C  33.43900 2.65300 35.12500
C  33.11100 2.58700 36.65900
H  33.67900 3.68700 37.68800
N  37.42600 2.76100 30.55800
C  38.05900 2.72700 31.78300
C  39.44100 2.47100 31.61900
C  39.55200 2.20800 30.24600
C  38.31900 2.57700 29.63200
C  40.35300 2.40600 32.79500
C  40.76300 1.63500 29.40400
O  40.69300 1.34800 28.19700
C  42.07800 1.43900 30.13200
N  35.60700 3.00500 28.20400
C  36.80200 2.79400 27.57800
C  36.59900 2.46900 26.03900
C  35.03100 2.54100 25.91000
C  34.56200 2.87400 27.30500
C  37.32500 3.27400 24.93100
C  34.38800 1.26500 25.35500
C  34.15700 0.00300 26.26100
N  33.30700 3.36800 29.96700
C  32.57500 3.36200 28.82100
C  31.18200 3.65300 29.14400
C  31.22600 3.83700 30.57000
C  32.53000 3.69000 30.99700
C  30.20900 3.67900 28.14400
C  30.36400 4.17700 31.71100
O  29.22600 4.54800 31.77300
C  31.37500 4.24300 32.93400
C  31.41700 5.61400 33.42800
O  31.30400 6.62200 32.73100
O  31.41700 5.55800 34.80200
C  31.62600 6.81400 35.54900
H  38.05800 3.25300 33.86000
H  38.85700 2.60800 27.58600
H  32.55100 2.96800 26.74500
H  33.44000 4.68500 34.87900
H  35.98700 3.16800 35.42300
H  36.17100 5.14900 36.18000
H  35.38600 6.06100 34.90900
H  37.05600 5.53600 34.78200
H  33.99600 1.76200 34.83700
H  32.45000 2.39600 34.74300
H  33.49300 1.68500 37.13700
H  32.02900 2.47000 36.71700
H  40.20000 1.49400 33.37200
H  40.27900 3.35900 33.31800
H  41.39900 2.44700 32.49000
H  42.81800 1.28200 29.34600
H  42.04800 0.63100 30.86200
H  42.34200 2.40900 30.55200
H  36.90200 1.43300 25.89200
H  34.79400 3.37900 25.25500
H  38.27900 2.85400 24.61500
H  37.60200 4.23800 25.35900
H  36.64400 3.35000 24.08300
H  35.06500 0.92600 24.57100
H  33.51800 1.56400 24.77000
H  35.06700 -0.58500 26.14300
H  33.36200 -0.61800 25.84700
H  34.15500 0.30400 27.30800
H  30.12800 2.75300 27.57400
H  30.54700 4.48900 27.49800
H  29.26600 4.00200 28.58700
H  30.99100 3.62300 33.74400
H  30.64200 7.18000 35.84100
H  32.11200 7.60000 34.97000
H  32.26100 6.73600 36.43200
Mg -4.99200 25.89300 25.67100
C  -3.82400 27.41200 28.66400
C  -6.76700 23.70000 27.62100
C  -5.75200 24.31100 22.88400
C  -2.60700 27.93800 23.90700
N  -5.23500 25.66400 27.90200
C  -4.74300 26.39400 28.97300
C  -5.29400 25.88800 30.31000
C  -6.07800 24.59600 29.90200
C  -5.96100 24.56500 28.36000
C  -5.64000 23.31700 30.59400
C  -6.22700 26.96600 31.05900
C  -5.86300 27.34500 32.57400
H  -5.35300 26.13300 33.41100
N  -6.08100 24.27800 25.31400
C  -6.81900 23.53600 26.24100
C  -7.63400 22.63000 25.49800
C  -7.45700 22.76200 24.09500
C  -6.40800 23.86600 24.00700
C  -8.58200 21.61900 26.17900
C  -8.16700 22.11100 22.92800
O  -7.79000 22.22400 21.74800
C  -9.52600 21.40000 23.14100
N  -4.20900 26.12200 23.68100
C  -4.72700 25.32600 22.70100
C  -4.01700 25.65700 21.33200
C  -3.27900 27.02000 21.62400
C  -3.37900 27.04800 23.14300
C  -3.13800 24.50300 20.84000
C  -3.94700 28.19500 20.90400
C  -2.97400 28.82500 19.89000
N  -3.54300 27.43300 26.16300
C  -2.69200 28.13000 25.36400
C  -1.89100 29.03300 26.14800
C  -2.35000 28.81800 27.42600
C  -3.35700 27.80200 27.40300
C  -0.83900 30.13400 25.70400
C  -2.15800 29.24300 28.75600
O  -1.44900 30.05500 29.24200
C  -3.12200 28.36900 29.59800
C  -2.29600 27.64200 30.56800
O  -1.49900 26.77400 30.36300
O  -2.60500 28.09300 31.91000
C  -1.62800 27.61300 32.87600
H  -7.29600 23.02400 28.29600
H  -5.98400 23.88600 21.90600
H  -1.89600 28.65100 23.48400
H  -4.40900 25.65200 30.90100
H  -7.12900 24.73600 30.15300
H  -6.49400 22.84600 31.08200
H  -4.85300 23.54300 31.31400
H  -5.21500 22.69200 29.80900
H  -7.24600 26.58000 31.09300
H  -6.29200 27.90000 30.50100
H  -6.83600 27.71400 32.89800
H  -5.13400 28.13900 32.41100
H  -9.55800 22.10400 26.20700
H  -8.24500 21.30300 27.16600
H  -8.66300 20.68100 25.63000
H  -9.28300 20.35200 23.31500
H  -9.99100 21.46700 22.15700
H  -10.16900 21.94400 23.83300
H  -4.78200 25.75800 20.56300
H  -2.24200 26.88000 21.31700
H  -2.09700 24.81800 20.90400
H  -3.47700 24.22400 19.84200
H  -3.27500 23.71800 21.58400
H  -4.26100 28.89900 21.67500
H  -4.81800 27.85400 20.34400
H  -3.31000 28.48200 18.91100
H  -1.92100 28.55400 19.96000
H  -3.00300 29.91100 19.98200
H  -0.19700 30.51500 26.49800
H  -1.31900 30.94000 25.14900
H  -0.15700 29.67400 24.99000
H  -3.83400 28.98000 30.15200
H  -2.02200 26.68700 33.29500
H  -1.65800 28.29800 33.72300
H  -0.57600 27.49700 32.61400

