158

Mg 17.24500 -2.81200 27.35600
C  16.47100 -0.80900 30.22000
C  19.38500 -4.66900 29.59400
C  18.39800 -4.48900 24.78800
C  15.75900 -0.51400 25.35300
N  17.97700 -2.63900 29.66500
C  17.44100 -1.78900 30.56700
C  17.85900 -2.17900 32.03300
C  18.86200 -3.40500 31.74000
C  18.67200 -3.59200 30.24200
C  20.35700 -3.20700 32.26100
C  16.65300 -2.49300 32.95100
C  16.56800 -1.70700 34.24400
H  17.80900 -1.24800 35.08900
N  18.61900 -4.40700 27.20000
C  19.37300 -4.96500 28.20600
C  20.18300 -6.10700 27.64800
C  19.94700 -6.02500 26.23000
C  18.93800 -4.99100 26.01100
C  21.13700 -6.95000 28.49800
C  20.47500 -6.89400 25.13400
O  20.19600 -6.81300 23.97500
C  21.32900 -8.06600 25.54200
N  17.11900 -2.52800 25.39200
C  17.63200 -3.37700 24.54700
C  17.45700 -2.92600 23.13500
C  16.37900 -1.68200 23.25700
C  16.45800 -1.51400 24.73800
C  18.84200 -2.51700 22.52700
C  14.95200 -2.04200 22.78800
C  14.17000 -0.92200 22.11800
N  16.21900 -1.03700 27.69100
C  15.66500 -0.24900 26.71900
C  14.87800 0.78500 27.38500
C  15.10600 0.54200 28.81300
C  16.00800 -0.53200 28.91700
C  14.07900 1.84100 26.71700
C  14.83000 1.09500 30.19100
O  14.11800 2.02800 30.58100
C  15.80100 0.25800 31.12700
C  16.60200 1.33200 31.73100
O  17.71300 1.64300 31.35100
O  15.93700 2.00300 32.72600
C  16.66000 2.94900 33.60400
H  20.01500 -5.28500 30.23900
H  18.61200 -5.14000 23.93700
H  15.20000 0.15000 24.69000
H  18.40700 -1.28500 32.33200
H  18.41700 -4.27100 32.23000
H  20.49500 -2.39900 32.98000
H  20.95300 -2.98400 31.37600
H  20.64500 -4.10600 32.80500
H  16.45400 -3.54300 33.16200
H  15.74600 -2.19600 32.42300
H  15.98300 -2.27600 34.96700
H  16.11900 -0.72300 34.11300
H  22.13000 -6.97300 28.04900
H  20.86700 -8.00400 28.56100
H  21.26400 -6.76100 29.56400
H  20.87100 -8.76500 26.24100
H  22.24500 -7.68200 25.99000
H  21.65600 -8.66900 24.69500
H  16.91300 -3.73100 22.64000
H  16.72000 -0.79000 22.73100
H  19.61400 -2.79400 23.24500
H  18.89900 -1.44100 22.35800
H  19.03000 -2.97700 21.55700
H  14.34300 -2.38500 23.62500
H  15.06700 -2.93600 22.17600
H  14.77200 -0.01500 22.06400
H  13.22100 -0.74900 22.62600
H  13.98200 -1.06400 21.05400
H  13.92100 2.65300 27.42700
H  13.09100 1.39900 26.58800
H  14.40600 2.17800 25.73300
H  15.18200 -0.11000 31.94600
H  17.66100 2.56600 33.80200
H  16.08200 3.31200 34.45300
H  16.79600 3.89500 33.08100
Mg 46.42600 34.34700 28.18000
C  44.87000 32.30100 30.45500
C  46.42900 36.93100 30.30300
C  47.35300 36.52500 25.58800
C  46.08200 31.91300 25.71800
N  45.79900 34.49200 30.14300
C  45.33100 33.53800 30.98000
C  45.25600 33.95800 32.44000
C  45.60400 35.53600 32.33800
C  45.89200 35.70000 30.82100
C  44.66500 36.55600 32.90800
C  46.39100 33.25300 33.34200
C  46.21800 33.35000 34.86000
H  45.23800 34.27500 35.56600
N  47.06200 36.38700 28.09400
C  46.94500 37.27800 29.09400
C  47.37800 38.59000 28.69100
C  47.75200 38.54200 27.30400
C  47.39400 37.08600 26.93100
C  47.38400 39.88000 29.56100
C  48.39100 39.59900 26.33500
O  48.83100 39.30400 25.23300
C  48.71100 41.01200 26.76000
N  46.83300 34.16100 26.04500
C  47.02000 35.24900 25.18100
C  47.10000 34.90900 23.74200
C  46.84600 33.35500 23.80600
C  46.52900 33.10300 25.34200
C  46.24600 35.72200 22.78200
C  47.98000 32.47500 23.24900
C  49.24100 32.38100 24.17500
N  45.68000 32.46000 28.06000
C  45.56700 31.58800 26.95000
C  44.89800 30.34700 27.40300
C  44.49200 30.63000 28.73600
C  45.08600 31.88600 29.11100
C  44.62900 29.07800 26.51900
C  43.84200 30.09400 29.83600
O  43.26800 29.07200 30.02900
C  43.87600 31.28600 30.94700
C  44.09600 30.91300 32.42900
O  45.00800 30.27500 32.87000
O  42.96200 31.34700 33.12800
C  43.03900 31.08300 34.57900
H  46.53200 37.71500 31.05700
H  47.46200 37.32300 24.85100
H  45.88800 31.18600 24.92700
H  44.28200 33.74300 32.87900
H  46.53500 35.70300 32.87900
H  44.40800 37.36200 32.21900
H  45.00400 36.91700 33.87900
H  43.77900 35.94400 33.07500
H  47.32700 33.77900 33.15600
H  46.48900 32.20600 33.05700
H  47.23400 33.63900 35.13100
H  45.85800 32.35200 35.11000
H  48.37100 40.32300 29.42500
H  47.18800 39.65400 30.60900
H  46.69000 40.64700 29.21800
H  47.81100 41.31800 27.29400
H  48.83800 41.67100 25.90200
H  49.67300 41.00100 27.27300
H  48.07700 34.94100 23.26000
H  45.90800 33.06600 23.33200
H  46.81400 36.54100 22.34000
H  45.29100 36.02600 23.21100
H  46.09200 35.00200 21.97900
H  48.25300 32.90600 22.28500
H  47.60900 31.46200 23.09700
H  50.15400 32.79200 23.74400
H  49.55600 31.38700 24.49300
H  49.05600 32.92500 25.10100
H  45.60400 28.82000 26.10400
H  44.01400 29.45200 25.70000
H  44.31900 28.23400 27.13500
H  42.96200 31.86000 30.79300
H  42.37400 31.82400 35.02400
H  44.03000 31.25800 34.99700
H  42.78200 30.09400 34.95900

