158

Mg 41.86700 7.92200 29.48300
C  43.74600 9.46400 31.86600
C  39.61800 6.76100 31.83600
C  40.42800 6.12500 27.05600
C  44.46300 8.87000 27.12100
N  41.63700 8.27500 31.51500
C  42.50800 8.90300 32.29700
C  42.08300 8.91000 33.79300
C  40.95800 7.87800 33.82300
C  40.64800 7.61000 32.31400
C  40.98900 6.62400 34.76200
C  41.71400 10.39600 34.33100
C  41.00600 10.37800 35.67400
H  41.24400 11.46200 36.78300
N  40.14600 6.80000 29.35900
C  39.39400 6.44600 30.48500
C  38.30400 5.65900 30.01200
C  38.43200 5.51600 28.60900
C  39.73800 6.06800 28.27600
C  37.20900 5.06200 30.95600
C  37.50500 4.85100 27.54300
O  37.83700 4.76100 26.40400
C  36.16700 4.43100 27.91600
N  42.46000 7.50200 27.42400
C  41.55900 6.83000 26.60300
C  41.91000 6.89100 25.13200
C  43.04200 7.95100 25.14200
C  43.36500 8.16600 26.65400
C  42.20900 5.56900 24.31500
C  42.74700 9.23100 24.38000
C  41.78400 10.24500 25.05400
N  43.69400 8.90600 29.45700
C  44.63100 9.13800 28.45900
C  45.76800 9.84900 29.00600
C  45.45500 10.01800 30.35400
C  44.23300 9.38900 30.56700
C  46.88900 10.45000 28.23600
C  45.94700 10.59000 31.60700
O  47.03100 11.11900 31.94200
C  44.75100 10.29800 32.67100
C  45.34900 9.69700 33.85900
O  45.98100 8.63300 33.87500
O  44.99500 10.46200 34.87100
C  45.61600 10.24000 36.13800
H  38.86300 6.43800 32.55500
H  40.03800 5.43300 26.30700
H  45.04000 9.37500 26.34300
H  42.84000 8.43100 34.41400
H  40.02800 8.33500 34.16000
H  40.85800 5.69500 34.20700
H  40.05800 6.68000 35.32600
H  41.84200 6.48300 35.42600
H  41.10200 10.75300 33.50200
H  42.60500 11.00500 34.48300
H  41.07500 9.40300 36.15600
H  39.93100 10.46600 35.51800
H  36.19400 5.38200 30.72200
H  37.38600 5.47200 31.95000
H  37.35100 3.98400 31.03900
H  35.67700 4.01400 27.03600
H  35.52600 5.27300 28.17800
H  36.24300 3.83300 28.82300
H  40.99600 7.27700 24.68100
H  43.84300 7.40200 24.64800
H  43.08500 5.57500 23.66700
H  41.32400 5.45900 23.68900
H  42.34500 4.79000 25.06500
H  42.27200 8.95300 23.44000
H  43.61100 9.84500 24.12500
H  41.05300 10.57200 24.31400
H  42.38300 11.11600 25.32100
H  41.11900 9.76200 25.77000
H  47.37100 9.58800 27.77500
H  47.52100 10.86700 29.02000
H  46.43700 11.12700 27.51100
H  44.17500 11.13800 33.05700
H  44.92400 9.62200 36.70900
H  45.96900 11.19000 36.54000
H  46.53800 9.67100 36.01600
Mg 16.78000 52.45300 24.64900
C  18.15700 51.39000 27.71200
C  14.13700 53.72900 26.36600
C  15.57800 53.61600 21.75300
C  19.32300 50.86600 23.03300
N  16.16000 52.29400 26.88600
C  16.93700 52.04600 27.92200
C  16.30900 52.48500 29.25700
C  14.89200 52.92600 28.79300
C  15.09100 53.12000 27.19300
C  13.72000 51.92600 28.93900
C  17.13400 53.53700 30.11400
C  17.47900 53.30800 31.71500
H  16.66100 52.28500 32.48900
N  14.97100 53.39300 24.12500
C  14.02300 53.92100 24.95200
C  13.09000 54.64100 24.17500
C  13.42500 54.54000 22.84200
C  14.75300 53.86500 22.84300
C  11.89800 55.42700 24.88000
C  12.74900 55.10400 21.58800
O  13.27000 55.00200 20.47400
C  11.38400 55.79700 21.68300
N  17.30100 52.18400 22.59900
C  16.77100 52.87900 21.57000
C  17.45800 52.66600 20.20900
C  18.60800 51.81500 20.74800
C  18.54400 51.73500 22.24500
C  16.52700 52.00700 19.12600
C  20.05700 52.34500 20.35200
C  20.23500 52.66700 18.88200
N  18.36500 51.23300 25.20800
C  19.34200 50.61900 24.40400
C  20.33000 49.90500 25.23300
C  19.88200 50.32800 26.51400
C  18.70200 51.06000 26.45900
C  21.70300 49.37900 24.93000
C  20.32300 50.26400 27.89200
O  21.20300 49.53200 28.30100
C  19.17500 50.99800 28.71600
C  18.63000 49.86800 29.55600
O  17.73500 49.08100 29.24100
O  19.19900 49.73000 30.79400
C  18.55400 48.88700 31.81100
H  13.36700 54.24400 26.94300
H  15.14700 53.99400 20.82400
H  20.08600 50.44700 22.37300
H  16.40000 51.53800 29.79000
H  14.65900 53.89700 29.22900
H  13.96700 51.20600 29.71900
H  13.51900 51.41900 27.99500
H  12.81700 52.48100 29.19000
H  16.79000 54.56000 29.96500
H  18.08400 53.50700 29.58200
H  17.34000 54.27200 32.20500
H  18.56100 53.19100 31.77100
H  11.80800 56.35400 24.31300
H  12.24300 55.80000 25.84400
H  11.02100 54.78400 24.96200
H  11.12100 56.07100 20.66100
H  11.45800 56.74800 22.21100
H  10.67500 55.09700 22.12400
H  17.77600 53.64700 19.85700
H  18.39900 50.83500 20.31800
H  16.89800 51.05800 18.73800
H  16.56800 52.54700 18.18000
H  15.51000 51.91500 19.50600
H  20.96800 51.81300 20.62800
H  20.12800 53.23400 20.97800
H  21.16500 52.20600 18.54900
H  20.33400 53.72900 18.65400
H  19.45400 52.25900 18.24100
H  22.38400 50.16000 25.26700
H  21.85300 49.34700 23.85000
H  21.85100 48.40700 25.40000
H  19.52200 51.87600 29.26000
H  18.77700 47.83600 31.62900
H  17.48200 48.87600 32.00700
H  19.03300 49.16900 32.74900

