158

Mg -1.84500 34.60100 27.51000
C  -3.56600 32.82600 29.75400
C  -0.68200 36.72200 29.87600
C  -0.67800 36.72500 25.01700
C  -3.41300 32.71900 24.86200
N  -2.31500 34.92400 29.49100
C  -2.83200 33.88000 30.28800
C  -2.80500 34.27700 31.79700
C  -2.03500 35.67100 31.72400
C  -1.65900 35.80900 30.26100
C  -3.01100 36.87200 32.25600
C  -2.08000 33.19600 32.61500
C  -2.79300 32.68000 33.92700
H  -1.87400 32.56400 35.16100
N  -0.71600 36.34000 27.49400
C  -0.23600 37.01200 28.57800
C  0.75400 38.02300 28.26500
C  0.69600 38.05800 26.81900
C  -0.28500 37.02400 26.37200
C  1.54800 38.89500 29.27300
C  1.40300 39.13400 25.95000
O  1.38400 39.08000 24.71300
C  2.26200 40.18500 26.60600
N  -2.24500 34.83100 25.29400
C  -1.54700 35.72900 24.52100
C  -1.69900 35.48600 23.09000
C  -2.34500 34.10500 23.04500
C  -2.71200 33.85600 24.45000
C  -2.43100 36.63000 22.27200
C  -1.66900 32.90900 22.35500
C  -0.38100 32.42300 22.95400
N  -3.22900 33.01700 27.31000
C  -3.66400 32.29400 26.18400
C  -4.59600 31.22300 26.63800
C  -4.48700 31.34400 28.07600
C  -3.69000 32.45700 28.36200
C  -5.39000 30.31400 25.84400
C  -4.84900 30.74600 29.37300
O  -5.54400 29.73000 29.64100
C  -4.19800 31.64000 30.47200
C  -5.24800 32.04500 31.47300
O  -5.87500 33.06800 31.44400
O  -5.55000 31.00400 32.31000
C  -6.29800 31.35600 33.53900
H  -0.17600 37.16400 30.73600
H  -0.26400 37.36700 24.23700
H  -3.84900 32.05400 24.11400
H  -3.81000 34.31200 32.21700
H  -1.09800 35.63000 32.28000
H  -3.62200 37.30300 31.46300
H  -2.44500 37.68100 32.71900
H  -3.61700 36.48200 33.07400
H  -1.08400 33.53000 32.90500
H  -1.84800 32.27600 32.07900
H  -3.21100 31.70800 33.66500
H  -3.65000 33.32700 34.11800
H  1.57300 38.50000 30.28900
H  1.13600 39.89400 29.41600
H  2.57000 38.98100 28.90500
H  1.83500 40.73100 27.44700
H  2.54600 40.87400 25.81000
H  3.18500 39.64700 26.82500
H  -0.69800 35.37300 22.67400
H  -3.34700 34.28500 22.65500
H  -3.45100 36.47200 21.92400
H  -1.89800 36.84100 21.34500
H  -2.32500 37.52900 22.88000
H  -1.57100 33.23200 21.31900
H  -2.41800 32.12100 22.27600
H  0.27300 32.56100 22.09200
H  -0.51100 31.38700 23.26800
H  -0.17200 32.96300 23.87700
H  -4.84900 29.44600 25.46700
H  -5.60500 30.73100 24.86100
H  -6.27500 30.18300 26.46700
H  -3.54100 31.09400 31.14900
H  -5.90900 32.20000 34.10900
H  -6.20700 30.43500 34.11400
H  -7.33000 31.67500 33.39200
Mg -5.43100 25.58200 26.51600
C  -3.78000 26.77900 29.51700
C  -7.03700 23.22500 28.48500
C  -6.54900 24.08400 23.73900
C  -3.08500 27.18500 24.72800
N  -5.34400 25.11900 28.71300
C  -4.77800 25.84900 29.78100
C  -5.39200 25.37900 31.12500
C  -6.04500 24.05000 30.71700
C  -6.22300 24.16600 29.18300
C  -5.31800 22.76900 31.18000
C  -6.37100 26.43300 31.69300
C  -6.39300 26.63200 33.25500
H  -5.80000 25.54700 34.13700
N  -6.75400 23.94700 26.15800
C  -7.35400 23.14600 27.09600
C  -8.22900 22.15100 26.38300
C  -8.09800 22.38000 24.95600
C  -7.17000 23.58000 24.92400
C  -9.10800 21.16400 27.17400
C  -8.74300 21.61600 23.79400
O  -8.57600 21.81400 22.58800
C  -9.59700 20.43500 24.04700
N  -4.77000 25.50700 24.54800
C  -5.45600 24.87500 23.58500
C  -4.95100 25.19600 22.16100
C  -3.94200 26.35700 22.47300
C  -3.92000 26.38400 23.99500
C  -4.43900 23.95700 21.36600
C  -4.16900 27.78800 21.91300
C  -3.12300 28.48500 21.03100
N  -3.83900 26.85900 26.97000
C  -3.04900 27.44800 26.11400
C  -2.11700 28.31400 26.79200
C  -2.44900 28.13300 28.14200
C  -3.42000 27.18600 28.20200
C  -1.08800 29.23600 26.18500
C  -2.10200 28.52900 29.50300
O  -1.29200 29.39600 29.83200
C  -3.08900 27.80700 30.43400
C  -2.25200 27.08900 31.48200
O  -1.17900 26.54900 31.33800
O  -2.86400 27.15800 32.69400
C  -2.02000 26.79000 33.83900
H  -7.54600 22.53800 29.16400
H  -6.90900 23.65100 22.80400
H  -2.33400 27.81200 24.24300
H  -4.62100 25.05200 31.82200
H  -7.02400 24.00900 31.19500
H  -4.92000 22.24600 30.31000
H  -5.92300 22.13100 31.82300
H  -4.38900 22.93600 31.72600
H  -7.39800 26.27300 31.36700
H  -6.13600 27.40800 31.26700
H  -7.46100 26.63300 33.46900
H  -5.98700 27.59500 33.56900
H  -9.04500 20.14200 26.79900
H  -10.15700 21.45600 27.11600
H  -8.82500 21.04100 28.21900
H  -10.30500 20.63800 24.85200
H  -8.88000 19.68000 24.36900
H  -10.15100 20.20700 23.13600
H  -5.76100 25.61800 21.56700
H  -2.96000 26.00800 22.15300
H  -4.43300 23.04800 21.96900
H  -3.49000 24.16900 20.87300
H  -4.93900 23.89600 20.39900
H  -4.32200 28.45300 22.76400
H  -5.03900 27.65400 21.27100
H  -3.06300 29.55600 21.22200
H  -3.29600 28.41600 19.95700
H  -2.11400 28.09300 21.16500
H  -0.34800 28.62200 25.67200
H  -0.59700 29.82700 26.95800
H  -1.57400 29.90300 25.47200
H  -3.87800 28.34900 30.95500
H  -0.98700 27.12900 33.75400
H  -2.04300 25.71900 34.04200
H  -2.39100 27.43400 34.63600

