158

Mg 16.88700 -1.64600 28.54900
C  15.75100 0.66200 31.09900
C  18.95200 -3.08900 30.90000
C  18.42100 -3.22400 26.04900
C  15.10200 0.36700 26.24300
N  17.45900 -1.08800 30.73400
C  16.66200 -0.32300 31.56900
C  17.20000 -0.45200 33.06600
C  18.34300 -1.58300 32.95700
C  18.24400 -1.98000 31.43700
C  19.80500 -1.14600 33.34400
C  16.00700 -0.82700 33.94300
C  15.86900 -0.02200 35.35100
H  17.10800 0.52300 36.06200
N  18.44200 -3.00800 28.47200
C  19.13800 -3.54300 29.55200
C  19.90500 -4.73700 29.06800
C  19.63800 -4.83700 27.67300
C  18.78000 -3.72000 27.31200
C  20.67600 -5.53800 30.03000
C  20.29200 -5.74300 26.70600
O  20.20700 -5.72400 25.49500
C  21.12500 -6.91300 27.17400
N  16.79600 -1.39400 26.45100
C  17.58400 -2.10800 25.62700
C  17.22400 -1.90300 24.17400
C  15.95200 -0.88200 24.21500
C  15.86100 -0.65200 25.75100
C  18.42600 -1.22200 23.36300
C  14.68600 -1.55700 23.60600
C  13.68300 -0.68400 22.87200
N  15.62200 0.03200 28.64300
C  14.92500 0.69500 27.62400
C  14.18200 1.83300 28.19500
C  14.39100 1.75600 29.55500
C  15.33100 0.72300 29.73600
C  13.21900 2.74600 27.37600
C  14.01100 2.34900 30.82900
O  13.18600 3.25000 31.07500
C  14.93700 1.69600 31.85600
C  15.80200 2.76400 32.35600
O  16.41000 3.42900 31.58300
O  15.89500 2.84900 33.68800
C  16.76100 3.94600 34.16600
H  19.47500 -3.70200 31.63800
H  18.88600 -3.79700 25.24400
H  14.40500 0.85600 25.55800
H  17.63800 0.51900 33.30000
H  18.22300 -2.51000 33.51700
H  19.76400 -0.17900 33.84600
H  20.18000 -0.91400 32.34700
H  20.32600 -1.87400 33.96700
H  16.07000 -1.88900 34.17800
H  15.06700 -0.54100 33.47100
H  15.49900 -0.81500 36.00000
H  15.13800 0.78300 35.27000
H  20.50000 -5.25500 31.06800
H  21.76000 -5.47000 29.93900
H  20.37400 -6.58200 29.94300
H  21.87200 -6.52500 27.86600
H  21.65000 -7.40600 26.35500
H  20.44500 -7.56400 27.72400
H  17.02400 -2.88900 23.75700
H  16.20500 0.08300 23.77500
H  18.19000 -0.18500 23.12300
H  18.60800 -1.78200 22.44600
H  19.33900 -1.09700 23.94500
H  14.20200 -2.10400 24.41500
H  15.01300 -2.33800 22.91900
H  14.13600 0.30300 22.78300
H  12.80800 -0.58700 23.51500
H  13.25000 -0.87200 21.89000
H  13.11500 3.73000 27.83400
H  12.18000 2.41900 27.33900
H  13.60500 2.78400 26.35700
H  14.36500 1.32900 32.70800
H  16.63600 4.11100 35.23600
H  16.55700 4.90800 33.69500
H  17.81700 3.82100 33.92600
Mg 40.40600 9.34200 29.97800
C  42.11300 10.50600 32.84500
C  37.94300 8.29200 31.90200
C  39.32300 7.53300 27.26300
C  43.29100 10.30400 28.08500
N  40.21900 9.17700 32.18500
C  40.99900 9.80700 33.08400
C  40.32200 9.82700 34.44700
C  39.12900 8.88300 34.24300
C  39.07200 8.79800 32.68400
C  39.29700 7.48800 34.75400
C  39.73800 11.32000 34.72600
C  39.67600 11.65000 36.28500
H  40.78800 12.49300 36.98100
N  38.81000 8.08800 29.63200
C  37.84600 7.91300 30.52800
C  36.78800 7.19500 29.87200
C  37.17300 6.93400 28.52600
C  38.53300 7.48400 28.44500
C  35.50400 6.74700 30.58800
C  36.37300 6.37100 27.32700
O  36.79600 6.34600 26.16700
C  34.96900 5.96600 27.63900
N  41.14200 9.00400 27.93800
C  40.54200 8.20200 27.05500
C  41.21700 8.30600 25.62300
C  42.57700 8.92200 25.94500
C  42.34400 9.51500 27.37500
C  41.35900 6.86900 24.92800
C  43.02200 10.01100 24.87800
C  42.38600 11.44500 25.09500
N  42.30900 10.26200 30.31100
C  43.28600 10.57000 29.42400
C  44.37800 11.25700 30.18200
C  43.89100 11.22000 31.50000
C  42.65900 10.64100 31.53500
C  45.57900 11.94100 29.64300
C  44.17100 11.72700 32.80700
O  45.12700 12.44000 33.19300
C  43.07500 11.27400 33.78400
C  43.77300 10.33600 34.77400
O  44.19200 9.19900 34.43100
O  43.80400 10.87600 36.05300
C  44.50300 9.94500 36.96500
H  37.05700 8.14500 32.52200
H  39.05500 6.99900 26.34900
H  44.11400 10.72000 27.49900
H  41.01500 9.59300 35.25500
H  38.17000 9.26500 34.59400
H  38.91000 6.81400 33.98900
H  38.68000 7.47300 35.65300
H  40.31700 7.17500 34.97500
H  38.84100 11.54600 34.15000
H  40.48500 12.06600 34.45300
H  39.66000 10.76400 36.91900
H  38.79400 12.26900 36.45300
H  35.57900 6.85500 31.67000
H  35.26600 5.69900 30.40700
H  34.59500 7.26500 30.28100
H  35.04900 5.29700 28.49600
H  34.51700 5.43300 26.80300
H  34.55500 6.92800 27.94000
H  40.49000 8.87200 25.04100
H  43.35100 8.15800 26.01900
H  40.42100 6.59600 24.44300
H  41.46100 6.04700 25.63600
H  42.15400 6.81200 24.18500
H  42.88000 9.54700 23.90200
H  44.09000 10.07100 25.08700
H  42.22500 12.09700 24.23700
H  43.03400 11.92000 25.83200
H  41.44600 11.47100 25.64500
H  45.78500 12.77800 30.31000
H  45.36600 12.42000 28.68800
H  46.42700 11.27900 29.46800
H  42.63400 12.08500 34.36500
H  45.02700 10.50500 37.74000
H  45.25900 9.25600 36.58900
H  43.78000 9.50100 37.64900

