158

Mg 2.03700 -1.42500 44.14600
C  5.42000 -0.64600 43.60000
C  1.09900 1.41200 42.44900
C  -1.11100 -2.57100 44.18900
C  3.12500 -4.48400 45.59000
N  3.20700 0.10700 42.89100
C  4.57600 0.28500 43.03000
C  4.86600 1.67500 42.41200
C  3.45300 2.33800 42.29700
C  2.47100 1.24900 42.58700
C  3.33600 3.50800 43.26200
C  5.72900 1.70000 41.06700
C  6.52700 2.97700 41.02100
H  6.31600 3.83800 39.76500
N  0.21800 -0.63000 43.55100
C  0.05100 0.57400 42.89400
C  -1.38400 0.79500 42.79900
C  -2.08900 -0.30800 43.32200
C  -1.01000 -1.19400 43.84600
C  -1.98800 1.84900 41.84700
C  -3.61600 -0.51600 43.26000
O  -4.27600 0.36400 42.65900
C  -4.37700 -1.60100 44.01800
N  1.17800 -3.28900 44.68000
C  -0.19100 -3.50800 44.62600
C  -0.58800 -4.98400 44.95400
C  0.79100 -5.63600 45.28200
C  1.79500 -4.41000 45.16600
C  -1.59400 -5.22800 46.11100
C  1.21100 -6.81600 44.35900
C  1.67800 -8.10600 45.09100
N  3.90500 -2.40500 44.56900
C  4.15300 -3.55400 45.21800
C  5.58100 -3.65400 45.53700
C  6.16800 -2.51800 44.88500
C  5.05900 -1.82000 44.32500
C  6.40300 -4.70600 46.38100
C  7.40300 -1.78700 44.58300
O  8.51800 -2.06400 44.89800
C  7.03700 -0.56600 43.68600
C  7.44000 0.78500 44.33300
O  6.95000 1.16500 45.40800
O  8.38300 1.38000 43.57400
C  8.62000 2.72400 44.11100
H  0.81700 2.42400 42.15300
H  -2.12600 -2.95600 44.07400
H  3.65500 -5.34500 46.00100
H  5.47800 2.07700 43.22000
H  3.22300 2.70000 41.29500
H  2.64700 3.31900 44.08500
H  2.94200 4.37400 42.73000
H  4.24700 3.97900 43.63000
H  5.10000 1.55700 40.18800
H  6.34200 0.81200 41.21600
H  7.57600 2.68400 40.99400
H  6.38800 3.55900 41.93200
H  -2.64300 1.53200 41.03500
H  -1.14500 2.45300 41.51100
H  -2.63600 2.37600 42.54600
H  -5.34800 -1.19100 44.29600
H  -3.82500 -1.97300 44.88200
H  -4.67200 -2.36800 43.30200
H  -1.00600 -5.52800 44.10700
H  0.85400 -5.91200 46.33400
H  -2.00800 -4.33800 46.58400
H  -1.08400 -5.61100 46.99500
H  -2.41200 -5.92700 45.93400
H  2.01700 -6.53800 43.68100
H  0.37800 -7.25200 43.80700
H  1.49200 -8.20700 46.16000
H  2.72900 -8.34000 44.91800
H  1.21800 -8.97300 44.61700
H  6.85000 -4.06000 47.13700
H  7.17300 -5.19600 45.78600
H  5.76100 -5.48100 46.80000
H  7.42300 -0.68300 42.67400
H  7.81900 3.39500 43.80100
H  9.50900 3.23100 43.73400
H  8.61400 2.83100 45.19600
Mg 41.50000 8.71700 29.45500
C  43.29700 10.04900 32.20100
C  39.16200 7.59600 31.67000
C  39.79200 7.54200 26.83200
C  44.13100 9.76300 27.28000
N  41.38700 8.65800 31.69900
C  42.16200 9.31900 32.60200
C  41.61500 9.13200 34.00200
C  40.41800 8.17300 33.79500
C  40.31200 8.09200 32.32400
C  40.56600 6.81300 34.53300
C  41.34000 10.53000 34.73600
C  41.42500 10.43400 36.28800
H  41.37300 11.72300 37.25200
N  39.70200 7.68200 29.31800
C  38.80700 7.38800 30.34200
C  37.52800 6.91500 29.72900
C  37.66100 7.09800 28.29900
C  39.11000 7.41700 28.11100
C  36.37900 6.34200 30.56400
C  36.58600 7.02200 27.21900
O  36.82400 7.35100 26.02600
C  35.19000 6.65600 27.67000
N  42.04500 8.49000 27.30800
C  41.07600 8.03100 26.47200
C  41.57800 8.17200 25.07700
C  42.98700 8.79600 25.16700
C  43.06700 9.01700 26.68400
C  41.53300 6.87200 24.24300
C  43.15800 10.16700 24.29100
C  42.57200 11.48100 24.92600
N  43.39800 9.62100 29.65200
C  44.31400 10.04100 28.69300
C  45.28800 10.91500 29.33200
C  44.94800 10.93600 30.67800
C  43.80400 10.13600 30.82300
C  46.42100 11.52000 28.50400
C  45.39800 11.34700 32.01300
O  46.40600 11.98200 32.34700
C  44.27500 10.79300 33.00200
C  45.00900 9.86300 33.99600
O  45.64400 8.82000 33.77300
O  45.01400 10.59500 35.20800
C  45.54600 9.84500 36.40700
H  38.27500 7.45700 32.29100
H  39.24700 7.13100 25.98000
H  44.81700 10.16600 26.53200
H  42.35500 8.62900 34.62500
H  39.47000 8.63400 34.07200
H  39.61600 6.67600 35.04800
H  41.43600 6.81600 35.18900
H  40.62600 6.02200 33.78600
H  40.35000 10.85600 34.41600
H  41.93300 11.39500 34.44100
H  42.32800 9.90400 36.59100
H  40.59500 9.82600 36.64800
H  36.36500 6.36200 31.65400
H  36.21400 5.35600 30.13000
H  35.60600 7.03100 30.22400
H  34.53100 6.48000 26.82000
H  34.73900 7.53700 28.12700
H  35.03200 5.78700 28.30800
H  40.88100 8.90200 24.66400
H  43.67300 8.00200 24.87100
H  40.52500 6.81800 23.83100
H  41.80200 5.94000 24.74000
H  42.23100 6.76100 23.41300
H  42.59000 10.09000 23.36400
H  44.19600 10.39400 24.04700
H  41.97600 11.36100 25.83100
H  41.81000 11.85900 24.24500
H  43.36300 12.21100 25.09500
H  47.03400 10.77600 27.99600
H  46.90600 12.30800 29.08000
H  45.78300 11.95800 27.73700
H  43.86500 11.56500 33.65200
H  46.10600 8.97800 36.05700
H  44.67300 9.47500 36.94500
H  46.23900 10.39200 37.04500

