158

Mg 8.02600 2.43200 27.93200
C  9.34000 1.24300 31.00500
C  6.21800 4.68700 29.77000
C  6.66100 3.27300 25.10300
C  9.79600 -0.10900 26.29500
N  7.46100 2.72400 30.26400
C  8.35800 2.29800 31.26100
C  8.07300 2.98600 32.62000
C  6.84400 3.93400 32.28300
C  6.80200 3.83000 30.67700
C  5.38700 3.63000 32.92200
C  9.30800 3.77500 33.09100
C  9.13000 4.74500 34.22900
H  10.09800 4.60100 35.42300
N  6.59900 3.79700 27.48400
C  5.95500 4.64900 28.37900
C  4.98100 5.44100 27.60000
C  5.16900 5.08400 26.20900
C  6.15500 3.97200 26.21700
C  4.13400 6.47000 28.28100
C  4.48200 5.57300 24.95800
O  4.70000 5.25100 23.78800
C  3.34800 6.54300 25.13400
N  8.13500 1.66400 25.88700
C  7.48300 2.20100 24.89700
C  7.77400 1.55500 23.53800
C  9.04500 0.68900 23.82000
C  9.04500 0.75800 25.44000
C  6.49200 0.78900 23.20100
C  10.37000 1.27800 23.20400
C  11.24600 2.14100 24.11700
N  9.23400 0.90800 28.45400
C  9.89100 -0.02600 27.67700
C  10.88500 -0.78200 28.46600
C  10.71500 -0.31900 29.78700
C  9.67600 0.65800 29.73500
C  11.86500 -1.84600 27.96300
C  11.14900 -0.46300 31.06200
O  11.95500 -1.28600 31.48500
C  10.28700 0.53600 31.97300
C  9.78000 -0.21800 33.15200
O  9.36700 -1.36100 33.14100
O  9.78100 0.57800 34.26700
C  9.04000 0.02800 35.42300
H  5.87700 5.55700 30.33500
H  6.31100 3.58600 24.11700
H  10.53500 -0.76800 25.83700
H  7.72800 2.22100 33.31600
H  7.12100 4.97600 32.43800
H  4.71400 3.34000 32.11600
H  5.07000 4.42900 33.59200
H  5.43000 2.88900 33.72000
H  9.75300 4.33100 32.26500
H  10.19600 3.20500 33.36500
H  8.11100 4.67300 34.61100
H  9.20700 5.67600 33.66900
H  4.31400 7.42800 27.79400
H  4.29600 6.50900 29.35800
H  3.07700 6.25900 28.12300
H  2.75300 6.59400 24.22200
H  3.66600 7.56200 25.35200
H  2.75000 6.14200 25.95200
H  7.86300 2.27100 22.72200
H  8.84200 -0.27500 23.35400
H  5.77400 0.90200 24.01300
H  6.48100 -0.28100 22.99600
H  6.10100 1.32100 22.33400
H  10.08700 2.00600 22.44400
H  10.93000 0.48900 22.70200
H  11.60000 2.89900 23.41800
H  12.07400 1.50400 24.42900
H  10.78400 2.46900 25.04800
H  11.28100 -2.66600 27.54500
H  12.50000 -2.21500 28.76900
H  12.53900 -1.55600 27.15800
H  11.00900 1.24600 32.37700
H  7.95200 0.08900 35.40100
H  9.55900 0.62900 36.16900
H  9.39400 -1.00100 35.48400
Mg 36.17600 49.33200 24.95000
C  36.29300 47.62200 27.96400
C  34.70900 52.04300 26.55900
C  35.87100 50.78600 21.94200
C  37.27400 46.34500 23.34900
N  35.60800 49.76400 27.04900
C  35.80600 48.92200 28.18200
C  35.47300 49.67300 29.48000
C  34.84100 51.02600 28.96100
C  35.05400 50.90600 27.39900
C  33.37800 51.33800 29.41300
C  36.84600 49.85600 30.29500
C  36.77800 49.30300 31.69600
H  36.30700 50.31400 32.71700
N  35.45900 51.15100 24.32300
C  34.97400 52.15000 25.12300
C  34.54200 53.29200 24.32400
C  34.95000 52.97400 22.98100
C  35.43400 51.59700 23.03000
C  34.09500 54.64500 24.92600
C  34.98300 53.80700 21.73000
O  35.42300 53.44500 20.62900
C  34.63100 55.27000 21.90100
N  36.48300 48.63800 22.95800
C  36.26300 49.44600 21.86400
C  36.76600 48.72600 20.51400
C  37.61000 47.58200 21.16100
C  37.04700 47.45600 22.60300
C  35.45700 48.24800 19.72400
C  39.17000 47.83600 21.16000
C  39.92500 47.25300 20.00700
N  36.75600 47.37800 25.49700
C  37.16400 46.26200 24.77500
C  37.44000 45.11600 25.65200
C  37.16800 45.62700 26.87500
C  36.73100 46.97900 26.75400
C  37.79200 43.68800 25.30400
C  37.26700 45.24000 28.29500
O  37.64700 44.20500 28.79300
C  36.68600 46.52500 29.05700
C  35.65200 46.12900 30.02900
O  34.41600 46.33200 29.97500
O  36.30400 45.52600 31.10900
C  35.34900 45.16700 32.20200
H  34.14700 52.77800 27.13900
H  35.56100 51.13700 20.95500
H  37.78600 45.60100 22.73600
H  34.77800 49.02200 30.01000
H  35.48800 51.84000 29.28700
H  32.65800 51.25800 28.59900
H  33.35700 52.33400 29.85600
H  32.96700 50.66500 30.16600
H  37.11800 50.90500 30.41100
H  37.61800 49.37100 29.69800
H  37.69600 48.74800 31.89100
H  36.05200 48.49000 31.67300
H  34.80500 55.39800 24.58500
H  34.01200 54.59700 26.01200
H  33.09200 54.87300 24.56300
H  33.64700 55.45000 22.33300
H  34.77000 55.67900 20.90000
H  35.37000 55.77000 22.52600
H  37.33200 49.41400 19.88700
H  37.44100 46.66900 20.58900
H  35.58300 47.19200 19.48200
H  35.15800 48.78000 18.82100
H  34.59400 48.23300 20.39000
H  39.68400 47.61200 22.09500
H  39.29700 48.90500 20.98900
H  39.36800 46.91700 19.13300
H  40.35900 46.32100 20.37000
H  40.64600 48.03300 19.76200
H  37.77200 43.60500 24.21700
H  37.14800 43.05100 25.90900
H  38.81400 43.51300 25.64100
H  37.50400 46.92300 29.65700
H  35.93900 45.18100 33.11900
H  34.80600 44.22200 32.20700
H  34.67800 45.99900 32.41600

