158

Mg 48.45400 45.13900 43.83400
C  45.29300 45.73000 42.31700
C  48.51200 41.99200 42.40300
C  51.80800 45.05800 44.45400
C  48.48600 48.55500 44.79700
N  47.05000 44.08200 42.42100
C  45.83200 44.46800 42.09400
C  45.08400 43.26400 41.47900
C  46.04300 42.00200 41.65800
C  47.28900 42.72500 42.20700
C  45.52900 40.85800 42.65800
C  44.67800 43.50000 39.96800
C  43.67000 42.45500 39.45400
H  44.06700 41.73400 38.12800
N  49.97500 43.69800 43.54200
C  49.73000 42.46400 42.92800
C  50.97700 41.83700 42.91200
C  51.96500 42.56400 43.65400
C  51.29600 43.81900 43.92200
C  51.14100 40.48000 42.25500
C  53.40600 42.13900 43.94000
O  53.94900 41.22600 43.32300
C  54.26600 42.84000 44.88100
N  50.00700 46.71600 44.37400
C  51.26000 46.27400 44.72400
C  52.14400 47.47700 45.10600
C  51.07200 48.54200 45.45400
C  49.75100 47.93800 44.83700
C  53.11700 47.17700 46.31000
C  51.41500 49.95600 44.89300
C  51.22500 51.00900 46.03000
N  47.17200 46.80500 43.75200
C  47.30300 48.04000 44.24900
C  46.01500 48.77100 44.06900
C  45.22800 47.84100 43.36600
C  45.99100 46.68700 43.09300
C  45.68300 50.15300 44.63500
C  43.89000 47.65000 42.64000
O  43.00800 48.45400 42.52100
C  43.90700 46.18500 41.94400
C  42.75800 45.40000 42.43000
O  42.64200 45.13300 43.63300
O  41.90000 45.05000 41.43300
C  40.75500 44.23400 41.87200
H  48.47000 40.91300 42.24200
H  52.89600 45.07400 44.54800
H  48.47000 49.60000 45.11600
H  44.16200 43.05800 42.02300
H  46.26100 41.53000 40.70000
H  46.34800 40.52500 43.29700
H  45.21100 40.12400 41.91800
H  44.64000 41.24000 43.16000
H  45.53600 43.27900 39.33400
H  44.46900 44.51200 39.62000
H  42.71000 42.95500 39.32100
H  43.54700 41.72500 40.25400
H  52.08300 40.53200 41.70900
H  50.36700 40.17300 41.55200
H  51.20700 39.76300 43.07300
H  53.81400 42.89600 45.87200
H  54.49100 43.78100 44.37900
H  55.20400 42.31900 45.07400
H  52.64200 47.68800 44.16000
H  50.92100 48.63800 46.53000
H  53.19300 48.05200 46.95600
H  54.13700 46.98800 45.97500
H  52.77200 46.29500 46.85000
H  50.82900 50.10100 43.98600
H  52.45200 50.04900 44.56900
H  50.17300 51.23700 46.20200
H  51.78400 51.93900 45.92800
H  51.48300 50.64400 47.02400
H  46.63400 50.68400 44.67700
H  45.13900 50.02100 45.57000
H  45.09800 50.73800 43.92500
H  43.70400 46.50400 40.92200
H  40.96700 43.50600 42.65600
H  40.41100 43.57000 41.07900
H  40.02400 44.93000 42.28400
Mg 35.89100 47.97600 26.60400
C  36.07600 46.00900 29.49200
C  34.81400 50.54600 28.58200
C  36.11800 49.86000 23.89400
C  36.46300 45.05500 24.72000
N  35.58400 48.27700 28.84700
C  35.75100 47.32200 29.78000
C  35.58300 47.94600 31.15400
C  34.64800 49.20100 30.83400
C  34.95500 49.34000 29.32600
C  33.10700 49.04400 31.07600
C  36.95300 48.53400 31.74800
C  37.14700 48.38900 33.26700
H  36.72600 49.47900 34.21900
N  35.43500 49.91100 26.22400
C  34.98600 50.89900 27.20600
C  34.90700 52.17700 26.60400
C  35.23600 51.98800 25.25700
C  35.62400 50.57700 25.07200
C  34.39200 53.45900 27.40400
C  35.29700 53.05400 24.05800
O  35.38500 52.74200 22.87700
C  35.08700 54.53300 24.27400
N  36.07700 47.42600 24.49100
C  36.25100 48.47900 23.60700
C  36.65200 47.88500 22.16800
C  36.57000 46.31200 22.41000
C  36.39400 46.20100 23.93100
C  35.76900 48.29500 20.96200
C  37.73300 45.45600 21.90200
C  37.55700 44.80200 20.56000
N  36.14300 45.92800 26.94200
C  36.39400 44.85500 26.04900
C  36.58400 43.60500 26.84300
C  36.57400 44.07300 28.16700
C  36.21100 45.43400 28.18100
C  36.73900 42.17300 26.28000
C  36.72300 43.63500 29.53800
O  37.07400 42.56100 29.94700
C  36.45900 44.91700 30.48400
C  35.37600 44.58700 31.40800
O  34.24400 44.19500 31.13800
O  35.84400 44.80000 32.68400
C  34.85300 44.58800 33.75600
H  34.48400 51.39100 29.19000
H  36.24300 50.54000 23.04800
H  36.65400 44.10300 24.21900
H  35.07700 47.27200 31.84600
H  34.94900 50.08900 31.38900
H  33.04400 48.15800 31.70800
H  32.58400 49.05100 30.12000
H  32.71200 49.88100 31.65300
H  37.04100 49.58000 31.45300
H  37.74800 47.94700 31.28900
H  38.21200 48.27800 33.47300
H  36.69300 47.44200 33.55900
H  34.75600 54.40400 27.00100
H  34.69200 53.31700 28.44200
H  33.30300 53.41400 27.41900
H  34.27000 54.67500 24.98300
H  34.68400 55.06300 23.41100
H  35.93000 55.08100 24.69600
H  37.67000 48.17600 21.91100
H  35.69900 45.88700 21.91100
H  34.96500 48.97200 21.25000
H  35.40400 47.49600 20.31600
H  36.35000 48.92900 20.29200
H  37.89700 44.69200 22.66300
H  38.66800 46.01000 21.81600
H  38.43600 44.99200 19.94300
H  36.67000 45.04200 19.97400
H  37.52300 43.72200 20.70400
H  36.35300 41.42500 26.97300
H  37.77300 41.99800 25.98400
H  36.18300 41.99500 25.36000
H  37.38600 45.15300 31.00700
H  35.33800 44.87100 34.69000
H  34.60200 43.54500 33.94600
H  33.95600 45.13100 33.46100

