158

Mg -2.13300 17.29600 26.52200
C  -2.50600 15.04000 29.26200
C  -2.65900 19.78800 28.70200
C  -1.77900 19.26100 23.94900
C  -1.94500 14.48400 24.41900
N  -2.59200 17.34900 28.75200
C  -2.66200 16.35000 29.68300
C  -3.16200 16.88800 31.03600
C  -3.15300 18.43900 30.82100
C  -2.71000 18.55700 29.31700
C  -4.56700 19.08800 31.11600
C  -2.50500 16.32200 32.26800
C  -2.82800 16.97200 33.58000
H  -2.13000 16.30600 34.79800
N  -2.09200 19.28800 26.35300
C  -2.38700 20.16000 27.35700
C  -2.18100 21.46400 26.78300
C  -1.85500 21.35100 25.43500
C  -1.85200 19.93200 25.19900
C  -2.29800 22.73700 27.68200
C  -1.40600 22.55300 24.42300
O  -0.94100 22.28500 23.27500
C  -1.45800 23.92700 24.87000
N  -1.93000 16.90600 24.47500
C  -1.84700 17.92500 23.62800
C  -1.91400 17.50200 22.16900
C  -1.89900 15.90700 22.29000
C  -1.87600 15.72800 23.83400
C  -3.22000 18.09700 21.55900
C  -0.69000 15.18500 21.59400
C  0.67300 15.07700 22.33800
N  -2.14300 15.14800 26.73700
C  -2.08000 14.16300 25.80400
C  -2.25300 12.88600 26.38600
C  -2.44600 13.12300 27.76200
C  -2.35500 14.54800 27.93800
C  -2.26500 11.60200 25.60900
C  -2.70800 12.55600 29.05700
O  -2.82600 11.37500 29.35600
C  -2.74200 13.77300 30.00100
C  -1.68100 13.48200 30.97100
O  -0.51000 13.86400 30.90500
O  -2.15600 12.59300 31.88900
C  -1.25200 12.01900 32.85100
H  -2.83000 20.61300 29.39700
H  -1.68700 19.91400 23.07800
H  -2.04900 13.69000 23.67700
H  -4.15900 16.45600 31.12000
H  -2.34700 18.87500 31.41200
H  -5.23600 18.27900 31.41100
H  -4.90800 19.56500 30.19800
H  -4.46300 19.92100 31.81100
H  -1.42000 16.22900 32.25400
H  -2.77200 15.27600 32.42000
H  -3.90000 16.80800 33.69100
H  -2.64100 18.04600 33.56900
H  -1.29000 23.02900 27.98000
H  -2.82400 22.61700 28.62900
H  -2.98200 23.47300 27.26000
H  -1.07200 24.68000 24.18400
H  -0.93900 23.99500 25.82600
H  -2.53100 24.11600 24.89600
H  -0.96100 17.85800 21.77700
H  -2.81500 15.41100 21.97000
H  -3.62900 18.94700 22.10600
H  -3.89900 17.25200 21.44800
H  -3.05700 18.47500 20.55000
H  -0.46500 15.74600 20.68700
H  -0.88600 14.17600 21.23100
H  1.01600 14.04800 22.23100
H  0.58400 15.31600 23.39800
H  1.27100 15.88500 21.91700
H  -1.53900 11.53200 24.79900
H  -3.24100 11.64300 25.12400
H  -2.28000 10.76800 26.31000
H  -3.72500 13.84100 30.46700
H  -1.63700 11.11200 33.31700
H  -1.08900 12.74100 33.65200
H  -0.32100 11.87700 32.30200
Mg 0.12100 7.67100 26.36300
C  0.83200 9.37700 29.21600
C  -0.12700 4.70000 28.11900
C  0.06000 5.95800 23.35400
C  0.87500 10.56700 24.44200
N  0.28300 7.08300 28.51200
C  0.40800 8.01600 29.49400
C  0.38900 7.32200 30.85200
C  -0.00900 5.82800 30.52700
C  0.05500 5.79100 28.97300
C  1.03600 4.72900 31.14400
C  -0.59400 8.15100 31.82500
C  -0.18400 8.43000 33.28300
H  0.85000 7.54100 33.90600
N  -0.10600 5.66100 25.78800
C  -0.18000 4.60300 26.69800
C  -0.46800 3.43900 25.95300
C  -0.40900 3.69400 24.53400
C  -0.22500 5.19300 24.49600
C  -0.76400 2.12100 26.66200
C  -0.64400 2.80100 23.31200
O  -0.78300 3.25600 22.20500
C  -0.79200 1.25500 23.52100
N  0.21700 8.23300 24.19700
C  0.23700 7.33900 23.22500
C  0.56600 7.92800 21.90500
C  0.35200 9.43300 22.18800
C  0.54900 9.47800 23.68900
C  1.99500 7.58100 21.48800
C  -1.04100 9.89500 21.86900
C  -1.09000 11.42600 21.94300
N  0.55900 9.61900 26.67700
C  0.90000 10.69500 25.83600
C  1.27800 11.87500 26.62100
C  1.31400 11.35200 27.96800
C  0.93900 9.97600 27.93900
C  1.66300 13.22600 26.10800
C  1.80100 11.72400 29.25900
O  2.36100 12.77600 29.62200
C  1.42700 10.54400 30.17500
C  2.59000 10.14700 30.99800
O  3.57400 9.46400 30.70700
O  2.45300 10.82700 32.20200
C  3.60100 10.85600 33.10000
H  -0.32300 3.73100 28.58300
H  0.20000 5.32200 22.47700
H  1.36200 11.34300 23.84800
H  1.41900 7.31700 31.21100
H  -0.97900 5.49800 30.89800
H  1.33300 4.10200 30.30300
H  0.50100 4.09400 31.85100
H  1.88000 5.18300 31.66300
H  -1.45500 7.48400 31.86100
H  -1.01700 9.05800 31.39300
H  -1.05800 8.27100 33.91400
H  0.07500 9.47900 33.43000
H  -1.38400 1.51000 26.00700
H  -1.38700 2.22400 27.55100
H  0.09700 1.52600 26.96700
H  -0.57600 0.77600 22.56600
H  -1.82700 0.97000 23.71000
H  -0.09800 0.81700 24.23900
H  -0.11800 7.61600 21.11700
H  1.11500 10.11300 21.80900
H  2.47100 6.74500 22.00100
H  2.74500 8.35100 21.66700
H  2.02200 7.53700 20.39900
H  -1.80500 9.70000 22.62200
H  -1.45400 9.41600 20.98100
H  -1.40300 11.78600 20.96300
H  -0.09900 11.87800 21.98800
H  -1.76700 11.79000 22.71700
H  0.91800 13.54600 25.37900
H  2.67000 13.13700 25.70000
H  1.60600 13.99700 26.87600
H  0.62400 10.75200 30.88100
H  3.25900 10.77200 34.13100
H  4.01900 11.86000 33.02300
H  4.45100 10.19700 32.92900

