158

Mg 48.58700 34.85900 27.04000
C  46.73600 33.18900 29.41000
C  49.17100 37.37200 29.41700
C  49.90700 36.62000 24.63200
C  47.58600 32.41300 24.68200
N  47.99900 35.25200 29.16400
C  47.36300 34.31100 29.96600
C  47.18600 34.80800 31.37700
C  47.54100 36.31900 31.21200
C  48.38700 36.33200 29.86700
C  46.42200 37.26100 31.05500
C  48.28500 34.00200 32.20300
C  48.23500 34.06700 33.72000
H  47.22900 34.91600 34.46000
N  49.64500 36.64700 27.01200
C  49.72200 37.54600 28.09000
C  50.46100 38.72700 27.62500
C  50.77500 38.48700 26.24000
C  50.08400 37.19400 25.86100
C  50.71400 39.93300 28.41000
C  51.55300 39.45100 25.27000
O  51.80100 39.02200 24.14000
C  52.01000 40.76600 25.48800
N  48.69100 34.56900 24.93200
C  49.36700 35.45400 24.23300
C  49.40400 34.97500 22.65900
C  48.90900 33.49900 22.78900
C  48.43100 33.42300 24.20500
C  48.59700 35.91900 21.64100
C  49.80100 32.36600 22.37200
C  49.61600 31.85700 20.91900
N  47.46500 33.06600 27.02400
C  47.15500 32.20500 25.95400
C  46.34600 31.15500 26.49200
C  46.04200 31.54100 27.86600
C  46.78400 32.70000 28.09700
C  45.90900 29.94600 25.76400
C  45.30300 31.17900 29.03400
O  44.52800 30.26500 29.32300
C  45.64300 32.30400 30.06600
C  46.14900 31.61600 31.24700
O  47.17100 30.97200 31.24400
O  45.27200 31.70100 32.26400
C  45.44200 30.67200 33.32100
H  49.33000 38.22700 30.07900
H  50.24600 37.30100 23.84900
H  47.38600 31.74200 23.84400
H  46.18900 34.69500 31.80300
H  48.19900 36.74500 31.96900
H  46.50200 38.11100 31.73200
H  45.53600 36.64500 31.21000
H  46.37700 37.68400 30.05100
H  49.29000 34.38200 32.01700
H  48.33600 32.95400 31.90600
H  49.24400 34.33200 34.03500
H  48.09000 33.02500 34.00600
H  51.80400 39.95500 28.40300
H  50.40900 39.71600 29.43400
H  50.32100 40.81800 27.90900
H  52.77200 40.75900 26.26700
H  51.19200 41.43900 25.74600
H  52.52500 41.08100 24.58100
H  50.40500 34.92900 22.23000
H  47.96400 33.38200 22.25800
H  47.82700 35.29100 21.19300
H  49.27300 36.26100 20.85800
H  48.06600 36.73900 22.12300
H  49.62600 31.52600 23.04400
H  50.87400 32.47600 22.53000
H  50.45900 32.19000 20.31300
H  48.73400 32.31400 20.47200
H  49.43100 30.78400 20.98000
H  45.10000 30.02200 25.03700
H  45.80300 29.08800 26.42700
H  46.73800 29.75100 25.08300
H  44.76400 32.81800 30.45600
H  44.82300 30.94200 34.17600
H  46.49600 30.72900 33.59400
H  45.14800 29.68500 32.96300
Mg -11.63400 38.31000 41.46700
C  -9.39200 35.69600 40.65900
C  -9.66600 40.49500 39.72400
C  -14.10300 40.52000 41.73600
C  -13.88300 35.77000 42.73800
N  -9.73200 38.10300 40.38500
C  -9.04000 36.92700 40.09000
C  -7.81700 37.24800 39.19800
C  -7.87500 38.81500 39.01900
C  -9.08000 39.20600 39.83900
C  -6.57300 39.56500 39.33500
C  -7.98600 36.49300 37.83500
C  -7.00300 35.33100 37.59500
H  -6.16900 35.33100 36.30100
N  -11.90800 40.14900 40.79200
C  -10.89200 40.94200 40.14900
C  -11.25600 42.35100 40.17100
C  -12.62200 42.35700 40.70500
C  -12.93700 40.98800 41.06500
C  -10.34000 43.51400 39.52500
C  -13.41700 43.61800 40.72400
O  -12.89300 44.66600 40.38900
C  -14.87800 43.73400 41.31100
N  -13.74800 38.07900 42.01200
C  -14.45300 39.24100 42.18500
C  -15.87700 38.89700 42.71400
C  -15.81800 37.36100 42.80600
C  -14.37700 37.07500 42.56300
C  -16.09600 39.59500 44.09900
C  -16.78600 36.52900 41.92000
C  -18.02300 36.01100 42.64900
N  -11.59300 36.26700 41.83800
C  -12.52900 35.39500 42.41500
C  -11.86600 34.08600 42.63600
C  -10.59500 34.13200 41.92600
C  -10.58100 35.45500 41.39600
C  -12.39100 32.81500 43.29200
C  -9.41600 33.42700 41.54000
O  -9.02500 32.27900 41.77600
C  -8.62400 34.40400 40.65300
C  -7.19100 34.48800 41.21000
O  -6.34100 33.62800 41.10400
O  -7.04100 35.70600 41.96100
C  -5.63400 35.89500 42.56300
H  -8.97700 41.18000 39.22700
H  -14.84500 41.31300 41.84500
H  -14.49000 34.93800 43.10000
H  -6.82400 37.03300 39.59300
H  -8.05800 39.10700 37.98500
H  -6.41400 39.71700 40.40300
H  -6.61700 40.54700 38.86400
H  -5.73900 38.93200 39.03300
H  -7.79900 37.23700 37.06100
H  -8.98600 36.06000 37.80600
H  -7.41500 34.32200 37.55300
H  -6.31100 35.16400 38.42000
H  -10.66000 43.90500 38.55900
H  -9.30100 43.22000 39.67200
H  -10.48900 44.43800 40.08400
H  -15.54600 43.22900 40.61300
H  -15.15400 44.78700 41.36800
H  -14.92300 43.33600 42.32500
H  -16.65800 39.32100 42.08300
H  -16.03100 37.27400 43.87100
H  -16.49300 40.57800 43.84600
H  -15.11700 39.68200 44.56900
H  -16.71900 39.15000 44.87500
H  -16.26200 35.65400 41.53600
H  -17.26100 37.17600 41.18200
H  -17.97100 34.93800 42.83200
H  -18.91200 36.31600 42.09700
H  -18.08900 36.49200 43.62400
H  -11.99700 32.76500 44.30700
H  -12.11400 31.96000 42.67500
H  -13.46800 32.96800 43.35100
H  -8.64500 34.03800 39.62600
H  -4.99000 35.86400 41.68400
H  -5.25200 35.15400 43.26600
H  -5.54800 36.84700 43.08700

