158

Mg 26.77500 50.59900 26.65900
C  24.75200 51.58400 29.19500
C  29.17200 49.81000 28.93600
C  28.80900 49.98600 24.11500
C  24.33500 51.58300 24.38000
N  27.00800 50.72300 28.90500
C  25.94200 51.03600 29.66100
C  26.37600 50.68000 31.19300
C  27.87100 50.25100 31.07900
C  28.01300 50.22700 29.57600
C  28.87500 51.19800 31.89200
C  25.40900 49.59500 31.81600
C  24.78200 49.99900 33.18600
H  24.99900 49.28900 34.49500
N  28.65100 49.89300 26.56300
C  29.50700 49.68200 27.57100
C  30.89500 49.46500 27.12300
C  30.82100 49.53100 25.68300
C  29.36600 49.85300 25.39800
C  32.15300 49.02100 27.90500
C  31.88500 49.37500 24.62100
O  31.53000 49.46500 23.49900
C  33.31000 49.08000 24.98100
N  26.64100 50.82200 24.50300
C  27.56000 50.28200 23.68400
C  27.03500 50.11200 22.23000
C  25.53600 50.48500 22.36400
C  25.45900 51.00900 23.82600
C  27.78200 51.14100 21.18900
C  24.58300 49.25100 22.08900
C  23.28100 49.54300 21.31600
N  25.06100 51.48700 26.73300
C  24.23600 51.91500 25.71300
C  23.02800 52.57300 26.25100
C  23.28700 52.48500 27.60400
C  24.47300 51.83200 27.83900
C  21.84700 53.03000 25.47400
C  22.63000 52.71000 28.89900
O  21.55300 53.17800 29.21100
C  23.61600 52.17300 30.01400
C  24.04300 53.24300 30.95000
O  24.80900 54.12200 30.62900
O  23.46900 53.16300 32.16600
C  23.76100 54.25300 33.17400
H  30.00000 49.61200 29.62000
H  29.36400 49.52900 23.29200
H  23.53300 51.80000 23.67100
H  26.17400 51.59700 31.74900
H  27.90800 49.20300 31.37800
H  28.33200 51.78500 32.63200
H  29.47200 51.70900 31.13600
H  29.48700 50.52500 32.49300
H  25.99900 48.68500 31.92700
H  24.61700 49.31800 31.12100
H  23.72900 49.88500 32.93000
H  24.83700 51.07300 33.36200
H  32.41600 48.01100 27.59300
H  32.02400 48.99900 28.98700
H  32.99000 49.63500 27.57300
H  33.28000 48.17300 25.58500
H  33.74000 49.94500 25.48600
H  33.84300 48.77600 24.08000
H  27.14200 49.04900 22.01100
H  25.34400 51.28500 21.64900
H  28.41400 51.70900 21.87200
H  27.14700 51.80800 20.60500
H  28.40700 50.45500 20.61700
H  24.28300 48.83400 23.05000
H  25.18200 48.65300 21.40200
H  23.06400 48.94900 20.42800
H  23.34400 50.61600 21.13500
H  22.44100 49.34200 21.98000
H  21.60600 52.31400 24.68900
H  22.08800 54.02200 25.09300
H  20.97100 53.12300 26.11600
H  23.03500 51.44100 30.57500
H  24.26300 53.70500 33.97200
H  22.78600 54.57300 33.54300
H  24.39100 55.05200 32.78500
Mg 9.68800 48.37400 26.02300
C  7.82600 48.76400 28.99000
C  12.21400 49.96300 27.55500
C  11.44000 47.97100 23.06400
C  6.68300 47.83100 24.26300
N  9.90900 49.26800 28.06200
C  9.13400 49.11500 29.12100
C  9.84700 49.55200 30.42500
C  11.01000 50.39500 29.85700
C  11.03700 49.94100 28.38900
C  10.75000 51.91400 30.06300
C  10.19100 48.29600 31.30300
C  10.09400 48.37900 32.85000
H  10.14400 47.03600 33.67900
N  11.55300 48.90100 25.32000
C  12.46200 49.52900 26.15200
C  13.78000 49.43400 25.48600
C  13.59200 48.81000 24.26700
C  12.14600 48.49700 24.18600
C  15.11000 49.86700 26.17900
C  14.54600 48.50400 23.09100
O  14.25200 48.09000 21.95900
C  16.03800 48.83200 23.24400
N  9.24100 48.07800 23.94000
C  10.10600 47.89000 22.93100
C  9.39700 47.41100 21.66100
C  7.84600 47.51400 22.07400
C  7.89800 47.81800 23.57500
C  9.78900 48.27100 20.43000
C  7.09000 46.24900 21.57800
C  6.87700 46.01700 20.10100
N  7.67400 48.32900 26.49400
C  6.53400 48.12800 25.63400
C  5.39200 48.01400 26.49000
C  5.84300 48.24500 27.78300
C  7.19500 48.43300 27.73800
C  3.98700 47.62000 26.04100
C  5.46600 48.29000 29.20300
O  4.29800 48.17000 29.66200
C  6.76800 48.58300 29.99200
C  6.88400 47.31000 30.76700
O  7.09900 46.17900 30.35200
O  6.84700 47.54500 32.13400
C  7.08400 46.28100 32.90400
H  13.04900 50.39000 28.11400
H  12.07100 47.70600 22.21400
H  5.72800 47.67100 23.75800
H  9.17000 50.14700 31.03900
H  11.97500 50.07200 30.24700
H  10.02900 52.03100 30.87200
H  10.35800 52.24900 29.10200
H  11.63700 52.48800 30.33100
H  11.25300 48.08800 31.17400
H  9.73100 47.37700 30.94000
H  9.20700 48.95600 33.11400
H  11.00500 48.84000 33.23000
H  15.77600 49.01100 26.28900
H  14.94900 50.42400 27.10200
H  15.55100 50.55900 25.46200
H  16.51300 48.72200 22.26900
H  16.48000 48.10300 23.92300
H  16.23000 49.88500 23.45000
H  9.67500 46.37600 21.46100
H  7.37000 48.43400 21.73400
H  10.58300 48.98000 20.66200
H  8.95400 48.82500 20.00000
H  10.25200 47.65800 19.65700
H  6.11800 46.28400 22.06900
H  7.54900 45.34100 21.96900
H  5.87400 45.61800 19.94800
H  7.61100 45.31600 19.70400
H  6.99300 47.00300 19.65200
H  3.89900 47.08500 25.09500
H  3.44000 48.50200 25.70900
H  3.54900 47.04400 26.85600
H  6.57000 49.42100 30.66100
H  7.42500 46.63800 33.87500
H  7.91100 45.68300 32.52100
H  6.15100 45.72400 32.99500

