158

Mg 35.90300 49.57200 25.51700
C  36.00800 48.01500 28.57800
C  34.75700 52.47600 27.05700
C  35.43500 50.95900 22.42100
C  36.69400 46.45800 23.96500
N  35.29100 50.10700 27.51800
C  35.52200 49.32200 28.65000
C  35.33600 50.07100 29.94700
C  34.64000 51.47900 29.38800
C  34.89000 51.37400 27.91300
C  33.19800 51.76100 29.91500
C  36.63500 50.28900 30.78400
C  36.44300 50.25200 32.33700
H  35.00400 50.66100 32.93700
N  35.26300 51.51100 24.81300
C  34.86600 52.52800 25.59900
C  34.74100 53.73300 24.71800
C  35.01300 53.32500 23.34600
C  35.27100 51.88300 23.50000
C  34.46400 55.08600 25.34200
C  35.10900 54.13300 22.07900
O  35.26100 53.66000 21.00100
C  34.62300 55.61200 22.22600
N  36.07600 48.85300 23.47900
C  35.78400 49.58900 22.38300
C  36.01600 48.82700 21.13200
C  36.62600 47.40700 21.67000
C  36.46900 47.58700 23.12800
C  34.68500 48.82900 20.25300
C  38.13200 47.19500 21.22800
C  39.15400 48.27000 21.62100
N  36.29300 47.64100 26.10400
C  36.64600 46.52900 25.37300
C  36.95300 45.43300 26.28300
C  36.69300 45.97100 27.61100
C  36.31400 47.29600 27.39300
C  37.39700 44.14900 25.77800
C  36.69400 45.62900 29.08500
O  37.06900 44.64400 29.69700
C  36.20200 46.98300 29.74500
C  34.90200 46.68800 30.40600
O  33.85300 46.59100 29.78200
O  35.07900 46.66200 31.76300
C  33.91700 46.53700 32.60400
H  34.40000 53.37500 27.56400
H  35.45500 51.28600 21.38000
H  37.06000 45.50500 23.57900
H  34.67400 49.61100 30.68000
H  35.27200 52.28400 29.76200
H  32.83400 50.85900 30.40500
H  32.53000 52.10400 29.12500
H  33.14100 52.58000 30.63200
H  37.05900 51.27500 30.59300
H  37.34900 49.54400 30.43600
H  37.18800 50.97800 32.66300
H  36.74900 49.28300 32.73000
H  35.01500 55.78100 24.70800
H  34.79400 55.27900 26.36300
H  33.37800 55.15800 25.29200
H  35.46400 56.18700 22.61400
H  33.80000 55.71900 22.93200
H  34.31600 55.90200 21.22100
H  36.71100 49.42800 20.54500
H  36.05300 46.61400 21.18900
H  33.83500 49.11700 20.87300
H  34.48100 47.85900 19.80100
H  34.72000 49.62100 19.50500
H  38.18300 47.32800 20.14700
H  38.46900 46.18600 21.46600
H  38.75600 49.07200 22.24300
H  39.69900 48.56400 20.72400
H  39.87400 47.78300 22.27900
H  37.60600 43.54600 26.66200
H  38.31300 44.24000 25.19500
H  36.55800 43.70700 25.24000
H  36.99100 47.34700 30.40400
H  33.08100 47.07000 32.15100
H  34.27100 46.98700 33.53200
H  33.68000 45.49400 32.81400
Mg 7.08500 54.16600 40.21000
C  6.73300 50.69500 39.92000
C  10.31600 53.85200 39.20000
C  7.11200 57.44000 39.44100
C  3.70200 54.31200 41.00100
N  8.34200 52.45200 39.62200
C  8.02300 51.14700 39.57700
C  9.40300 50.32700 39.40000
C  10.39900 51.43400 39.56200
C  9.57400 52.65600 39.42300
C  11.05300 51.33100 41.00900
C  9.49800 49.49700 38.09500
C  9.29700 50.39200 36.88100
H  7.86000 50.67400 36.38800
N  8.55000 55.52700 39.61300
C  9.82200 55.16400 39.29300
C  10.62000 56.32100 39.00100
C  9.68500 57.40400 38.88100
C  8.36800 56.85900 39.36300
C  12.09900 56.35500 38.81200
C  10.09200 58.90300 38.52300
O  11.35600 59.13100 38.39700
C  9.19500 59.99100 38.49000
N  5.56200 55.56700 39.99000
C  5.86200 56.90300 39.82400
C  4.62600 57.82400 40.00800
C  3.50400 56.80500 40.51400
C  4.31700 55.46200 40.57400
C  4.87300 59.09600 41.00400
C  2.22900 56.80900 39.68600
C  0.94300 56.45400 40.38700
N  5.49900 52.75800 40.50800
C  4.22200 53.02100 40.92100
C  3.59000 51.78900 41.24700
C  4.49500 50.82600 40.74600
C  5.64600 51.50500 40.24100
C  2.28200 51.56100 41.87900
C  4.68900 49.40500 40.64300
O  3.94000 48.51900 40.94900
C  6.12200 49.28000 40.12000
C  6.11100 48.52400 38.87000
O  5.69400 48.91100 37.77200
O  6.71700 47.33800 39.00000
C  6.71600 46.45000 37.82900
H  11.32600 53.71400 38.80800
H  7.08800 58.52000 39.28400
H  2.70100 54.38100 41.43000
H  9.44900 49.60000 40.21100
H  11.18600 51.34400 38.81400
H  10.77200 50.41000 41.52100
H  10.91300 52.16300 41.69900
H  12.12100 51.15200 40.88900
H  8.75900 48.69600 38.10900
H  10.50900 49.10400 37.98700
H  9.88600 50.05300 36.02900
H  9.57100 51.41200 37.15100
H  12.20400 56.42400 37.72900
H  12.58000 55.41000 39.06400
H  12.52800 57.17600 39.38700
H  8.36700 59.66100 37.86200
H  9.68300 60.82200 37.98100
H  8.77000 60.14100 39.48300
H  4.41100 58.09800 38.97500
H  3.23100 56.95100 41.55900
H  4.23700 59.13600 41.88800
H  4.62800 60.04200 40.52200
H  5.92400 59.14700 41.29100
H  2.47800 56.01100 38.98600
H  2.16200 57.75900 39.15600
H  0.50700 55.55000 39.96200
H  0.28300 57.31200 40.26300
H  1.05300 56.37000 41.46800
H  1.46800 51.99500 41.29800
H  2.30200 51.92400 42.90700
H  2.00800 50.52600 42.08300
H  6.89500 48.87900 40.77600
H  6.22800 45.50300 38.05900
H  7.73100 46.19200 37.52500
H  6.39100 46.90700 36.89500

