158

Mg 35.55500 49.65700 25.65200
C  35.41100 47.95700 28.80500
C  34.31400 52.52700 27.34900
C  35.20700 51.04500 22.72500
C  36.27000 46.56200 24.20200
N  34.94600 50.16100 27.85800
C  34.99100 49.32700 28.94700
C  34.85900 50.12500 30.25600
C  34.34000 51.61000 29.81900
C  34.48500 51.45500 28.27800
C  32.88600 52.05500 30.28000
C  36.24400 50.19800 31.02300
C  36.21800 49.66600 32.48600
H  35.78600 50.68400 33.53900
N  34.82100 51.49300 25.06900
C  34.38100 52.54000 25.88500
C  34.07500 53.64100 24.99800
C  34.39300 53.27100 23.68600
C  34.87100 51.87200 23.81300
C  33.51700 55.01500 25.45500
C  34.30700 54.06000 22.34000
O  34.56300 53.54000 21.23400
C  34.10800 55.45400 22.49400
N  35.57900 48.81500 23.70400
C  35.51500 49.67200 22.66100
C  35.94300 48.96100 21.35600
C  36.27800 47.57500 21.94800
C  36.07800 47.67400 23.37500
C  34.81300 49.12600 20.29600
C  37.49300 46.85400 21.43800
C  38.81800 46.99700 22.18700
N  36.00600 47.75400 26.39500
C  36.17600 46.60900 25.64400
C  36.33200 45.50800 26.53600
C  36.09500 46.02400 27.84100
C  35.81200 47.34400 27.62200
C  36.58100 44.15300 26.16500
C  35.83500 45.56500 29.13100
O  35.80700 44.42000 29.59100
C  35.38400 46.92400 29.89400
C  34.15500 46.84600 30.64800
O  32.99000 46.99900 30.17300
O  34.43900 46.57800 32.00500
C  33.28200 46.51100 32.91600
H  34.03800 53.46300 27.83900
H  35.34000 51.60100 21.79500
H  36.37100 45.65400 23.60300
H  34.06100 49.81200 30.92800
H  35.06300 52.36800 30.12100
H  32.27200 52.29100 29.41100
H  32.85600 52.96600 30.87700
H  32.39500 51.28900 30.87900
H  36.73400 51.17200 31.04000
H  37.05800 49.64900 30.55000
H  37.16200 49.24300 32.82800
H  35.45900 48.88800 32.56800
H  32.54900 55.35000 25.08200
H  34.29100 55.77700 25.37100
H  33.43800 55.02600 26.54200
H  33.10000 55.68500 22.84000
H  34.14900 55.93500 21.51700
H  34.93800 55.85000 23.07900
H  36.77700 49.55700 20.98500
H  35.44400 46.92800 21.67800
H  33.80800 49.34000 20.65900
H  34.77500 48.22600 19.68200
H  35.04300 49.92900 19.59700
H  37.73300 47.29300 20.47000
H  37.15400 45.85600 21.16200
H  38.58800 47.55700 23.09300
H  39.50600 47.57300 21.56800
H  39.21600 46.01900 22.45600
H  35.83800 43.84500 25.43000
H  36.64000 43.48500 27.02500
H  37.50200 44.19600 25.58400
H  36.29500 47.09100 30.47000
H  32.23900 46.54100 32.60200
H  33.34600 47.34200 33.61900
H  33.46600 45.56700 33.42900
Mg 9.07400 47.61100 27.79800
C  7.03400 47.36900 30.56000
C  11.80400 48.28400 29.71100
C  10.76600 48.39400 24.96200
C  6.09500 47.55600 25.83200
N  9.40300 47.85700 29.89000
C  8.43200 47.49100 30.83800
C  9.03600 47.55800 32.31500
C  10.51200 48.09900 32.00700
C  10.57400 48.01300 30.42600
C  10.72300 49.55400 32.58900
C  9.18000 46.21800 33.06500
C  8.81500 46.31900 34.55400
H  9.54100 45.27600 35.44500
N  11.08600 48.18000 27.38500
C  12.08200 48.29000 28.29700
C  13.35800 48.51600 27.65700
C  13.11500 48.57200 26.17400
C  11.60400 48.43500 26.11900
C  14.65800 48.44900 28.48100
C  13.99800 48.63200 24.97000
O  13.61900 48.71900 23.80600
C  15.46200 48.59100 25.16500
N  8.53700 47.91700 25.73400
C  9.43300 48.19900 24.77100
C  8.82700 48.13000 23.31600
C  7.28900 47.91500 23.64100
C  7.29000 47.74400 25.12200
C  9.17800 49.31700 22.36500
C  6.56600 46.80900 22.82200
C  6.26700 47.18400 21.29200
N  7.02200 47.45100 28.09600
C  5.97600 47.43600 27.18600
C  4.63700 47.37700 27.89000
C  5.04500 47.26000 29.25200
C  6.44400 47.35400 29.25200
C  3.27900 47.24600 27.38800
C  4.58600 47.14600 30.60200
O  3.42000 46.95900 30.98500
C  5.88000 47.10000 31.52100
C  5.85100 45.74000 32.13300
O  6.45500 44.77500 31.73400
O  5.14600 45.83000 33.35600
C  5.43100 44.72800 34.31800
H  12.67200 48.48500 30.34200
H  11.36200 48.65600 24.08500
H  5.27500 47.49400 25.11300
H  8.38800 48.19200 32.92100
H  11.29400 47.50600 32.48200
H  9.96300 49.95500 33.25900
H  10.92400 50.20300 31.73600
H  11.69200 49.54700 33.08800
H  10.18800 45.86000 32.85400
H  8.44100 45.54400 32.63400
H  7.73900 46.22300 34.70400
H  9.12700 47.31500 34.86700
H  15.38000 47.75300 28.05400
H  14.49200 48.30600 29.54800
H  15.16500 49.41400 28.46600
H  15.75700 47.56600 25.38900
H  15.69400 49.05800 26.12200
H  16.11500 49.04900 24.42100
H  9.04600 47.18500 22.81800
H  6.88600 48.91900 23.51400
H  9.54700 50.15500 22.95700
H  8.22000 49.49700 21.87600
H  9.89300 48.94100 21.63300
H  5.60300 46.50600 23.23300
H  7.15700 45.90700 22.98300
H  6.41300 48.26400 21.30500
H  5.24900 46.86400 21.07000
H  6.97900 46.75200 20.58900
H  2.52700 47.05200 28.15300
H  3.23200 46.51000 26.58500
H  3.12800 48.23300 26.95100
H  5.76200 47.89800 32.25400
H  6.45400 44.35000 34.31900
H  4.70700 43.91400 34.29600
H  5.26200 45.20100 35.28600

