158

Mg 35.03800 2.86900 29.11700
C  33.08400 3.93700 31.82700
C  37.86400 3.20100 31.09100
C  36.91400 1.90400 26.52600
C  32.19500 2.84100 27.18700
N  35.41800 3.28200 31.25700
C  34.45800 3.69400 32.17700
C  35.06800 3.63900 33.53500
C  36.57700 3.77300 33.26800
C  36.66000 3.43600 31.74800
C  37.27500 5.16700 33.65900
C  34.55500 2.52600 34.47900
C  34.35100 2.92400 35.93800
H  35.22700 3.98100 36.65900
N  37.14400 2.53500 28.84500
C  38.10500 2.80700 29.79200
C  39.39700 2.59100 29.15800
C  39.18500 2.13400 27.78300
C  37.68900 2.16900 27.64000
C  40.67100 2.97000 29.90500
C  40.11100 1.65000 26.68400
O  39.70200 1.33400 25.58800
C  41.53400 1.42300 26.93200
N  34.59200 2.40900 27.14800
C  35.52500 1.98500 26.29300
C  34.89500 1.49600 24.95400
C  33.37500 1.82200 25.18300
C  33.36500 2.49100 26.59100
C  35.61800 1.90400 23.67100
C  32.54400 0.50800 24.87000
C  32.37600 -0.56100 25.96000
N  33.07200 3.32900 29.32700
C  32.05100 3.27200 28.48000
C  30.85800 3.75800 29.01600
C  31.24100 4.02300 30.37400
C  32.57800 3.75100 30.50400
C  29.52600 3.68500 28.40300
C  30.69600 4.54900 31.66900
O  29.64000 5.02700 31.95600
C  31.87300 4.23300 32.69200
C  32.04700 5.40600 33.52900
O  32.38700 6.54500 33.11400
O  31.67800 5.13800 34.85700
C  31.50900 6.30600 35.75000
H  38.76300 3.27200 31.70700
H  37.47100 1.41600 25.72400
H  31.30600 2.90400 26.55500
H  34.78500 4.56300 34.03900
H  37.04100 2.92900 33.78000
H  37.86200 4.98000 34.55900
H  36.48300 5.83100 34.00600
H  37.84900 5.52200 32.80300
H  35.30100 1.73200 34.45000
H  33.60600 2.15000 34.09500
H  34.35400 2.03900 36.57500
H  33.33400 3.31600 35.95800
H  41.00500 2.18100 30.58000
H  40.65600 3.89100 30.48700
H  41.44400 2.97600 29.13600
H  42.08100 2.36500 26.90300
H  41.89600 0.76600 26.14100
H  41.54700 0.87800 27.87600
H  35.03400 0.43800 25.17900
H  33.14700 2.53900 24.39400
H  36.18000 2.82100 23.84300
H  34.78900 1.97800 22.96800
H  36.25300 1.16300 23.18500
H  32.97600 -0.00600 24.01200
H  31.53100 0.82300 24.62000
H  32.92000 -1.48500 25.76500
H  31.30600 -0.71200 26.10900
H  32.83900 -0.26600 26.90100
H  28.81500 4.21600 29.03600
H  29.17400 2.66500 28.25000
H  29.49000 4.22900 27.46000
H  31.58000 3.45600 33.39900
H  30.48700 6.64600 35.92100
H  31.99700 7.24900 35.50100
H  31.89200 6.02000 36.72900
Mg 47.32000 25.67100 28.92700
C  47.83100 27.82600 31.57100
C  46.19400 23.25900 30.98500
C  47.02300 23.57000 26.21300
C  48.80400 28.06900 26.76700
N  46.98700 25.59000 31.02300
C  47.21900 26.58700 31.89900
C  46.71000 26.14600 33.31100
C  46.29300 24.62000 33.16900
C  46.53900 24.48200 31.63500
C  47.11000 23.63700 34.06500
C  45.62500 26.98900 34.00700
C  45.95200 27.61300 35.32900
H  46.23700 26.72100 36.53900
N  46.74300 23.70200 28.66600
C  46.24800 22.91500 29.66900
C  45.78200 21.63000 29.07100
C  45.96700 21.73300 27.67000
C  46.60700 23.04400 27.43200
C  45.18200 20.49800 29.93700
C  45.64300 20.80100 26.59000
O  45.99900 20.93600 25.40000
C  44.90400 19.52600 26.91600
N  47.83400 25.83100 26.70400
C  47.62800 24.78000 25.86300
C  48.09000 25.13500 24.40900
C  48.68000 26.59400 24.58400
C  48.37500 26.88300 26.08100
C  49.15000 24.08800 23.79300
C  47.86500 27.64400 23.69600
C  48.75600 28.36600 22.69500
N  48.15100 27.51100 29.10000
C  48.74900 28.35400 28.15100
C  49.21600 29.60300 28.77100
C  48.87300 29.39700 30.08500
C  48.26000 28.16400 30.27300
C  49.82800 30.84700 28.04300
C  48.95300 30.06500 31.35300
O  49.52500 31.12900 31.69000
C  48.27800 29.02600 32.38000
C  49.29300 28.83300 33.46800
O  50.33800 28.23900 33.28200
O  48.99700 29.36700 34.65800
C  49.83400 28.95900 35.79500
H  45.85200 22.53400 31.72700
H  46.89600 22.98900 25.29700
H  49.17100 28.90800 26.17200
H  47.62200 26.25500 33.89800
H  45.22800 24.48400 33.36100
H  47.70900 23.08200 33.34300
H  46.49700 22.88700 34.56400
H  47.81100 24.19300 34.68700
H  44.74700 26.38500 34.23600
H  45.42000 27.84500 33.36400
H  45.07000 28.19800 35.58800
H  46.88000 28.16700 35.19000
H  45.59700 19.49500 29.83600
H  44.10600 20.45200 29.77300
H  45.27800 20.66900 31.01000
H  45.63500 18.92000 27.45200
H  44.56900 19.13100 25.95800
H  44.11600 19.79000 27.62100
H  47.34000 25.08500 23.62000
H  49.75900 26.52600 24.44600
H  50.06100 24.59300 23.47300
H  48.62500 23.56500 22.99400
H  49.48500 23.39500 24.56500
H  47.47900 28.42700 24.34900
H  47.04700 27.09200 23.23500
H  48.67800 29.44800 22.80500
H  48.73500 27.96600 21.68200
H  49.80100 28.24500 22.98200
H  49.66600 30.93100 26.96900
H  50.89000 30.77700 28.27600
H  49.39300 31.68500 28.58900
H  47.38600 29.49200 32.79900
H  49.71200 27.88400 35.92500
H  49.42100 29.51000 36.64000
H  50.85900 29.23100 35.54500

