158

Mg 47.18200 17.14100 27.47800
C  45.46500 17.30500 30.49100
C  49.64800 19.20200 28.91700
C  48.60600 17.72200 24.39400
C  44.31100 16.21700 25.91400
N  47.51400 18.06300 29.52100
C  46.71000 17.88500 30.56700
C  47.34100 18.47000 31.82200
C  48.52300 19.32700 31.25900
C  48.61500 18.86100 29.79600
C  48.39000 20.82600 31.51900
C  47.67200 17.38100 32.86400
C  47.26900 17.79100 34.36800
H  47.24700 19.34100 34.67300
N  49.05400 17.97500 26.84100
C  49.88000 18.80300 27.54300
C  50.96900 19.23800 26.67200
C  50.69700 18.66600 25.37300
C  49.41100 18.01800 25.50700
C  52.04900 20.18800 27.05400
C  51.65000 18.72300 24.07400
O  51.13200 18.48700 22.93500
C  53.11900 19.04900 24.17100
N  46.67400 16.80300 25.48300
C  47.29500 17.23300 24.44500
C  46.49100 17.22000 23.15300
C  45.27800 16.35600 23.57900
C  45.36700 16.49800 25.08500
C  46.09100 18.71000 22.74700
C  45.21900 14.84200 23.17000
C  44.13900 14.40500 22.22900
N  45.30300 16.55600 28.08700
C  44.23500 16.17600 27.30800
C  43.08100 15.89400 28.14800
C  43.52800 16.23100 29.44500
C  44.82200 16.76400 29.33500
C  41.76600 15.44800 27.84200
C  43.10500 16.34000 30.83200
O  42.02300 16.12800 31.32600
C  44.35300 16.98300 31.59200
C  43.87600 18.14000 32.39300
O  43.61400 19.25200 31.99000
O  43.80400 17.81300 33.71600
C  43.08800 18.79400 34.48700
H  50.38400 19.83400 29.42000
H  48.89000 18.02200 23.38300
H  43.40400 15.82200 25.45200
H  46.63500 19.23800 32.14100
H  49.44100 18.99700 31.74500
H  47.51800 21.15400 32.08500
H  48.47700 21.25100 30.51900
H  49.24800 21.19100 32.08400
H  48.71800 17.08300 32.79400
H  47.14300 16.45700 32.63400
H  48.05500 17.35000 34.98100
H  46.30600 17.35000 34.62300
H  51.68900 20.69700 27.94900
H  52.23500 20.85600 26.21300
H  52.98200 19.64400 27.19900
H  53.33300 18.58500 25.13400
H  53.10300 20.13800 24.16000
H  53.70200 18.61300 23.35900
H  47.07500 16.77300 22.34800
H  44.37400 16.89500 23.29600
H  45.13800 18.74100 22.21800
H  46.95400 19.13600 22.23600
H  45.89900 19.25400 23.67200
H  45.18500 14.26000 24.09100
H  46.06900 14.58000 22.53900
H  44.40100 14.72900 21.22100
H  43.22500 14.91200 22.53700
H  44.01600 13.33500 22.39500
H  41.81000 14.35900 27.82300
H  41.47500 15.84700 26.87000
H  41.05800 15.71000 28.62900
H  44.67900 16.15500 32.22200
H  42.09800 18.95200 34.06000
H  43.64600 19.71400 34.30900
H  43.14900 18.56300 35.55100
Mg 49.19000 36.06300 27.59500
C  47.17500 34.59000 30.02400
C  49.63700 38.68800 29.61200
C  50.38000 37.81300 24.99200
C  48.52600 33.37100 25.52000
N  48.56700 36.55200 29.62800
C  47.84500 35.77600 30.45600
C  48.00200 36.26900 31.95200
C  48.48800 37.71500 31.74200
C  48.95500 37.66900 30.28800
C  47.39600 38.80200 31.82900
C  49.08800 35.42900 32.65800
C  49.03800 35.40100 34.21300
H  48.11700 36.42000 34.91800
N  49.93900 38.02700 27.34200
C  50.05400 38.93600 28.27500
C  50.63200 40.17900 27.70700
C  50.87700 39.92700 26.34600
C  50.33800 38.55100 26.18500
C  50.88800 41.34300 28.48100
C  51.47400 40.82300 25.25500
O  51.54400 40.49700 24.09400
C  52.18600 42.10400 25.63800
N  49.16100 35.68800 25.45800
C  49.94900 36.51200 24.74200
C  50.35100 35.87600 23.40100
C  49.72300 34.41100 23.54200
C  49.12900 34.45800 24.95700
C  50.14000 36.54400 21.97900
C  50.75900 33.24600 23.22400
C  50.53400 32.42300 21.91900
N  48.10400 34.30700 27.68600
C  48.05500 33.27200 26.84600
C  47.19900 32.21500 27.38600
C  46.72700 32.72800 28.58400
C  47.42200 33.94000 28.76500
C  46.86800 30.94500 26.87800
C  45.81700 32.59100 29.66800
O  45.09900 31.63600 29.88600
C  46.02900 33.80000 30.69900
C  46.23900 33.12700 32.04700
O  47.33400 32.59900 32.35600
O  45.15600 33.45200 32.91100
C  45.20300 33.01900 34.29200
H  49.98900 39.44800 30.31300
H  50.91200 38.26600 24.15300
H  48.51900 32.52200 24.83400
H  47.03800 36.07200 32.42100
H  49.30100 38.02900 32.39700
H  47.16300 38.60400 32.87500
H  46.59400 38.61900 31.11300
H  47.83000 39.80200 31.81600
H  50.05600 35.87500 32.42800
H  49.08000 34.40500 32.28500
H  50.04200 35.59900 34.58900
H  48.66400 34.39700 34.40800
H  50.80900 42.20900 27.82400
H  51.91000 41.24600 28.84900
H  50.15700 41.50200 29.27400
H  52.91100 41.96300 26.44000
H  51.56600 42.96700 25.88100
H  52.75400 42.35500 24.74200
H  51.43700 35.86400 23.49000
H  48.85900 34.34800 22.88100
H  49.48300 37.40000 22.13200
H  49.57900 35.87200 21.32900
H  51.06600 36.81800 21.47400
H  50.94700 32.69700 24.14600
H  51.66000 33.81500 22.99300
H  50.85000 33.01600 21.06000
H  49.44900 32.33100 21.87600
H  51.00100 31.43900 21.96000
H  47.81700 30.57000 26.49700
H  46.11100 30.97500 26.09400
H  46.57100 30.40400 27.77700
H  45.05700 34.28800 30.63000
H  44.17300 32.82500 34.58900
H  45.52200 33.83500 34.94000
H  45.79400 32.11300 34.42600

