158

Mg 16.62900 -1.78100 27.35700
C  15.76600 0.24200 30.00200
C  18.73000 -3.67600 29.47600
C  18.03900 -3.40400 24.65100
C  14.85600 0.26900 25.21600
N  17.17700 -1.61400 29.52700
C  16.67700 -0.73200 30.45300
C  17.12300 -1.21200 31.86400
C  18.26600 -2.27100 31.56000
C  18.06300 -2.57100 30.10800
C  19.69100 -1.84400 31.96600
C  15.92200 -1.65800 32.77600
C  15.97000 -1.26600 34.26600
H  17.01200 -0.30300 34.75500
N  18.00800 -3.40600 27.14100
C  18.75000 -3.99700 28.07300
C  19.44000 -5.14600 27.50300
C  19.13900 -5.22500 26.16000
C  18.34700 -3.93500 25.88000
C  20.20800 -6.14200 28.36800
C  19.56500 -6.14300 25.11300
O  19.41200 -5.92200 23.89900
C  20.17600 -7.48600 25.54500
N  16.39600 -1.64400 25.22500
C  17.16000 -2.38100 24.35800
C  16.93300 -1.93500 22.86300
C  15.93800 -0.73000 23.08600
C  15.69800 -0.69300 24.59400
C  18.25700 -1.50200 22.12600
C  14.51000 -0.88700 22.40900
C  13.92000 0.30100 21.57900
N  15.42000 -0.03100 27.49700
C  14.78400 0.68000 26.54600
C  13.91200 1.68800 27.23200
C  14.37600 1.59500 28.58300
C  15.29900 0.60700 28.67500
C  13.09100 2.71500 26.62200
C  14.11900 2.08900 29.86000
O  13.37100 2.93900 30.24600
C  15.06600 1.32300 30.88100
C  15.85800 2.24500 31.71700
O  17.05500 2.42500 31.66600
O  15.06100 2.87800 32.70100
C  15.71100 3.72200 33.67300
H  19.19400 -4.22600 30.29800
H  18.46700 -3.90200 23.77800
H  14.29900 0.90600 24.52600
H  17.60600 -0.31000 32.23900
H  18.03100 -3.22200 32.03900
H  20.11500 -2.84800 32.00400
H  19.89600 -1.37000 32.92600
H  20.16300 -1.17200 31.25000
H  15.89300 -2.74700 32.74500
H  14.97300 -1.37100 32.32400
H  16.12100 -2.18400 34.83500
H  14.95800 -0.89400 34.42900
H  21.01700 -6.51400 27.74000
H  19.60000 -7.00700 28.63300
H  20.63300 -5.68100 29.25900
H  20.19400 -8.21600 24.73600
H  19.63700 -7.86900 26.41200
H  21.23600 -7.28300 25.69400
H  16.45600 -2.78400 22.37300
H  16.31300 0.23600 22.74800
H  17.97400 -0.97600 21.21400
H  19.03100 -2.22500 21.87100
H  18.74800 -0.70000 22.67800
H  13.76000 -1.21100 23.13100
H  14.58400 -1.66700 21.65100
H  12.84500 0.36700 21.75000
H  14.03800 -0.06900 20.56100
H  14.42900 1.22500 21.85500
H  12.44800 2.31000 25.84100
H  13.79000 3.44900 26.22100
H  12.45100 3.08200 27.42400
H  14.48200 0.77900 31.62400
H  15.09500 4.54600 34.03400
H  16.48500 4.27200 33.13700
H  16.19500 3.19500 34.49600
Mg 47.54300 16.74600 28.31100
C  45.83300 16.60800 31.46700
C  49.96500 18.75100 29.96700
C  49.05600 17.16700 25.47400
C  44.91300 15.14100 26.91200
N  47.76100 17.73300 30.44900
C  47.01900 17.33900 31.56700
C  47.55100 18.01800 32.82100
C  48.73200 18.84500 32.22800
C  48.91000 18.39100 30.79100
C  48.48000 20.38100 32.21300
C  47.98200 17.02000 33.93500
C  47.83300 17.59100 35.45100
H  47.91200 19.08900 35.62200
N  49.36100 17.72000 27.79900
C  50.13000 18.51100 28.64200
C  51.31000 18.85100 27.87900
C  51.07000 18.45800 26.47100
C  49.81000 17.68800 26.54300
C  52.50600 19.60700 28.47900
C  51.75500 18.70600 25.24600
O  51.33900 18.27900 24.21800
C  52.92500 19.60200 25.26300
N  47.07000 16.15200 26.46100
C  47.84500 16.46800 25.44100
C  47.19700 15.98200 24.14400
C  46.14000 14.97600 24.63700
C  45.96900 15.52600 26.08700
C  46.71300 17.12600 23.19500
C  46.58500 13.48700 24.67000
C  46.16200 12.71100 23.40500
N  45.68400 16.11000 28.94500
C  44.67500 15.50900 28.21900
C  43.56200 15.16500 29.12000
C  44.01900 15.58000 30.37300
C  45.26400 16.12700 30.25500
C  42.30000 14.32100 28.88400
C  43.72100 15.44800 31.74600
O  42.81900 14.85600 32.31900
C  44.88200 16.12200 32.55900
C  44.29200 17.22900 33.33000
O  43.66100 18.19500 32.94100
O  44.48000 16.96600 34.66000
C  43.92900 17.82200 35.70300
H  50.75300 19.19600 30.57900
H  49.47600 17.26100 24.47000
H  44.10300 14.52200 26.52100
H  46.74800 18.64400 33.21100
H  49.68800 18.66800 32.72200
H  47.62900 20.75500 32.78300
H  48.39900 20.60600 31.15000
H  49.44000 20.73700 32.58800
H  49.06400 16.94900 33.82700
H  47.51300 16.03800 33.87400
H  48.44400 17.04700 36.17100
H  46.82300 17.28200 35.72100
H  53.45200 19.06600 28.48900
H  52.27500 19.90000 29.50400
H  52.57900 20.44500 27.78500
H  53.41800 19.65600 24.29200
H  53.67100 19.13400 25.90500
H  52.69600 20.63200 25.54000
H  47.97200 15.35700 23.69800
H  45.18800 15.11300 24.12500
H  46.27900 16.63200 22.32600
H  47.61700 17.59400 22.80500
H  45.93200 17.68300 23.71400
H  46.39300 13.01800 25.63500
H  47.66200 13.31800 24.65600
H  47.04100 12.16500 23.06300
H  45.75900 13.38000 22.64500
H  45.36400 12.04300 23.73100
H  41.92600 14.33600 27.86000
H  41.54000 14.46800 29.65100
H  42.62000 13.29500 29.06400
H  45.26400 15.28900 33.14900
H  42.90600 17.55800 35.97300
H  43.80600 18.85400 35.37400
H  44.56500 17.85100 36.58700

