158

Mg 55.38600 23.49300 45.35000
C  52.94500 25.71800 44.49200
C  53.39300 20.94200 44.04200
C  58.04900 21.43000 45.14200
C  57.40400 26.10200 46.39700
N  53.29400 23.39700 44.49300
C  52.49800 24.42500 44.14200
C  51.26600 23.88600 43.37000
C  51.33000 22.33900 43.57500
C  52.81400 22.22700 44.08000
C  50.26700 21.67800 44.57100
C  51.22700 24.38300 41.88000
C  49.86000 24.84000 41.34600
H  49.30200 24.33600 39.99100
N  55.65200 21.45900 44.77300
C  54.69300 20.52900 44.29300
C  55.24500 19.26600 44.13600
C  56.59000 19.32400 44.42700
C  56.84300 20.76600 44.79900
C  54.35700 18.11600 43.74500
C  57.64600 18.20500 44.37100
O  57.32400 17.05100 44.14600
C  59.16100 18.37000 44.55000
N  57.48500 23.73600 45.57200
C  58.36300 22.71400 45.57000
C  59.68600 23.09600 46.09600
C  59.48100 24.53000 46.54800
C  58.02000 24.85300 46.19700
C  60.22300 22.09400 47.15500
C  60.37700 25.65700 45.89700
C  61.61700 26.10900 46.66300
N  55.14600 25.45000 45.61200
C  56.07600 26.42900 46.01100
C  55.45000 27.73600 46.01000
C  54.23100 27.48100 45.41600
C  54.10200 26.12700 45.16400
C  56.13500 29.04700 46.39500
C  52.98700 28.09300 45.00100
O  52.66700 29.23900 45.05100
C  52.13500 26.99500 44.41600
C  51.67100 27.55800 43.10300
O  52.34300 27.66300 42.08200
O  50.44000 28.12800 43.24200
C  49.90900 29.03300 42.24300
H  52.73800 20.13100 43.71600
H  58.96600 20.83800 45.09600
H  57.96200 26.90500 46.88300
H  50.46200 24.39000 43.90600
H  51.27700 21.91300 42.57300
H  50.83300 21.13400 45.32600
H  49.65800 21.03200 43.93900
H  49.60300 22.38200 45.07300
H  51.63400 23.52300 41.34800
H  52.05400 25.08300 41.76500
H  49.94900 25.92600 41.32000
H  49.22100 24.50600 42.16400
H  54.07800 18.29900 42.70700
H  53.41300 18.04100 44.28600
H  54.91600 17.18000 43.73500
H  59.39100 19.11800 43.79200
H  59.54400 17.37000 44.34600
H  59.31900 18.76700 45.55300
H  60.38600 22.96000 45.27200
H  59.53400 24.56400 47.63700
H  61.17300 21.68600 46.80900
H  59.51900 21.27700 47.31100
H  60.41200 22.65600 48.07000
H  59.84300 26.56100 45.60500
H  60.74100 25.14000 45.00800
H  61.59300 27.16500 46.93000
H  62.58500 25.78500 46.28200
H  61.60200 25.71100 47.67800
H  57.07000 29.14100 45.84400
H  56.37500 28.98500 47.45700
H  55.49900 29.91300 46.20900
H  51.15300 26.91700 44.88100
H  48.87600 29.29500 42.47400
H  49.94300 28.62100 41.23500
H  50.42100 29.99400 42.27200
Mg 9.57400 47.94800 24.15600
C  7.18500 48.72500 26.70500
C  12.02900 49.08400 26.30100
C  11.79800 47.70700 21.73500
C  6.93500 47.51500 21.92200
N  9.61700 48.71900 26.19100
C  8.55000 48.81400 27.10800
C  9.04500 49.22100 28.47800
C  10.40000 49.86700 28.08600
C  10.72100 49.21600 26.77000
C  10.49600 51.40200 28.11500
C  9.23000 48.00900 29.41600
C  8.68600 48.35800 30.79600
H  8.19400 47.20400 31.69900
N  11.74600 48.25800 24.07400
C  12.58600 48.67200 25.07500
C  13.95300 48.69100 24.63800
C  13.86500 48.31400 23.25200
C  12.40900 48.11800 22.93000
C  15.21300 48.99000 25.49600
C  14.99300 48.06700 22.22800
O  14.76600 47.79900 21.08800
C  16.37600 48.09800 22.68900
N  9.44300 47.69500 22.14900
C  10.52700 47.45100 21.35100
C  10.12800 46.94500 19.93200
C  8.54600 46.77900 20.08200
C  8.26200 47.32600 21.44100
C  10.60800 47.88400 18.72000
C  7.95000 45.38000 19.95700
C  8.78400 44.24000 20.53900
N  7.48500 48.09500 24.27100
C  6.55400 47.87700 23.26900
C  5.18300 48.16500 23.83200
C  5.37100 48.45200 25.20700
C  6.79100 48.31900 25.40800
C  3.84900 48.07800 23.11300
C  4.70600 48.65500 26.50000
O  3.56600 48.81700 26.80800
C  5.87500 48.80600 27.48900
C  5.59700 47.76000 28.48300
O  6.08000 46.63000 28.51400
O  4.69600 48.21800 29.46100
C  4.38200 47.23900 30.53300
H  12.72100 49.52300 27.02200
H  12.60400 47.51000 21.02500
H  6.20700 47.35600 21.12400
H  8.21200 49.89200 28.69100
H  11.08300 49.46500 28.83500
H  10.88700 51.70900 29.08500
H  9.46000 51.73100 28.03800
H  10.99100 51.81100 27.23300
H  10.26700 47.71200 29.57100
H  8.63300 47.14200 29.13100
H  7.85400 49.06100 30.75400
H  9.49400 48.81500 31.36700
H  14.77700 49.12100 26.48600
H  15.71000 49.91700 25.21000
H  15.85300 48.10700 25.50400
H  16.60400 47.23800 23.31900
H  16.50200 49.09800 23.10500
H  16.87400 47.87800 21.74500
H  10.57000 45.94900 19.90000
H  7.96300 47.41800 19.42100
H  10.92300 48.81800 19.18600
H  9.89800 48.32900 18.02300
H  11.52800 47.48900 18.28900
H  7.79500 45.16300 18.90100
H  6.94500 45.37100 20.37800
H  8.23700 43.72800 21.33100
H  9.69300 44.61400 21.01200
H  9.09800 43.55200 19.75500
H  3.11700 47.55000 23.72300
H  4.05400 47.35300 22.32600
H  3.52200 49.01700 22.66400
H  5.82100 49.79400 27.94600
H  4.40400 47.64900 31.54300
H  5.05500 46.38400 30.60600
H  3.40500 46.79500 30.34100

