158

Mg 8.99300 4.15700 27.63200
C  10.29300 2.42400 30.37100
C  7.07800 5.96100 29.69400
C  7.66200 5.49100 24.90800
C  10.70700 1.83500 25.55300
N  8.62700 4.02800 29.76100
C  9.35700 3.43000 30.72500
C  9.22600 4.00900 32.09900
C  8.02600 4.98400 31.91600
C  7.83200 5.01000 30.35200
C  6.69600 4.64100 32.65300
C  10.57300 4.77700 32.57700
C  10.50300 5.51200 33.88400
H  11.41300 4.95000 35.02000
N  7.63900 5.57900 27.34700
C  6.94900 6.26700 28.34800
C  6.07200 7.26500 27.75000
C  6.13100 7.08300 26.31900
C  7.18200 6.06700 26.14100
C  5.08900 8.08100 28.59300
C  5.38900 7.86300 25.27000
O  5.52300 7.57300 24.08500
C  4.63500 9.15700 25.63800
N  9.31000 3.85300 25.50700
C  8.55400 4.51700 24.63500
C  8.61800 3.96000 23.19000
C  9.81600 2.97100 23.39100
C  9.89900 2.81400 24.87800
C  7.28800 3.27100 22.78700
C  11.25400 3.36500 22.87100
C  11.81700 2.25500 21.98200
N  10.33400 2.59500 27.88000
C  10.87300 1.69800 26.95300
C  11.67500 0.74000 27.60300
C  11.56100 0.98800 29.00600
C  10.70000 2.05800 29.07700
C  12.18600 -0.47200 27.02000
C  11.95300 0.56100 30.22300
O  12.77100 -0.34100 30.61000
C  11.17700 1.55100 31.25000
C  10.38700 0.83000 32.27900
O  9.45400 0.04400 32.06800
O  10.70500 1.31100 33.53300
C  9.84900 1.00700 34.67600
H  6.55700 6.58700 30.42200
H  7.16500 5.95600 24.05500
H  11.18300 1.02700 24.99300
H  8.97700 3.23500 32.82500
H  8.34000 5.99100 32.19100
H  6.90500 4.00700 33.51400
H  5.99000 4.14800 31.98500
H  6.30000 5.53600 33.13500
H  10.75000 5.47800 31.76100
H  11.35600 4.02000 32.62400
H  9.48600 5.44300 34.27200
H  10.83800 6.53200 33.69600
H  4.06600 7.80000 28.34500
H  5.20100 9.16100 28.49800
H  5.04500 7.93800 29.67200
H  4.30000 9.73700 24.77800
H  5.31900 9.71600 26.27600
H  3.75100 8.86500 26.20400
H  8.87700 4.85000 22.61800
H  9.59300 1.97000 23.02200
H  6.58500 3.88300 22.22100
H  6.75900 3.13800 23.73100
H  7.45200 2.36200 22.20900
H  11.89000 3.55000 23.73700
H  11.17800 4.28800 22.29500
H  11.59200 2.39900 20.92500
H  11.58900 1.24800 22.33300
H  12.90000 2.33400 22.06900
H  12.94600 -0.22500 26.27800
H  11.39400 -1.01900 26.50900
H  12.60000 -1.15600 27.76100
H  11.96100 2.09900 31.77200
H  10.16200 0.01400 34.99900
H  8.80500 1.05700 34.36600
H  10.00900 1.75100 35.45600
Mg 24.04000 -5.57500 45.31800
C  26.40300 -3.19400 43.80800
C  21.71500 -4.20400 43.42200
C  22.32800 -8.31400 46.09100
C  26.86200 -6.73900 47.15100
N  24.09500 -3.85000 43.89500
C  25.12500 -3.13700 43.36300
C  24.61500 -2.19200 42.26600
C  23.09000 -2.27600 42.39300
C  22.92100 -3.49300 43.33400
C  22.39500 -1.05800 42.86600
C  25.24300 -2.44800 40.89800
C  25.95600 -1.21100 40.30800
H  25.42200 -0.74500 38.97500
N  22.12400 -6.10500 44.97000
C  21.30100 -5.43900 44.11200
C  20.02000 -6.09800 44.10500
C  20.13000 -7.28700 44.87300
C  21.56800 -7.30900 45.32700
C  18.79200 -5.69800 43.26200
C  18.98400 -8.26200 45.15400
O  17.87700 -8.17700 44.74900
C  19.28200 -9.51100 45.96400
N  24.58500 -7.35500 46.34600
C  23.66300 -8.32300 46.54900
C  24.23200 -9.46900 47.39600
C  25.76100 -9.00500 47.70200
C  25.79200 -7.61500 47.00500
C  23.41800 -9.89600 48.62000
C  26.88000 -9.97200 47.13000
C  27.62300 -10.97700 48.14200
N  26.30000 -5.06800 45.53500
C  27.23300 -5.59100 46.34600
C  28.48700 -4.90700 46.25700
C  28.25600 -4.03400 45.17800
C  26.89200 -4.14800 44.82000
C  29.72600 -5.22600 47.08500
C  28.82500 -2.95100 44.30600
O  29.95100 -2.56300 44.14900
C  27.65400 -2.38700 43.44400
C  27.42000 -1.00100 43.77900
O  26.47600 -0.53300 44.42200
O  28.57000 -0.24500 43.48000
C  28.68900 1.07600 43.92800
H  20.94000 -3.63200 42.90800
H  21.76500 -9.20500 46.37500
H  27.79800 -6.97700 47.66000
H  24.86500 -1.17800 42.57800
H  22.66600 -2.54400 41.42600
H  22.52500 -0.15700 42.26700
H  22.53800 -0.70800 43.88800
H  21.33500 -1.30600 42.80200
H  24.43000 -2.60100 40.18800
H  25.93700 -3.28600 40.83900
H  26.99600 -1.45100 40.08800
H  25.96400 -0.37100 41.00200
H  18.04100 -5.20100 43.87600
H  18.44900 -6.58200 42.72600
H  19.07700 -4.96300 42.50900
H  18.34400 -10.02400 46.17800
H  19.68900 -9.08700 46.88200
H  19.89600 -10.20800 45.39300
H  24.27900 -10.29800 46.69000
H  25.95800 -8.90700 48.77000
H  22.91300 -9.02400 49.03600
H  24.00400 -10.38700 49.39700
H  22.80000 -10.71300 48.24900
H  27.63400 -9.38900 46.60200
H  26.42300 -10.50900 46.29800
H  28.68600 -10.80000 48.30500
H  27.52400 -11.99500 47.76600
H  27.07900 -10.85000 49.07800
H  30.39800 -5.98900 46.69200
H  29.65300 -5.55100 48.12200
H  30.39300 -4.36400 47.08800
H  27.93300 -2.53900 42.40100
H  28.94700 1.75300 43.11400
H  29.59000 1.19200 44.53000
H  27.76500 1.50800 44.31200

