158

Mg 8.27900 3.93900 27.73100
C  9.56000 2.41500 30.61200
C  6.50600 6.05600 29.49200
C  7.09900 5.18800 24.70900
C  10.04600 1.44100 25.82800
N  8.07000 4.12400 29.82900
C  8.72600 3.51200 30.87900
C  8.32900 4.10800 32.22000
C  7.26000 5.14900 31.78200
C  7.26600 5.14700 30.25900
C  5.83300 4.77300 32.35100
C  9.51500 4.76800 32.84900
C  9.44700 5.32700 34.30600
H  10.42600 4.61800 35.32500
N  6.92600 5.38200 27.19200
C  6.42400 6.24000 28.10800
C  5.68600 7.22800 27.46700
C  5.81800 6.97700 26.02700
C  6.60000 5.77700 25.93500
C  5.02700 8.24500 28.20100
C  5.15200 7.78700 24.82900
O  5.23500 7.47400 23.62700
C  4.48200 9.10200 25.17100
N  8.43800 3.28800 25.55300
C  7.88600 4.00200 24.52300
C  8.31200 3.43000 23.17800
C  9.27500 2.23900 23.52200
C  9.25200 2.29300 25.05000
C  7.16300 3.03300 22.22100
C  10.71700 2.43600 22.98000
C  11.42800 1.31300 22.23000
N  9.51500 2.28100 28.04400
C  10.13900 1.35500 27.22200
C  10.85100 0.40700 28.02100
C  10.66300 0.81400 29.36800
C  9.80800 1.92100 29.35200
C  11.52400 -0.86100 27.64600
C  11.04300 0.58200 30.74200
O  11.79500 -0.25700 31.26900
C  10.30700 1.51300 31.60900
C  9.44700 0.68200 32.45900
O  8.41300 0.07600 32.14100
O  9.91900 0.80600 33.79700
C  9.19700 0.15900 34.90100
H  5.82600 6.61300 30.14000
H  6.81500 5.73900 23.81000
H  10.43000 0.59800 25.24900
H  8.02200 3.35900 32.95000
H  7.52400 6.17400 32.04300
H  5.77900 4.16400 33.25300
H  5.14700 4.37300 31.60500
H  5.38100 5.68400 32.74300
H  9.76900 5.62200 32.22100
H  10.37900 4.11200 32.95600
H  8.50400 5.04100 34.77100
H  9.55800 6.41100 34.34300
H  5.24900 8.32300 29.26500
H  3.95100 8.07000 28.19000
H  5.16200 9.24900 27.80000
H  3.82100 9.52000 24.41200
H  5.23800 9.85100 25.40500
H  3.80700 8.99700 26.02100
H  8.73700 4.27400 22.63400
H  8.96200 1.21600 23.31400
H  6.13300 2.99700 22.57400
H  7.44900 2.08200 21.77300
H  7.10400 3.69500 21.35700
H  11.29300 2.67800 23.87400
H  10.68400 3.30200 22.31800
H  11.51800 1.76000 21.24000
H  10.75100 0.46000 22.27400
H  12.32200 1.10600 22.81800
H  12.56700 -0.70700 27.37100
H  11.02500 -1.32300 26.79500
H  11.32500 -1.51900 28.49200
H  11.14600 1.90300 32.18600
H  9.65100 -0.83100 34.93000
H  8.12100 0.00300 34.81500
H  9.34200 0.65100 35.86200
Mg 35.14000 48.99600 25.46200
C  35.67200 47.39400 28.43900
C  34.11300 51.77500 27.05200
C  34.77900 50.56500 22.38600
C  36.23400 46.12000 23.74400
N  34.79300 49.41100 27.51500
C  35.14800 48.68500 28.58400
C  34.81600 49.46800 29.86500
C  34.29800 50.80300 29.35900
C  34.42400 50.67200 27.83600
C  32.79800 51.16000 29.84300
C  36.02400 49.58600 30.82100
C  35.72600 48.99800 32.20800
H  35.85600 49.93000 33.45600
N  34.51800 50.88100 24.78000
C  34.19100 51.89900 25.63000
C  33.88000 53.12200 24.82300
C  34.19200 52.79400 23.47100
C  34.44600 51.33500 23.49900
C  33.52100 54.49800 25.41600
C  34.27500 53.73600 22.24400
O  34.71400 53.43000 21.16400
C  33.91200 55.20900 22.35200
N  35.40800 48.43300 23.28500
C  35.20900 49.28900 22.24200
C  35.44700 48.55000 20.89100
C  35.98100 47.17100 21.31100
C  35.91900 47.23100 22.91000
C  34.18800 48.55900 19.99200
C  37.38200 46.75500 20.85400
C  38.51000 47.30900 21.74800
N  35.77700 47.09900 25.96100
C  36.25500 46.06100 25.16800
C  36.66200 44.95200 26.00400
C  36.45800 45.44200 27.35100
C  35.93700 46.71400 27.23200
C  37.16900 43.67500 25.48600
C  36.59800 45.08500 28.68700
O  37.09300 44.10400 29.14700
C  36.09200 46.35900 29.50500
C  35.04100 45.92600 30.49500
O  33.89300 45.58700 30.25000
O  35.65900 45.85100 31.71000
C  34.89700 45.13800 32.73500
H  33.81700 52.69100 27.56700
H  34.65200 51.10600 21.44600
H  36.63400 45.26600 23.19200
H  34.05500 48.82900 30.31200
H  34.87100 51.66600 29.69800
H  33.02400 51.85400 30.65200
H  32.35000 50.27100 30.28600
H  32.12700 51.69800 29.17300
H  36.37200 50.60700 30.97700
H  36.85900 49.00200 30.43500
H  36.54900 48.28300 32.21000
H  34.76800 48.48900 32.30600
H  34.30900 55.23900 25.28100
H  33.26500 54.43300 26.47300
H  32.55500 54.75200 24.98100
H  33.84600 55.64900 21.35700
H  34.75400 55.62000 22.90800
H  32.97400 55.23300 22.90600
H  36.30800 48.96100 20.36300
H  35.29700 46.47200 20.83000
H  34.01300 47.53600 19.65800
H  34.39800 49.23200 19.16100
H  33.29800 48.86700 20.54100
H  37.53200 47.02400 19.80900
H  37.46500 45.67200 20.94000
H  38.81700 46.46000 22.35900
H  38.20500 48.16900 22.34500
H  39.38700 47.52000 21.13800
H  38.07000 43.91800 24.92400
H  36.37400 43.21500 24.89800
H  37.45000 42.90500 26.20500
H  36.88100 46.72700 30.16100
H  33.87500 45.41200 32.99700
H  35.47300 45.14600 33.66100
H  34.83800 44.10200 32.40000

