158

Mg 35.66000 0.91700 29.19500
C  33.50700 2.41400 31.71100
C  38.15400 1.08500 31.47400
C  37.86300 0.44400 26.72900
C  33.16500 1.67100 26.80000
N  35.78300 1.53900 31.38400
C  34.79200 2.17200 32.23200
C  35.31000 2.36100 33.64700
C  36.88300 2.30400 33.37300
C  36.95900 1.55000 31.99700
C  37.51200 3.73100 33.26200
C  34.69800 1.31700 34.67500
C  34.31400 1.95500 36.03700
H  35.23200 3.02000 36.63400
N  37.66900 0.41500 29.18700
C  38.52500 0.57800 30.18500
C  39.91100 0.21800 29.78000
C  39.75700 -0.10100 28.37700
C  38.40000 0.25000 27.98600
C  41.10200 0.05000 30.74700
C  40.82600 -0.56400 27.39100
O  40.59600 -0.86800 26.20300
C  42.27500 -0.61200 27.84200
N  35.47500 0.84100 27.12800
C  36.56800 0.74200 26.25400
C  36.27300 1.02000 24.80300
C  34.75500 1.44800 24.91800
C  34.36700 1.19000 26.36200
C  37.11600 2.10100 24.00000
C  33.83000 0.73900 23.85200
C  33.17600 1.77800 22.84000
N  33.70400 1.76200 29.19400
C  32.79600 1.94900 28.16500
C  31.61900 2.66900 28.62600
C  31.81300 2.77100 29.99600
C  33.11000 2.21800 30.29600
C  30.52100 3.01400 27.79300
C  31.20800 3.27800 31.22700
O  30.16800 3.85200 31.42500
C  32.22200 2.88100 32.42300
C  32.41000 4.13600 33.23600
O  33.11600 5.10600 33.00700
O  31.51100 3.99700 34.28600
C  31.31100 5.10500 35.20900
H  39.00300 1.32400 32.11800
H  38.57300 0.22900 25.92800
H  32.41500 1.77900 26.01400
H  35.20700 3.41100 33.92300
H  37.39800 1.80500 34.19400
H  38.25900 3.82500 34.05000
H  36.78800 4.53400 33.39900
H  38.00300 3.85900 32.29700
H  35.35600 0.50200 34.97400
H  33.83200 0.83600 34.22200
H  34.20900 1.17300 36.78800
H  33.26000 2.19400 35.89600
H  40.75200 -0.63700 31.51800
H  41.49100 0.94600 31.22900
H  42.05200 -0.33400 30.37500
H  42.54700 -1.33200 28.61400
H  42.60500 0.40900 28.03700
H  42.90700 -0.74900 26.96500
H  36.32500 0.08600 24.24400
H  34.75400 2.53800 24.92500
H  36.50000 2.90900 23.60400
H  37.57300 1.59300 23.15100
H  37.91600 2.44500 24.65700
H  33.11200 0.16900 24.44100
H  34.44800 0.00300 23.33800
H  33.40700 1.42400 21.83600
H  33.57400 2.79000 22.91100
H  32.09300 1.78800 22.96500
H  29.90900 3.78000 28.26900
H  29.95800 2.13100 27.49200
H  30.96600 3.49200 26.92100
H  31.71700 2.12900 33.03000
H  30.79700 5.94600 34.74300
H  32.30900 5.38900 35.54400
H  30.69800 4.74200 36.03300
Mg 0.42200 44.20200 25.30800
C  2.66400 43.89900 27.93500
C  -2.04400 42.90800 27.34300
C  -1.72700 44.11300 22.68200
C  3.02700 44.92500 23.21300
N  0.37900 43.48900 27.48400
C  1.38000 43.52300 28.34600
C  0.85800 43.29600 29.82300
C  -0.68000 42.87700 29.57900
C  -0.80300 43.09700 28.03200
C  -1.06100 41.43000 30.01500
C  0.89800 44.58700 30.68500
C  1.46000 44.40100 32.09500
H  1.30500 43.03000 32.81700
N  -1.60400 43.68100 25.08600
C  -2.44100 43.15200 26.03100
C  -3.75800 42.89700 25.45600
C  -3.66700 43.32000 24.09000
C  -2.30500 43.75300 23.87800
C  -4.89100 42.44800 26.35200
C  -4.76600 43.30700 23.02400
O  -4.67300 43.76700 21.87200
C  -6.13100 42.67100 23.33700
N  0.62900 44.36600 23.20700
C  -0.46000 44.48200 22.36800
C  0.00900 44.83500 20.91300
C  1.53300 45.09500 21.09800
C  1.77500 44.82800 22.59800
C  -0.45300 43.79400 19.90100
C  2.06500 46.43100 20.54500
C  1.76900 47.77600 21.38300
N  2.48700 44.39800 25.51900
C  3.43500 44.67600 24.52900
C  4.78000 44.60000 25.15800
C  4.48100 44.54600 26.52300
C  3.09600 44.23800 26.64000
C  6.08300 44.75100 24.48600
C  5.04900 44.26800 27.74400
O  6.25700 44.13200 28.00500
C  3.88700 44.05700 28.77200
C  4.26500 42.83800 29.47200
O  3.96000 41.68100 29.10300
O  4.75100 43.08900 30.65200
C  5.24700 41.93100 31.45000
H  -2.75000 42.30100 27.91400
H  -2.42300 44.20800 21.84600
H  3.79100 45.19600 22.48200
H  1.29500 42.41700 30.29700
H  -1.43700 43.56400 29.95900
H  -1.44900 41.39700 31.03300
H  -0.12500 40.88400 30.13100
H  -1.78700 40.83500 29.46100
H  -0.10900 44.97300 30.84000
H  1.57700 45.22800 30.12300
H  1.05100 45.26700 32.61700
H  2.53000 44.54700 31.94800
H  -5.02000 41.36600 26.32700
H  -5.84800 42.86200 26.03600
H  -4.83600 42.83300 27.37000
H  -6.06200 41.73300 23.88800
H  -6.73300 42.55600 22.43600
H  -6.58100 43.39600 24.01600
H  -0.30300 45.83100 20.59600
H  2.11600 44.35200 20.55400
H  0.29100 43.03900 19.64900
H  -0.70300 44.28400 18.96000
H  -1.38600 43.30000 20.17200
H  1.67900 46.65600 19.55100
H  3.14900 46.35200 20.47000
H  1.32200 47.57600 22.35700
H  1.04000 48.35300 20.81500
H  2.72000 48.30000 21.47600
H  6.87600 44.89300 25.22000
H  6.00800 45.51000 23.70800
H  6.21700 43.74200 24.09600
H  3.85600 44.84700 29.52200
H  5.93500 41.41200 30.78300
H  4.44500 41.30400 31.83700
H  5.78200 42.32100 32.31600

