158

Mg 17.68700 52.25700 26.77200
C  19.80600 50.76200 29.25800
C  15.32100 52.51900 29.33100
C  15.67500 53.42000 24.55100
C  19.80400 50.92700 24.29500
N  17.69000 51.75600 29.11700
C  18.66800 51.26200 29.92200
C  18.29900 51.31900 31.38900
C  16.69000 51.44300 31.26900
C  16.54000 51.95700 29.83400
C  15.83800 50.19000 31.66500
C  19.10800 52.38800 32.16500
C  18.91700 52.62100 33.76300
H  17.81100 51.76500 34.44900
N  15.80300 52.92400 26.86500
C  14.99500 53.00100 28.04900
C  13.77400 53.67000 27.73700
C  13.82700 53.90200 26.32300
C  15.17400 53.45700 25.86600
C  12.67000 53.89600 28.70100
C  12.70700 54.41800 25.39600
O  12.86800 54.44400 24.18700
C  11.38700 54.83400 25.83000
N  17.85100 52.28500 24.73800
C  16.87400 52.92000 23.99300
C  17.16600 52.82400 22.44000
C  18.55200 52.07200 22.39000
C  18.79100 51.72300 23.93400
C  15.98100 52.10900 21.74200
C  19.72200 53.01000 21.83500
C  20.26700 54.07800 22.71500
N  19.53400 51.12300 26.72800
C  20.24700 50.60100 25.63300
C  21.33500 49.73800 26.09700
C  21.22600 49.90000 27.54500
C  20.09200 50.66000 27.83400
C  22.22600 48.88700 25.27200
C  21.89100 49.50700 28.80600
O  22.93800 48.94900 28.95200
C  20.95200 50.02000 29.94500
C  20.59100 48.88000 30.79900
O  20.01100 47.93900 30.32100
O  20.87500 49.19000 32.11400
C  20.38500 48.31500 33.11200
H  14.60500 52.49100 30.15500
H  15.02000 53.73600 23.73600
H  20.32800 50.52900 23.42400
H  18.61400 50.34000 31.75100
H  16.26300 52.23700 31.88200
H  15.29600 49.74900 30.82900
H  14.95800 50.58300 32.17300
H  16.30500 49.41200 32.26900
H  19.06300 53.29900 31.56800
H  20.10000 51.96200 32.01700
H  18.76400 53.68900 33.92200
H  19.81800 52.29400 34.28100
H  12.26400 54.90800 28.68500
H  13.04300 53.77400 29.71800
H  11.88600 53.15100 28.56600
H  10.97400 54.04100 26.45400
H  10.71700 54.93600 24.97700
H  11.40000 55.81700 26.30000
H  17.20900 53.80500 21.96700
H  18.58000 51.15700 21.79800
H  15.92900 51.09300 22.13400
H  15.96400 52.15000 20.65300
H  15.09200 52.71300 21.92400
H  19.29300 53.43400 20.92700
H  20.57900 52.36900 21.62500
H  20.39500 54.99200 22.13500
H  21.18700 53.69400 23.15600
H  19.74900 54.22800 23.66200
H  21.78600 48.58600 24.32200
H  22.31900 48.00500 25.90600
H  23.25000 49.25500 25.21900
H  21.50000 50.77700 30.50600
H  19.55800 47.64600 32.87200
H  20.05200 48.95700 33.92700
H  21.17100 47.63300 33.43500
Mg -11.72000 37.08700 42.26000
C  -9.52300 34.49400 41.27800
C  -9.54100 39.40300 40.89800
C  -14.06700 39.48400 42.43200
C  -13.91400 34.77000 43.39800
N  -9.73900 36.83000 41.09700
C  -9.07900 35.75400 40.71800
C  -7.92100 36.04400 39.86300
C  -7.73700 37.59500 39.98700
C  -9.10000 38.02200 40.71600
C  -6.54000 38.09800 40.82700
C  -8.23000 35.48200 38.47300
C  -7.27800 34.37600 37.93700
H  -6.16300 34.75800 37.00800
N  -11.78200 39.12500 41.69700
C  -10.75200 39.92000 41.36700
C  -11.20400 41.24300 41.28900
C  -12.54400 41.25900 41.51200
C  -12.88100 39.87900 41.86100
C  -10.24500 42.34700 41.04700
C  -13.55100 42.46900 41.27400
O  -13.09300 43.52700 40.94300
C  -15.08400 42.44000 41.28500
N  -13.85500 37.05900 42.54700
C  -14.48500 38.19900 42.82900
C  -15.88400 37.88000 43.44000
C  -15.81800 36.35800 43.67600
C  -14.45000 36.01400 43.19500
C  -16.13600 38.64700 44.78800
C  -16.91200 35.52000 42.91600
C  -17.73000 34.51000 43.86500
N  -11.72800 35.05400 42.43900
C  -12.64700 34.28600 43.09000
C  -12.04300 32.93300 43.21000
C  -10.89000 32.94800 42.44600
C  -10.70900 34.27800 41.98600
C  -12.60400 31.65300 43.94200
C  -9.75100 32.13800 41.96000
O  -9.57200 30.89500 42.08100
C  -8.82900 33.12200 41.13700
C  -7.51300 33.02000 41.86200
O  -6.92200 31.91900 42.09400
O  -7.11000 34.16500 42.44900
C  -5.94100 34.06500 43.26800
H  -8.89400 40.18600 40.49800
H  -14.72700 40.33300 42.62600
H  -14.56100 34.10600 43.97600
H  -7.05500 35.51400 40.26100
H  -7.71600 38.01900 38.98300
H  -6.04600 37.33500 41.42900
H  -6.78100 38.87100 41.55700
H  -5.76400 38.51100 40.18200
H  -8.20100 36.34600 37.80800
H  -9.14300 34.88700 38.48600
H  -7.90600 33.67300 37.39000
H  -6.82000 33.79100 38.73400
H  -9.19600 42.14000 41.25900
H  -10.50000 43.05400 41.83600
H  -10.34000 42.84300 40.08100
H  -15.41800 41.53200 40.78400
H  -15.46400 43.40400 40.94500
H  -15.51000 42.39900 42.28700
H  -16.63800 38.18000 42.71300
H  -15.77600 36.06000 44.72300
H  -15.38100 39.40200 45.01000
H  -16.15200 37.94300 45.62100
H  -17.06600 39.17900 44.59000
H  -16.61600 35.18300 41.92200
H  -17.66900 36.28700 42.75200
H  -18.43600 35.20300 44.32400
H  -17.14600 34.07400 44.67500
H  -18.26900 33.79200 43.24600
H  -11.78500 31.24400 44.53400
H  -12.91400 30.86600 43.25400
H  -13.29500 31.95100 44.73100
H  -8.65600 32.78600 40.11500
H  -5.13700 33.65400 42.65700
H  -6.11700 33.28200 44.00500
H  -5.70400 34.97500 43.82000

