158

Mg 35.84000 1.84100 29.97600
C  33.73700 3.38000 32.37500
C  38.25900 1.72800 32.28100
C  37.84600 0.98600 27.47700
C  33.21200 2.83700 27.44200
N  35.91700 2.58800 32.08300
C  34.94200 3.07500 32.87300
C  35.27300 2.96700 34.34100
C  36.91900 2.97900 34.22000
C  37.08300 2.40500 32.81200
C  37.65100 4.32300 34.49400
C  34.64500 1.73500 35.05900
C  34.50400 1.86100 36.55000
H  35.00400 3.09700 37.32100
N  37.72800 1.26700 29.94300
C  38.58600 1.30400 31.03200
C  39.93300 0.77100 30.57800
C  39.80200 0.53200 29.14400
C  38.40900 0.84900 28.78500
C  41.21100 0.63900 31.35500
C  40.90400 0.21500 28.12700
O  40.60700 0.08200 26.95400
C  42.32000 -0.12500 28.35500
N  35.49000 1.84800 27.80600
C  36.55800 1.46300 27.09400
C  36.15300 1.47000 25.57700
C  34.61700 1.88900 25.50700
C  34.42600 2.21200 26.99000
C  37.00900 2.32500 24.59900
C  33.45400 0.91500 24.99500
C  33.09100 1.17700 23.48000
N  33.88900 2.87800 29.86600
C  32.90500 3.11300 28.82200
C  31.69700 3.63800 29.35300
C  31.99600 3.78200 30.73900
C  33.34700 3.32400 30.99900
C  30.44700 4.02100 28.66700
C  31.42700 4.17700 32.01600
O  30.31300 4.65300 32.21700
C  32.53200 3.93800 33.11000
C  32.65600 5.10000 34.00500
O  33.54400 5.96300 33.91400
O  31.65800 5.02600 35.01300
C  31.72800 6.14200 35.98900
H  39.00800 1.69500 33.07500
H  38.49800 0.83900 26.61300
H  32.48000 3.14600 26.69400
H  34.91700 3.88700 34.80500
H  37.35200 2.28800 34.94400
H  37.99600 4.88100 33.62400
H  38.48400 4.29200 35.19600
H  36.88200 4.97700 34.90600
H  35.30300 0.89200 34.85200
H  33.65500 1.55700 34.63900
H  34.90700 0.92800 36.94300
H  33.48600 1.74000 36.92000
H  41.90700 1.36900 30.94000
H  41.56800 -0.33900 31.03400
H  40.97200 0.77100 32.41000
H  42.43000 -1.04100 28.93500
H  42.81900 0.64200 28.94600
H  42.76100 -0.22800 27.36300
H  36.19900 0.47700 25.13100
H  34.63300 2.84900 24.99000
H  37.52600 3.06300 25.21100
H  36.36000 2.82600 23.88000
H  37.74000 1.77400 24.00700
H  32.53600 0.91000 25.58200
H  33.88200 -0.07100 24.81600
H  33.60300 2.04300 23.06200
H  32.06100 1.53200 23.45000
H  33.06900 0.23700 22.92900
H  30.24600 3.43900 27.76800
H  30.34800 5.10500 28.60200
H  29.71300 3.75300 29.42700
H  32.36500 3.05000 33.72000
H  31.45700 7.11600 35.58000
H  32.73400 6.18600 36.40600
H  31.10400 5.89100 36.84600
Mg 49.33700 45.35800 42.38200
C  46.04400 46.31200 41.36700
C  48.87800 42.40200 40.79700
C  52.66400 44.93600 42.41600
C  49.83700 48.67000 43.38500
N  47.58400 44.45900 41.25900
C  46.38500 45.05500 40.93700
C  45.53800 44.04600 40.18800
C  46.38900 42.64300 40.30500
C  47.73300 43.20300 40.81600
C  45.60600 41.57800 41.28400
C  45.13500 44.46000 38.68700
C  43.94400 43.73400 38.06100
H  44.23600 42.65500 37.04400
N  50.59000 43.72700 41.93700
C  50.21100 42.64000 41.23600
C  51.34200 41.76100 41.19400
C  52.41300 42.34200 41.87500
C  51.93400 43.75500 42.08200
C  51.32400 40.39300 40.44300
C  53.83700 41.91100 42.14200
O  54.15800 40.81400 41.75600
C  54.91500 42.64700 42.86000
N  50.96800 46.66800 42.70700
C  52.22700 46.22700 42.67400
C  53.28900 47.32000 42.91900
C  52.43500 48.41200 43.63000
C  50.98700 47.96600 43.26300
C  54.51300 46.93200 43.86300
C  52.81900 49.86600 43.23100
C  53.87600 50.52400 44.15000
N  48.18200 47.08100 42.52100
C  48.54800 48.35700 42.95300
C  47.39800 49.17500 42.90200
C  46.38100 48.44200 42.30200
C  46.89100 47.16300 42.03100
C  47.42200 50.62800 43.33900
C  44.93900 48.40800 41.87200
O  44.00500 49.23700 41.89800
C  44.79800 47.10400 41.09700
C  43.55400 46.46800 41.33500
O  42.66800 46.30400 40.55300
O  43.56600 45.90800 42.60700
C  42.45500 44.93900 42.85700
H  48.71700 41.46700 40.25600
H  53.73500 44.72700 42.38000
H  50.00500 49.67700 43.77300
H  44.63200 43.85000 40.76200
H  46.44600 42.26700 39.28300
H  46.29000 41.36100 42.10400
H  45.41100 40.65900 40.73100
H  44.66900 41.91300 41.73100
H  46.06100 44.19500 38.17700
H  45.12300 45.54500 38.59200
H  43.30200 44.50100 37.62600
H  43.34300 43.38100 38.89900
H  52.23700 39.79700 40.42500
H  50.92100 40.52400 39.43900
H  50.69600 39.98500 41.23500
H  55.36000 43.36100 42.16600
H  55.61800 41.96100 43.33000
H  54.52600 43.06000 43.79100
H  53.69500 47.64300 41.96000
H  52.50900 48.28000 44.71000
H  54.46800 45.92300 44.27500
H  54.73100 47.55700 44.72900
H  55.39800 46.80200 43.24000
H  52.01700 50.60100 43.16600
H  53.34000 49.85900 42.27400
H  54.16400 49.88600 44.98500
H  53.52000 51.45100 44.60100
H  54.75700 50.76500 43.55500
H  47.70200 51.45000 42.68100
H  48.01000 50.73500 44.25000
H  46.45900 51.03700 43.64400
H  44.76900 47.41000 40.05200
H  42.58400 43.98000 42.35600
H  41.46200 45.20000 42.48900
H  42.41900 44.81600 43.94000

