158

Mg 27.23900 50.39600 26.10000
C  25.07700 51.26400 28.89900
C  29.44900 49.27900 28.45700
C  29.37200 50.07200 23.63200
C  24.85200 51.82600 23.90000
N  27.31800 50.46600 28.39600
C  26.27200 50.69200 29.27600
C  26.59500 50.29100 30.70000
C  28.03100 49.71200 30.54100
C  28.27100 49.79300 29.03200
C  29.18700 50.38200 31.38300
C  25.59700 49.28400 31.29400
C  24.88100 49.74100 32.50900
H  25.78900 50.26200 33.74500
N  29.19500 49.72600 26.04700
C  29.96000 49.29700 27.16500
C  31.23000 48.87000 26.55200
C  31.22600 49.09100 25.18100
C  29.90300 49.61000 24.91800
C  32.29900 48.20400 27.41400
C  32.36900 48.86200 24.17900
O  32.27500 49.30100 23.04700
C  33.66400 48.21700 24.63000
N  27.24700 51.20700 24.09000
C  28.19100 50.70400 23.31400
C  27.71400 50.80400 21.77500
C  26.21400 51.15000 21.88200
C  26.09700 51.41400 23.36000
C  28.54700 51.74000 20.81900
C  25.25600 49.97700 21.48800
C  24.33200 50.46600 20.33300
N  25.39200 51.38600 26.33300
C  24.50100 51.85900 25.33700
C  23.28200 52.33800 25.98400
C  23.48500 52.18700 27.39500
C  24.73900 51.57300 27.57500
C  22.08600 52.98400 25.37000
C  22.90900 52.36200 28.65900
O  21.86300 52.97100 28.92900
C  23.94000 51.83200 29.75200
C  24.38600 52.90800 30.69100
O  25.42100 53.60600 30.61900
O  23.41900 53.07600 31.60200
C  23.86400 53.73300 32.85100
H  30.02100 48.71200 29.19500
H  29.84700 49.70300 22.72100
H  23.99100 52.06400 23.27200
H  26.55800 51.19900 31.30200
H  28.04500 48.66600 30.84900
H  28.81900 50.94100 32.24300
H  29.90600 51.04600 30.90400
H  29.81700 49.55200 31.70300
H  26.02300 48.28800 31.41600
H  24.83600 49.16300 30.52400
H  24.30600 48.94100 32.97600
H  24.16600 50.52300 32.25500
H  32.54600 47.18800 27.10700
H  31.92100 47.98200 28.41200
H  33.16300 48.86700 27.38900
H  33.38500 47.25500 25.05800
H  34.17500 48.82200 25.38000
H  34.21500 47.93700 23.73200
H  27.71800 49.80200 21.34400
H  26.19700 52.13100 21.40900
H  29.53500 51.90800 21.24800
H  27.98600 52.66800 20.70600
H  28.69300 51.21000 19.87800
H  24.65400 49.72200 22.36000
H  25.93600 49.13900 21.33800
H  24.82100 50.40100 19.36100
H  24.05900 51.50500 20.52100
H  23.34900 49.99800 20.27900
H  21.95400 52.80100 24.30400
H  22.09300 54.02400 25.69700
H  21.20300 52.64100 25.91000
H  23.47100 50.97900 30.24300
H  24.40400 54.64800 32.60900
H  24.56700 53.14800 33.44300
H  23.00800 53.97200 33.48200
Mg 9.45000 47.84400 26.16400
C  7.74700 47.97800 29.20600
C  12.13200 49.37100 27.83400
C  11.25300 47.54400 23.37900
C  6.55300 46.96300 24.58500
N  9.84100 48.68700 28.27800
C  9.07100 48.38700 29.36100
C  9.70400 48.84800 30.67100
C  11.00600 49.62600 30.19100
C  10.95500 49.27900 28.68600
C  11.04100 51.13200 30.55200
C  10.00500 47.50000 31.51100
C  9.88900 47.77300 33.15300
H  9.89000 46.52600 34.08700
N  11.41000 48.37100 25.68900
C  12.35800 48.83200 26.48600
C  13.68100 48.78500 25.87000
C  13.47100 48.32000 24.56100
C  11.99400 48.02000 24.48600
C  14.92000 49.21400 26.68800
C  14.46800 48.29900 23.40500
O  14.11700 48.02200 22.30800
C  15.86400 48.76900 23.66800
N  8.96100 47.35600 24.28800
C  9.86300 47.30500 23.22800
C  9.28800 46.64900 21.98200
C  7.87400 46.13800 22.53600
C  7.73100 46.90100 23.87300
C  9.42600 47.41500 20.66100
C  7.72000 44.62600 22.75900
C  8.80900 43.89900 23.55000
N  7.48500 47.65700 26.73400
C  6.42200 47.28800 26.00000
C  5.26600 47.19300 26.81800
C  5.70400 47.42800 28.15200
C  7.09100 47.72400 28.00700
C  3.87100 46.68300 26.34800
C  5.42000 47.41500 29.57500
O  4.38400 47.20600 30.15100
C  6.79200 47.72200 30.29900
C  6.99400 46.38100 31.00000
O  7.04800 45.24600 30.48500
O  7.14300 46.59300 32.37700
C  6.92500 45.50700 33.42100
H  12.93200 49.97300 28.27000
H  11.92900 47.35700 22.54200
H  5.66000 46.48000 24.18400
H  9.07100 49.51400 31.25700
H  11.92800 49.19800 30.58600
H  10.13900 51.49700 31.04200
H  11.14500 51.65800 29.60300
H  11.92900 51.52300 31.04800
H  11.07900 47.33800 31.42400
H  9.51300 46.61500 31.10800
H  8.94600 48.27100 33.37700
H  10.60000 48.56100 33.40000
H  14.84100 48.97100 27.74800
H  15.04900 50.27700 26.48500
H  15.87000 48.74700 26.42700
H  16.39400 49.08500 22.77000
H  16.42800 48.04600 24.25800
H  15.91700 49.70100 24.23000
H  9.84600 45.73800 21.76400
H  7.08900 46.51300 21.88000
H  8.42400 47.83600 20.58100
H  9.67400 46.77100 19.81700
H  10.23400 48.12500 20.83800
H  7.35800 44.09500 21.87900
H  6.89000 44.58100 23.46300
H  8.54000 43.71800 24.59000
H  9.77400 44.40500 23.52100
H  9.05900 42.93700 23.10200
H  3.41900 46.11500 27.16100
H  4.11200 45.99900 25.53500
H  3.30300 47.54200 25.98900
H  6.67700 48.53800 31.01300
H  7.25200 46.01700 34.32700
H  7.49900 44.59300 33.26500
H  5.88200 45.19300 33.44100

