158

Mg 46.58000 16.39100 28.34400
C  44.34100 16.18600 30.95100
C  48.71200 18.08700 30.46500
C  48.62900 16.78600 25.74300
C  44.34200 14.67400 26.21000
N  46.42300 17.26900 30.46500
C  45.46200 16.97700 31.33100
C  45.78500 17.42500 32.73100
C  47.23100 18.03000 32.55000
C  47.51000 17.79100 31.06700
C  47.38700 19.58400 32.95200
C  45.73000 16.29700 33.78900
C  46.25300 16.73900 35.15200
H  46.11200 18.18500 35.65200
N  48.42200 17.15600 28.09900
C  49.16900 17.76300 29.09600
C  50.54500 18.13900 28.57400
C  50.51600 17.84600 27.21400
C  49.13600 17.25400 26.95800
C  51.73300 18.49000 29.43600
C  51.54300 18.04400 26.17600
O  51.36000 17.60200 25.06500
C  52.89200 18.59300 26.42200
N  46.28200 16.04200 26.22300
C  47.37000 16.22400 25.45500
C  47.01400 15.92600 24.01200
C  45.76700 15.06300 24.13000
C  45.43800 15.23200 25.58300
C  46.78000 17.23900 23.25500
C  45.98000 13.59500 23.60200
C  46.45400 12.61200 24.66200
N  44.66500 15.75400 28.47800
C  43.89200 14.99700 27.53300
C  42.62700 14.57800 28.14400
C  42.78500 15.05100 29.50300
C  44.03300 15.69000 29.63400
C  41.35000 13.95600 27.49700
C  42.05800 15.18700 30.82300
O  40.89700 14.92600 31.12200
C  43.11900 15.76800 31.78900
C  42.51600 17.00700 32.40300
O  42.46400 18.14100 31.82100
O  42.21500 16.72300 33.69300
C  41.70100 17.85000 34.54300
H  49.48700 18.47800 31.12800
H  49.19500 16.91100 24.81700
H  43.61400 14.07800 25.65600
H  45.12800 18.20000 33.12700
H  47.98900 17.42200 33.04400
H  46.69700 19.95600 33.71000
H  47.34200 20.20500 32.05700
H  48.39200 19.70700 33.35600
H  46.32900 15.45500 33.44200
H  44.75500 15.82800 33.92500
H  47.31600 16.54600 35.29400
H  45.85800 16.01300 35.86300
H  52.54500 17.78400 29.26100
H  51.48600 18.65500 30.48500
H  52.09200 19.45400 29.07700
H  52.90600 19.56200 26.92000
H  53.42000 18.59700 25.46900
H  53.39300 17.89600 27.09300
H  47.88200 15.41300 23.59900
H  44.98700 15.51200 23.51500
H  47.71400 17.79900 23.22200
H  45.97800 17.79500 23.74200
H  46.57100 16.92200 22.23300
H  46.62700 13.56300 22.72600
H  45.06100 13.17700 23.19100
H  47.50800 12.35200 24.56600
H  45.95200 11.66500 24.46700
H  46.18900 12.94900 25.66400
H  41.24100 14.14100 26.42900
H  40.52800 14.33700 28.10400
H  41.43700 12.87000 27.53800
H  43.23700 14.99000 32.54400
H  40.66700 18.07800 34.28300
H  42.22200 18.80600 34.59400
H  41.97600 17.51700 35.54400
Mg 6.68400 53.95400 42.39200
C  6.43300 50.27000 41.98700
C  9.57100 53.88700 40.86200
C  6.38500 57.20300 42.05100
C  3.19000 53.72400 43.45300
N  7.79900 52.22900 41.32700
C  7.55500 50.91100 41.38600
C  8.89800 50.18700 41.08900
C  10.05500 51.32600 40.98200
C  9.13000 52.58300 41.13400
C  11.08900 51.47600 42.16200
C  8.88600 49.25100 39.84800
C  8.07500 49.77300 38.66400
H  8.80700 49.94600 37.32100
N  7.90000 55.35600 41.58100
C  9.01700 55.14900 41.02900
C  9.64500 56.40000 40.77200
C  8.77700 57.42500 41.14500
C  7.62900 56.73500 41.60600
C  11.11900 56.56300 40.56000
C  9.05900 58.87200 41.09900
O  10.08400 59.34400 40.69500
C  8.09400 59.83000 41.69400
N  5.02100 55.22900 42.76800
C  5.23500 56.55700 42.49800
C  4.06400 57.39200 43.06200
C  2.89800 56.28100 43.17900
C  3.75100 55.01400 43.15900
C  4.44100 58.12600 44.38000
C  1.71200 56.35200 42.05400
C  0.35000 56.12100 42.63500
N  5.12200 52.33100 42.72300
C  3.85100 52.40500 43.25700
C  3.35200 51.06500 43.53300
C  4.34500 50.19100 43.11500
C  5.40200 51.00700 42.59400
C  1.96800 50.67700 43.94400
C  4.70200 48.82600 42.84600
O  4.21600 47.78200 43.15700
C  6.11500 48.80600 42.08900
C  5.95200 48.14600 40.76500
O  5.21200 48.40400 39.86500
O  6.52100 46.87600 40.94400
C  6.13300 45.86100 39.95400
H  10.62700 53.86400 40.58300
H  6.25600 58.27800 41.90800
H  2.14200 53.78200 43.75600
H  8.98400 49.63300 42.02400
H  10.56700 51.25900 40.02200
H  11.05300 52.42800 42.69000
H  12.10200 51.24500 41.83400
H  10.96000 50.67200 42.88700
H  8.63700 48.23100 40.13800
H  9.86400 49.21100 39.36900
H  7.55100 50.68200 38.95900
H  7.30000 49.06900 38.36200
H  11.33600 56.95900 39.56800
H  11.58800 55.57900 40.53500
H  11.62200 57.12900 41.34300
H  8.53000 60.82700 41.75300
H  7.78400 59.50700 42.68700
H  7.15500 59.76800 41.14400
H  3.75900 58.20300 42.40000
H  2.43200 56.37400 44.16000
H  4.35100 57.35900 45.15000
H  3.80600 58.95000 44.70400
H  5.49900 58.37100 44.47800
H  1.94300 55.71900 41.19700
H  1.72100 57.33800 41.59000
H  0.22000 56.16800 43.71600
H  0.15900 55.06700 42.43500
H  -0.36200 56.74600 42.09600
H  1.27700 50.77500 43.10700
H  1.67700 51.06600 44.92000
H  2.05800 49.63500 44.24900
H  6.80600 48.30900 42.77000
H  5.06000 45.96700 39.79200
H  6.26400 44.85100 40.34300
H  6.64300 45.86700 38.99100

