158

Mg 47.53300 15.28000 27.61800
C  45.36200 15.17500 30.12800
C  49.81600 17.07400 29.48400
C  49.74200 15.40200 24.92900
C  45.14200 13.56900 25.54700
N  47.51900 16.22100 29.53400
C  46.53800 15.89700 30.49500
C  47.00900 16.36500 31.87600
C  48.20500 17.27300 31.53800
C  48.60100 16.76100 30.10200
C  47.98500 18.73600 31.36600
C  47.19400 15.30700 33.05400
C  47.16800 15.87600 34.45600
H  48.31700 15.53500 35.35700
N  49.50000 16.17800 27.24200
C  50.26500 16.86600 28.20100
C  51.49600 17.27100 27.62800
C  51.48600 16.90300 26.28200
C  50.22700 16.05700 26.10500
C  52.62900 18.07000 28.37200
C  52.54100 17.08700 25.22400
O  52.46100 16.44600 24.21100
C  53.77200 17.95700 25.34200
N  47.42900 14.68900 25.52200
C  48.52900 14.80700 24.64000
C  48.26600 14.06800 23.31400
C  46.87600 13.35100 23.64000
C  46.37600 13.97100 24.90500
C  48.20300 15.05800 22.15800
C  46.94600 11.83700 23.75600
C  47.81800 11.05000 22.77900
N  45.59500 14.64000 27.69200
C  44.78800 13.92800 26.90700
C  43.58400 13.67800 27.53400
C  43.76700 14.12900 28.82000
C  45.03600 14.66900 28.88100
C  42.42700 12.90800 27.02900
C  43.20400 14.17300 30.13500
O  42.11300 13.82900 30.50300
C  44.21600 14.80300 31.03700
C  43.71400 15.93000 31.83600
O  43.48400 17.06700 31.42400
O  43.65700 15.54900 33.16400
C  43.10700 16.41500 34.18300
H  50.49300 17.54500 30.19900
H  50.35600 15.38900 24.02600
H  44.42600 12.93000 25.02600
H  46.21900 17.02500 32.23400
H  49.11100 17.04300 32.09800
H  47.74200 19.00200 30.33800
H  48.83600 19.35000 31.66500
H  47.13400 19.00800 31.99100
H  48.13800 14.77800 32.92100
H  46.50400 14.52400 32.73800
H  46.26300 15.44700 34.88600
H  47.00600 16.92500 34.20900
H  52.79300 19.05000 27.92500
H  53.48500 17.39600 28.36700
H  52.51200 18.26600 29.43800
H  53.60200 18.99300 25.63300
H  54.15800 17.93600 24.32300
H  54.47300 17.52600 26.05800
H  49.09200 13.36100 23.23100
H  46.20100 13.67300 22.84700
H  47.18800 15.36200 21.90300
H  48.66100 14.61300 21.27500
H  48.78200 15.95400 22.38000
H  45.92800 11.44700 23.73700
H  47.42100 11.58600 24.70400
H  48.66000 10.55700 23.26400
H  48.33000 11.64800 22.02400
H  47.26500 10.24000 22.30500
H  42.40300 12.81100 25.94300
H  41.59400 13.38500 27.54500
H  42.46200 11.96100 27.56800
H  44.53000 13.99900 31.70400
H  43.86200 16.85700 34.83300
H  42.43700 15.80500 34.79000
H  42.50500 17.19800 33.72200
Mg 46.59400 44.93300 43.74500
C  43.33000 43.79600 43.46300
C  47.70000 41.76200 43.13000
C  49.65700 46.14100 43.26600
C  45.31000 48.20200 43.84300
N  45.59000 43.01700 43.27000
C  44.26600 42.78400 43.17200
C  43.96300 41.26000 42.89100
C  45.37500 40.60300 42.89300
C  46.30200 41.85100 43.10200
C  45.56600 39.45600 43.87500
C  43.06100 40.95900 41.62900
C  43.23800 41.93200 40.44200
H  42.70200 41.60000 38.99600
N  48.40700 44.02000 43.57200
C  48.73100 42.72400 43.37600
C  50.19800 42.55000 43.31900
C  50.78800 43.81400 43.35000
C  49.61100 44.73300 43.44300
C  50.89700 41.25500 43.20700
C  52.23200 44.16500 43.39500
O  53.03700 43.27700 43.24600
C  52.82300 45.53100 43.50500
N  47.39700 46.86200 43.61400
C  48.74700 47.15500 43.47100
C  48.98600 48.69400 43.17500
C  47.61200 49.33200 43.51900
C  46.73700 48.08300 43.69800
C  50.20900 49.41900 43.87800
C  47.11700 50.34000 42.49000
C  47.09500 51.76700 43.05400
N  44.72000 45.86700 43.88200
C  44.34500 47.18100 43.94500
C  42.96300 47.27400 44.13300
C  42.48500 45.96900 43.93300
C  43.63800 45.11900 43.71600
C  42.19400 48.54000 44.36600
C  41.31800 45.12500 43.92300
O  40.13900 45.28900 44.22700
C  41.85100 43.67900 43.53400
C  41.33800 42.60600 44.43400
O  40.66600 41.69100 44.04100
O  41.66600 42.85400 45.72900
C  41.27200 41.83700 46.76400
H  48.14600 40.83100 42.77100
H  50.53200 46.67600 42.89300
H  45.08200 49.25600 44.01700
H  43.37500 40.85600 43.71500
H  45.48200 40.22600 41.87600
H  45.88800 38.67600 43.18400
H  44.60900 39.12000 44.27500
H  46.22900 39.70900 44.70200
H  42.01600 40.91100 41.93400
H  43.36500 40.04900 41.11300
H  44.30800 42.01300 40.25400
H  43.08600 42.96400 40.76000
H  50.18700 40.51900 43.58300
H  51.81300 41.12100 43.78200
H  51.14800 41.06700 42.16300
H  52.21000 46.15800 44.15200
H  52.81400 46.12600 42.59200
H  53.80200 45.52900 43.98400
H  49.03000 48.71600 42.08600
H  47.67700 49.81900 44.49200
H  50.82600 48.72400 44.44700
H  49.87200 50.09400 44.66500
H  50.88000 49.84600 43.13300
H  46.22600 49.98900 41.96900
H  47.89500 50.44900 41.73500
H  47.01400 51.73500 44.14100
H  46.20700 52.26300 42.66100
H  47.99900 52.29600 42.75000
H  41.34900 48.22100 44.97700
H  41.86500 49.03000 43.45000
H  42.68800 49.23800 45.04100
H  41.35600 43.44800 42.59100
H  41.56400 40.82100 46.50000
H  40.18300 41.84900 46.78400
H  41.56700 42.18900 47.75300

