158

Mg 54.81900 25.15200 43.58100
C  52.05300 27.37500 43.22600
C  52.95200 22.76500 41.97900
C  57.62400 23.42800 43.08000
C  56.67200 27.98000 44.72000
N  52.72100 25.09500 42.85300
C  51.83300 26.09000 42.69700
C  50.49000 25.65600 42.01900
C  50.73300 24.08000 42.02300
C  52.19300 23.99800 42.26100
C  49.93200 23.22600 43.09000
C  50.20500 26.24800 40.62000
C  51.25700 27.02900 39.86300
H  51.92800 26.15100 38.74100
N  55.24600 23.38200 42.63100
C  54.29800 22.46300 42.11200
C  54.97500 21.15700 41.91800
C  56.30900 21.30500 42.39200
C  56.47600 22.73700 42.70800
C  54.28300 19.94600 41.27300
C  57.28300 20.13600 42.33300
O  56.90600 19.03300 42.02800
C  58.64300 20.21600 42.87900
N  56.91400 25.64100 43.75100
C  57.87600 24.74200 43.54900
C  59.32100 25.40900 43.70400
C  58.93200 26.84700 44.22100
C  57.44700 26.89600 44.24500
C  60.27500 24.63800 44.61300
C  59.36300 28.00500 43.22300
C  60.26800 29.14100 43.69000
N  54.46600 27.22000 44.10100
C  55.27100 28.16200 44.65700
C  54.48300 29.32200 44.99700
C  53.19200 29.03200 44.46300
C  53.28000 27.81800 43.85300
C  54.88600 30.38300 45.81000
C  51.85500 29.51300 44.25500
O  51.37700 30.56000 44.52800
C  50.99500 28.46900 43.40600
C  50.67600 29.27500 42.14300
O  51.45200 29.99800 41.52600
O  49.33700 29.06900 41.84400
C  48.72400 29.96000 40.74800
H  52.29200 22.13300 41.38100
H  58.51300 22.79700 43.13800
H  57.27700 28.76200 45.18300
H  49.63100 25.84200 42.66300
H  50.56800 23.58900 41.06400
H  49.65100 22.25200 42.68900
H  48.99300 23.74900 43.27300
H  50.51300 23.12100 44.00600
H  49.32200 26.88700 40.64200
H  49.98400 25.47000 39.88900
H  52.10600 27.38600 40.44500
H  50.69100 27.86100 39.44400
H  54.81800 19.42400 40.48000
H  53.50400 20.39600 40.65700
H  53.75000 19.29500 41.96500
H  59.14900 19.33700 43.27800
H  58.48900 20.90000 43.71400
H  59.23100 20.72500 42.11500
H  59.81500 25.50100 42.73700
H  59.25400 27.13500 45.22100
H  60.48900 25.13500 45.55900
H  61.19500 24.27400 44.15700
H  59.71400 23.74500 44.88700
H  58.50800 28.42400 42.69300
H  59.97000 27.57600 42.42600
H  61.31600 29.08700 43.39300
H  60.29600 29.27500 44.77100
H  59.88100 29.99000 43.12700
H  55.33000 31.20600 45.25100
H  55.54600 30.07700 46.62200
H  53.94300 30.81300 46.14900
H  50.07100 28.11600 43.86300
H  47.73000 30.09900 41.17100
H  48.55600 29.43100 39.81000
H  49.18300 30.93800 40.60300
Mg 46.68600 17.19100 27.65500
C  44.90400 16.82800 30.65000
C  49.09400 18.96700 29.48300
C  48.10200 18.21800 24.73700
C  43.98100 15.86800 25.82100
N  46.91400 17.92800 29.89300
C  46.14000 17.40900 30.88100
C  46.88100 17.53200 32.25800
C  48.09900 18.47000 31.85100
C  48.02200 18.48200 30.32000
C  48.14600 20.00100 32.44000
C  47.21000 16.19800 33.02100
C  47.13300 16.10300 34.53600
H  47.03000 17.39900 35.29900
N  48.40100 18.29600 27.15000
C  49.30000 18.93300 28.05600
C  50.40100 19.44900 27.29200
C  50.04100 19.26900 25.94700
C  48.83600 18.50000 25.87800
C  51.65200 20.00300 27.96400
C  50.74900 19.72300 24.61100
O  50.32700 19.54600 23.47500
C  52.08800 20.29000 24.65900
N  46.14900 16.94900 25.51600
C  46.89800 17.48400 24.56000
C  46.16200 17.39800 23.22800
C  45.03100 16.28800 23.51900
C  45.05400 16.31800 25.01600
C  45.61200 18.70300 22.79800
C  45.29900 14.94100 22.86100
C  44.24300 14.46700 21.86300
N  44.82700 16.54100 28.03500
C  43.91100 15.89200 27.28400
C  42.81100 15.44000 28.13600
C  43.23100 15.72400 29.41800
C  44.42500 16.42100 29.36400
C  41.48500 14.70800 27.87000
C  42.82800 15.55700 30.79700
O  41.94900 15.00600 31.31800
C  43.91600 16.26300 31.73400
C  43.22000 17.24000 32.63700
O  42.89100 18.41000 32.45400
O  43.14900 16.61800 33.82400
C  42.62800 17.45000 34.92800
H  49.88600 19.38600 30.10600
H  48.33900 18.61400 23.74800
H  43.15800 15.44800 25.23900
H  46.29600 18.16500 32.92500
H  49.02700 17.98400 32.15200
H  49.02500 20.11700 33.07400
H  47.29000 20.11200 33.10600
H  48.00700 20.64500 31.57200
H  48.21800 15.92600 32.70900
H  46.50200 15.51300 32.55400
H  47.77200 15.34000 34.98100
H  46.12900 15.69500 34.65500
H  51.51000 21.07000 28.13000
H  52.56500 19.81600 27.39900
H  51.79600 19.49700 28.91800
H  52.03600 21.15100 25.32500
H  52.34200 20.66800 23.66900
H  52.83700 19.53800 24.90500
H  46.80600 17.05200 22.41900
H  44.04400 16.59100 23.17000
H  44.53400 18.76200 22.64900
H  46.21000 19.02700 21.94600
H  45.72500 19.40700 23.62200
H  45.52800 14.21300 23.63900
H  46.22100 15.03500 22.28700
H  43.46300 15.20800 21.69100
H  43.68900 13.63900 22.30600
H  44.67500 14.12300 20.92300
H  40.68300 15.05200 28.52300
H  41.72400 13.69900 28.20500
H  41.19400 14.71800 26.81900
H  44.41000 15.53300 32.37600
H  41.55100 17.49600 35.09300
H  42.99200 18.47700 34.90100
H  42.93600 17.00700 35.87500

