158

Mg -2.67100 17.03600 27.06300
C  -3.01300 14.98300 29.86700
C  -2.79400 19.71700 29.12300
C  -2.16800 19.01300 24.44200
C  -2.65000 14.13900 25.00200
N  -2.81400 17.25500 29.31800
C  -2.81800 16.32100 30.31000
C  -2.94500 16.93200 31.69600
C  -2.87700 18.53300 31.36300
C  -2.86200 18.54500 29.82700
C  -4.08100 19.27100 32.04100
C  -1.89300 16.43400 32.78400
C  -1.53600 17.33500 33.96100
H  -1.02500 16.67600 35.25700
N  -2.57800 19.09000 26.74900
C  -2.72400 20.04500 27.78000
C  -2.58300 21.42500 27.25700
C  -2.44400 21.22200 25.84700
C  -2.36000 19.73800 25.62900
C  -2.74600 22.71700 28.09900
C  -2.38500 22.22000 24.69900
O  -2.20600 21.89100 23.54200
C  -2.18600 23.67600 25.02000
N  -2.48700 16.65400 25.02500
C  -2.24000 17.64200 24.16200
C  -2.07000 17.05800 22.70700
C  -1.96900 15.52400 22.91300
C  -2.39800 15.39500 24.39300
C  -3.36100 17.49300 21.87700
C  -0.52800 14.84200 22.62600
C  0.64100 15.63100 23.20000
N  -2.84900 14.99300 27.42200
C  -2.81700 13.92000 26.39200
C  -3.07200 12.74300 27.15900
C  -3.07600 13.10400 28.55000
C  -2.91200 14.42300 28.61900
C  -3.41700 11.41700 26.57100
C  -3.28100 12.56400 29.96800
O  -3.59900 11.51100 30.49500
C  -3.12600 13.88000 30.82600
C  -1.84400 13.60700 31.54700
O  -0.75700 13.89400 31.17200
O  -2.11500 13.04200 32.78000
C  -1.04200 12.76900 33.75500
H  -2.78200 20.61800 29.74000
H  -1.89800 19.59400 23.55800
H  -2.58500 13.30700 24.29700
H  -3.90000 16.69800 32.16500
H  -1.95100 18.84500 31.84700
H  -4.47800 18.68500 32.87000
H  -4.90800 19.60900 31.41700
H  -3.71500 20.18500 32.51100
H  -1.00900 16.14900 32.21400
H  -2.27600 15.53000 33.25800
H  -2.23300 18.10300 34.29600
H  -0.55600 17.79600 33.83700
H  -2.58900 22.67400 29.17700
H  -3.73200 23.10900 27.84900
H  -2.03300 23.49600 27.83300
H  -1.41000 23.86600 25.76100
H  -3.08200 24.06600 25.50400
H  -1.94400 24.34400 24.19400
H  -1.14300 17.48800 22.32500
H  -2.72200 15.02800 22.29900
H  -3.93800 18.23800 22.42500
H  -3.98400 16.65800 21.55600
H  -3.10000 17.97700 20.93500
H  -0.41400 14.81200 21.54300
H  -0.48900 13.78600 22.89500
H  1.22100 16.06500 22.38600
H  1.41400 15.01900 23.66500
H  0.38700 16.25100 24.06000
H  -3.86900 10.79600 27.34500
H  -2.50500 10.93600 26.21800
H  -4.14800 11.56700 25.77700
H  -3.95400 14.04500 31.51500
H  -1.39500 12.67400 34.78200
H  -0.18000 13.43700 33.73000
H  -0.74000 11.73900 33.56900
Mg -0.58400 7.37600 26.45900
C  0.20300 9.23000 29.30000
C  -0.22100 4.48300 28.59200
C  -1.17800 5.41500 23.95800
C  -0.14800 10.09300 24.48500
N  -0.11500 6.96700 28.67800
C  0.00400 7.93700 29.64700
C  0.03000 7.34200 31.02000
C  0.07600 5.78800 30.79600
C  -0.04500 5.76700 29.28400
C  1.24400 5.03900 31.41200
C  -1.24800 7.72700 31.84700
C  -1.00800 8.07400 33.28200
H  0.27500 7.52100 33.89800
N  -0.58200 5.26400 26.28300
C  -0.44900 4.26600 27.20900
C  -0.49600 2.97900 26.55100
C  -0.85600 3.22200 25.22200
C  -0.94200 4.67100 25.10300
C  -0.22500 1.61500 27.20800
C  -1.26600 2.18300 24.11200
O  -1.76500 2.41400 23.01100
C  -1.15700 0.72600 24.44000
N  -0.40700 7.67900 24.45200
C  -0.96600 6.75800 23.63900
C  -1.28900 7.33600 22.23500
C  -0.86900 8.87100 22.40900
C  -0.53600 8.88800 23.84300
C  -0.63500 6.57500 21.05100
C  -1.99300 9.85800 22.05400
C  -3.20500 10.15900 22.94900
N  -0.13300 9.33800 26.77500
C  0.01700 10.32100 25.87600
C  0.37300 11.47300 26.56800
C  0.44500 11.11100 27.91200
C  0.10500 9.76300 27.96200
C  0.54100 12.81700 25.91900
C  0.80700 11.59100 29.19400
O  1.24400 12.63000 29.53500
C  0.44000 10.45900 30.23600
C  1.54200 10.37400 31.17900
O  2.60300 9.83800 30.91900
O  1.35800 11.03300 32.36800
C  2.49700 11.12100 33.36300
H  -0.05500 3.71800 29.35400
H  -1.45100 4.84900 23.06400
H  -0.08100 10.98300 23.85500
H  0.94000 7.64900 31.53600
H  -0.79000 5.31900 31.26300
H  1.92700 5.66500 31.98700
H  1.81000 4.50000 30.65200
H  0.88900 4.31400 32.14300
H  -2.04400 6.98600 31.77400
H  -1.67500 8.62200 31.39500
H  -1.83500 7.65800 33.85800
H  -1.11300 9.15600 33.35700
H  0.28400 1.71900 28.16600
H  0.41400 0.94300 26.63600
H  -1.13600 1.03700 27.36500
H  -1.64700 0.40100 25.35800
H  -0.09700 0.48200 24.50600
H  -1.50200 0.19400 23.55300
H  -2.35600 7.17000 22.08900
H  0.06800 9.14700 21.92600
H  0.28800 6.10600 21.39400
H  -0.35400 7.29500 20.28300
H  -1.33400 5.80700 20.72200
H  -2.36700 9.61400 21.06000
H  -1.37300 10.72700 21.83400
H  -3.04500 11.18900 23.26800
H  -3.23700 9.48800 23.80700
H  -4.21000 9.91500 22.60400
H  0.50500 13.57900 26.69700
H  -0.17900 13.10000 25.15100
H  1.54900 12.94000 25.52300
H  -0.48900 10.78500 30.70300
H  3.43000 10.71600 32.97100
H  2.21500 10.66600 34.31300
H  2.74400 12.18000 33.44200

