158

Mg 40.95600 9.66400 30.17800
C  42.92200 10.84800 32.76300
C  38.53200 8.71900 32.52200
C  39.11900 8.47800 27.68000
C  43.54800 10.34200 27.86900
N  40.82700 9.51800 32.43700
C  41.73900 10.27900 33.28400
C  41.10300 10.41700 34.73500
C  39.86300 9.47900 34.59600
C  39.67000 9.29000 33.08300
C  39.91300 8.15700 35.42900
C  40.77600 11.89400 35.12200
C  40.03500 12.07400 36.49700
H  40.58600 13.01700 37.61600
N  39.16400 8.74000 30.14600
C  38.29200 8.49500 31.17300
C  37.04000 7.88100 30.63700
C  37.21500 7.84500 29.18300
C  38.47900 8.39100 28.93300
C  35.88800 7.33600 31.51000
C  36.26300 7.25100 28.10000
O  36.43900 7.24400 26.88700
C  35.02600 6.53200 28.65400
N  41.30400 9.51100 28.12100
C  40.42900 8.93000 27.31200
C  40.92100 8.90200 25.81900
C  42.26200 9.65900 25.86700
C  42.40000 9.92900 27.41200
C  40.93800 7.50500 25.27600
C  42.35600 10.97200 25.02400
C  41.14400 11.97700 25.13800
N  42.86500 10.35900 30.27500
C  43.78200 10.67100 29.23400
C  44.91600 11.32200 29.88200
C  44.57600 11.44200 31.24000
C  43.34900 10.82800 31.36600
C  46.14500 11.77200 29.14100
C  45.06100 11.95900 32.55200
O  46.12600 12.52500 32.90500
C  43.99200 11.57100 33.54100
C  44.57600 10.74800 34.72000
O  45.20400 9.68000 34.66600
O  44.33300 11.42200 35.92300
C  44.97300 10.84300 37.07500
H  37.68100 8.60600 33.19700
H  38.63200 8.16500 26.75500
H  44.17500 10.54000 26.99700
H  41.92300 10.13300 35.39500
H  38.98600 9.99500 34.98600
H  40.14700 7.30800 34.78700
H  38.90700 8.09000 35.84300
H  40.62800 8.17300 36.25100
H  40.11500 12.33400 34.37400
H  41.72400 12.42600 35.20200
H  39.80000 11.07600 36.86800
H  39.05600 12.51600 36.31400
H  35.90900 7.56900 32.57500
H  35.79400 6.26600 31.32400
H  35.01900 7.89100 31.15600
H  35.45200 5.77000 29.30600
H  34.49300 6.13300 27.79000
H  34.44900 7.23100 29.25900
H  40.19100 9.44300 25.21700
H  43.08500 8.98000 25.64500
H  40.61200 6.75400 25.99600
H  41.94600 7.22300 24.97300
H  40.20500 7.18600 24.53500
H  42.38400 10.53000 24.02800
H  43.28500 11.50300 25.22700
H  41.46100 12.96700 25.46400
H  40.44200 11.63900 25.90100
H  40.61300 12.05900 24.19000
H  46.01600 11.83900 28.06100
H  46.95500 11.08000 29.36900
H  46.36900 12.77000 29.51900
H  43.68500 12.53900 33.93800
H  44.45800 11.30600 37.91600
H  46.04500 11.02700 37.14300
H  44.88700 9.76200 37.19000
Mg 9.98300 47.44800 25.33400
C  7.73100 47.82900 27.94600
C  12.25800 49.07800 27.17400
C  11.89200 47.36400 22.72600
C  7.11700 46.69400 23.26100
N  10.01300 48.18400 27.32900
C  9.00800 48.14700 28.30700
C  9.48500 48.56900 29.64400
C  10.78700 49.36900 29.30000
C  11.02100 48.82500 27.87600
C  10.78200 50.89600 29.53100
C  9.76900 47.31500 30.62300
C  9.89500 47.70200 32.09000
H  9.71300 46.58000 33.06800
N  11.90000 48.03400 24.95000
C  12.64200 48.73000 25.81900
C  14.01500 48.93600 25.22400
C  13.97900 48.39000 23.91900
C  12.56800 47.90500 23.82400
C  15.17200 49.50800 25.98300
C  15.01500 48.35000 22.83800
O  14.80700 47.90500 21.66800
C  16.37000 48.74900 23.23300
N  9.50000 47.16000 23.31800
C  10.56000 46.96900 22.42600
C  10.09600 46.27600 21.07600
C  8.57700 45.95000 21.37700
C  8.36500 46.61500 22.73100
C  10.27700 47.14700 19.77300
C  8.31500 44.42800 21.40900
C  8.83500 43.53800 22.52300
N  7.89700 47.23100 25.52300
C  6.84900 46.90900 24.66800
C  5.56700 46.97800 25.25900
C  5.90300 47.30300 26.56300
C  7.27500 47.43900 26.69200
C  4.12800 46.85400 24.61900
C  5.25900 47.48600 27.82300
O  4.08100 47.16800 28.09900
C  6.44300 47.77300 28.82000
C  6.34800 46.73200 29.92500
O  6.50600 45.49500 29.74400
O  6.16400 47.41000 31.13700
C  6.05300 46.58200 32.28800
H  12.98000 49.59200 27.81200
H  12.45100 47.26600 21.79300
H  6.36000 46.32600 22.56500
H  8.75900 49.18100 30.18000
H  11.59400 49.01800 29.94300
H  11.58800 51.18800 30.20300
H  9.80700 51.25000 29.86700
H  11.02200 51.47300 28.63800
H  10.71000 46.91300 30.24700
H  9.10500 46.46900 30.44800
H  9.15700 48.48300 32.27400
H  10.86900 48.12000 32.34500
H  14.91000 49.48100 27.04000
H  15.47200 50.51500 25.69200
H  16.09600 48.93000 25.99800
H  16.97400 48.69200 22.32700
H  16.82600 48.04200 23.92500
H  16.20600 49.77200 23.57200
H  10.66300 45.37500 20.84000
H  7.98400 46.31200 20.53700
H  11.09600 46.73500 19.18300
H  10.53900 48.15000 20.10900
H  9.43200 47.20500 19.08700
H  8.71700 44.00900 20.48700
H  7.24200 44.27600 21.29200
H  9.53500 42.81600 22.10100
H  8.02600 42.86300 22.80100
H  9.20900 44.20400 23.30000
H  3.90500 45.97700 24.01200
H  4.14500 47.70200 23.93500
H  3.40700 47.09300 25.40100
H  6.21800 48.71300 29.32400
H  5.29800 45.83100 32.05600
H  5.86800 47.11300 33.22200
H  7.06600 46.18500 32.35000

