158

Mg 25.94400 0.12300 29.59500
C  27.70500 -0.51800 32.65700
C  23.01900 0.05900 31.66600
C  24.11100 -0.07200 26.84300
C  28.77200 -0.80500 27.89100
N  25.42600 -0.20600 31.91800
C  26.37200 -0.29500 32.93700
C  25.74300 -0.13700 34.27300
C  24.22400 -0.37300 33.93800
C  24.21600 -0.12900 32.41000
C  23.68200 -1.81600 34.12300
C  26.11600 1.26800 34.90000
C  26.55600 1.27500 36.37400
H  25.88000 0.39700 37.39000
N  23.89300 0.19500 29.27700
C  22.89500 0.21100 30.29100
C  21.59600 0.43100 29.61500
C  21.86200 0.48000 28.22800
C  23.36300 0.11600 28.08100
C  20.30000 0.68300 30.38300
C  20.86900 0.71300 27.10300
O  21.16200 0.57600 25.97400
C  19.33800 0.83200 27.45800
N  26.31500 -0.60500 27.62700
C  25.43000 -0.42700 26.64800
C  26.16900 -0.35900 25.24700
C  27.66000 -0.32400 25.72900
C  27.60900 -0.53800 27.17100
C  25.86900 -1.56100 24.26600
C  28.42900 0.96100 25.36900
C  29.78200 0.69600 24.60800
N  27.82200 -0.44100 30.08800
C  28.90200 -0.74500 29.30400
C  30.08900 -0.85700 30.06200
C  29.65300 -0.81900 31.38500
C  28.25000 -0.63300 31.35600
C  31.52000 -0.98600 29.61700
C  30.13500 -0.90600 32.78200
O  31.25700 -1.03200 33.22100
C  28.83800 -0.75900 33.67300
C  28.74700 -1.96400 34.46000
O  27.97300 -2.87400 34.23300
O  29.57900 -1.87500 35.55200
C  29.11500 -2.60600 36.68300
H  22.14000 0.22200 32.29300
H  23.59500 -0.09200 25.88100
H  29.70200 -1.00400 27.35500
H  26.14400 -0.93800 34.89400
H  23.61100 0.42800 34.35300
H  23.42100 -2.28300 33.17300
H  22.75200 -1.80200 34.69000
H  24.42500 -2.47300 34.57600
H  25.23000 1.89000 34.77100
H  26.86700 1.70400 34.24200
H  26.40400 2.26000 36.81400
H  27.62600 1.06900 36.36800
H  19.83600 1.61800 30.07300
H  20.51700 0.74400 31.44900
H  19.58900 -0.12700 30.21900
H  18.98600 -0.03600 28.01500
H  18.79400 0.61900 26.53800
H  19.00000 1.80200 27.82100
H  25.89200 0.57900 24.76700
H  28.07700 -1.27200 25.39000
H  24.79300 -1.69700 24.15800
H  26.42200 -2.43700 24.60500
H  26.30400 -1.38100 23.28300
H  28.62400 1.43600 26.33100
H  27.80000 1.63300 24.78700
H  30.56400 1.44700 24.71400
H  29.55900 0.73500 23.54200
H  30.07300 -0.33400 24.81400
H  31.58400 -1.25800 28.56300
H  31.89200 -1.84400 30.17700
H  32.25600 -0.26400 29.97200
H  28.91400 0.11200 34.32500
H  30.00400 -2.71200 37.30600
H  28.86800 -3.64800 36.47700
H  28.34000 -2.05000 37.21100
Mg -5.16300 25.20200 26.71400
C  -3.51400 27.07200 29.22900
C  -6.18000 23.08700 29.33700
C  -6.46400 23.17700 24.49200
C  -3.57300 27.07100 24.28200
N  -4.85100 25.14900 29.01400
C  -4.23100 26.02000 29.84100
C  -4.50200 25.73800 31.31400
C  -5.02200 24.23700 31.22300
C  -5.45100 24.18300 29.81900
C  -4.03600 23.09200 31.59200
C  -5.55300 26.77900 31.89200
C  -5.16000 27.36300 33.27100
H  -6.20600 27.08300 34.37500
N  -6.13700 23.37700 26.90000
C  -6.55800 22.70900 27.97700
C  -7.33800 21.59000 27.65300
C  -7.43900 21.61600 26.25800
C  -6.66600 22.72600 25.80700
C  -7.88300 20.65000 28.64900
C  -8.13800 20.51100 25.36400
O  -8.08600 20.47700 24.14600
C  -9.06400 19.56800 26.08100
N  -5.08500 25.12400 24.70000
C  -5.81400 24.26200 23.96800
C  -5.81900 24.67400 22.41700
C  -4.94200 25.94500 22.52300
C  -4.39900 26.04300 23.89300
C  -5.37200 23.56200 21.44500
C  -5.62100 27.22500 22.03300
C  -5.11600 27.86300 20.69900
N  -3.96700 26.77800 26.69800
C  -3.32300 27.36900 25.66900
C  -2.44700 28.44100 26.14600
C  -2.58200 28.39700 27.53500
C  -3.43100 27.34700 27.83400
C  -1.46700 29.18500 25.26300
C  -2.07900 28.95000 28.76800
O  -1.30400 29.87100 29.04200
C  -2.76600 28.05500 29.95800
C  -1.75500 27.43000 30.76100
O  -0.88100 26.65700 30.33700
O  -1.83500 27.97400 32.01600
C  -1.18900 27.32000 33.13500
H  -6.73300 22.62900 30.16000
H  -6.95100 22.53900 23.75200
H  -3.03800 27.69400 23.56300
H  -3.54000 25.71600 31.82700
H  -5.86400 24.10600 31.90200
H  -4.39600 22.55900 32.47100
H  -3.09700 23.58200 31.85100
H  -3.86500 22.42700 30.74500
H  -6.52800 26.29400 31.95300
H  -5.67500 27.62200 31.21200
H  -4.88700 28.41600 33.19800
H  -4.33000 26.75900 33.63900
H  -7.67200 19.59300 28.48700
H  -8.94100 20.89500 28.74300
H  -7.46000 20.80400 29.64200
H  -9.61200 19.14000 25.24200
H  -9.79900 20.07500 26.70700
H  -8.60100 18.75800 26.64500
H  -6.83300 25.01200 22.20500
H  -4.03200 25.76400 21.95100
H  -6.24500 23.32400 20.83800
H  -4.86300 22.75100 21.96600
H  -4.64400 23.94900 20.73200
H  -5.47300 28.00800 22.77700
H  -6.70200 27.13700 21.92300
H  -4.49800 28.73800 20.90100
H  -5.97600 28.29700 20.18900
H  -4.65300 27.09600 20.07700
H  -0.68600 28.45900 25.03700
H  -0.91800 29.96400 25.79100
H  -1.97800 29.52700 24.36300
H  -3.55900 28.54000 30.52700
H  -0.90500 26.27400 33.02200
H  -1.97000 27.36400 33.89400
H  -0.38100 27.97400 33.46100

