158

Mg 3.66800 -2.81200 44.57100
C  5.90900 -0.65600 43.49200
C  1.17300 -1.07500 42.82600
C  1.43300 -5.33500 45.36300
C  6.13100 -4.86500 45.80400
N  3.56000 -1.15400 43.15000
C  4.71100 -0.41900 42.77400
C  4.33700 0.71200 41.89100
C  2.78600 0.75800 41.84400
C  2.43700 -0.61400 42.55700
C  2.19400 1.98600 42.51400
C  5.05500 0.64700 40.50400
C  6.11100 1.74100 40.14200
H  5.95400 2.49300 38.86800
N  1.53100 -3.08900 44.23600
C  0.72100 -2.24800 43.53500
C  -0.63200 -2.82900 43.56300
C  -0.58400 -4.01900 44.31300
C  0.84000 -4.19400 44.72900
C  -1.80400 -2.11000 42.97700
C  -1.81900 -4.84900 44.65200
O  -2.90400 -4.62900 44.14000
C  -1.72000 -6.02400 45.57300
N  3.71100 -4.82000 45.50600
C  2.70700 -5.60000 45.77900
C  3.18900 -6.96800 46.30200
C  4.67100 -6.84800 46.17200
C  4.85100 -5.44000 45.78900
C  2.71000 -7.25100 47.80600
C  5.35700 -7.81200 45.15700
C  6.50800 -8.68400 45.64100
N  5.63500 -2.79600 44.69500
C  6.50000 -3.59500 45.30400
C  7.77300 -2.98700 45.41700
C  7.63200 -1.82900 44.66700
C  6.29800 -1.76200 44.27700
C  9.07800 -3.44600 46.12500
C  8.31300 -0.67100 44.18300
O  9.54700 -0.41700 44.11700
C  7.19500 0.16500 43.39300
C  7.02400 1.53100 43.91800
O  7.01300 2.53800 43.26100
O  6.89800 1.49500 45.29100
C  6.48000 2.71200 46.05800
H  0.33100 -0.55500 42.36500
H  0.80700 -6.18100 45.65300
H  6.97900 -5.51600 46.02700
H  4.62600 1.64800 42.36800
H  2.37500 0.67800 40.83700
H  2.89900 2.75900 42.82100
H  1.60600 1.76900 43.40600
H  1.56200 2.45600 41.76000
H  4.29900 0.73100 39.72300
H  5.36500 -0.39100 40.38900
H  7.07400 1.23600 40.22500
H  6.10500 2.48600 40.93800
H  -2.67100 -2.05800 43.63500
H  -1.92500 -2.78900 42.13300
H  -1.51200 -1.13400 42.58700
H  -1.28000 -5.60100 46.47700
H  -1.08800 -6.82200 45.18400
H  -2.63100 -6.51600 45.91400
H  2.83800 -7.77900 45.66500
H  5.28300 -6.90000 47.07300
H  2.13700 -8.17800 47.83400
H  2.08800 -6.45300 48.21200
H  3.59800 -7.41300 48.41600
H  5.71400 -7.25200 44.29300
H  4.60300 -8.50800 44.78800
H  6.33600 -9.75000 45.49900
H  6.69300 -8.49200 46.69800
H  7.33700 -8.27800 45.06100
H  9.88200 -3.56900 45.40000
H  8.87900 -4.36600 46.67400
H  9.38900 -2.71900 46.87500
H  7.56400 0.26800 42.37200
H  5.51900 2.58500 46.55800
H  6.52900 3.57500 45.39400
H  7.20300 2.82300 46.86600
Mg 0.09200 7.60400 25.20700
C  0.85700 9.69100 27.79800
C  0.47100 4.89500 27.28900
C  -0.41800 5.61700 22.61600
C  0.28300 10.31800 23.05200
N  0.70800 7.28800 27.28500
C  0.85600 8.34900 28.18900
C  1.19400 7.81000 29.59500
C  1.14500 6.30400 29.36300
C  0.77700 6.10300 27.92800
C  2.45400 5.55500 29.70000
C  0.22100 8.28600 30.65200
C  0.94800 8.67900 32.00600
H  1.52700 7.50700 32.84000
N  -0.20700 5.57400 25.05800
C  -0.07700 4.63200 25.99100
C  -0.25800 3.27000 25.33900
C  -0.51100 3.40700 23.99300
C  -0.45200 4.97400 23.84300
C  -0.07500 2.01700 26.15800
C  -0.77700 2.29800 22.94900
O  -1.17900 2.54700 21.83900
C  -0.50700 0.77700 23.37200
N  0.09100 7.90300 23.15800
C  -0.24900 6.96500 22.25900
C  -0.56900 7.46400 20.88300
C  -0.37300 8.99900 21.05300
C  0.07400 9.09800 22.51100
C  0.19900 6.86700 19.72800
C  -1.54100 9.95400 20.64500
C  -2.85700 9.85200 21.30400
N  0.59200 9.56700 25.33700
C  0.62900 10.53900 24.37700
C  0.78600 11.86000 24.95100
C  1.01400 11.53500 26.29500
C  0.78100 10.14700 26.50100
C  0.84100 13.18500 24.39100
C  1.30200 12.13300 27.55900
O  1.62000 13.27400 27.90100
C  1.20800 10.97200 28.67900
C  2.43000 10.96900 29.54300
O  3.44900 10.38200 29.30800
O  2.17800 11.57800 30.71800
C  3.32900 11.68900 31.69900
H  0.48300 4.09100 28.02800
H  -0.86800 4.96600 21.86300
H  0.14600 11.24100 22.48600
H  2.22800 8.10500 29.77300
H  0.45800 5.87300 30.09100
H  2.68600 4.86100 28.89100
H  2.33400 4.95100 30.59900
H  3.26900 6.25900 29.86800
H  -0.53200 7.52600 30.86200
H  -0.27600 9.16900 30.25000
H  0.23800 9.31300 32.53700
H  1.85000 9.20000 31.68200
H  -1.04700 1.54200 26.03400
H  0.01000 2.36000 27.19000
H  0.85000 1.47600 25.96100
H  -1.34200 0.43100 23.98300
H  0.46200 0.82200 23.86800
H  -0.39000 0.10900 22.51900
H  -1.62800 7.32300 20.66800
H  0.54400 9.30500 20.54900
H  -0.38700 6.60100 18.84800
H  0.69300 5.94200 20.02300
H  0.88200 7.62600 19.34600
H  -1.69900 9.76900 19.58300
H  -1.13100 10.96400 20.61200
H  -2.78400 9.13200 22.11900
H  -3.58400 9.54800 20.55100
H  -3.19200 10.77700 21.77400
H  0.00400 13.71000 24.85200
H  0.68300 13.21900 23.31300
H  1.77900 13.63100 24.72200
H  0.46200 11.37500 29.36400
H  3.75500 10.71400 31.93700
H  3.03700 12.10100 32.66500
H  4.15300 12.24500 31.25200

