158

Mg 36.02500 48.31000 26.01300
C  36.30600 46.25300 29.01400
C  34.97100 50.94000 28.07500
C  34.89000 49.84300 23.39200
C  36.31300 45.31900 24.22200
N  35.68300 48.60700 28.32200
C  36.04700 47.64200 29.29000
C  35.86100 48.27300 30.67300
C  35.40300 49.72200 30.35300
C  35.30200 49.80600 28.80500
C  34.02500 50.12000 31.01400
C  37.10800 48.13400 31.64400
C  36.83100 47.63100 33.04500
H  36.46100 48.60300 34.13700
N  35.26900 50.21500 25.76300
C  34.91000 51.15400 26.70800
C  34.67900 52.36500 26.14000
C  34.62200 52.09400 24.71500
C  34.93100 50.63200 24.54500
C  34.52600 53.67100 26.92100
C  34.29800 52.97100 23.53800
O  34.28800 52.52100 22.39900
C  33.89500 54.44300 23.83000
N  35.68200 47.67400 24.06800
C  35.20700 48.53000 23.16900
C  35.13800 47.90900 21.74600
C  35.61500 46.44500 22.01400
C  35.87900 46.48200 23.49900
C  33.71900 48.02700 21.10900
C  36.93700 45.97100 21.17600
C  38.32400 46.09600 21.82700
N  36.42600 46.26400 26.43700
C  36.56200 45.22800 25.60500
C  36.87900 44.02500 26.38400
C  36.75100 44.39100 27.70900
C  36.49800 45.75600 27.69400
C  37.20000 42.60900 25.89300
C  36.77800 43.90500 29.08000
O  36.85300 42.73300 29.53000
C  36.47700 45.12600 29.98400
C  35.16000 44.82500 30.62700
O  34.05100 45.12600 30.17000
O  35.39100 44.33000 31.85000
C  34.32900 44.15700 32.79700
H  34.72100 51.81700 28.67500
H  34.65200 50.34300 22.45100
H  36.32800 44.35400 23.71100
H  35.06300 47.70000 31.14500
H  36.12700 50.42800 30.76000
H  34.35800 50.83600 31.76500
H  33.57500 49.25500 31.50100
H  33.38200 50.59700 30.27400
H  37.64700 49.08000 31.69100
H  37.82900 47.39300 31.30000
H  37.76300 47.12500 33.29500
H  36.07200 46.84900 33.03600
H  33.49600 53.77400 27.26000
H  34.72800 54.56900 26.33800
H  35.16700 53.74600 27.79900
H  34.76400 55.05800 24.06200
H  33.13100 54.41000 24.60800
H  33.35800 54.81100 22.95600
H  35.75700 48.37800 20.98100
H  34.80200 45.75200 21.79600
H  33.57600 47.01600 20.72800
H  33.81800 48.72500 20.27700
H  33.00500 48.22600 21.90800
H  37.03700 46.58900 20.28400
H  36.78300 44.91900 20.94000
H  38.18900 46.83000 22.62200
H  39.08100 46.40100 21.10400
H  38.51400 45.12300 22.28000
H  38.20900 42.43200 26.26500
H  37.36400 42.44100 24.82800
H  36.52800 41.90800 26.38700
H  37.35100 45.27500 30.61800
H  34.42200 44.97600 33.51000
H  34.57100 43.24800 33.34800
H  33.29900 44.20500 32.44300
Mg -2.02600 34.76000 26.27300
C  -4.01100 33.10600 28.74800
C  -1.13100 36.95800 28.66700
C  -0.44200 36.37900 23.86000
C  -3.64400 32.76200 23.78100
N  -2.68600 35.01400 28.47600
C  -3.38300 34.20900 29.28200
C  -3.23700 34.62000 30.76200
C  -2.45500 36.00100 30.68900
C  -2.12300 36.06800 29.17000
C  -3.14100 37.33100 31.27100
C  -2.70400 33.45900 31.55900
C  -2.25200 33.91000 32.98500
H  -2.44700 33.02900 34.22700
N  -0.78500 36.32700 26.27800
C  -0.62700 37.14500 27.35800
C  0.34700 38.07300 26.96900
C  0.63600 37.92700 25.58000
C  -0.20000 36.83700 25.15400
C  0.98500 39.02100 28.06300
C  1.61200 38.71100 24.62600
O  1.86700 38.41600 23.45200
C  2.27600 39.89400 25.18700
N  -2.20300 34.70500 24.12700
C  -1.32500 35.44100 23.36700
C  -1.43300 35.13000 21.84100
C  -2.19700 33.75800 21.88400
C  -2.71200 33.68300 23.35400
C  -2.15600 36.24800 21.08000
C  -1.39200 32.47600 21.35100
C  -0.15600 32.09500 22.26400
N  -3.38900 33.20800 26.26600
C  -3.99600 32.53000 25.18200
C  -4.82300 31.40400 25.66600
C  -4.78800 31.56800 27.10200
C  -4.01100 32.73800 27.35200
C  -5.51600 30.36800 24.82700
C  -5.30800 31.08300 28.31300
O  -5.97800 30.13300 28.61000
C  -4.69100 31.93900 29.41400
C  -5.71000 32.33100 30.37700
O  -6.29000 33.42100 30.30300
O  -5.89600 31.39800 31.39600
C  -6.69000 31.86600 32.47800
H  -0.75100 37.48300 29.54600
H  0.23600 36.82000 23.12500
H  -4.08900 32.04000 23.09300
H  -4.24500 34.73500 31.16100
H  -1.53500 35.73400 31.20900
H  -4.03700 37.05900 31.82900
H  -3.37500 38.08100 30.51500
H  -2.50300 37.73200 32.05900
H  -1.95400 32.91800 30.98300
H  -3.53800 32.77500 31.71200
H  -2.58700 34.91000 33.25700
H  -1.18000 33.93700 32.78800
H  2.05400 39.05400 28.27300
H  0.45200 38.96600 29.01100
H  0.72000 40.03300 27.75900
H  1.44600 40.53500 25.48500
H  2.85000 40.27000 24.34100
H  3.00100 39.60100 25.94700
H  -0.53300 34.98800 21.24300
H  -3.07500 33.89100 21.25200
H  -1.67500 36.50600 20.13700
H  -2.12600 37.18700 21.63400
H  -3.16100 35.98900 20.74600
H  -1.21800 32.73600 20.30700
H  -2.09900 31.64700 21.31600
H  -0.08700 32.69200 23.17400
H  0.72600 32.27600 21.64900
H  -0.15900 31.09000 22.68700
H  -6.02400 30.79000 23.95900
H  -6.26600 29.82400 25.40200
H  -4.89000 29.51200 24.57800
H  -3.91800 31.35900 29.91800
H  -6.72700 31.04100 33.18900
H  -7.69700 32.16900 32.19100
H  -6.18500 32.67600 33.00500

