158

Mg 26.07200 -0.78400 29.74900
C  28.09100 -0.96300 32.63600
C  23.36200 -0.08400 31.81300
C  24.26800 -0.35200 27.01400
C  28.82800 -1.46700 27.69600
N  25.82300 -0.56800 32.07300
C  26.79400 -0.67200 33.00700
C  26.25000 -0.50900 34.43900
C  24.71800 -0.17600 34.11200
C  24.57800 -0.32600 32.61000
C  23.73300 -1.14200 34.82300
C  26.95000 0.69400 35.12800
C  27.51800 0.32400 36.57000
H  27.01500 1.26600 37.71800
N  24.10900 -0.33900 29.39700
C  23.16000 -0.09900 30.38800
C  21.90900 0.10300 29.70400
C  22.10800 -0.15400 28.32600
C  23.56000 -0.37100 28.16800
C  20.66200 0.45300 30.34900
C  21.05300 -0.15300 27.16800
O  21.37900 -0.37000 25.99600
C  19.57500 0.07600 27.43700
N  26.47200 -0.98700 27.70300
C  25.51500 -0.62100 26.75100
C  26.06200 -0.81000 25.31700
C  27.61200 -0.93400 25.57400
C  27.68500 -1.14800 27.07500
C  25.46000 -2.02700 24.45600
C  28.47900 0.28100 25.09900
C  29.96800 -0.04100 24.76300
N  28.01300 -1.28100 30.09800
C  29.04200 -1.60900 29.17600
C  30.23200 -1.96600 29.94500
C  29.95700 -1.62400 31.28900
C  28.56600 -1.27900 31.34000
C  31.44200 -2.46200 29.45200
C  30.45000 -1.54100 32.60400
O  31.55700 -1.94400 33.00900
C  29.31800 -1.14300 33.49800
C  29.25700 -2.25600 34.52100
O  28.52100 -3.23800 34.47400
O  30.00900 -1.89900 35.64100
C  29.74800 -2.56300 36.86300
H  22.56700 0.20300 32.50400
H  23.67500 -0.25300 26.10200
H  29.68900 -1.58400 27.03500
H  26.37000 -1.46500 34.94900
H  24.45900 0.85100 34.37000
H  23.45000 -2.04200 34.27700
H  22.80500 -0.59000 34.97600
H  24.15600 -1.43400 35.78400
H  26.26900 1.53500 35.26000
H  27.73900 1.00200 34.44300
H  28.60700 0.35000 36.60000
H  27.18000 -0.69400 36.76300
H  20.85500 0.97600 31.28600
H  20.20900 -0.49900 30.62500
H  19.99800 1.06800 29.74100
H  19.46300 -0.58900 28.29400
H  18.96400 -0.32700 26.62900
H  19.30500 1.11700 27.61100
H  25.99300 0.09200 24.71000
H  27.99800 -1.83100 25.08900
H  24.77300 -2.65000 25.02900
H  26.27500 -2.67500 24.13300
H  24.89300 -1.52900 23.66900
H  28.60100 0.89000 25.99500
H  27.93800 0.83200 24.33000
H  30.11400 -1.12000 24.73000
H  30.65800 0.14900 25.58500
H  30.14700 0.35700 23.76400
H  32.13500 -1.64100 29.26600
H  31.16700 -2.84300 28.46800
H  31.95300 -3.14700 30.12700
H  29.48800 -0.19300 34.00500
H  29.26200 -1.72800 37.36700
H  30.73600 -2.75500 37.28200
H  29.18900 -3.48700 36.71400
Mg 35.71500 0.34200 29.71800
C  33.59200 1.03700 32.51600
C  38.24600 0.10800 32.09400
C  37.73000 -0.06000 27.24800
C  32.96500 0.78200 27.63800
N  35.85900 0.61400 32.14100
C  34.87100 0.83500 32.99000
C  35.43700 0.87600 34.48300
C  36.94300 0.77100 34.30600
C  37.03000 0.45100 32.76900
C  37.78400 2.04000 34.61300
C  34.75300 -0.15600 35.39900
C  34.48000 0.20900 36.84800
H  35.07600 1.43000 37.56500
N  37.74400 0.01200 29.67400
C  38.60700 -0.01100 30.70600
C  39.90000 -0.48100 30.22500
C  39.74900 -0.43200 28.78600
C  38.39400 -0.15500 28.50800
C  41.02600 -0.74400 31.21600
C  40.77300 -0.74600 27.65700
O  40.69000 -0.67500 26.44300
C  42.11900 -1.11000 28.18700
N  35.37100 0.24100 27.77600
C  36.41700 0.11300 26.89400
C  35.91400 -0.00800 25.46800
C  34.39100 0.13400 25.61800
C  34.20700 0.40700 27.11600
C  36.53800 0.94900 24.42200
C  33.68400 -1.01700 25.08700
C  33.37000 -2.11900 26.15900
N  33.67100 0.91300 29.92300
C  32.71100 1.06600 29.00500
C  31.43800 1.37400 29.70200
C  31.81200 1.47800 31.05100
C  33.10600 1.01400 31.15400
C  30.20300 1.79900 29.04800
C  31.25100 1.83300 32.31500
O  30.13300 2.15800 32.55400
C  32.38600 1.47500 33.36500
C  32.66500 2.72500 34.11600
O  33.40900 3.67400 33.81800
O  31.91900 2.63500 35.28600
C  31.90100 3.93700 36.04000
H  39.13000 0.16300 32.73200
H  38.32900 -0.21000 26.34600
H  32.12600 0.75200 26.93900
H  35.25600 1.83300 34.97300
H  37.26800 -0.11900 34.84500
H  38.60000 2.13400 33.89700
H  38.34100 1.77500 35.51100
H  37.13900 2.91900 34.62700
H  35.29000 -1.09900 35.29900
H  33.78000 -0.26700 34.92100
H  34.90800 -0.58600 37.46000
H  33.42000 0.32500 37.07500
H  41.93800 -1.16500 30.79200
H  40.58500 -1.43800 31.93100
H  41.20700 0.18300 31.76000
H  42.14000 -2.04600 28.74600
H  42.37300 -0.24900 28.80500
H  42.83600 -1.11900 27.36600
H  36.10800 -1.04600 25.19800
H  34.04400 1.08900 25.22500
H  35.97100 1.87900 24.42200
H  36.67100 0.57500 23.40600
H  37.55300 1.17400 24.75200
H  34.16100 -1.46800 24.21700
H  32.78900 -0.56300 24.66200
H  33.94700 -2.18600 27.08200
H  33.71200 -2.97000 25.57100
H  32.30400 -2.21800 26.36300
H  29.82200 2.79000 29.29500
H  29.52600 0.96300 29.22400
H  30.35800 1.68100 27.97600
H  31.92700 0.67300 33.94400
H  32.78600 4.00200 36.67200
H  30.96300 3.98400 36.59300
H  31.95800 4.74500 35.31100

