158

Mg 25.66900 -0.42600 29.45500
C  27.43900 -0.18800 32.60100
C  22.75700 0.04200 31.18400
C  24.24900 -0.92100 26.56600
C  28.91100 -0.63300 27.99000
N  25.20200 0.06200 31.60400
C  26.06700 0.15700 32.68700
C  25.22700 0.46800 33.99500
C  23.75300 0.37400 33.55800
C  23.91300 0.09700 32.01600
C  22.82200 -0.51900 34.36300
C  25.60700 1.85500 34.60200
C  26.37200 1.83700 35.98100
H  25.83800 2.83400 36.94700
N  23.82900 -0.33400 28.93400
C  22.70100 -0.29500 29.77400
C  21.51700 -0.35800 28.93200
C  21.97400 -0.62800 27.63100
C  23.40500 -0.64100 27.68900
C  20.06800 -0.04400 29.43800
C  21.18100 -0.80500 26.31100
O  21.68700 -0.87200 25.18400
C  19.69800 -1.09400 26.41000
N  26.45700 -0.73500 27.58600
C  25.67700 -0.86500 26.57400
C  26.48500 -1.01300 25.25400
C  27.91700 -0.61400 25.68500
C  27.78800 -0.73000 27.16800
C  26.45700 -2.38200 24.51700
C  28.22600 0.81600 25.30900
C  27.28800 1.84200 25.95600
N  27.77200 -0.57400 30.16400
C  28.95600 -0.57600 29.42400
C  30.05400 -0.63200 30.34200
C  29.56000 -0.44600 31.66900
C  28.14100 -0.39700 31.46200
C  31.52100 -0.66500 29.93800
C  29.88400 -0.31800 33.00100
O  30.92600 -0.27400 33.61800
C  28.49500 -0.09800 33.62500
C  28.22800 -1.03700 34.72300
O  27.62000 -2.13600 34.65500
O  28.78700 -0.61900 35.95600
C  28.79900 -1.32000 37.19800
H  21.80100 0.22700 31.67700
H  23.90500 -1.09600 25.54400
H  29.86500 -0.73900 27.47000
H  25.51300 -0.32700 34.68300
H  23.39800 1.40200 33.62900
H  21.93800 0.06800 34.61400
H  23.30000 -0.85500 35.28300
H  22.47200 -1.35200 33.75300
H  24.76300 2.53800 34.70500
H  26.30700 2.32800 33.91300
H  27.40600 2.15900 35.86000
H  26.38300 0.80800 36.34200
H  19.54000 -0.99500 29.36200
H  19.65200 0.72300 28.78500
H  20.08500 0.30200 30.47200
H  19.51200 -1.90600 27.11300
H  19.24200 -1.40300 25.46900
H  19.12500 -0.21800 26.71300
H  26.13700 -0.21800 24.59500
H  28.67600 -1.32800 25.36500
H  26.80300 -3.22300 25.11700
H  27.30400 -2.41700 23.83100
H  25.52800 -2.57000 23.97900
H  28.19500 0.93200 24.22600
H  29.23900 1.07000 25.62000
H  27.66500 2.11900 26.94100
H  26.28900 1.41000 26.01500
H  27.28800 2.71500 25.30300
H  32.10500 -0.06400 30.63500
H  31.66400 -0.32900 28.91100
H  31.70300 -1.73100 30.07600
H  28.48000 0.90400 34.05200
H  29.50700 -2.11700 36.97000
H  27.81100 -1.77300 37.28100
H  29.08200 -0.57200 37.93900
Mg 53.40600 24.07600 44.29800
C  50.85000 26.03300 43.23600
C  51.95300 21.41200 42.59800
C  56.42500 22.28900 44.29100
C  55.22000 26.92400 45.22500
N  51.70000 23.85600 42.84900
C  50.77100 24.80400 42.66100
C  49.61100 24.19700 41.79100
C  49.76000 22.67300 42.05800
C  51.20800 22.61300 42.53500
C  48.81200 21.96500 43.09500
C  49.58700 24.69900 40.34000
C  48.20700 25.08600 39.73200
H  47.53800 23.77400 39.10400
N  54.01200 22.10500 43.62200
C  53.27700 21.18400 42.99300
C  53.99700 19.92900 42.89700
C  55.22500 20.09300 43.53500
C  55.26200 21.58000 43.89100
C  53.49500 18.70300 42.22600
C  56.22300 18.98800 43.73700
O  56.12600 17.87000 43.26200
C  57.50600 19.21500 44.60500
N  55.55400 24.50400 44.81600
C  56.63000 23.60400 44.62500
C  57.98100 24.36700 44.72300
C  57.53800 25.78200 45.14300
C  55.98600 25.78000 45.10400
C  59.07300 23.72500 45.49800
C  58.16600 26.95700 44.29500
C  58.82200 28.10200 45.04500
N  53.11100 26.05700 44.34700
C  53.82200 27.09800 44.83900
C  52.96400 28.28500 44.95600
C  51.80800 27.96400 44.31200
C  51.94300 26.60200 43.90200
C  53.25200 29.53000 45.64100
C  50.43000 28.36900 44.03300
O  49.82000 29.37700 44.22200
C  49.79500 27.07000 43.24100
C  49.37200 27.61300 42.02200
O  50.03400 28.00000 41.04000
O  47.99800 27.83200 42.21800
C  47.19000 28.34300 41.08300
H  51.41800 20.49200 42.35500
H  57.37300 21.74700 44.29000
H  55.75600 27.84500 45.46200
H  48.68400 24.63700 42.16000
H  49.85300 21.99800 41.20700
H  49.15200 22.05300 44.12700
H  48.54000 20.97100 42.74200
H  47.90300 22.55300 42.96900
H  49.87700 23.81100 39.77800
H  50.24000 25.55600 40.17400
H  48.24400 25.95500 39.07500
H  47.51200 25.36400 40.52400
H  54.15100 18.33100 41.43900
H  52.59900 18.86000 41.62600
H  53.18200 17.91300 42.90800
H  58.04800 18.32000 44.91000
H  57.07800 19.68900 45.48900
H  58.22600 19.77200 44.00600
H  58.32000 24.41000 43.68800
H  57.82700 25.92100 46.18400
H  58.74300 22.80500 45.97900
H  59.53700 24.43400 46.18400
H  59.92900 23.44900 44.88300
H  57.50100 27.37500 43.53900
H  58.97300 26.54000 43.69300
H  58.50400 28.00400 46.08300
H  58.60700 29.10400 44.67300
H  59.91200 28.08400 45.06300
H  53.47700 30.27600 44.87900
H  54.13300 29.40300 46.27000
H  52.40900 29.94200 46.19500
H  48.94200 26.76400 43.84600
H  47.72500 28.37600 40.13400
H  46.75000 29.33100 41.21700
H  46.46300 27.53100 41.05200

