158

Mg -2.16900 17.63300 27.06200
C  -2.39600 15.21700 29.74300
C  -2.72500 20.04400 29.47300
C  -2.46100 19.87400 24.52600
C  -1.99400 14.97800 24.86700
N  -2.76000 17.65500 29.40100
C  -2.63300 16.56600 30.26500
C  -2.71900 16.90200 31.71700
C  -2.73900 18.46900 31.54500
C  -2.79900 18.77800 30.05900
C  -3.82300 19.30800 32.37100
C  -1.59600 16.34600 32.69900
C  -1.18400 17.23800 33.94300
H  -1.01500 16.57200 35.36000
N  -2.38800 19.66300 26.97800
C  -2.54500 20.45700 28.08700
C  -2.49900 21.84500 27.66800
C  -2.39700 21.83600 26.26100
C  -2.44200 20.38100 25.88500
C  -2.40800 23.02900 28.65000
C  -2.36600 23.03500 25.21100
O  -2.22500 22.87400 24.01200
C  -2.06600 24.37600 25.75600
N  -2.22600 17.42400 24.95100
C  -2.26200 18.54300 24.08200
C  -2.12800 18.08600 22.60900
C  -1.74900 16.56200 22.76300
C  -2.00900 16.29400 24.23900
C  -3.44900 18.32900 21.77900
C  -0.30900 16.28500 22.39900
C  0.79000 16.60500 23.40600
N  -2.20900 15.48700 27.18000
C  -2.12200 14.55200 26.16400
C  -2.02900 13.22400 26.72400
C  -2.12200 13.41500 28.10800
C  -2.34400 14.80500 28.34600
C  -1.81800 11.98000 26.00400
C  -2.12000 12.77500 29.34200
O  -1.95100 11.56700 29.61000
C  -2.20400 13.86200 30.45100
C  -0.91800 13.65000 31.16400
O  0.17800 14.02600 30.87000
O  -1.18000 12.98600 32.35800
C  -0.08800 12.71600 33.27400
H  -2.69600 20.82200 30.23900
H  -2.50200 20.54200 23.66300
H  -1.83000 14.12900 24.20000
H  -3.64100 16.50900 32.14500
H  -1.76500 18.82200 31.88300
H  -3.16200 19.99200 32.90300
H  -4.23700 18.63900 33.12500
H  -4.48300 19.79000 31.64800
H  -0.75500 16.15900 32.03100
H  -1.84600 15.35900 33.08900
H  -2.07800 17.86000 33.99700
H  -0.33900 17.89500 33.73700
H  -2.35700 22.64500 29.66800
H  -3.30800 23.64000 28.57300
H  -1.50200 23.56900 28.37400
H  -1.09900 24.47300 26.25000
H  -2.86900 24.68000 26.42700
H  -1.98700 25.02500 24.88300
H  -1.19400 18.50300 22.23300
H  -2.38500 15.99000 22.08800
H  -3.80100 19.31500 22.08200
H  -4.22900 17.57400 21.87400
H  -3.28300 18.41100 20.70500
H  -0.16900 17.00300 21.59100
H  -0.20100 15.29800 21.95000
H  0.41700 16.96400 24.36600
H  1.54400 17.25100 22.95500
H  1.45400 15.77300 23.64000
H  -1.33200 12.30700 25.08500
H  -2.72400 11.41000 25.79800
H  -1.04800 11.46100 26.57600
H  -3.03600 13.60800 31.10700
H  0.72200 12.25900 32.70600
H  -0.56900 12.07400 34.01200
H  0.24000 13.59000 33.83700
Mg 16.84300 52.24800 26.44100
C  18.53800 50.72400 29.20600
C  14.35300 53.15600 28.51200
C  15.07100 53.20500 23.73200
C  19.32900 50.74900 24.32700
N  16.60900 52.09000 28.56500
C  17.44500 51.49200 29.51300
C  17.00100 51.94100 30.91900
C  15.53600 52.43600 30.72000
C  15.49900 52.61600 29.18600
C  14.37900 51.58600 31.23700
C  18.01500 52.86000 31.58000
C  18.27500 52.55000 33.08600
H  17.29000 51.50700 33.79100
N  15.08500 53.18800 26.18900
C  14.18000 53.49300 27.15000
C  13.07800 54.25600 26.59200
C  13.24300 54.28900 25.16100
C  14.53800 53.56800 24.97700
C  11.81900 54.65700 27.32000
C  12.45400 54.86500 24.05500
O  12.80700 54.81800 22.85900
C  11.03700 55.46600 24.30000
N  17.19600 52.02900 24.39300
C  16.29200 52.55000 23.45400
C  16.77900 52.35400 22.04200
C  18.17700 51.60600 22.21200
C  18.26100 51.47500 23.76000
C  15.78200 51.53500 21.21700
C  19.41900 52.18200 21.54300
C  20.05800 53.49300 22.19100
N  18.53600 50.94900 26.57300
C  19.44800 50.42300 25.65500
C  20.40100 49.55900 26.27200
C  20.00500 49.59200 27.65100
C  19.00300 50.53800 27.83400
C  21.52900 48.77500 25.70200
C  20.43600 49.14200 28.98600
O  21.23600 48.33400 29.40200
C  19.56600 49.94800 30.03200
C  18.89200 49.05500 31.05300
O  17.82900 48.50300 30.89100
O  19.78900 48.80100 32.05100
C  19.43400 47.82600 33.07800
H  13.58100 53.36600 29.25600
H  14.52200 53.53500 22.84700
H  19.84600 50.27700 23.48900
H  17.02500 50.96900 31.41200
H  15.50300 53.38600 31.25400
H  14.74600 50.65500 31.66900
H  13.61200 51.37900 30.49100
H  13.83000 52.19000 31.96000
H  17.69900 53.87300 31.33400
H  18.94900 52.66000 31.05400
H  18.30000 53.54100 33.53900
H  19.29200 52.17300 33.19600
H  11.06800 53.89700 27.10400
H  11.42400 55.57400 26.88400
H  12.03400 54.81700 28.37700
H  11.11600 56.40600 24.84500
H  10.57500 54.70300 24.92600
H  10.37700 55.59400 23.44200
H  17.07200 53.27400 21.53600
H  18.05300 50.58000 21.86700
H  14.90100 52.05400 20.83800
H  15.39200 50.73200 21.84300
H  16.19900 51.25100 20.25100
H  19.10300 52.41900 20.52700
H  20.11900 51.35500 21.42700
H  19.40700 54.15400 22.76400
H  20.51600 54.05500 21.37700
H  20.88600 53.26900 22.86300
H  21.43300 48.86400 24.62000
H  21.48200 47.71400 25.94900
H  22.38200 49.25900 26.17700
H  20.24200 50.60500 30.58000
H  18.37000 47.92900 33.29000
H  20.10600 48.02200 33.91400
H  19.67500 46.82600 32.71600

