158

Mg 47.46300 16.36800 28.66800
C  45.47000 16.55600 31.44100
C  49.94700 17.70100 30.31600
C  49.13100 16.40900 25.71900
C  44.50900 15.51900 26.79600
N  47.57100 17.20900 30.49200
C  46.72700 17.15100 31.62300
C  47.28800 17.68400 32.99300
C  48.51000 18.43200 32.35600
C  48.71800 17.67000 30.99400
C  48.42100 19.95200 32.10800
C  47.82900 16.49300 33.90100
C  48.43900 16.80500 35.27400
H  48.25700 18.27700 35.73400
N  49.35100 16.93000 28.14100
C  50.25600 17.35600 28.94200
C  51.48400 17.58500 28.25100
C  51.31400 17.03100 26.97500
C  49.90700 16.71600 26.90800
C  52.67900 18.15100 28.99600
C  52.26300 16.96900 25.83100
O  51.89700 16.63500 24.70900
C  53.75000 17.24900 26.02600
N  46.88800 16.08500 26.45500
C  47.76300 16.29900 25.51400
C  47.09000 16.09700 24.14100
C  45.54600 15.71500 24.47400
C  45.62500 15.73800 25.99500
C  47.24600 17.30600 23.29600
C  45.20900 14.19200 24.04500
C  44.06800 14.11200 22.92700
N  45.40700 15.98700 29.00700
C  44.37700 15.67800 28.17700
C  43.21900 15.33200 28.99000
C  43.50800 15.73700 30.30500
C  44.89100 16.12800 30.19200
C  41.95800 14.68800 28.47100
C  43.11800 15.87300 31.64400
O  42.03500 15.71400 32.16200
C  44.29600 16.46900 32.42800
C  43.87100 17.74400 32.84400
O  43.92500 18.75400 32.12300
O  43.40400 17.64900 34.12800
C  42.92200 18.95100 34.60900
H  50.73500 18.12600 30.94100
H  49.52900 16.30500 24.70700
H  43.59100 15.21500 26.29000
H  46.59500 18.24800 33.61700
H  49.38500 18.29900 32.99200
H  47.39200 20.16500 32.39500
H  48.54300 20.20900 31.05600
H  49.12600 20.45500 32.77100
H  48.51900 15.90900 33.29200
H  46.96100 15.88300 34.15200
H  49.51400 16.65700 35.17600
H  48.03900 16.10000 36.00300
H  52.70500 17.95100 30.06700
H  52.71000 19.22600 28.81400
H  53.59100 17.76700 28.54000
H  54.19100 16.88500 25.09800
H  54.25900 16.62700 26.76200
H  54.04300 18.29800 26.09100
H  47.61500 15.25400 23.69200
H  44.75900 16.31700 24.01900
H  46.23200 17.66200 23.11900
H  47.74700 16.92100 22.40800
H  47.83800 18.10700 23.73700
H  44.93400 13.64800 24.94900
H  46.04700 13.67300 23.57900
H  43.53300 15.04100 22.72600
H  43.39600 13.36200 23.34600
H  44.38600 13.55200 22.04800
H  41.14900 14.73800 29.20100
H  42.12000 13.66100 28.14600
H  41.71400 15.36600 27.65300
H  44.51500 15.83000 33.28300
H  43.86200 19.50200 34.65500
H  42.46100 18.81900 35.58800
H  42.25300 19.46900 33.92100
Mg 17.29400 52.81200 26.33100
C  19.30500 51.02700 28.68800
C  14.83000 53.03300 28.87100
C  15.24700 54.14900 24.08800
C  19.57800 51.72900 23.83600
N  17.08500 52.07700 28.55400
C  18.10900 51.51200 29.27500
C  17.73200 51.43900 30.74000
C  16.16600 51.69100 30.70100
C  15.95500 52.29500 29.30800
C  15.35900 50.43400 30.80600
C  18.64900 52.45100 31.48900
C  18.96500 52.04200 33.00100
H  17.88300 51.38800 33.83500
N  15.27300 53.55100 26.42500
C  14.51800 53.67000 27.56700
C  13.32300 54.43800 27.22800
C  13.35600 54.77900 25.81900
C  14.63500 54.12200 25.33000
C  12.29100 54.96800 28.28600
C  12.47000 55.51500 24.85700
O  12.60800 55.52500 23.61300
C  11.46900 56.41000 25.51800
N  17.40700 52.90500 24.37200
C  16.51400 53.70000 23.67100
C  16.77700 53.60300 22.15600
C  18.18200 53.06800 22.09900
C  18.45900 52.54200 23.49400
C  15.69800 52.88800 21.24700
C  19.31800 53.98500 21.57000
C  19.64100 55.17300 22.50200
N  19.12300 51.66800 26.25400
C  19.93700 51.35800 25.13000
C  21.08400 50.58200 25.58100
C  20.86000 50.40500 26.97500
C  19.69300 51.10600 27.34200
C  22.21900 50.22600 24.65100
C  21.53100 49.83500 28.10300
O  22.59100 49.18300 28.21600
C  20.52500 50.26300 29.35000
C  20.04400 49.06700 30.05900
O  19.36100 48.10700 29.60300
O  20.38300 49.22900 31.41200
C  20.19400 48.06800 32.28500
H  14.10000 52.95700 29.67900
H  14.60800 54.58100 23.31500
H  20.22400 51.39100 23.02300
H  17.85100 50.45300 31.19000
H  15.88700 52.38800 31.49100
H  15.07100 50.31500 31.85100
H  15.77900 49.49600 30.44500
H  14.48300 50.56300 30.17200
H  18.12600 53.40700 31.51400
H  19.61900 52.61800 31.02100
H  19.57200 52.73300 33.58400
H  19.57400 51.14200 32.91600
H  12.69400 55.91300 28.65100
H  12.42100 54.32700 29.15800
H  11.29000 55.12100 27.88300
H  11.02400 56.96100 24.69000
H  11.94900 57.22900 26.05500
H  10.76800 55.81200 26.10000
H  16.89700 54.61600 21.77100
H  18.21200 52.17000 21.48300
H  16.12000 52.85600 20.24300
H  14.80900 53.51800 21.24800
H  15.52200 51.88100 21.62600
H  18.92400 54.40800 20.64600
H  20.19800 53.36300 21.40200
H  19.41500 56.09200 21.96000
H  20.71600 55.15200 22.68100
H  19.00500 55.21100 23.38700
H  23.14500 50.07300 25.20400
H  22.19200 51.01500 23.89800
H  22.04300 49.31600 24.07700
H  21.02500 50.89600 30.08300
H  19.86500 47.14800 31.80200
H  19.45400 48.36300 33.02900
H  21.04200 47.82500 32.92500

