158

Mg 35.67900 0.76900 29.98600
C  33.34600 1.85200 32.48100
C  37.98800 0.41100 32.74500
C  37.97800 0.16100 27.80800
C  33.38700 1.52400 27.63800
N  35.62200 1.10700 32.29700
C  34.61000 1.60300 33.02400
C  34.98200 1.61800 34.49200
C  36.58000 1.53900 34.46200
C  36.74000 1.00700 33.05900
C  37.26900 2.91700 34.51400
C  34.38000 0.41600 35.23100
C  34.44700 0.42200 36.81000
H  35.27700 1.50000 37.49300
N  37.68500 0.29600 30.23800
C  38.45600 0.13200 31.39600
C  39.79800 -0.27700 31.03800
C  39.76500 -0.56800 29.63500
C  38.45400 -0.00600 29.15800
C  40.99900 -0.45100 32.02200
C  40.78800 -1.15300 28.71400
O  40.60400 -1.16600 27.46700
C  42.04200 -1.59900 29.27500
N  35.73900 0.91700 27.99100
C  36.77300 0.55100 27.25500
C  36.46500 0.66600 25.72500
C  34.92800 0.95100 25.67500
C  34.61200 1.13800 27.15300
C  37.37500 1.66600 24.87300
C  33.98100 -0.10900 25.07700
C  33.42600 -1.27300 25.93900
N  33.73900 1.49600 29.94300
C  32.85200 1.65400 28.91100
C  31.57100 2.07200 29.41800
C  31.69700 2.13800 30.82400
C  33.02200 1.76400 31.09500
C  30.31400 2.24100 28.55200
C  31.06100 2.43700 32.09600
O  29.86400 2.68900 32.33600
C  32.11000 2.31800 33.21800
C  32.26400 3.73600 33.70800
O  32.57100 4.74700 32.99200
O  31.98700 3.73700 35.05500
C  31.46400 4.97100 35.58700
H  38.78400 0.30900 33.48500
H  38.68700 -0.06600 27.00900
H  32.77100 1.93100 26.83300
H  34.56600 2.48400 35.00700
H  36.95700 0.86500 35.23200
H  36.57700 3.73200 34.72800
H  37.73700 3.07300 33.54200
H  38.05500 2.86500 35.26800
H  34.94300 -0.50400 35.07100
H  33.34400 0.24900 34.93500
H  34.84200 -0.54800 37.11100
H  33.40400 0.55700 37.09800
H  41.83600 0.07500 31.56200
H  41.10400 -1.52400 32.18600
H  40.92400 0.04500 32.98900
H  42.04700 -2.05300 30.26600
H  42.69800 -0.73100 29.33200
H  42.46300 -2.32300 28.57700
H  36.66500 -0.33500 25.34400
H  34.68300 1.85900 25.12300
H  38.19800 1.93600 25.53400
H  36.79800 2.56200 24.64100
H  37.59700 1.11700 23.95800
H  34.62100 -0.60500 24.34800
H  33.13900 0.45300 24.67000
H  33.83200 -2.22200 25.59000
H  32.33700 -1.22100 25.96700
H  33.80400 -1.28000 26.96100
H  30.62300 2.67600 27.60200
H  29.62000 2.93800 29.02200
H  29.98900 1.21200 28.39800
H  31.74400 1.71400 34.04800
H  30.59500 4.80600 36.22300
H  31.14200 5.68300 34.82700
H  32.22300 5.50500 36.15900
Mg 47.28000 44.48500 43.02800
C  43.97600 43.63500 43.16200
C  48.01900 40.99600 42.82300
C  50.57900 45.38600 42.32200
C  46.30600 47.84800 42.70700
N  46.16200 42.49600 42.86200
C  44.81800 42.43400 43.06600
C  44.32400 40.98600 43.08700
C  45.66300 40.12400 42.94700
C  46.66100 41.24600 42.95000
C  45.77600 39.11600 44.15800
C  43.36300 40.63100 41.90000
C  43.84100 41.08800 40.59500
H  43.75900 40.04900 39.43000
N  49.08100 43.36100 42.69900
C  49.14100 41.95300 42.66000
C  50.45300 41.62000 42.39200
C  51.11000 42.81800 41.99100
C  50.28800 43.93100 42.39800
C  50.94900 40.15700 42.44300
C  52.49400 42.87100 41.49600
O  53.10200 41.84800 41.32000
C  53.13900 44.16400 40.89300
N  48.30400 46.42700 42.39900
C  49.69600 46.51900 42.42200
C  50.08300 47.93700 42.39500
C  48.71900 48.69800 42.50600
C  47.67800 47.65000 42.51900
C  51.21400 48.31000 43.41200
C  48.49700 49.74300 41.39200
C  48.04100 51.15400 41.79800
N  45.53900 45.58300 43.06300
C  45.24400 46.89600 42.91100
C  43.84600 47.12700 43.06900
C  43.31000 45.88700 43.16000
C  44.34500 44.97600 43.11700
C  43.16500 48.42900 43.25200
C  42.07500 45.11100 43.34000
O  40.95700 45.49800 43.49600
C  42.49700 43.62500 43.34400
C  42.16500 42.99900 44.67200
O  42.59700 43.27400 45.79000
O  41.33500 41.86700 44.43600
C  40.98500 41.19200 45.64600
H  48.32800 39.95400 42.92600
H  51.63800 45.65100 42.30800
H  46.16000 48.92900 42.65200
H  43.70100 40.88700 43.97600
H  45.82200 39.62100 41.99300
H  45.96600 39.65800 45.08500
H  46.57800 38.42600 43.89500
H  44.92300 38.45100 44.28700
H  42.38700 41.02900 42.17700
H  43.25200 39.54700 41.88600
H  44.86700 41.45700 40.56700
H  43.20200 41.90000 40.24900
H  52.00000 40.09700 42.72700
H  50.76500 39.48000 41.60800
H  50.48900 39.58900 43.25100
H  52.44000 44.72900 40.27700
H  53.90700 43.83400 40.19300
H  53.56200 44.76300 41.70000
H  50.48400 48.30500 41.45100
H  48.74600 49.09700 43.52000
H  51.63000 47.37100 43.77800
H  50.78400 48.74900 44.31200
H  52.00200 48.95100 43.01800
H  47.74100 49.23200 40.79600
H  49.39800 49.85100 40.78800
H  48.94700 51.75000 41.68500
H  47.60700 51.21600 42.79600
H  47.23900 51.46900 41.13000
H  43.04500 48.59200 44.32300
H  42.15400 48.37400 42.84700
H  43.63000 49.29900 42.78800
H  41.91800 43.17200 42.54000
H  40.12000 40.61500 45.31800
H  40.62300 41.83400 46.44800
H  41.82100 40.64000 46.07700

