158

Mg 25.31000 -8.05700 46.85700
C  26.99700 -5.36700 45.33300
C  22.67400 -7.41700 44.60300
C  23.84300 -10.93900 47.67400
C  28.21800 -9.02100 48.42700
N  25.01200 -6.73200 45.06600
C  25.75600 -5.65500 44.67100
C  25.22500 -4.97700 43.43200
C  23.77300 -5.53000 43.34400
C  23.83100 -6.68800 44.35700
C  22.69400 -4.53800 43.60800
C  26.08200 -5.25800 42.06400
C  26.19700 -3.92000 41.23200
H  25.05600 -3.78400 40.26100
N  23.40300 -8.94400 46.35500
C  22.50300 -8.54600 45.44700
C  21.33600 -9.43900 45.44700
C  21.67200 -10.48900 46.27700
C  23.01600 -10.16000 46.81100
C  20.06600 -9.14800 44.73000
C  20.78400 -11.79100 46.53500
O  19.69500 -11.78900 46.05000
C  21.27000 -12.98900 47.16400
N  26.00400 -9.75800 47.77600
C  25.19500 -10.77500 48.15400
C  25.87300 -11.77900 49.08000
C  27.22300 -11.15000 49.31200
C  27.17900 -9.90800 48.42900
C  25.10800 -12.01700 50.47300
C  28.39800 -12.12100 49.23300
C  29.25800 -12.27800 50.50800
N  27.27000 -7.45100 46.82400
C  28.29100 -7.79200 47.68200
C  29.38500 -6.85100 47.55900
C  28.93800 -5.90200 46.57200
C  27.59100 -6.28300 46.23400
C  30.60900 -6.90700 48.29200
C  29.32000 -4.69700 45.90700
O  30.41300 -4.15300 45.78200
C  28.03500 -4.31400 45.02700
C  27.48500 -3.04600 45.46000
O  27.21300 -2.16300 44.65600
O  27.21900 -2.85500 46.79700
C  26.63700 -1.55400 47.16700
H  21.81200 -7.09100 44.01800
H  23.48000 -11.83700 48.17800
H  29.07300 -9.25300 49.06700
H  25.27400 -3.91100 43.65400
H  23.67600 -5.90700 42.32600
H  22.30500 -4.16900 42.66000
H  23.02600 -3.59400 44.04000
H  21.82200 -4.89200 44.15800
H  25.58600 -6.00900 41.44800
H  27.06500 -5.60100 42.38500
H  27.17500 -3.87900 40.75200
H  26.03200 -3.00500 41.79900
H  20.33200 -9.43900 43.71400
H  19.90300 -8.07100 44.77500
H  19.12300 -9.54500 45.10400
H  21.89100 -12.98500 48.05900
H  21.93100 -13.38400 46.39200
H  20.46100 -13.71100 47.27800
H  25.85500 -12.73200 48.55100
H  27.30100 -10.74300 50.32000
H  24.23400 -11.36600 50.47400
H  25.70700 -11.77600 51.35200
H  24.91500 -13.07700 50.64100
H  29.02100 -11.73800 48.42400
H  27.98600 -13.12000 49.08900
H  30.30400 -12.26300 50.20100
H  28.78300 -13.08800 51.06200
H  29.15600 -11.44400 51.20300
H  31.18700 -5.99900 48.12500
H  31.23900 -7.79600 48.24100
H  30.25900 -6.83200 49.32200
H  28.35700 -4.28400 43.98600
H  26.95100 -1.26900 48.17100
H  25.56300 -1.67200 47.31400
H  26.82000 -0.71300 46.49800
Mg 46.45500 25.04300 28.45000
C  46.74600 27.21100 31.09800
C  45.49300 22.58100 30.81300
C  46.44000 23.01200 26.00300
C  47.45100 27.58700 26.19800
N  46.11700 24.98900 30.78500
C  46.29200 25.98200 31.65300
C  46.05200 25.58100 33.13900
C  45.79400 24.04700 32.96300
C  45.71900 23.81300 31.41900
C  46.94800 23.09300 33.53400
C  44.83500 26.34800 33.76200
C  45.07800 27.05800 35.10900
H  43.88500 27.16800 36.14800
N  45.98000 23.14300 28.40100
C  45.48200 22.33900 29.39800
C  45.13200 21.08200 28.78400
C  45.37600 21.18700 27.43500
C  46.01500 22.49300 27.20700
C  44.45400 19.90500 29.50500
C  45.24000 20.08800 26.37200
O  45.73000 20.15600 25.24600
C  44.74900 18.77000 26.67900
N  47.27800 25.18300 26.40900
C  47.04000 24.18300 25.58100
C  47.09000 24.60900 24.11400
C  47.18700 26.12500 24.19000
C  47.35500 26.32600 25.69300
C  48.19500 23.92200 23.25300
C  45.92400 26.77600 23.65100
C  44.68700 26.65100 24.50600
N  46.95400 26.98100 28.54700
C  47.39100 27.89200 27.61800
C  47.80800 29.13800 28.25800
C  47.55700 28.90500 29.61000
C  47.05900 27.58400 29.71800
C  48.64000 30.25200 27.64600
C  47.75600 29.42100 30.93200
O  48.22100 30.49500 31.32600
C  47.20400 28.40800 31.87500
C  48.33700 28.13200 32.76100
O  49.40800 27.72300 32.38600
O  47.93000 28.34400 34.07400
C  48.95000 28.02200 35.09200
H  45.17200 21.73700 31.42600
H  46.08400 22.39700 25.17400
H  47.52200 28.41800 25.49300
H  46.94700 25.81200 33.71500
H  44.87600 23.75000 33.47000
H  47.84200 23.68000 33.74200
H  47.30000 22.37900 32.78900
H  46.54200 22.70700 34.46900
H  44.04400 25.63500 33.99600
H  44.39700 27.08100 33.08500
H  45.28900 28.10600 34.89500
H  45.92900 26.59600 35.61100
H  43.53700 19.73300 28.94200
H  44.19600 20.18700 30.52600
H  44.99700 18.96000 29.51900
H  44.72200 18.18800 25.75700
H  43.71400 19.00400 26.92900
H  45.21700 18.19700 27.47900
H  46.05300 24.37100 23.87500
H  48.08100 26.59800 23.78600
H  48.47200 24.58900 22.43600
H  47.83000 22.98600 22.83000
H  49.09700 23.66900 23.80900
H  45.62500 26.43200 22.66100
H  46.01000 27.85900 23.56100
H  43.87000 26.36800 23.84300
H  44.40100 27.50300 25.12100
H  44.93500 25.92100 25.27700
H  48.03500 31.13500 27.44000
H  49.09800 30.00100 26.68900
H  49.43100 30.52000 28.34700
H  46.41800 28.82900 32.50200
H  48.82100 27.11800 35.68800
H  49.06500 28.88700 35.74500
H  49.98300 27.92500 34.75500

