158

Mg -11.99100 15.40200 41.78400
C  -8.93400 13.88300 41.80000
C  -10.65100 18.28100 40.31200
C  -15.19500 16.57900 41.01000
C  -13.34900 12.44900 43.16800
N  -10.03100 15.92400 40.93300
C  -8.90500 15.18500 41.18700
C  -7.68100 15.92500 40.66600
C  -8.20300 17.44500 40.58100
C  -9.73000 17.22300 40.64400
C  -7.76300 18.23800 41.81800
C  -7.18900 15.36000 39.25000
C  -5.68300 15.47500 39.06600
H  -5.14200 16.32700 37.95500
N  -12.86200 17.25300 40.89100
C  -12.07100 18.30300 40.41500
C  -12.97000 19.42200 40.03100
C  -14.34500 18.86100 40.10600
C  -14.19200 17.51800 40.69300
C  -12.52800 20.85300 39.64800
C  -15.64900 19.49600 39.67800
O  -15.66300 20.69900 39.43900
C  -16.92500 18.63500 39.33400
N  -14.01300 14.43300 41.80200
C  -15.12300 15.24600 41.54500
C  -16.34500 14.39500 41.99100
C  -15.78600 13.22300 42.88400
C  -14.31100 13.35200 42.54500
C  -17.56400 15.06400 42.69000
C  -16.36600 11.82100 42.64600
C  -16.69100 11.02700 43.86800
N  -11.38500 13.46800 42.23200
C  -12.00900 12.44500 42.96600
C  -11.02800 11.43700 43.34900
C  -9.83000 11.88100 42.82100
C  -10.08800 13.12200 42.17300
C  -11.26200 10.23200 44.20700
C  -8.42700 11.68200 42.65400
O  -7.71700 10.74400 42.98600
C  -7.76700 12.92700 42.02800
C  -6.74700 13.52200 42.95400
O  -6.98700 14.20300 43.97700
O  -5.48100 13.28200 42.46700
C  -4.37600 13.91900 43.19600
H  -10.21100 19.18200 39.88000
H  -16.24200 16.88100 40.95300
H  -13.70700 11.50200 43.57700
H  -6.86500 15.99400 41.38400
H  -7.87300 17.94800 39.67200
H  -7.58200 17.57100 42.66100
H  -8.54200 18.94600 42.10100
H  -6.83000 18.75500 41.59500
H  -7.59600 15.90200 38.39700
H  -7.39900 14.29200 39.18800
H  -5.30300 14.47900 38.83700
H  -5.12800 15.79200 39.94900
H  -13.19000 21.61000 40.06800
H  -12.58200 20.87700 38.55900
H  -11.51900 21.08800 39.98900
H  -16.57600 17.64600 39.03600
H  -17.51000 19.16600 38.58400
H  -17.67000 18.63600 40.12900
H  -16.58000 13.82700 41.09000
H  -15.82600 13.47700 43.94300
H  -17.36500 16.12700 42.83100
H  -17.75600 14.58200 43.64900
H  -18.36700 14.93200 41.96500
H  -15.61700 11.17700 42.18500
H  -17.16300 11.85400 41.90200
H  -16.17700 10.06800 43.81500
H  -17.75900 10.82000 43.93500
H  -16.44300 11.54100 44.79700
H  -12.32800 10.01100 44.25900
H  -10.92700 10.40000 45.23100
H  -10.75100 9.36600 43.78600
H  -7.25400 12.63600 41.11100
H  -3.52100 13.86200 42.52300
H  -4.09400 13.42800 44.12700
H  -4.64000 14.94700 43.44500
Mg -5.93100 25.77500 25.71700
C  -4.21200 26.88300 28.69100
C  -7.64200 23.54800 27.85800
C  -6.76400 23.80500 23.06000
C  -3.56100 27.53600 23.87500
N  -5.94500 25.38700 27.99700
C  -5.26900 26.00100 28.95400
C  -5.69700 25.53400 30.39700
C  -6.63400 24.33000 30.11900
C  -6.80200 24.43500 28.53100
C  -5.97000 23.01600 30.53700
C  -6.45000 26.67900 31.12600
C  -6.59800 26.68600 32.67800
H  -5.93500 25.47300 33.41400
N  -7.16100 23.99300 25.49300
C  -7.80900 23.27400 26.46700
C  -8.59200 22.24600 25.87200
C  -8.31200 22.21800 24.52200
C  -7.40500 23.35300 24.28200
C  -9.59200 21.32300 26.61000
C  -8.96700 21.38100 23.40800
O  -8.53100 21.44200 22.29500
C  -10.10900 20.39000 23.61400
N  -5.32000 25.72800 23.74500
C  -5.80800 24.82500 22.86100
C  -5.11000 24.98100 21.49500
C  -4.07400 26.13000 21.75800
C  -4.40200 26.60400 23.20300
C  -4.43700 23.59100 21.12400
C  -4.06600 27.26900 20.67800
C  -2.66100 27.60900 20.08400
N  -4.36300 27.15900 26.15700
C  -3.49100 27.80300 25.27000
C  -2.60100 28.66200 26.01100
C  -2.82200 28.32100 27.33900
C  -3.88600 27.36800 27.39100
C  -1.46900 29.50100 25.38200
C  -2.32600 28.50500 28.77100
O  -1.38000 29.20900 29.20600
C  -3.27000 27.61000 29.65800
C  -2.25300 26.73600 30.24200
O  -1.51600 25.99000 29.60600
O  -2.32000 26.81800 31.56700
C  -1.79500 25.78300 32.38100
H  -8.22200 22.82000 28.42900
H  -7.07400 23.25300 22.17000
H  -2.81800 28.03400 23.24700
H  -4.88100 25.30000 31.08100
H  -7.59200 24.39800 30.63300
H  -5.01400 23.20900 31.02400
H  -5.79000 22.43900 29.63000
H  -6.63400 22.44500 31.18600
H  -7.44500 26.84100 30.71200
H  -5.97400 27.63700 30.91500
H  -7.64900 26.75300 32.95900
H  -6.04600 27.58900 32.93700
H  -10.55500 21.76700 26.36000
H  -9.25700 21.34500 27.64800
H  -9.72500 20.29500 26.27400
H  -10.54000 20.10200 22.65500
H  -10.89400 20.82200 24.23500
H  -9.78700 19.50800 24.16800
H  -5.94900 25.31700 20.88600
H  -3.10200 25.64300 21.83600
H  -4.71900 23.30800 20.11000
H  -4.83500 22.80500 21.76600
H  -3.35000 23.63800 21.05700
H  -4.60700 28.09500 21.13900
H  -4.72400 26.95900 19.86600
H  -1.81400 27.09500 20.53800
H  -2.52900 28.68000 19.93100
H  -2.51500 27.20900 19.08100
H  -0.62900 29.62100 26.06600
H  -1.87900 30.45400 25.04900
H  -1.09500 28.91900 24.53900
H  -3.69100 28.19200 30.47800
H  -2.53000 24.99900 32.56200
H  -1.65000 26.33100 33.31200
H  -0.80500 25.37800 32.17000

