158

Mg 2.37700 -1.67600 43.88500
C  5.75800 -1.29000 43.09500
C  1.73200 1.08900 41.89100
C  -0.82100 -2.33100 44.25700
C  3.10000 -4.86100 45.13000
N  3.53200 -0.43500 42.42200
C  4.92500 -0.40400 42.43400
C  5.49800 0.72100 41.65800
C  4.21000 1.64700 41.36700
C  3.09700 0.76400 41.98900
C  4.19200 2.96300 42.17700
C  6.05400 0.23100 40.36200
C  7.18100 1.18100 39.81000
H  6.84500 1.98600 38.57600
N  0.65600 -0.70500 43.27400
C  0.57000 0.37300 42.46600
C  -0.79700 0.75300 42.28100
C  -1.62500 -0.27900 42.85600
C  -0.65000 -1.17800 43.49600
C  -1.27300 1.88800 41.41200
C  -3.17100 -0.38300 42.75700
O  -3.82900 0.48500 42.24800
C  -3.83900 -1.61100 43.13200
N  1.27800 -3.41100 44.51500
C  -0.06500 -3.36500 44.71600
C  -0.57500 -4.72500 45.08400
C  0.73600 -5.50400 45.51400
C  1.76900 -4.51300 45.04100
C  -1.80800 -4.71400 46.12000
C  0.80700 -6.86000 44.75900
C  1.26400 -8.12200 45.53900
N  4.07400 -2.87300 44.19700
C  4.18800 -4.07200 44.83800
C  5.64100 -4.29400 45.11400
C  6.34500 -3.15500 44.47200
C  5.33700 -2.37900 43.85900
C  6.25700 -5.30000 45.94900
C  7.61800 -2.52600 44.27900
O  8.72200 -2.72100 44.68000
C  7.26300 -1.31300 43.33900
C  7.78000 -0.03200 44.00300
O  7.36300 0.33700 45.08600
O  8.70600 0.58900 43.26800
C  9.08600 1.94400 43.72200
H  1.50900 2.02400 41.37300
H  -1.87300 -2.47100 44.51400
H  3.47200 -5.80800 45.52900
H  6.30200 1.20400 42.21300
H  3.95700 1.76600 40.31300
H  3.76300 3.78800 41.60900
H  5.25300 3.18000 42.30300
H  3.83200 2.76800 43.18700
H  5.20700 0.18100 39.67700
H  6.32100 -0.81600 40.50300
H  7.93300 0.46200 39.48600
H  7.52700 1.90500 40.54700
H  -2.03700 1.47800 40.75300
H  -0.47900 2.20300 40.73600
H  -1.82000 2.67700 41.92800
H  -4.87900 -1.76900 42.84800
H  -3.87200 -1.64500 44.22000
H  -3.24400 -2.46800 42.81600
H  -1.02300 -5.17700 44.19800
H  0.78000 -5.58300 46.60100
H  -1.81600 -5.45800 46.91600
H  -2.73000 -4.70000 45.53900
H  -1.95900 -3.76600 46.63500
H  1.53400 -6.76200 43.95300
H  -0.13900 -7.17300 44.31900
H  0.48200 -8.88100 45.55500
H  1.61100 -7.97500 46.56200
H  2.00900 -8.64800 44.94300
H  5.62400 -5.41800 46.82900
H  7.27800 -5.13700 46.29600
H  6.26700 -6.21200 45.35200
H  7.70700 -1.51300 42.36400
H  10.00300 2.32500 43.27300
H  9.41900 1.86600 44.75800
H  8.34000 2.67800 43.42100
Mg 26.15100 51.44000 25.62700
C  23.79300 52.34400 28.18000
C  28.43300 50.83400 28.18400
C  28.25200 50.63400 23.29200
C  23.85500 52.72300 23.22800
N  26.06900 51.59900 27.99000
C  25.01700 51.94300 28.81400
C  25.41100 51.75400 30.26100
C  26.94300 51.45500 30.20000
C  27.20000 51.36400 28.68000
C  27.85200 52.48900 30.83900
C  24.57600 50.66700 30.94900
C  23.84100 50.98600 32.25200
H  24.06000 49.98500 33.52000
N  28.03400 50.71900 25.70200
C  28.77700 50.47900 26.86300
C  30.07600 49.91800 26.48800
C  30.09700 49.92600 25.02500
C  28.76000 50.39600 24.57100
C  31.15200 49.65400 27.55000
C  31.26600 49.54300 24.12000
O  31.25600 49.58000 22.93200
C  32.57700 49.16200 24.86600
N  26.16100 52.00400 23.59000
C  27.11700 51.33800 22.89000
C  26.79200 51.37200 21.40000
C  25.35200 51.99900 21.32400
C  25.12500 52.30100 22.80600
C  27.91800 51.99600 20.53800
C  24.37800 50.87700 20.73600
C  23.08900 51.29500 20.09700
N  24.26200 52.33100 25.61800
C  23.40200 52.73800 24.52500
C  22.10200 53.04900 25.07800
C  22.23100 52.89400 26.44900
C  23.52100 52.42900 26.73400
C  21.00500 53.66000 24.27700
C  21.58900 53.18600 27.79000
O  20.45100 53.61000 27.99800
C  22.61700 52.86400 28.91200
C  22.85600 54.08500 29.85200
O  23.25300 55.20600 29.49800
O  22.49400 53.83200 31.13500
C  22.69500 54.86300 32.09500
H  29.14300 50.67600 28.99900
H  28.89000 50.23900 22.49900
H  23.13600 52.95000 22.43700
H  25.17300 52.67100 30.79900
H  27.25000 50.50000 30.62900
H  27.37800 53.43700 31.09300
H  28.59000 52.75300 30.08100
H  28.41200 52.13200 31.70300
H  25.18300 49.77600 31.11000
H  23.83100 50.32300 30.23200
H  22.76600 51.13200 32.15000
H  24.25800 51.91400 32.64300
H  30.80700 49.67700 28.58300
H  31.94200 50.39300 27.68000
H  31.60100 48.68100 27.34900
H  32.47600 48.21900 25.40400
H  32.85000 49.96700 25.54800
H  33.40400 49.03900 24.16700
H  26.64900 50.32600 21.12900
H  25.26500 52.95500 20.80700
H  27.54700 52.77300 19.86800
H  28.34200 51.20800 19.91600
H  28.69700 52.33300 21.22100
H  24.22800 50.27600 21.63300
H  24.86200 50.21100 20.02200
H  23.18200 51.30500 19.01100
H  22.81700 52.31700 20.36000
H  22.37200 50.56400 20.47000
H  20.37100 52.78300 24.14200
H  21.45700 54.12400 23.40100
H  20.38200 54.38900 24.79600
H  22.25600 52.03800 29.52400
H  21.66200 55.04700 32.39100
H  23.14100 55.78600 31.72500
H  23.24700 54.49700 32.96100

