158

Mg 17.33200 -0.67000 28.12600
C  15.96400 1.34300 30.69400
C  19.25400 -2.19100 30.34200
C  18.65400 -2.27700 25.53500
C  15.41300 1.33600 25.82400
N  17.54800 -0.41700 30.21000
C  16.80600 0.35200 31.09500
C  17.13500 -0.04900 32.50300
C  18.23500 -1.10800 32.43600
C  18.36500 -1.24100 30.92200
C  19.58500 -0.75100 33.06600
C  15.85300 -0.56600 33.25800
C  15.85900 -0.44000 34.78000
H  16.94800 0.25000 35.51400
N  18.68200 -2.00200 27.94400
C  19.43400 -2.51900 29.00000
C  20.32300 -3.50300 28.49000
C  20.24600 -3.50500 27.11800
C  19.12400 -2.58100 26.77800
C  21.39400 -4.19400 29.38900
C  21.03700 -4.25700 26.13300
O  20.75300 -4.28700 24.99100
C  22.15300 -5.07700 26.56800
N  17.10200 -0.44300 26.06000
C  17.77600 -1.31400 25.18800
C  17.31500 -1.11200 23.70500
C  16.08000 -0.11600 23.86500
C  16.27600 0.34700 25.31800
C  18.48600 -0.60400 22.85800
C  14.69400 -0.71100 23.45200
C  14.09400 -1.72100 24.41900
N  15.94100 0.96500 28.19300
C  15.31800 1.71900 27.21500
C  14.42500 2.68000 27.85400
C  14.67700 2.56300 29.16800
C  15.69900 1.59600 29.35300
C  13.38600 3.59500 27.09800
C  14.38900 3.19400 30.42100
O  13.67200 4.16000 30.72200
C  15.17100 2.32200 31.44700
C  15.96800 3.21500 32.33100
O  17.10900 3.63300 32.10100
O  15.20300 3.39300 33.48200
C  15.85300 4.07900 34.61800
H  19.91700 -2.76800 30.99000
H  19.18100 -2.74000 24.69900
H  14.76700 1.84200 25.10400
H  17.65200 0.82900 32.89000
H  17.98500 -2.01900 32.98000
H  20.41200 -0.82400 32.35900
H  19.76400 -1.59400 33.73400
H  19.61900 0.17500 33.63800
H  15.62900 -1.60800 33.03100
H  14.91400 -0.10500 32.95300
H  15.59800 -1.42800 35.15900
H  14.92200 0.11100 34.86200
H  22.36400 -3.79200 29.09700
H  21.53600 -5.27300 29.32100
H  21.35200 -4.00400 30.46100
H  21.84800 -5.88600 27.23200
H  22.86100 -4.47700 27.14000
H  22.74700 -5.44000 25.72900
H  16.99700 -2.02100 23.19500
H  16.25100 0.73700 23.20900
H  18.36100 0.47700 22.79700
H  18.31600 -1.04800 21.87700
H  19.51500 -0.84100 23.12900
H  14.83400 -1.26100 22.52200
H  14.10500 0.15200 23.14000
H  14.58400 -1.80900 25.38900
H  13.87800 -2.71100 24.01700
H  13.08500 -1.38900 24.66400
H  13.82900 4.57200 26.90500
H  12.47300 3.70300 27.68400
H  13.11600 3.12800 26.15100
H  14.41200 1.78100 32.01100
H  15.01300 4.24600 35.29200
H  16.27100 5.00700 34.22700
H  16.66200 3.53400 35.10400
Mg 25.69100 0.74600 29.37700
C  27.78300 0.30500 32.10400
C  23.08800 1.19700 31.51800
C  23.69800 0.90400 26.70900
C  28.35600 0.23900 27.29700
N  25.40700 0.59400 31.57600
C  26.41000 0.52400 32.52000
C  25.93000 0.83200 34.00300
C  24.42200 0.98700 33.67600
C  24.26200 0.90800 32.14600
C  23.42700 0.08100 34.47900
C  26.69400 2.07100 34.63700
C  27.60700 1.80400 35.80000
H  27.46300 2.69500 37.05300
N  23.65200 1.00300 29.12900
C  22.76600 1.20500 30.15400
C  21.50400 1.51200 29.55900
C  21.63900 1.28700 28.19600
C  23.04000 1.12700 27.93600
C  20.27300 1.80100 30.48600
C  20.61700 1.39700 27.17800
O  20.85100 1.19800 25.99700
C  19.16100 1.57400 27.59800
N  25.97800 0.78900 27.32700
C  25.03600 0.72900 26.41900
C  25.57800 0.80900 24.97800
C  27.11100 0.72400 25.19100
C  27.15600 0.60000 26.74000
C  25.04300 -0.30400 24.04100
C  27.97500 1.90000 24.72400
C  29.40200 1.51700 24.17700
N  27.63500 0.27700 29.60100
C  28.61200 0.08600 28.64100
C  29.84700 -0.29000 29.29200
C  29.51500 -0.18300 30.62900
C  28.18900 0.15900 30.76700
C  31.15100 -0.72300 28.64700
C  30.06600 -0.26200 31.93100
O  31.22900 -0.56800 32.23500
C  28.95100 0.06900 32.96800
C  28.90400 -1.11600 33.83700
O  28.77800 -2.28700 33.46200
O  28.98800 -0.73500 35.15900
C  28.86000 -1.80200 36.19700
H  22.27500 1.61900 32.11300
H  23.26400 1.15300 25.73800
H  29.16700 0.16200 26.57000
H  26.18700 -0.11000 34.48800
H  24.15900 2.01100 33.93900
H  23.32200 -0.81600 33.87000
H  22.49000 0.63800 34.49000
H  23.74700 -0.22400 35.47500
H  25.98200 2.72500 35.14200
H  27.32500 2.57000 33.90100
H  28.63400 1.92700 35.45700
H  27.55800 0.75800 36.10500
H  19.71000 0.86700 30.48900
H  19.64200 2.64300 30.20400
H  20.49600 2.14400 31.49600
H  18.52400 1.42600 26.72700
H  19.12000 2.63900 27.82500
H  18.91700 0.84500 28.37200
H  25.32700 1.77500 24.54000
H  27.55300 -0.16000 24.73200
H  24.18100 0.14000 23.54300
H  24.61100 -1.18100 24.52300
H  25.86700 -0.56900 23.37900
H  28.04200 2.68900 25.47300
H  27.41100 2.29700 23.87900
H  30.11800 2.11700 24.73900
H  29.53900 1.74500 23.12000
H  29.58800 0.44400 24.21900
H  31.22500 -0.22300 27.68200
H  31.23500 -1.81000 28.64200
H  31.99900 -0.32200 29.20100
H  29.20700 0.90700 33.61500
H  29.11000 -2.79800 35.83000
H  27.90600 -1.77400 36.72300
H  29.53600 -1.61600 37.03200

