158

Mg 25.68100 51.22500 25.65500
C  23.40000 51.91900 28.02000
C  28.04800 50.64900 28.09700
C  27.97300 50.64400 23.28600
C  23.48400 52.21500 23.09700
N  25.70000 51.20600 27.80400
C  24.57600 51.35600 28.59900
C  24.86000 51.22100 30.07700
C  26.38000 50.86700 29.98300
C  26.75100 50.93300 28.53200
C  27.25700 51.75100 30.84800
C  23.85400 50.18300 30.76900
C  23.39200 50.54500 32.24000
H  23.80000 49.42800 33.34900
N  27.69900 50.74700 25.64900
C  28.55600 50.49800 26.75400
C  29.93300 50.11600 26.33600
C  29.87600 50.11000 24.91600
C  28.43400 50.49800 24.53700
C  31.04500 49.80500 27.33100
C  30.92600 49.72100 23.93300
O  30.85700 49.92200 22.73200
C  32.25500 49.40100 24.37700
N  25.71000 51.38400 23.49000
C  26.74800 51.00700 22.68800
C  26.49100 51.08700 21.19200
C  25.00400 51.53600 21.16800
C  24.66900 51.68800 22.67300
C  27.42300 52.12000 20.43400
C  24.04800 50.49000 20.43700
C  23.36500 50.97700 19.18700
N  23.94600 51.99800 25.54500
C  23.15200 52.39000 24.48700
C  21.90800 52.99900 24.93300
C  21.97400 52.85000 26.35300
C  23.18200 52.19200 26.67100
C  20.83300 53.53100 24.15400
C  21.22500 52.96600 27.57400
O  20.07200 53.41900 27.74500
C  22.08000 52.28700 28.74600
C  22.33400 53.36800 29.67100
O  23.11300 54.25500 29.45900
O  21.49400 53.18700 30.75100
C  21.69600 54.07900 31.91300
H  28.70300 50.24900 28.87300
H  28.57500 50.37600 22.41600
H  22.75500 52.58900 22.37600
H  24.62600 52.18900 30.51900
H  26.64900 49.89600 30.39900
H  26.68600 52.57500 31.27800
H  28.09400 52.12600 30.26000
H  27.61100 51.11600 31.66000
H  24.38200 49.22900 30.75600
H  22.99400 49.95800 30.13800
H  22.30600 50.53100 32.32400
H  23.64700 51.53800 32.61000
H  31.79200 49.09000 26.98600
H  30.66200 49.23700 28.17900
H  31.46700 50.77200 27.60400
H  32.62800 50.02300 25.19000
H  33.03800 49.39500 23.61800
H  32.17500 48.37700 24.74300
H  26.54200 50.03500 20.91300
H  24.99300 52.52000 20.69800
H  27.98300 52.80500 21.07000
H  26.93600 52.72300 19.66900
H  28.16900 51.48000 19.96200
H  23.27300 50.33600 21.18800
H  24.52800 49.52500 20.27500
H  23.11000 50.11600 18.57000
H  23.93700 51.66900 18.56900
H  22.43900 51.39100 19.58600
H  19.99700 53.49600 24.85200
H  20.81300 53.12700 23.14200
H  21.05800 54.58800 24.01300
H  21.46200 51.45400 29.08200
H  22.08700 54.95200 31.39000
H  22.50200 53.74500 32.56500
H  20.77500 54.33300 32.43800
Mg 15.66500 51.93800 24.67100
C  17.40300 50.70600 27.48300
C  12.95000 52.37500 26.78400
C  14.04300 52.51800 21.98800
C  18.53600 51.00200 22.72300
N  15.21200 51.65900 26.88200
C  16.11600 51.17000 27.78900
C  15.66700 51.44400 29.22300
C  14.16000 51.88200 29.03100
C  14.05400 51.97900 27.51100
C  13.10800 50.92000 29.74900
C  16.48900 52.40200 30.08000
C  16.97700 51.97800 31.50600
H  16.09700 51.08700 32.31500
N  13.69400 52.51900 24.42000
C  12.70400 52.56200 25.35800
C  11.53800 52.98800 24.71500
C  11.83400 53.01900 23.27900
C  13.21500 52.67400 23.17600
C  10.26300 53.34000 25.44600
C  10.98300 53.47400 22.13800
O  11.39800 53.63600 21.01400
C  9.63200 53.78900 22.40800
N  16.27800 51.75400 22.58000
C  15.39400 52.22400 21.69400
C  16.05200 52.32200 20.26100
C  17.57500 52.03800 20.53200
C  17.54500 51.70000 22.05000
C  15.45100 51.39300 19.19600
C  18.58500 53.21400 20.19700
C  19.80700 52.75700 19.32200
N  17.54900 51.08100 24.96100
C  18.50800 50.74100 24.06800
C  19.58000 50.17200 24.81100
C  19.19300 50.12800 26.17900
C  17.92700 50.70600 26.19700
C  20.85000 49.71200 24.23600
C  19.59800 49.82200 27.52300
O  20.65200 49.26600 27.85600
C  18.42500 50.23900 28.52000
C  18.02600 48.97400 29.25100
O  17.53800 47.96200 28.82200
O  18.39600 49.15400 30.52500
C  18.54700 47.91400 31.32600
H  12.07600 52.57300 27.40900
H  13.50100 52.61500 21.04500
H  19.46600 50.75500 22.20700
H  15.80200 50.48100 29.71400
H  13.92300 52.87100 29.42300
H  13.67100 50.20900 30.35500
H  12.47800 50.38500 29.03800
H  12.42500 51.41600 30.43900
H  15.79700 53.23600 30.19700
H  17.36000 52.76000 29.53000
H  17.24700 52.84200 32.11400
H  17.91800 51.42800 31.48700
H  9.75300 54.22300 25.05800
H  10.59500 53.53300 26.46600
H  9.54100 52.52300 25.43900
H  9.08000 53.85500 21.47100
H  9.76100 54.83500 22.68500
H  8.99000 53.30100 23.14300
H  15.88700 53.36000 19.96900
H  17.93000 51.10800 20.08600
H  14.79100 50.56800 19.46400
H  16.21500 50.92300 18.57600
H  14.82300 52.05100 18.59700
H  18.90300 53.56000 21.18000
H  18.03400 53.96900 19.63500
H  19.88300 53.49900 18.52700
H  19.53900 51.79200 18.89100
H  20.74400 52.73800 19.87900
H  20.53700 48.73500 23.86700
H  21.70500 49.79700 24.90800
H  21.05100 50.34000 23.36800
H  18.81000 51.04000 29.15200
H  19.16800 47.23400 30.74300
H  17.60200 47.40900 31.52700
H  19.12600 48.13900 32.22200

