158

Mg 0.10200 7.78700 26.98000
C  0.95700 9.91800 29.53700
C  0.57200 5.02000 29.14200
C  0.11600 5.83500 24.24200
C  0.72000 10.59600 24.73700
N  0.90000 7.51100 29.06200
C  0.78400 8.55000 29.95200
C  0.70700 8.07000 31.37900
C  1.01200 6.53100 31.30500
C  0.79900 6.30500 29.72900
C  2.34400 6.02000 31.90500
C  -0.62700 8.36100 32.05800
C  -0.51300 8.82700 33.50400
H  0.52400 8.30100 34.48100
N  0.23800 5.68800 26.69900
C  0.30400 4.79400 27.74100
C  0.21500 3.49000 27.07600
C  0.10500 3.66100 25.66700
C  0.08000 5.12800 25.49900
C  0.27000 2.28700 27.92000
C  0.03500 2.71000 24.51600
O  -0.25200 3.03100 23.38800
C  -0.00800 1.24300 24.82900
N  0.29900 8.15700 24.75500
C  0.18000 7.17100 23.84900
C  0.32600 7.74100 22.43200
C  0.42200 9.28800 22.60500
C  0.42700 9.38600 24.14000
C  1.47500 7.16300 21.57100
C  -0.76100 10.17700 21.99300
C  -2.01900 10.39100 22.80000
N  0.62600 9.82800 27.08100
C  0.80700 10.83100 26.15100
C  1.09700 12.09900 26.76700
C  1.21800 11.82100 28.13000
C  0.85900 10.44100 28.25700
C  1.41000 13.42600 26.02500
C  1.58800 12.32100 29.43600
O  1.84900 13.45000 29.82100
C  1.43800 11.08800 30.43500
C  2.66800 10.76100 31.11400
O  3.70600 10.21200 30.71100
O  2.50800 11.14200 32.49200
C  3.81500 11.12300 33.26400
H  0.57500 4.16300 29.82000
H  -0.15400 5.32100 23.31800
H  0.71000 11.49900 24.12400
H  1.54500 8.44200 31.96900
H  0.19400 5.99600 31.78900
H  2.11800 5.32100 32.71000
H  2.95500 6.81100 32.33900
H  2.83400 5.46900 31.10200
H  -1.39700 7.59400 31.97900
H  -1.13800 9.20700 31.59900
H  -1.48800 8.75700 33.98600
H  -0.22700 9.87800 33.44400
H  -0.59500 1.62500 27.90800
H  0.24000 2.47200 28.99400
H  1.23600 1.82600 27.71400
H  0.13600 0.62300 23.94400
H  -0.98700 0.94400 25.20300
H  0.74700 0.87900 25.52500
H  -0.59700 7.51500 21.89900
H  1.36300 9.73700 22.28700
H  0.89000 6.66900 20.79600
H  2.18500 6.52100 22.09300
H  2.04700 7.90600 21.01600
H  -1.11700 9.72300 21.06800
H  -0.44100 11.14600 21.61100
H  -2.13700 9.59500 23.53400
H  -2.86600 10.28500 22.12300
H  -2.03300 11.38700 23.24400
H  1.76900 13.21300 25.01800
H  2.13800 14.04500 26.54900
H  0.46700 13.95500 25.88900
H  0.58900 11.06200 31.11800
H  4.27900 12.06900 32.98500
H  4.66400 10.47500 33.04800
H  3.65100 11.07500 34.34100
Mg 48.51100 35.96200 27.77800
C  46.59500 34.41900 30.12200
C  49.04000 38.54200 30.06100
C  50.31300 37.64300 25.40100
C  47.76200 33.52500 25.46000
N  48.12700 36.33500 29.85600
C  47.35000 35.47500 30.63500
C  47.40100 35.84600 32.14900
C  47.61900 37.41500 31.93700
C  48.35800 37.41100 30.56500
C  46.31600 38.36900 31.91400
C  48.73100 35.30400 32.86600
C  48.61000 34.86300 34.33400
H  47.93000 35.85500 35.23000
N  49.47600 37.75800 27.78600
C  49.53600 38.75400 28.75400
C  50.27100 39.87400 28.30900
C  50.67000 39.66100 26.99600
C  50.09600 38.28300 26.68200
C  50.41100 41.08000 29.11900
C  51.48900 40.47600 26.00000
O  51.79900 40.11100 24.85800
C  52.04900 41.81400 26.39400
N  48.94600 35.71200 25.68400
C  49.79100 36.44700 24.93300
C  50.12400 35.75700 23.63200
C  49.41100 34.32800 23.73400
C  48.69000 34.48100 25.05800
C  49.62500 36.63000 22.41700
C  50.19300 33.03600 23.53000
C  50.21100 32.36100 22.05600
N  47.37600 34.27400 27.71400
C  47.16000 33.33700 26.77800
C  46.32300 32.35500 27.27500
C  46.05100 32.74500 28.62000
C  46.69000 33.94300 28.82200
C  45.87600 31.07600 26.56300
C  45.35200 32.40900 29.86200
O  44.57000 31.47900 30.10200
C  45.52500 33.60100 30.78700
C  45.73500 33.19600 32.22500
O  46.64100 32.69300 32.85300
O  44.53000 33.41600 32.85800
C  44.52900 33.21000 34.30000
H  49.02100 39.34700 30.79900
H  51.02700 38.08200 24.70100
H  47.62200 32.59600 24.90300
H  46.50000 35.55100 32.68600
H  48.36800 37.76500 32.64700
H  46.32500 39.01500 32.79200
H  45.36700 37.84100 31.82000
H  46.38700 39.00400 31.03100
H  49.56600 35.99900 32.77800
H  48.98200 34.42800 32.26900
H  49.59400 34.71200 34.77600
H  48.13400 33.89100 34.46300
H  49.83600 41.86200 28.62200
H  51.48200 41.28300 29.10300
H  50.17300 40.98100 30.17800
H  51.31300 42.38900 26.95500
H  52.34500 42.31600 25.47300
H  52.97300 41.78900 26.97200
H  51.20400 35.76800 23.48600
H  48.59400 34.19400 23.02500
H  49.32300 35.96600 21.60700
H  50.45700 37.22900 22.04900
H  48.75200 37.24900 22.62500
H  49.76500 32.38600 24.29300
H  51.21200 33.28900 23.82200
H  49.26600 32.66500 21.60600
H  50.25100 31.27800 22.17900
H  51.08600 32.57300 21.44300
H  46.05400 31.21700 25.49700
H  44.79500 30.93900 26.53700
H  46.34700 30.13700 26.85300
H  44.57300 34.12300 30.68800
H  43.49500 33.43600 34.55900
H  45.24400 33.92300 34.71100
H  44.68700 32.18600 34.63600

