158

Mg 8.13300 1.79900 27.80300
C  9.81700 0.46000 30.61000
C  6.47100 3.94100 29.91500
C  6.17500 2.57500 25.15900
C  9.56600 -0.80800 25.87100
N  8.07600 1.99600 30.03000
C  8.92300 1.44900 30.94700
C  8.60000 1.93100 32.33300
C  7.33100 2.82000 32.08500
C  7.32600 2.99700 30.56300
C  5.98200 2.38800 32.71400
C  9.89200 2.58600 32.96100
C  10.19200 2.42700 34.44200
H  9.07600 2.29900 35.50100
N  6.67500 3.14700 27.52300
C  6.23600 4.02700 28.49100
C  5.36700 5.02600 27.83200
C  5.15700 4.63000 26.53400
C  6.03600 3.46300 26.28900
C  4.72700 6.15300 28.62900
C  4.17900 5.18300 25.51300
O  4.08000 4.86900 24.34000
C  3.32700 6.32200 25.87900
N  7.90500 1.01600 25.80000
C  6.94600 1.46000 24.92400
C  6.85900 0.57300 23.66600
C  8.04700 -0.41400 23.90000
C  8.61200 -0.05900 25.25500
C  5.35000 0.01400 23.43300
C  9.10400 -0.45900 22.71600
C  9.47900 -1.85900 22.27200
N  9.50400 0.29300 28.01900
C  10.00000 -0.67600 27.19700
C  10.86200 -1.55200 27.91200
C  10.83000 -1.10500 29.25400
C  10.01500 0.00300 29.25900
C  11.59100 -2.82900 27.42000
C  11.34300 -1.39900 30.58400
O  12.21500 -2.18000 30.89600
C  10.64000 -0.38700 31.50700
C  9.76800 -1.18700 32.52700
O  8.67000 -1.61700 32.34000
O  10.35200 -1.17400 33.76400
C  9.70500 -1.90000 34.84800
H  5.85800 4.56600 30.56700
H  5.47300 2.77700 24.34700
H  9.96200 -1.64200 25.28700
H  8.51900 1.05500 32.97700
H  7.51600 3.80800 32.50500
H  5.75200 3.08700 33.51900
H  6.11900 1.49400 33.32200
H  5.24300 2.14800 31.94900
H  9.79700 3.64100 32.70300
H  10.77400 2.28800 32.39300
H  10.59000 3.40900 34.69700
H  10.94300 1.68800 34.72200
H  4.71200 7.11000 28.10700
H  5.16700 6.42200 29.58900
H  3.66200 5.93800 28.71400
H  2.88800 5.99600 26.82200
H  2.60300 6.45500 25.07500
H  3.79300 7.29000 26.06900
H  7.17900 1.18700 22.82400
H  7.60500 -1.39300 24.08600
H  4.73600 0.08300 24.33100
H  5.41100 -1.05200 23.21800
H  4.92200 0.59100 22.61300
H  10.00400 0.13300 22.88600
H  8.65800 0.04000 21.85500
H  9.11700 -1.78400 21.24700
H  8.84300 -2.62400 22.71800
H  10.56600 -1.86700 22.34900
H  12.67600 -2.79700 27.52700
H  11.29100 -3.06300 26.39900
H  11.18200 -3.57400 28.10300
H  11.46500 -0.00500 32.10700
H  9.34900 -2.84000 34.42600
H  8.88800 -1.33600 35.29900
H  10.41300 -2.13700 35.64200
Mg 39.95400 8.20500 29.25200
C  41.74800 9.85300 31.86300
C  37.48400 7.35300 31.52600
C  38.38200 6.80700 26.71300
C  42.75300 8.84400 27.17000
N  39.78600 8.52900 31.51800
C  40.59000 9.23800 32.33400
C  39.92700 9.34300 33.73200
C  38.67300 8.36000 33.63900
C  38.59500 8.13100 32.07500
C  38.89900 7.08200 34.49200
C  39.69300 10.76800 34.30800
C  38.68400 10.83600 35.48300
H  39.07200 11.64600 36.73600
N  38.15600 7.22800 29.16400
C  37.30300 6.97100 30.18400
C  36.17300 6.29900 29.56700
C  36.37400 6.16300 28.16800
C  37.66600 6.77900 27.93900
C  34.88200 6.06600 30.28600
C  35.53700 5.43900 27.16600
O  35.89200 5.33200 25.99000
C  34.38300 4.57600 27.62900
N  40.50400 7.82200 27.23300
C  39.60800 7.27000 26.38200
C  40.12700 7.33200 24.87200
C  41.60300 7.96600 25.15400
C  41.69600 8.17700 26.63100
C  40.31500 5.94100 24.28600
C  41.66800 9.34900 24.32900
C  40.55300 10.39600 24.69500
N  41.85000 9.03400 29.49100
C  42.78200 9.25600 28.49500
C  43.89200 10.00200 29.11100
C  43.48100 10.35600 30.39800
C  42.22900 9.71000 30.58000
C  45.19800 10.28100 28.41600
C  43.84900 11.11300 31.58600
O  44.86300 11.72500 31.85000
C  42.70500 10.82400 32.62900
C  43.44200 10.23300 33.79700
O  44.19600 9.30000 33.78700
O  43.26200 11.19700 34.77300
C  44.06600 10.93800 36.01300
H  36.70700 7.12000 32.25800
H  37.93300 6.47800 25.77300
H  43.49900 9.16200 26.43900
H  40.77200 8.91600 34.27200
H  37.76000 8.87500 33.93600
H  39.68300 7.28500 35.22200
H  39.26500 6.25300 33.88600
H  37.92700 6.95500 34.96700
H  39.28100 11.39700 33.51900
H  40.63700 11.14300 34.70500
H  38.44700 9.81900 35.79400
H  37.71000 11.15400 35.10900
H  34.72300 6.57400 31.23700
H  34.76300 5.00200 30.48900
H  34.05000 6.36500 29.64900
H  34.77700 4.01700 28.47900
H  34.16300 3.95500 26.76100
H  33.52900 5.18800 27.91800
H  39.55200 7.89000 24.13300
H  42.43200 7.36800 24.77700
H  39.92000 5.21500 24.99600
H  41.39000 5.77900 24.20500
H  39.74400 5.80400 23.36700
H  41.78500 9.08600 23.27800
H  42.60500 9.78900 24.66900
H  39.85200 10.04900 25.45500
H  39.95900 10.63000 23.81200
H  41.13200 11.27700 24.97300
H  46.03200 10.14100 29.10400
H  45.10900 11.25900 27.94400
H  45.25700 9.51600 27.64200
H  42.13700 11.73800 32.80000
H  43.59000 11.36100 36.89700
H  45.08500 11.32400 35.96500
H  44.11100 9.87000 36.22200

