158

Mg 46.12400 24.41600 28.58900
C  46.99800 26.71600 31.11600
C  45.83900 22.02400 30.99600
C  45.50500 22.18700 26.07800
C  47.21000 26.74300 26.24000
N  46.19800 24.46200 30.78200
C  46.53500 25.51200 31.56800
C  46.42900 25.12400 33.04300
C  46.52900 23.51700 33.03500
C  46.10600 23.30400 31.51400
C  47.92300 22.92900 33.44700
C  45.12800 25.69100 33.61500
C  45.37700 26.84000 34.64800
H  44.68700 26.75500 35.99000
N  45.58000 22.39800 28.59200
C  45.54300 21.57400 29.72800
C  45.29500 20.18600 29.27100
C  45.33300 20.23100 27.79000
C  45.46200 21.60300 27.40200
C  45.39300 19.00300 30.18500
C  45.38900 18.99600 26.82000
O  45.44600 19.07800 25.59400
C  45.48900 17.65500 27.41200
N  46.38600 24.42300 26.52800
C  45.96200 23.48200 25.69800
C  46.17600 23.80800 24.19300
C  46.49800 25.28700 24.30500
C  46.71100 25.50900 25.74900
C  47.30500 22.83000 23.67600
C  45.37400 26.14300 23.74500
C  45.72400 27.39000 23.00500
N  47.02300 26.25900 28.58900
C  47.34300 27.11300 27.56000
C  47.67600 28.42700 28.04900
C  47.57600 28.30400 29.45600
C  47.18800 26.98600 29.71100
C  48.17500 29.52500 27.25000
C  47.77400 28.96200 30.78700
O  48.30400 30.04500 30.95000
C  47.37400 27.98400 31.91500
C  48.66000 27.74000 32.75100
O  49.60500 27.29700 32.25000
O  48.56400 28.17900 34.05300
C  49.78000 28.07200 34.85500
H  45.82700 21.30100 31.81400
H  45.24600 21.54100 25.23700
H  47.47900 27.42100 25.42700
H  47.29400 25.52300 33.57200
H  45.77200 23.06100 33.67300
H  48.30000 22.34700 32.60600
H  47.69400 22.40500 34.37500
H  48.63300 23.75400 33.51500
H  44.48100 24.94800 34.08200
H  44.54600 26.01700 32.75300
H  44.83400 27.69600 34.24700
H  46.45600 26.94600 34.76900
H  45.49400 19.30600 31.22800
H  46.31500 18.42700 30.11000
H  44.49000 18.39400 30.16400
H  46.46800 17.56400 27.88200
H  45.46800 16.88100 26.64400
H  44.63800 17.43600 28.05700
H  45.17900 23.64800 23.78200
H  47.41800 25.50900 23.76400
H  48.22300 23.41000 23.58900
H  47.04100 22.60000 22.64400
H  47.31700 21.92100 24.27800
H  44.66000 26.34200 24.54400
H  44.90900 25.58500 22.93300
H  45.59500 27.30300 21.92600
H  46.80400 27.52400 23.07500
H  45.20200 28.24900 23.42600
H  47.71300 29.45900 26.26500
H  49.25900 29.50000 27.14200
H  47.82200 30.43100 27.74200
H  46.56800 28.22800 32.60700
H  49.57100 27.56200 35.79500
H  50.02900 29.11800 35.03200
H  50.59800 27.60600 34.30700
Mg 41.04400 40.85400 26.99300
C  40.54600 43.20100 29.60700
C  42.16700 38.69400 29.27500
C  41.78700 38.71000 24.42900
C  40.40400 43.31200 24.68000
N  41.25700 40.94300 29.22100
C  40.95600 41.95900 30.04900
C  40.98600 41.51400 31.56900
C  41.56200 40.04200 31.39200
C  41.71500 39.85900 29.87700
C  42.89000 39.84800 32.17900
C  39.57600 41.56900 32.23800
C  39.41000 42.43800 33.51200
H  39.05800 41.88100 34.96900
N  41.82300 38.95500 26.88100
C  42.17600 38.25400 27.94900
C  42.62500 36.94400 27.49600
C  42.45500 36.84000 26.08800
C  41.98000 38.19000 25.79100
C  43.26300 35.97900 28.41900
C  42.60400 35.68500 25.20500
O  42.52100 35.87000 23.96900
C  42.88900 34.30000 25.66200
N  41.00600 40.88000 24.88700
C  41.35100 39.89100 23.98200
C  41.09200 40.20800 22.52100
C  40.81700 41.77700 22.62700
C  40.65400 41.99800 24.18500
C  42.17000 39.88500 21.39600
C  39.53900 42.29700 21.92500
C  39.88000 43.45600 21.00000
N  40.34000 42.79200 27.03000
C  40.12400 43.70900 26.02800
C  39.95200 44.97700 26.53800
C  39.95900 44.82300 27.87900
C  40.30600 43.48200 28.20000
C  39.74400 46.26700 25.78200
C  39.80900 45.51800 29.17600
O  39.40100 46.63500 29.42000
C  40.17300 44.49100 30.31200
C  41.31100 45.00400 31.17600
O  42.46600 45.08900 30.84800
O  40.84600 45.28300 32.45300
C  41.73900 45.98700 33.40500
H  42.49800 37.96000 30.01300
H  41.96300 38.02900 23.59400
H  40.20700 44.09900 23.94900
H  41.71300 42.10700 32.12500
H  40.76300 39.40200 31.76900
H  43.12800 40.78200 32.68800
H  43.69000 39.73200 31.44800
H  43.02000 39.02700 32.88500
H  39.12200 40.61600 32.50900
H  38.90500 42.03900 31.51900
H  38.56300 43.08800 33.29400
H  40.30200 43.03100 33.71500
H  42.58800 35.21800 28.81000
H  43.71000 36.44400 29.29800
H  44.03600 35.44000 27.87200
H  42.21400 34.10900 26.49600
H  43.92200 34.30100 26.00800
H  42.76100 33.58100 24.85200
H  40.16600 39.68400 22.28300
H  41.66900 42.41300 22.38500
H  42.62400 40.78000 20.97000
H  41.73400 39.25100 20.62400
H  42.97800 39.40500 21.94800
H  38.76300 42.64700 22.60600
H  39.16700 41.53800 21.23700
H  39.10100 44.20100 21.15900
H  39.93300 43.13700 19.95900
H  40.83500 43.95900 21.15000
H  39.15100 46.99800 26.33200
H  39.28000 46.11400 24.80800
H  40.72600 46.73300 25.70000
H  39.32700 44.23500 30.95000
H  42.72600 46.07900 32.95100
H  41.82500 45.31100 34.25600
H  41.19700 46.91600 33.58200

