158

Mg -11.36500 39.01400 41.43200
C  -9.17900 36.15000 40.73000
C  -9.16500 40.88200 39.53000
C  -13.72100 41.22300 41.43800
C  -13.65300 36.48100 42.72100
N  -9.46600 38.53000 40.14200
C  -8.77500 37.28100 39.99600
C  -7.68400 37.38300 38.99700
C  -7.57900 38.97900 38.82300
C  -8.76600 39.53600 39.53000
C  -6.16200 39.57200 39.21000
C  -7.92600 36.58800 37.70600
C  -6.80400 35.59100 37.38000
H  -5.49200 36.11100 36.74600
N  -11.40300 40.93400 40.74400
C  -10.37200 41.51900 40.07300
C  -10.71700 42.93200 39.96300
C  -12.05800 43.05700 40.46100
C  -12.51800 41.71200 40.88700
C  -9.82400 43.88100 39.35500
C  -12.88500 44.28700 40.59200
O  -12.38000 45.40700 40.22300
C  -14.27700 44.29800 40.92600
N  -13.36600 38.79600 41.92600
C  -14.10000 39.94400 41.95900
C  -15.50400 39.73100 42.52500
C  -15.55100 38.21300 42.67400
C  -14.09600 37.75700 42.49600
C  -15.86100 40.57100 43.79600
C  -16.63300 37.56000 41.83600
C  -17.98000 37.81900 42.40000
N  -11.40800 36.90900 41.76900
C  -12.36200 36.03800 42.32000
C  -11.82300 34.67400 42.58200
C  -10.57700 34.68600 41.93400
C  -10.37100 36.06000 41.49500
C  -12.50900 33.59200 43.28700
C  -9.46600 33.84800 41.58200
O  -9.38600 32.62000 41.79200
C  -8.50500 34.86000 40.83600
C  -7.22400 34.82200 41.61200
O  -6.43000 33.92700 41.53000
O  -7.15700 35.85300 42.46300
C  -6.02200 35.78600 43.33600
H  -8.42100 41.54900 39.09100
H  -14.56500 41.88600 41.64200
H  -14.41700 35.83800 43.16300
H  -6.81900 36.98900 39.53100
H  -7.71100 39.26100 37.77800
H  -5.47000 38.78100 39.50200
H  -6.31700 40.32500 39.98200
H  -5.68700 40.04700 38.35200
H  -7.87900 37.30200 36.88400
H  -8.87900 36.06300 37.75700
H  -7.17800 34.81500 36.71300
H  -6.44500 35.06300 38.26400
H  -9.25200 44.23400 40.21300
H  -10.49500 44.56300 38.83400
H  -9.16100 43.55600 38.55200
H  -14.76800 43.62300 40.22500
H  -14.67000 45.28600 40.68400
H  -14.55600 44.01000 41.93900
H  -16.26500 40.02900 41.80500
H  -15.74600 38.06800 43.73600
H  -16.22400 41.52800 43.42200
H  -14.86700 40.71800 44.22000
H  -16.60200 40.11800 44.45400
H  -16.41900 36.49300 41.76500
H  -16.59900 37.99500 40.83700
H  -18.43300 36.95400 42.88400
H  -18.69800 37.99900 41.60000
H  -18.03000 38.65700 43.09500
H  -11.75700 32.87200 43.60800
H  -13.20700 33.14400 42.58000
H  -13.06900 33.87000 44.18000
H  -8.21400 34.35000 39.91800
H  -6.16600 36.70200 43.90800
H  -5.15200 35.83200 42.68100
H  -6.12900 34.91400 43.98100
Mg -12.26100 16.57600 40.99500
C  -8.99100 15.14700 40.45600
C  -11.19300 19.47300 39.59400
C  -15.47300 17.41600 40.60000
C  -13.26000 13.22400 41.72300
N  -10.28300 17.17200 39.85300
C  -9.12900 16.47300 39.87300
C  -7.94600 17.39700 39.36400
C  -8.66500 18.86900 39.25800
C  -10.14800 18.55000 39.58300
C  -8.15000 19.97300 40.16800
C  -7.25300 16.91500 38.06900
C  -5.68700 16.92100 38.15500
H  -4.96500 16.97100 36.83000
N  -13.19500 18.27400 40.40800
C  -12.54900 19.33500 39.86200
C  -13.49500 20.43100 39.54300
C  -14.75700 19.91600 39.89800
C  -14.56800 18.47400 40.26700
C  -13.16700 21.83600 39.21800
C  -16.05400 20.69600 39.85200
O  -16.08400 21.87400 39.66500
C  -17.35700 20.07500 40.35400
N  -14.11400 15.49400 41.15400
C  -15.32400 16.09000 40.96500
C  -16.53800 15.15800 41.12000
C  -15.85400 13.92900 41.76700
C  -14.34700 14.16700 41.55900
C  -17.70600 15.92300 41.95300
C  -16.40800 12.53600 41.25800
C  -16.85000 11.58300 42.42600
N  -11.36100 14.62200 41.09100
C  -11.89100 13.42200 41.44500
C  -10.83100 12.44600 41.68700
C  -9.68200 13.07900 41.21300
C  -10.03500 14.44300 40.89200
C  -10.97300 11.08900 42.19700
C  -8.24200 12.86800 41.04100
O  -7.56600 11.88200 41.17600
C  -7.73700 14.28000 40.52800
C  -6.86200 14.75300 41.59800
O  -7.09000 15.38300 42.63900
O  -5.58000 14.27600 41.32300
C  -4.55700 14.44300 42.42100
H  -10.87800 20.47100 39.28300
H  -16.52300 17.66500 40.43700
H  -13.49200 12.20600 42.04300
H  -7.21200 17.29400 40.16200
H  -8.63700 19.21100 38.22300
H  -8.80400 20.16400 41.01800
H  -8.02300 20.91200 39.63000
H  -7.20600 19.64400 40.60500
H  -7.42500 17.53500 37.19000
H  -7.52800 15.87700 37.88200
H  -5.28500 16.06600 38.69900
H  -5.41800 17.85800 38.64300
H  -13.60700 22.17400 38.28000
H  -12.10300 22.02400 39.07600
H  -13.44100 22.55800 39.98800
H  -17.76100 19.60600 39.45700
H  -17.89900 20.98600 40.60600
H  -17.17500 19.44200 41.22300
H  -16.91800 14.82900 40.15300
H  -15.96000 13.96200 42.85100
H  -17.51100 16.99500 41.98000
H  -17.64700 15.69400 43.01700
H  -18.71400 15.73100 41.58400
H  -15.51800 12.00000 40.93000
H  -17.14800 12.65500 40.46700
H  -16.83400 12.03900 43.41500
H  -16.16400 10.74100 42.52000
H  -17.84000 11.18300 42.20600
H  -10.47300 11.05900 43.16600
H  -10.40200 10.40400 41.57200
H  -11.95700 10.62000 42.20900
H  -7.17500 14.03300 39.62700
H  -4.83200 14.17400 43.44100
H  -4.28100 15.49600 42.36200
H  -3.74600 13.82300 42.04000

