158

Mg -1.82600 17.71100 26.99600
C  -2.88300 15.53200 29.49800
C  -2.83600 20.30400 28.81900
C  -1.15700 19.59900 24.32800
C  -1.93500 14.82600 24.67900
N  -2.71500 17.83900 28.99900
C  -2.88500 16.86400 29.92200
C  -3.19200 17.48000 31.34100
C  -3.47500 18.97600 30.99100
C  -2.96600 19.07600 29.50300
C  -4.90300 19.51600 31.32400
C  -2.06900 17.37800 32.31000
C  -2.41000 16.71100 33.61500
H  -1.46500 16.78200 34.79100
N  -2.00100 19.72800 26.66300
C  -2.32900 20.64100 27.57300
C  -2.02500 21.93500 27.01400
C  -1.39900 21.74500 25.79000
C  -1.49000 20.32700 25.48600
C  -2.32000 23.28000 27.77200
C  -0.79400 22.78400 24.96000
O  -0.25600 22.52800 23.84200
C  -0.59300 24.13500 25.41400
N  -1.73700 17.23400 24.77600
C  -1.25800 18.26800 23.92900
C  -1.03700 17.72100 22.57900
C  -1.10200 16.18400 22.68500
C  -1.73500 16.08500 24.12900
C  -1.88500 18.28500 21.35200
C  0.22700 15.58800 22.46400
C  1.35000 15.91900 23.46100
N  -2.29100 15.59400 27.05500
C  -2.22700 14.63000 26.07900
C  -2.54700 13.32600 26.72700
C  -2.79700 13.62100 28.07100
C  -2.70300 15.07300 28.19900
C  -2.26500 12.00800 26.21300
C  -3.04400 12.98400 29.36500
O  -3.24000 11.77300 29.66700
C  -2.93700 14.27600 30.38800
C  -1.71100 14.17500 31.33100
O  -0.53000 14.50100 31.16800
O  -2.18100 13.39200 32.36900
C  -1.13700 13.17200 33.45100
H  -3.00000 21.18800 29.43900
H  -0.75800 20.31600 23.60800
H  -1.95000 13.96000 24.01400
H  -4.11400 17.00600 31.67700
H  -2.79200 19.68200 31.46400
H  -4.88000 20.34200 32.03500
H  -5.63500 18.79300 31.68200
H  -5.29500 19.90700 30.38500
H  -1.61000 18.32300 32.60100
H  -1.27300 16.80700 31.83200
H  -2.64100 15.66600 33.40800
H  -3.33500 17.20000 33.92100
H  -3.04300 23.21900 28.58600
H  -2.70400 23.87300 26.94200
H  -1.37900 23.74100 28.07300
H  -0.04800 24.12400 26.35700
H  -1.54800 24.64600 25.53600
H  0.00900 24.72600 24.72400
H  -0.01000 17.88000 22.25200
H  -1.85800 15.72100 22.05100
H  -1.14900 18.37100 20.55300
H  -2.39000 19.21800 21.60400
H  -2.62900 17.60300 20.94100
H  0.58900 16.02800 21.53500
H  0.17400 14.51100 22.30900
H  0.92900 16.23700 24.41500
H  2.11200 16.61400 23.10900
H  1.92900 15.00600 23.59800
H  -1.26300 11.92500 25.79300
H  -2.85600 11.69000 25.35500
H  -2.34600 11.31400 27.05000
H  -3.82900 14.47200 30.98300
H  -1.06700 12.11600 33.19400
H  -1.58700 13.32700 34.43200
H  -0.22200 13.72500 33.24200
Mg 5.72700 53.88500 40.08100
C  5.21500 50.43600 40.17500
C  9.01100 53.17700 39.29000
C  6.10900 57.11000 39.11100
C  2.18200 54.26400 39.98500
N  7.03800 52.01000 39.86700
C  6.57200 50.74100 39.97600
C  7.71200 49.76300 39.75600
C  8.96300 50.74600 39.77900
C  8.29600 52.04500 39.61400
C  9.97700 50.73900 40.97500
C  7.63700 48.98500 38.46700
C  6.98400 49.72600 37.25200
H  7.87900 50.41000 36.28600
N  7.36100 55.01300 39.48100
C  8.62500 54.57600 39.27200
C  9.54300 55.69500 38.90300
C  8.71500 56.86600 38.91000
C  7.34700 56.33800 39.13300
C  11.06100 55.51000 38.63700
C  9.15300 58.35600 38.75300
O  10.35400 58.64300 38.58400
C  8.16600 59.51100 38.80900
N  4.34000 55.44900 39.49000
C  4.75500 56.74000 39.26900
C  3.55000 57.70600 39.33000
C  2.30100 56.75700 39.46300
C  2.95300 55.36400 39.60800
C  3.73200 58.82200 40.43700
C  1.43000 56.79500 38.20300
C  0.79000 58.10700 37.83300
N  4.00800 52.66600 40.31600
C  2.63100 52.96200 40.24200
C  1.91100 51.81500 40.64500
C  2.88900 50.80600 40.65000
C  4.12400 51.35700 40.31800
C  0.39900 51.65100 41.03100
C  3.02800 49.45000 40.83900
O  2.22800 48.57700 41.22200
C  4.50600 49.10500 40.50300
C  4.48400 48.19300 39.38100
O  3.89500 48.43300 38.35400
O  5.18200 47.05800 39.66800
C  5.25700 46.08500 38.63700
H  10.05500 52.90200 39.12700
H  6.19000 58.18000 38.90500
H  1.09000 54.26700 39.97600
H  7.67400 49.02400 40.55600
H  9.62900 50.56300 38.93500
H  9.71800 51.52100 41.68900
H  11.01600 50.85100 40.66500
H  9.85800 49.77200 41.46600
H  7.27500 47.95700 38.48000
H  8.68400 48.82400 38.21100
H  6.37800 50.53100 37.66800
H  6.23100 49.09000 36.78500
H  11.61300 55.34200 39.56100
H  11.56200 56.27000 38.03600
H  11.22000 54.57200 38.10600
H  7.57600 59.44700 37.89400
H  8.61500 60.49200 38.65100
H  7.78500 59.48600 39.83000
H  3.56500 58.16700 38.34300
H  1.77400 56.99800 40.38600
H  4.67400 58.56100 40.91800
H  2.90500 58.73800 41.14300
H  3.81600 59.84000 40.05700
H  0.69900 55.99700 38.33500
H  2.02000 56.48600 37.33900
H  -0.06300 57.77800 37.23900
H  1.31400 58.66500 37.05700
H  0.60800 58.74600 38.69700
H  0.14100 50.67900 41.45100
H  -0.09600 51.71300 40.06200
H  0.00600 52.48800 41.61000
H  4.99300 48.56000 41.31100
H  5.51900 45.18200 39.18800
H  6.00200 46.34800 37.88600
H  4.25300 46.00100 38.21900

