158

Mg -0.06800 7.76000 27.37500
C  0.83800 9.88600 29.89900
C  0.20100 5.14700 29.46600
C  -0.44900 5.73000 24.66400
C  0.01000 10.63200 25.25400
N  0.43800 7.52600 29.41100
C  0.71900 8.50000 30.25300
C  0.77400 7.92900 31.71100
C  0.81100 6.42000 31.51900
C  0.50200 6.36100 30.06100
C  2.13000 5.71600 31.92000
C  -0.44700 8.37600 32.57500
C  -0.73100 7.67700 33.90000
H  0.32900 6.90500 34.68000
N  -0.18800 5.68600 27.10100
C  -0.09700 4.83500 28.13100
C  -0.47200 3.49400 27.61300
C  -0.49000 3.61000 26.18700
C  -0.33600 5.06900 25.87400
C  -0.85000 2.38500 28.56200
C  -0.64300 2.47500 25.14800
O  -0.54100 2.65900 23.94000
C  -1.03300 0.99900 25.61000
N  -0.21300 8.18800 25.30900
C  -0.38500 7.14000 24.43800
C  -0.39600 7.70900 23.01900
C  -0.73600 9.26700 23.17000
C  -0.36800 9.42000 24.70100
C  1.02800 7.48400 22.31000
C  -2.26000 9.77100 22.87600
C  -2.37000 10.62000 21.61300
N  0.28900 9.88200 27.59700
C  0.37500 10.85700 26.64800
C  0.88600 12.17800 27.24800
C  1.05100 11.80000 28.57700
C  0.62500 10.45500 28.70900
C  1.20600 13.45900 26.43200
C  1.56400 12.18300 29.83900
O  2.00600 13.26300 30.24300
C  1.20400 11.05100 30.83300
C  2.22700 10.84200 31.85600
O  3.38000 10.65200 31.61800
O  1.73800 11.21300 33.05200
C  2.61700 11.54500 34.21300
H  0.12700 4.27200 30.11600
H  -0.66400 5.17700 23.74700
H  0.10800 11.42700 24.51200
H  1.60600 8.32500 32.29300
H  -0.01400 5.95100 32.05600
H  1.96600 5.24200 32.88800
H  2.85200 6.53200 31.95300
H  2.48400 4.92900 31.25500
H  -1.38400 8.13600 32.07300
H  -0.38000 9.45200 32.73200
H  -1.63300 7.10600 33.68300
H  -1.03200 8.54600 34.48500
H  -1.86600 2.18300 28.22600
H  -0.87000 2.40700 29.65200
H  -0.19800 1.52400 28.41100
H  -0.18000 0.66900 26.20300
H  -1.14800 0.35800 24.73500
H  -1.98300 1.06800 26.13800
H  -1.26300 7.35600 22.46000
H  0.03600 9.76000 22.57900
H  1.74100 8.29300 22.46600
H  0.87100 7.21900 21.26500
H  1.53700 6.65200 22.79800
H  -2.62600 10.38100 23.70200
H  -2.99600 8.97600 22.75900
H  -1.54800 10.27500 20.98600
H  -2.45200 11.65400 21.94800
H  -3.28600 10.38000 21.07400
H  1.68100 13.03500 25.54700
H  1.80300 14.01000 27.15800
H  0.27800 13.95500 26.14900
H  0.25300 11.34900 31.27600
H  2.13300 11.32900 35.16600
H  2.95200 12.57400 34.08300
H  3.50400 10.92400 34.08600
Mg 36.02100 49.22200 24.71800
C  35.99400 47.41800 27.75200
C  33.88900 51.55400 26.14500
C  35.43900 50.58000 21.65800
C  37.68200 46.69500 23.28000
N  34.95400 49.40600 26.70900
C  35.28000 48.63200 27.79700
C  34.84400 49.39000 29.09500
C  33.86600 50.41600 28.53900
C  34.28100 50.50100 27.00800
C  32.37400 50.09900 28.72400
C  36.01400 49.92700 29.89700
C  35.97100 49.91300 31.48400
H  34.71100 49.53200 32.29800
N  34.84600 50.88700 24.00500
C  34.18700 51.84200 24.83100
C  33.85800 53.01600 24.05200
C  34.36500 52.76600 22.74500
C  34.93500 51.37600 22.71800
C  33.34000 54.30600 24.65900
C  34.41000 53.71100 21.50700
O  35.00400 53.46700 20.47900
C  33.72200 55.17500 21.56200
N  36.27700 48.60200 22.71800
C  35.96100 49.28300 21.63300
C  36.60700 48.65700 20.28900
C  37.43000 47.48600 20.91100
C  37.10900 47.55000 22.36200
C  35.50500 48.26200 19.23800
C  38.97700 47.58200 20.54900
C  39.83000 48.60400 21.25000
N  36.79100 47.47600 25.30800
C  37.55100 46.60000 24.66100
C  38.02300 45.57400 25.53700
C  37.44800 45.90200 26.83000
C  36.66000 46.98300 26.60000
C  38.84300 44.40200 25.03700
C  37.37200 45.55300 28.15500
O  38.01600 44.69700 28.78500
C  36.40200 46.44800 28.76600
C  35.25000 45.64500 29.39800
O  34.44400 45.00900 28.74200
O  35.11000 45.86700 30.77700
C  34.07400 45.10500 31.51500
H  33.32200 52.41500 26.50600
H  35.43000 51.01300 20.65600
H  38.46000 46.03100 22.89500
H  34.26600 48.69500 29.70500
H  34.01500 51.41400 28.95200
H  32.04900 49.13200 29.10600
H  31.91200 50.16700 27.73900
H  32.05300 50.88900 29.40300
H  36.03400 51.00200 29.71300
H  36.92400 49.45900 29.52200
H  36.31900 50.78500 32.03700
H  36.72500 49.16400 31.72700
H  32.59700 54.86900 24.09300
H  34.18100 54.99000 24.77700
H  32.96000 54.28500 25.68000
H  32.64500 55.21200 21.72800
H  33.84600 55.76900 20.65700
H  34.26300 55.66800 22.36900
H  37.19100 49.47100 19.85900
H  37.05300 46.52900 20.55100
H  35.66100 48.60700 18.21600
H  34.47500 48.51800 19.49000
H  35.54300 47.17300 19.20100
H  39.06500 47.83500 19.49200
H  39.40100 46.58500 20.66700
H  39.76400 49.58400 20.77800
H  40.86700 48.26800 21.22400
H  39.43300 48.86800 22.23000
H  39.73100 44.58000 24.43100
H  38.22800 43.73400 24.43500
H  39.33000 43.94100 25.89700
H  36.91700 46.97700 29.56800
H  33.10400 45.60200 31.50900
H  34.26900 45.07200 32.58700
H  34.02400 44.04300 31.27600

