158

Mg -0.76500 7.43000 26.25300
C  -0.09200 9.50900 28.89300
C  -0.17900 4.75900 28.40900
C  -1.16200 5.51900 23.67600
C  -1.10700 10.34000 24.13500
N  -0.23700 7.16400 28.41500
C  -0.04600 8.18400 29.28000
C  0.24200 7.64900 30.72100
C  0.24300 6.09700 30.48900
C  0.03500 5.96400 28.97200
C  1.58500 5.39300 30.95900
C  -0.86900 8.12700 31.69600
C  -0.54800 8.07800 33.19800
H  0.54900 7.22000 33.88700
N  -0.70100 5.42500 26.06300
C  -0.40200 4.46500 26.98600
C  -0.29900 3.14900 26.35500
C  -0.58000 3.35900 24.94800
C  -0.85300 4.78900 24.84600
C  -0.01000 1.85100 27.20000
C  -0.53500 2.34600 23.76700
O  -0.95700 2.57800 22.64100
C  -0.16200 0.85000 23.97200
N  -1.11000 7.92000 24.23000
C  -1.22000 6.88900 23.36300
C  -1.44800 7.34500 21.97100
C  -1.87000 8.79500 22.20500
C  -1.28200 9.08900 23.55700
C  -0.13300 7.21500 21.10700
C  -3.46000 8.88600 22.14000
C  -3.92500 10.13600 21.33800
N  -0.62000 9.52700 26.40400
C  -0.70400 10.53400 25.48800
C  -0.42200 11.78500 26.10200
C  -0.16900 11.41400 27.48000
C  -0.31700 10.02600 27.55700
C  -0.46200 13.22100 25.61600
C  0.16900 12.03400 28.74700
O  0.47100 13.19700 29.02900
C  0.11500 10.79100 29.69700
C  1.26800 10.86000 30.58400
O  2.38200 10.88700 30.15200
O  0.90700 11.00900 31.87900
C  2.03900 11.04200 32.84200
H  0.02900 3.83500 28.95300
H  -1.42800 4.89000 22.82400
H  -1.14600 11.21800 23.48700
H  1.26900 7.95100 30.93000
H  -0.61700 5.63200 30.97200
H  2.23000 6.04800 31.54400
H  2.14700 5.06000 30.08700
H  1.26600 4.55600 31.58000
H  -1.58700 7.32000 31.55100
H  -1.32300 9.05600 31.34900
H  -1.48400 7.63100 33.53500
H  -0.57800 9.12000 33.51700
H  0.79700 1.96100 27.92500
H  0.28400 1.03600 26.53900
H  -0.93400 1.53900 27.68700
H  0.89000 0.85000 24.25900
H  -0.30400 0.43600 22.97300
H  -0.87500 0.40200 24.66300
H  -2.27500 6.81200 21.50100
H  -1.32100 9.47000 21.54900
H  -0.39100 6.37600 20.46000
H  0.79100 6.92800 21.60800
H  -0.03200 8.14500 20.54800
H  -3.85500 9.04800 23.14200
H  -4.02800 8.05000 21.73100
H  -3.24400 10.64400 20.65600
H  -4.23600 10.95900 21.98100
H  -4.84300 9.78200 20.86900
H  -0.75300 13.96600 26.35800
H  -1.16500 13.23400 24.78400
H  0.46400 13.58700 25.17200
H  -0.69200 10.86600 30.42500
H  2.64900 11.93500 32.70300
H  2.75300 10.23000 32.70000
H  1.75800 11.04400 33.89500
Mg 24.03100 -5.49500 45.16800
C  26.02900 -3.11300 43.73000
C  21.59900 -4.64200 42.94400
C  22.33600 -8.33600 46.10700
C  26.74000 -6.79100 46.87800
N  23.87800 -4.09100 43.33600
C  24.74700 -3.19600 43.06500
C  24.24900 -2.26300 41.85900
C  22.73900 -2.57300 41.91200
C  22.73000 -3.83100 42.75400
C  21.87500 -1.41300 42.44900
C  24.91200 -2.71800 40.53600
C  25.70700 -1.59900 39.93000
H  25.19300 -1.11500 38.60400
N  22.18600 -6.28000 44.80600
C  21.34900 -5.74300 43.86500
C  20.18400 -6.60300 43.76100
C  20.39600 -7.69700 44.57100
C  21.69400 -7.46900 45.23300
C  18.95200 -6.17800 42.95300
C  19.36900 -8.74800 44.85800
O  18.39600 -8.87700 44.12500
C  19.50300 -9.79500 45.85300
N  24.53100 -7.49300 46.24800
C  23.59500 -8.28300 46.69700
C  24.11400 -9.28700 47.82300
C  25.55600 -8.71600 48.06400
C  25.61500 -7.67200 47.00300
C  23.14100 -9.57100 48.99500
C  26.66300 -9.80200 47.80700
C  28.00900 -9.88200 48.56400
N  25.93800 -5.07600 45.40100
C  26.86900 -5.59300 46.18100
C  28.16500 -4.86800 45.92000
C  27.81800 -3.90300 44.98300
C  26.51000 -4.07600 44.66600
C  29.48800 -5.27600 46.37600
C  28.38500 -2.78600 44.14100
O  29.55100 -2.34000 44.11700
C  27.18700 -2.20400 43.37800
C  26.95300 -0.70200 43.57000
O  26.02700 -0.14800 44.11200
O  28.01700 -0.18600 42.85400
C  27.91400 1.28200 42.88000
H  20.81600 -4.44100 42.20900
H  21.81400 -9.15800 46.60100
H  27.59800 -6.93000 47.54000
H  24.34500 -1.23800 42.21900
H  22.32300 -2.64000 40.90700
H  22.29800 -0.46800 42.10900
H  21.91400 -1.58000 43.52600
H  20.84500 -1.51700 42.10800
H  24.21300 -3.15400 39.82200
H  25.65800 -3.46700 40.79600
H  26.71400 -1.97600 39.75100
H  25.87700 -0.72800 40.56200
H  18.76400 -5.13100 42.71700
H  18.16500 -6.42400 43.66600
H  19.00700 -6.73000 42.01400
H  18.52100 -10.23500 46.03000
H  19.88900 -9.34600 46.76800
H  20.17200 -10.47600 45.32700
H  24.33500 -10.28600 47.44600
H  25.57900 -8.35500 49.09200
H  22.62400 -10.51700 48.83200
H  22.52700 -8.67500 49.08300
H  23.70800 -9.70200 49.91700
H  26.89800 -9.73100 46.74500
H  26.24000 -10.80500 47.86400
H  28.81600 -9.59100 47.89300
H  28.18100 -10.89000 48.94100
H  28.07500 -9.14100 49.36100
H  29.37800 -5.64600 47.39500
H  30.14200 -4.40700 46.30200
H  29.97700 -6.05200 45.78700
H  27.31800 -2.38300 42.31100
H  28.73900 1.50200 42.20300
H  28.07000 1.74000 43.85700
H  27.04600 1.68700 42.35900

