158

Mg 40.43800 9.91200 29.69800
C  42.35300 11.12900 32.26400
C  38.26300 8.52800 31.91200
C  38.73200 8.62200 27.06500
C  42.91200 11.00200 27.39500
N  40.51600 9.69300 31.88900
C  41.28900 10.40600 32.74600
C  40.73800 10.30800 34.19300
C  39.45000 9.32300 34.07200
C  39.33400 9.12600 32.50100
C  39.59200 7.93900 34.86600
C  40.48200 11.67800 34.96500
C  39.72300 11.53700 36.28900
H  40.39200 12.32800 37.49200
N  38.80500 8.62600 29.50800
C  38.04800 8.21700 30.55400
C  36.96800 7.43300 30.14500
C  36.96100 7.44600 28.69000
C  38.20400 8.24300 28.33700
C  36.07200 6.74000 31.14200
C  35.97100 6.88700 27.68700
O  36.16700 7.01000 26.45000
C  34.71300 6.27300 28.16800
N  40.70200 9.94500 27.48700
C  39.82700 9.36800 26.64500
C  40.21100 9.46100 25.19500
C  41.67400 10.16900 25.28500
C  41.80500 10.31400 26.79100
C  40.12600 8.08500 24.43100
C  41.92300 11.38100 24.24600
C  41.20800 12.63300 24.76500
N  42.25200 10.86200 29.78800
C  43.10100 11.32200 28.78700
C  44.25100 11.89300 29.41200
C  43.95000 11.95500 30.77100
C  42.74900 11.24600 30.92900
C  45.35700 12.29100 28.52000
C  44.37200 12.49100 32.05900
O  45.36900 13.09900 32.37300
C  43.29700 12.02900 33.08700
C  44.02900 11.44800 34.25600
O  44.34600 10.30200 34.35300
O  44.27800 12.38500 35.18300
C  45.00800 11.88000 36.38600
H  37.48600 8.25600 32.63000
H  38.23100 8.17500 26.20400
H  43.71700 11.25000 26.70000
H  41.48900 9.75700 34.75900
H  38.51700 9.84600 34.28300
H  40.40400 7.83800 35.58600
H  39.82800 7.16700 34.13300
H  38.60700 7.71500 35.27600
H  39.97300 12.31600 34.24200
H  41.42700 12.15000 35.23400
H  39.57500 10.49400 36.56900
H  38.72500 11.97400 36.28300
H  35.19500 7.31100 31.44500
H  36.59800 6.42200 32.04200
H  35.63500 5.84600 30.69600
H  34.08900 6.32500 27.27600
H  34.31800 6.81400 29.02800
H  35.05700 5.28500 28.47400
H  39.50600 10.13800 24.71300
H  42.43000 9.41300 25.07200
H  40.90900 7.97300 23.68000
H  39.21100 7.95500 23.85200
H  40.11400 7.32600 25.21300
H  41.45900 11.10600 23.29800
H  42.97900 11.50100 24.00300
H  40.32600 12.73400 24.13300
H  41.94400 13.43500 24.70400
H  40.78400 12.56400 25.76700
H  46.29200 12.35500 29.07800
H  45.18600 13.20700 27.95500
H  45.62300 11.58800 27.73000
H  42.84800 12.96600 33.41600
H  44.42200 11.02800 36.73000
H  45.01000 12.67700 37.13000
H  46.04300 11.70000 36.09400
Mg -11.53600 38.41800 41.16300
C  -9.72300 35.35700 40.46300
C  -8.86000 40.13000 39.87200
C  -13.48300 41.17900 41.11200
C  -14.30700 36.41000 41.69500
N  -9.58000 37.77500 40.12300
C  -9.03100 36.44800 40.03700
C  -7.63900 36.47800 39.56300
C  -7.25000 38.01500 39.38900
C  -8.63600 38.70800 39.82600
C  -5.93400 38.45400 40.13400
C  -7.41900 35.77600 38.24000
C  -6.12800 34.87400 38.12500
H  -5.07700 35.42700 37.14500
N  -11.13200 40.38600 40.80100
C  -10.00100 40.93800 40.23700
C  -10.06100 42.38800 40.26800
C  -11.40000 42.71300 40.61300
C  -12.07500 41.37700 40.84500
C  -8.98800 43.31400 39.79600
C  -12.04200 44.07000 40.76300
O  -11.44900 45.08800 40.24200
C  -13.33500 44.25000 41.43800
N  -13.67500 38.73300 41.29200
C  -14.16700 39.95800 41.35200
C  -15.70500 39.92000 41.55800
C  -15.90500 38.44200 42.03400
C  -14.54400 37.78600 41.67800
C  -16.23200 41.04800 42.59800
C  -17.21300 37.83800 41.53700
C  -17.11500 37.19100 40.13300
N  -12.01000 36.35900 41.18300
C  -13.11600 35.66000 41.46600
C  -12.84200 34.19700 41.55200
C  -11.50600 34.05600 41.26600
C  -11.03500 35.38400 40.95500
C  -13.75000 33.20900 42.19800
C  -10.45100 33.04600 41.15500
O  -10.38900 31.83300 41.26600
C  -9.27900 33.92200 40.56000
C  -8.08500 33.58800 41.31700
O  -7.44400 32.57500 41.06700
O  -7.73100 34.62400 42.16800
C  -6.40800 34.60400 42.75300
H  -8.03300 40.78500 39.59100
H  -14.28000 41.91400 40.98400
H  -15.17200 35.81500 41.99300
H  -7.02700 36.16000 40.40700
H  -7.27100 38.33500 38.34700
H  -5.69200 37.89700 41.04000
H  -6.02600 39.50600 40.40100
H  -4.99900 38.45500 39.57400
H  -7.56700 36.38600 37.34900
H  -8.18300 35.00000 38.19900
H  -6.47500 33.87700 37.85500
H  -5.75900 34.75500 39.14400
H  -8.11100 42.84900 39.34600
H  -8.61900 43.99500 40.56300
H  -9.43300 43.96500 39.04300
H  -13.51500 43.59700 42.29200
H  -14.07600 44.20500 40.64000
H  -13.22500 45.26300 41.82600
H  -16.23300 39.98000 40.60600
H  -15.79800 38.49900 43.11700
H  -17.04700 40.66300 43.21000
H  -16.76000 41.79800 42.00800
H  -15.42200 41.50800 43.16300
H  -17.93700 38.65300 41.52700
H  -17.52700 37.17100 42.33900
H  -16.54600 37.70800 39.36000
H  -18.12200 37.23900 39.71700
H  -16.72500 36.17500 40.18900
H  -13.35000 32.20100 42.29800
H  -14.73800 33.34100 41.75600
H  -13.83000 33.59500 43.21500
H  -9.06100 33.59500 39.54300
H  -5.69800 34.95200 42.00300
H  -6.05400 33.65300 43.15200
H  -6.35300 35.28700 43.60000

