158

Mg 44.48600 5.49600 47.79300
C  42.59300 8.52400 47.60300
C  41.65100 3.89300 46.84800
C  46.27700 2.78500 47.50100
C  47.40500 7.46600 47.97900
N  42.32400 6.17900 47.34900
C  41.77600 7.40900 47.39600
C  40.28400 7.41100 47.07600
C  39.98200 5.89800 47.04800
C  41.38100 5.28200 47.06100
C  39.06100 5.38400 48.20900
C  39.76200 8.08300 45.77700
C  38.24800 7.90800 45.39000
H  37.96600 7.06700 44.17000
N  44.02700 3.55000 47.25100
C  42.83200 3.06900 46.92700
C  42.94300 1.61400 46.92500
C  44.30400 1.26500 47.02400
C  44.95900 2.53300 47.25900
C  41.70100 0.69100 46.77900
C  44.97900 -0.09900 46.94500
O  44.24400 -1.02800 46.65900
C  46.44500 -0.48200 47.22100
N  46.59500 5.22200 47.56900
C  46.99600 3.92600 47.62800
C  48.52000 3.85800 47.95700
C  48.92600 5.39900 48.08600
C  47.57200 6.12400 47.82500
C  48.82400 3.02800 49.27900
C  50.14000 5.85800 47.22200
C  51.19700 6.78100 47.96100
N  44.96600 7.54900 47.74800
C  46.17800 8.18900 47.88000
C  45.95600 9.54100 47.99500
C  44.60100 9.72400 47.86500
C  43.99700 8.45500 47.75500
C  47.01200 10.67300 48.31300
C  43.53900 10.69500 47.93800
O  43.69600 11.88900 48.07800
C  42.16700 9.95700 47.65000
C  41.11800 10.27100 48.64300
O  40.99000 9.63200 49.68000
O  40.26200 11.31300 48.35100
C  39.06700 11.44500 49.23800
H  40.74100 3.29500 46.76400
H  46.85200 1.86000 47.57900
H  48.31000 7.94800 48.35700
H  39.70000 7.77800 47.92000
H  39.45500 5.62600 46.13400
H  39.70200 4.88500 48.93500
H  38.39600 4.60300 47.84100
H  38.56100 6.18000 48.76100
H  40.43200 7.85200 44.94800
H  40.00800 9.14200 45.85200
H  37.77600 8.88100 45.25300
H  37.67100 7.52700 46.23300
H  40.80700 1.28100 46.57700
H  41.66200 0.07200 47.67500
H  41.82700 0.07500 45.88800
H  46.99500 -0.13000 46.34700
H  46.48000 -1.57100 47.18900
H  46.81500 -0.11500 48.17800
H  49.01100 3.28800 47.16800
H  49.21400 5.59800 49.11800
H  49.60100 2.26500 49.23900
H  47.90500 2.56500 49.64000
H  49.20000 3.70000 50.05000
H  49.70900 6.33000 46.33900
H  50.64800 4.96300 46.86200
H  51.39100 7.73200 47.46400
H  52.14200 6.25000 48.07500
H  50.81900 6.99100 48.96200
H  46.43300 11.57300 48.52000
H  47.68400 10.69200 47.45500
H  47.55200 10.44400 49.23100
H  41.77800 10.37400 46.72100
H  39.19200 11.97600 50.18200
H  38.78900 10.42500 49.50200
H  38.17300 11.82900 48.74500
Mg 9.04300 48.16200 25.56700
C  6.87000 48.79000 28.19800
C  11.67600 48.64800 27.65100
C  10.94200 47.64100 23.02000
C  6.13700 47.97900 23.54900
N  9.23000 48.77200 27.66100
C  8.24100 48.88700 28.59900
C  8.82500 48.99900 30.03900
C  10.31800 49.33800 29.72300
C  10.43300 48.94500 28.24900
C  10.72300 50.82000 29.97600
C  8.66100 47.70100 30.92200
C  9.46300 47.58200 32.20300
H  8.71700 46.75100 33.33800
N  11.04800 48.20000 25.31600
C  12.01400 48.33000 26.34700
C  13.34000 48.18600 25.80400
C  13.11900 47.71400 24.47800
C  11.68800 47.93800 24.17000
C  14.60500 48.35200 26.57800
C  14.12400 47.13200 23.48800
O  13.72900 46.63400 22.43400
C  15.60700 47.00200 23.67000
N  8.60400 48.09700 23.51900
C  9.63100 47.81100 22.65000
C  9.01200 47.39500 21.34000
C  7.46900 47.81600 21.47200
C  7.35100 47.94400 22.94000
C  9.73700 47.99500 20.11500
C  6.46200 46.86700 20.84900
C  5.35800 47.49300 20.06700
N  6.93800 48.27700 25.84600
C  5.93000 48.13100 24.92800
C  4.59900 48.38200 25.57900
C  4.98000 48.52100 26.90900
C  6.35900 48.52800 26.96100
C  3.21000 48.15600 24.93500
C  4.40900 48.73000 28.21900
O  3.24500 48.73500 28.59300
C  5.65400 48.75500 29.13000
C  5.52000 47.48900 29.88700
O  5.70000 46.34500 29.46800
O  5.13900 47.79600 31.18900
C  4.91500 46.68500 32.18800
H  12.41500 48.79100 28.44200
H  11.53100 47.17400 22.22800
H  5.15500 47.92900 23.07300
H  8.32100 49.82300 30.54400
H  11.00200 48.83300 30.40600
H  10.24500 51.41400 29.19700
H  11.79700 51.00400 29.93300
H  10.32500 51.20400 30.91500
H  8.69200 46.83400 30.26200
H  7.62400 47.68100 31.25900
H  9.69100 48.56100 32.62400
H  10.41100 47.09300 31.97600
H  15.23700 47.47200 26.69500
H  14.30700 48.58900 27.59900
H  15.18200 49.23900 26.31600
H  16.05000 47.28700 22.71600
H  15.91100 46.02600 24.04700
H  15.89500 47.79300 24.36300
H  9.08600 46.30800 21.35200
H  7.36500 48.80100 21.01700
H  10.40300 48.76700 20.50000
H  9.09200 48.38200 19.32600
H  10.34200 47.19800 19.68400
H  5.94500 46.26400 21.59500
H  7.01400 46.16600 20.22300
H  5.29900 48.56300 20.26500
H  4.39300 47.00200 20.18800
H  5.59500 47.36300 19.01100
H  2.90500 47.14600 25.20800
H  3.23400 48.05300 23.85000
H  2.45300 48.91800 25.11900
H  5.60800 49.58000 29.84100
H  3.83500 46.55000 32.24900
H  5.26900 46.98100 33.17600
H  5.36500 45.73600 31.89800

