158

Mg 2.15500 -2.40400 44.50700
C  5.29100 -1.22400 43.57700
C  0.79600 -0.01000 42.14100
C  -0.88900 -3.77400 44.69000
C  3.68300 -5.06100 46.26500
N  2.99100 -0.90000 42.95600
C  4.26900 -0.61700 42.78900
C  4.53900 0.52900 41.77200
C  3.11700 1.11900 41.63000
C  2.18600 0.00500 42.22900
C  2.84100 2.44900 42.33700
C  5.10700 -0.09500 40.48500
C  6.65600 0.19300 40.36000
H  7.23200 0.53300 39.01400
N  0.24400 -1.79100 43.81500
C  -0.06500 -0.81100 42.85000
C  -1.52600 -0.74600 42.68400
C  -2.08300 -1.80300 43.47400
C  -0.91700 -2.53100 44.01100
C  -2.18400 0.34500 41.82900
C  -3.54700 -1.93200 43.82800
O  -4.37200 -1.21600 43.29400
C  -4.05800 -2.88200 44.87800
N  1.56200 -4.24600 45.17500
C  0.20300 -4.57800 45.15400
C  0.04400 -5.83500 46.04800
C  1.47800 -6.18500 46.61500
C  2.28100 -5.05800 46.08800
C  -1.04000 -5.65100 47.13300
C  2.02200 -7.61400 46.22300
C  2.39500 -8.51000 47.47600
N  4.02100 -3.03900 44.84800
C  4.47900 -4.05700 45.67200
C  5.94600 -3.87700 45.90400
C  6.21000 -2.75700 45.05500
C  5.05800 -2.31700 44.40900
C  6.74600 -4.60100 46.89800
C  7.33600 -1.81600 44.76800
O  8.52800 -1.82300 45.17300
C  6.76600 -0.78600 43.69600
C  6.82800 0.52500 44.33900
O  6.24900 0.86500 45.36900
O  7.73800 1.35000 43.69500
C  8.02700 2.60600 44.41200
H  0.33300 0.76700 41.52900
H  -1.85100 -4.28800 44.64100
H  4.13200 -5.80500 46.92600
H  5.12000 1.32000 42.24600
H  2.88200 1.35300 40.59100
H  3.79900 2.78800 42.73100
H  2.26400 2.29700 43.24900
H  2.42000 3.24400 41.72100
H  4.68600 0.36800 39.59300
H  4.92400 -1.16900 40.48000
H  7.01400 -0.78800 40.67000
H  7.12700 0.86200 41.08000
H  -2.04700 0.05600 40.78700
H  -1.70700 1.30000 42.05100
H  -3.25500 0.49400 41.96600
H  -4.25300 -3.78300 44.29800
H  -5.00500 -2.55100 45.30500
H  -3.28300 -3.04300 45.62700
H  -0.30600 -6.71200 45.50400
H  1.42800 -6.08500 47.69900
H  -0.62200 -5.74800 48.13500
H  -1.87900 -6.33900 47.02600
H  -1.45300 -4.64300 47.13900
H  2.83100 -7.51400 45.49800
H  1.23500 -8.17500 45.72000
H  3.32900 -9.07100 47.44200
H  1.65600 -9.31200 47.48700
H  2.34600 -7.85600 48.34700
H  6.53500 -5.67000 46.86700
H  6.42800 -4.24900 47.87900
H  7.82600 -4.69500 46.78100
H  7.38500 -0.89600 42.80500
H  8.81800 3.15600 43.90200
H  8.30000 2.39100 45.44500
H  7.20800 3.32300 44.36600
Mg -0.19400 7.34700 26.26500
C  0.76700 9.31600 29.05900
C  -0.08600 4.63100 28.41600
C  -0.62500 5.53700 23.66100
C  0.31900 10.20700 24.23600
N  0.28200 6.97500 28.57500
C  0.53700 7.96500 29.47700
C  0.48300 7.39500 30.92300
C  0.53200 5.83200 30.68100
C  0.29500 5.78100 29.10500
C  1.92500 5.18100 31.20700
C  -0.72100 7.82300 31.85200
C  -0.36500 7.94600 33.36800
H  0.81600 7.25000 34.02900
N  -0.35500 5.38600 26.06800
C  -0.29900 4.38700 27.05900
C  -0.59200 3.11300 26.44300
C  -0.78300 3.36200 25.03000
C  -0.53400 4.81300 24.83600
C  -0.65600 1.84600 27.21100
C  -1.20300 2.40200 23.93700
O  -1.44100 2.71100 22.75900
C  -1.71400 0.96600 24.31300
N  0.07900 7.77900 24.21600
C  -0.29600 6.81000 23.31000
C  -0.31100 7.42600 21.82900
C  -0.04500 8.93800 22.04800
C  0.15500 9.00200 23.57800
C  0.71100 6.71500 20.89700
C  -1.17200 9.85300 21.48800
C  -2.36500 10.06600 22.37500
N  0.47100 9.38600 26.51200
C  0.51300 10.44000 25.60500
C  0.83500 11.66600 26.31100
C  1.00900 11.28800 27.66700
C  0.71500 9.88500 27.74500
C  1.00700 13.04500 25.68600
C  1.36100 11.73300 28.98700
O  1.75400 12.79900 29.37900
C  1.12600 10.45700 29.93600
C  2.39000 10.19600 30.61000
O  3.37500 9.63000 30.16600
O  2.30100 10.77200 31.81300
C  3.50100 10.65900 32.69900
H  -0.25000 3.75100 29.04300
H  -1.03000 4.96500 22.82400
H  0.38800 11.11400 23.63200
H  1.40400 7.70900 31.41500
H  -0.19700 5.31100 31.30200
H  2.31200 4.63400 30.34700
H  1.71200 4.48200 32.01600
H  2.61100 6.00600 31.39900
H  -1.52900 7.09200 31.89100
H  -1.15900 8.72700 31.42900
H  -1.21700 7.58300 33.94300
H  -0.29400 8.97900 33.71100
H  -1.22000 0.98600 26.85000
H  -1.09200 1.98100 28.20000
H  0.39200 1.55200 27.27000
H  -2.56700 0.97000 24.99100
H  -0.94200 0.37000 24.80100
H  -2.11300 0.47500 23.42600
H  -1.29700 7.25500 21.39800
H  0.88300 9.12100 21.50700
H  0.78100 5.64800 21.10900
H  1.69000 7.07100 21.21800
H  0.53900 6.93800 19.84400
H  -1.53500 9.35900 20.58700
H  -0.61200 10.75900 21.25700
H  -2.39000 11.11000 22.68700
H  -2.39100 9.43400 23.26200
H  -3.29900 9.91700 21.83300
H  0.11200 13.65400 25.55900
H  1.37700 12.81000 24.68900
H  1.69800 13.56300 26.35100
H  0.32200 10.72200 30.62300
H  4.41900 11.11200 32.32400
H  3.52900 9.63800 33.08000
H  3.39400 11.17800 33.65100

