158

Mg 25.31000 -8.05700 46.85700
C  26.99700 -5.36700 45.33300
C  22.67400 -7.41700 44.60300
C  23.84300 -10.93900 47.67400
C  28.21800 -9.02100 48.42700
N  25.01200 -6.73200 45.06600
C  25.75600 -5.65500 44.67100
C  25.22500 -4.97700 43.43200
C  23.77300 -5.53000 43.34400
C  23.83100 -6.68800 44.35700
C  22.69400 -4.53800 43.60800
C  26.08200 -5.25800 42.06400
C  26.19700 -3.92000 41.23200
H  25.05600 -3.78400 40.26100
N  23.40300 -8.94400 46.35500
C  22.50300 -8.54600 45.44700
C  21.33600 -9.43900 45.44700
C  21.67200 -10.48900 46.27700
C  23.01600 -10.16000 46.81100
C  20.06600 -9.14800 44.73000
C  20.78400 -11.79100 46.53500
O  19.69500 -11.78900 46.05000
C  21.27000 -12.98900 47.16400
N  26.00400 -9.75800 47.77600
C  25.19500 -10.77500 48.15400
C  25.87300 -11.77900 49.08000
C  27.22300 -11.15000 49.31200
C  27.17900 -9.90800 48.42900
C  25.10800 -12.01700 50.47300
C  28.39800 -12.12100 49.23300
C  29.25800 -12.27800 50.50800
N  27.27000 -7.45100 46.82400
C  28.29100 -7.79200 47.68200
C  29.38500 -6.85100 47.55900
C  28.93800 -5.90200 46.57200
C  27.59100 -6.28300 46.23400
C  30.60900 -6.90700 48.29200
C  29.32000 -4.69700 45.90700
O  30.41300 -4.15300 45.78200
C  28.03500 -4.31400 45.02700
C  27.48500 -3.04600 45.46000
O  27.21300 -2.16300 44.65600
O  27.21900 -2.85500 46.79700
C  26.63700 -1.55400 47.16700
H  21.81200 -7.09100 44.01800
H  23.48000 -11.83700 48.17800
H  29.07300 -9.25300 49.06700
H  25.27400 -3.91100 43.65400
H  23.67600 -5.90700 42.32600
H  22.30500 -4.16900 42.66000
H  23.02600 -3.59400 44.04000
H  21.82200 -4.89200 44.15800
H  25.58600 -6.00900 41.44800
H  27.06500 -5.60100 42.38500
H  27.17500 -3.87900 40.75200
H  26.03200 -3.00500 41.79900
H  20.33200 -9.43900 43.71400
H  19.90300 -8.07100 44.77500
H  19.12300 -9.54500 45.10400
H  21.89100 -12.98500 48.05900
H  21.93100 -13.38400 46.39200
H  20.46100 -13.71100 47.27800
H  25.85500 -12.73200 48.55100
H  27.30100 -10.74300 50.32000
H  24.23400 -11.36600 50.47400
H  25.70700 -11.77600 51.35200
H  24.91500 -13.07700 50.64100
H  29.02100 -11.73800 48.42400
H  27.98600 -13.12000 49.08900
H  30.30400 -12.26300 50.20100
H  28.78300 -13.08800 51.06200
H  29.15600 -11.44400 51.20300
H  31.18700 -5.99900 48.12500
H  31.23900 -7.79600 48.24100
H  30.25900 -6.83200 49.32200
H  28.35700 -4.28400 43.98600
H  26.95100 -1.26900 48.17100
H  25.56300 -1.67200 47.31400
H  26.82000 -0.71300 46.49800
Mg 46.98300 45.71100 43.83200
C  43.60300 44.74700 43.48000
C  47.82700 42.45300 42.57100
C  50.07600 46.62000 43.25800
C  45.86200 48.99600 44.07000
N  45.87500 43.91700 43.10000
C  44.49700 43.73900 43.20200
C  44.07500 42.26800 42.95500
C  45.46400 41.57800 42.75500
C  46.46300 42.73500 42.75500
C  45.69800 40.43200 43.81400
C  42.98600 41.92200 41.78700
C  43.20700 42.54700 40.39600
H  43.02600 41.64400 39.17100
N  48.76200 44.61300 43.20000
C  48.88900 43.34600 42.81400
C  50.26800 43.01300 42.57800
C  51.00200 44.22200 42.70000
C  49.95800 45.20500 43.06600
C  50.78900 41.63500 42.25400
C  52.49500 44.41900 42.44500
O  53.19400 43.45000 42.14900
C  53.10300 45.81300 42.62100
N  47.78500 47.50300 43.57100
C  49.12300 47.62600 43.45100
C  49.53600 49.11200 43.50100
C  48.08700 49.81200 43.46500
C  47.18800 48.73400 43.78600
C  50.28800 49.48800 44.79800
C  47.72600 50.41700 42.04000
C  48.01500 51.97500 41.90500
N  45.12200 46.74300 43.95600
C  44.81600 48.07600 44.06400
C  43.35300 48.22600 44.14700
C  42.86300 46.92900 44.00600
C  43.92200 46.10100 43.78600
C  42.48700 49.48300 44.14700
C  41.62100 46.17000 43.92000
O  40.44000 46.57200 43.85700
C  42.02600 44.70900 43.48200
C  41.49100 43.74200 44.51800
O  40.75300 42.74400 44.38400
O  41.88600 44.15400 45.72600
C  41.29800 43.47700 46.87200
H  48.00500 41.42400 42.25200
H  51.11300 46.93500 43.38900
H  45.49300 50.02300 44.10500
H  43.72400 41.83800 43.89300
H  45.41400 41.17600 41.74300
H  46.74400 40.36200 44.11000
H  45.54500 39.49100 43.28600
H  45.17500 40.46400 44.77000
H  41.98500 42.07200 42.19000
H  43.03400 40.83400 41.74600
H  44.23100 42.91800 40.43200
H  42.54200 43.40900 40.34700
H  51.45700 41.69400 41.39500
H  49.93200 40.98500 42.07700
H  51.31600 41.19800 43.10100
H  53.16600 46.08700 43.67400
H  52.57500 46.54400 42.01000
H  54.15200 45.71200 42.34000
H  50.12000 49.49700 42.66500
H  48.08900 50.61900 44.19700
H  50.71600 48.59900 45.26000
H  49.75000 50.09300 45.52700
H  51.12000 50.11200 44.47300
H  46.63700 50.36900 42.02700
H  48.21300 49.95600 41.18100
H  47.16200 52.64800 41.82000
H  48.66300 52.01800 41.03000
H  48.74300 52.25000 42.66900
H  42.18300 49.73100 43.13000
H  43.07400 50.29800 44.57100
H  41.65600 49.33200 44.83600
H  41.57500 44.56600 42.50000
H  41.57400 42.44200 46.66900
H  40.21000 43.41900 46.86100
H  41.58000 43.89800 47.83700

