158

Mg -1.20200 17.73100 27.47500
C  -1.93600 15.68200 30.18600
C  -2.11800 20.43300 29.46700
C  -1.03800 19.65000 24.79200
C  -1.00400 14.83000 25.39200
N  -1.86900 18.00200 29.52000
C  -2.02000 17.00000 30.44700
C  -2.26900 17.56400 31.93300
C  -2.55200 19.09700 31.53600
C  -2.20100 19.19400 30.07900
C  -3.86400 19.76100 32.14400
C  -1.11200 17.40700 33.02100
C  -1.54600 16.90800 34.34800
H  -0.50500 16.95500 35.46200
N  -1.45200 19.75600 27.23100
C  -1.76700 20.74100 28.16400
C  -1.71300 22.06300 27.56900
C  -1.30800 21.84500 26.23000
C  -1.30200 20.39500 26.01000
C  -2.17200 23.31600 28.20300
C  -1.06900 22.84200 25.11800
O  -0.72700 22.57300 23.95100
C  -1.11600 24.29700 25.42400
N  -0.80600 17.29000 25.46100
C  -0.90100 18.29100 24.53900
C  -0.51200 17.81600 23.16000
C  -0.32900 16.25700 23.39500
C  -0.70100 16.07400 24.81400
C  -1.56700 18.03600 22.04800
C  1.15000 15.85500 23.01500
C  2.17900 15.77000 24.16200
N  -1.48600 15.70000 27.67900
C  -1.39400 14.69000 26.75200
C  -1.62400 13.46500 27.50900
C  -1.87700 13.83400 28.82100
C  -1.77500 15.17800 28.90400
C  -1.69100 12.18500 26.84100
C  -2.21800 13.24700 30.12000
O  -2.31500 12.07200 30.49300
C  -2.19700 14.48700 31.08500
C  -1.13600 14.21800 32.07800
O  0.04800 14.51400 31.98800
O  -1.69500 13.54100 33.14400
C  -0.85900 13.21200 34.31700
H  -2.31100 21.28500 30.12300
H  -0.75700 20.15600 23.86600
H  -0.79800 13.93600 24.80000
H  -3.15300 17.03100 32.28100
H  -1.85100 19.77800 32.02100
H  -4.33200 19.16500 32.92700
H  -4.59400 19.93900 31.35400
H  -3.62800 20.66500 32.70600
H  -0.66000 18.32500 33.39500
H  -0.28900 16.77700 32.68300
H  -2.02600 15.93400 34.25700
H  -2.25800 17.66800 34.67100
H  -2.97000 23.78000 27.62300
H  -1.36100 24.04200 28.13800
H  -2.57600 23.15700 29.20200
H  -0.36400 24.56400 26.16700
H  -2.12200 24.58900 25.72600
H  -0.96500 24.86500 24.50600
H  0.45000 18.24400 22.88000
H  -0.98900 15.68200 22.74400
H  -1.04100 17.89300 21.10400
H  -2.09600 18.98600 21.96800
H  -2.27400 17.20800 22.09200
H  1.54900 16.57100 22.29600
H  1.01800 14.88000 22.54700
H  3.02500 16.35100 23.79400
H  2.44500 14.71300 24.18500
H  1.93600 16.30800 25.07800
H  -1.97100 11.47400 27.61800
H  -0.71400 11.91700 26.44200
H  -2.39600 12.18400 26.01000
H  -3.21900 14.31200 31.42000
H  0.15800 13.59600 34.24500
H  -0.82200 12.12900 34.43500
H  -1.26400 13.64300 35.23300
Mg 30.18400 57.96100 41.16400
C  27.49500 56.50300 39.52300
C  32.24000 55.67600 39.75500
C  32.72700 60.08100 41.65400
C  27.92500 60.56000 41.99100
N  29.91100 56.35100 39.79500
C  28.72400 55.85000 39.33200
C  28.93700 54.54300 38.57900
C  30.41300 54.17100 39.02300
C  30.89300 55.46300 39.74600
C  30.69300 52.90600 39.85000
C  28.69300 54.68100 37.00800
C  27.73800 53.61900 36.36400
H  26.83100 54.21500 35.23300
N  32.31800 57.92400 40.77600
C  32.93600 56.81700 40.22700
C  34.32500 57.05400 40.15000
C  34.58100 58.38700 40.73500
C  33.20500 58.84500 41.07400
C  35.12100 56.06000 39.53600
C  35.88100 59.06600 40.91500
O  36.93300 58.60800 40.40600
C  35.99500 60.34900 41.60700
N  30.33200 60.01600 41.79300
C  31.47100 60.62200 42.01100
C  31.32500 62.06000 42.53500
C  29.82800 62.19900 42.82100
C  29.31700 60.83200 42.16700
C  32.28300 62.40000 43.70900
C  29.22100 63.47000 42.14200
C  27.97400 64.05900 42.84500
N  28.09600 58.28600 41.10400
C  27.33100 59.37200 41.51600
C  25.87600 59.23700 41.19800
C  25.92200 58.12800 40.30700
C  27.26400 57.60400 40.29500
C  24.79200 60.12700 41.44300
C  25.12500 57.26900 39.48500
O  23.90800 57.30000 39.19700
C  26.14800 56.15100 38.99100
C  25.76800 54.79100 39.53400
O  26.09000 54.23200 40.57000
O  25.02200 54.27100 38.56200
C  24.26000 53.02700 38.75800
H  32.83400 54.80400 39.47700
H  33.49100 60.84900 41.79000
H  27.20900 61.32300 42.30400
H  28.28800 53.78300 39.01400
H  31.03000 54.01000 38.13900
H  31.53100 52.38300 39.38900
H  29.80500 52.32700 40.10400
H  31.02800 53.24500 40.83000
H  29.64800 54.51000 36.51000
H  28.19700 55.62300 36.77200
H  27.00900 53.22400 37.07100
H  28.27100 52.78000 35.91800
H  34.76000 55.95700 38.51300
H  35.08200 55.12900 40.10200
H  36.19700 56.21700 39.46400
H  35.63500 61.09000 40.89300
H  37.03800 60.49700 41.88600
H  35.39100 60.28100 42.51200
H  31.65700 62.69400 41.71300
H  29.56600 62.20600 43.87900
H  31.88600 63.11400 44.43100
H  33.17300 62.78600 43.21300
H  32.57200 61.53200 44.30200
H  28.93600 63.36200 41.09600
H  29.92700 64.30100 42.14300
H  28.14500 65.06800 43.22200
H  27.58400 63.33800 43.56300
H  27.13400 64.05100 42.14900
H  24.72500 60.92100 40.70000
H  25.08200 60.51400 42.42000
H  23.84400 59.59100 41.39500
H  26.25500 56.11900 37.90600
H  24.83500 52.37200 39.41300
H  24.00100 52.52700 37.82500
H  23.32400 53.18700 39.29400

