158

Mg 1.56400 -0.69600 43.79500
C  4.96800 -0.57600 42.95200
C  1.12400 2.02800 41.78100
C  -1.72000 -1.58000 43.65800
C  2.19700 -3.83400 45.32700
N  2.91700 0.56400 42.46700
C  4.24000 0.39700 42.29400
C  4.80000 1.50500 41.39000
C  3.53500 2.36600 41.10900
C  2.46500 1.62200 41.79800
C  3.54000 3.89500 41.35800
C  5.45000 0.87300 40.14800
C  6.80700 1.54000 39.77900
H  6.86100 2.20400 38.43400
N  -0.13500 0.23700 43.05000
C  -0.10000 1.35400 42.23200
C  -1.41400 1.62600 41.86400
C  -2.25400 0.65000 42.44100
C  -1.38400 -0.32200 43.05100
C  -1.73200 2.89900 41.14200
C  -3.81900 0.73000 42.39200
O  -4.43900 1.72600 41.98800
C  -4.68200 -0.29900 42.86900
N  0.42700 -2.45400 44.47000
C  -0.90000 -2.58200 44.22700
C  -1.44700 -3.98000 44.54600
C  -0.13900 -4.72400 45.06900
C  0.89300 -3.59500 44.91500
C  -2.54900 -3.83600 45.57400
C  0.30500 -6.01400 44.28300
C  0.65700 -7.32900 45.11600
N  3.23300 -1.91600 44.24700
C  3.30900 -3.10900 44.93600
C  4.74300 -3.41800 45.12300
C  5.42000 -2.44300 44.38300
C  4.43600 -1.58000 43.80400
C  5.32000 -4.69800 45.79800
C  6.73600 -2.06500 43.89600
O  7.81100 -2.62600 44.01400
C  6.50200 -0.82200 42.98400
C  7.23200 0.17000 43.65500
O  6.89300 0.65700 44.71800
O  8.28600 0.50400 42.83600
C  8.89100 1.81300 43.18900
H  0.92700 2.99600 41.31800
H  -2.71900 -1.99000 43.49500
H  2.34100 -4.76100 45.88600
H  5.45200 2.05100 42.07100
H  3.22900 2.45600 40.06600
H  4.47300 4.45300 41.43800
H  3.14100 4.08600 42.35500
H  2.96800 4.41400 40.58800
H  4.82900 1.00700 39.26200
H  5.64000 -0.18700 40.31700
H  7.54700 0.74100 39.74900
H  7.05200 2.35000 40.46600
H  -1.74800 2.55700 40.10700
H  -0.98600 3.68100 41.28400
H  -2.65900 3.39000 41.43700
H  -5.74100 -0.13000 42.67500
H  -4.49700 -0.40500 43.93800
H  -4.41100 -1.23500 42.38100
H  -1.82100 -4.38300 43.60500
H  -0.31200 -4.89200 46.13200
H  -2.40300 -4.55500 46.38100
H  -3.44700 -4.14600 45.03900
H  -2.62100 -2.78800 45.86300
H  1.18500 -5.90300 43.64900
H  -0.48200 -6.25500 43.56800
H  0.78600 -7.04400 46.16100
H  1.50800 -7.82700 44.65100
H  -0.19700 -7.98200 44.94100
H  5.75100 -4.44700 46.76700
H  6.11600 -5.13200 45.19300
H  4.50200 -5.38600 46.01000
H  6.98200 -1.12600 42.05400
H  8.21000 2.54800 43.61800
H  9.16900 2.18100 42.20200
H  9.85300 1.75900 43.69800
Mg 47.04200 44.68300 42.35900
C  43.60700 44.18500 42.63700
C  47.28800 41.23800 41.51100
C  50.24800 45.08100 41.90200
C  46.52500 48.10200 42.58700
N  45.64100 42.93900 42.11100
C  44.29900 42.96100 42.28300
C  43.74200 41.54400 42.18400
C  44.92900 40.64100 42.10100
C  46.05300 41.66800 41.87300
C  45.23100 39.70100 43.36600
C  42.50400 41.39000 41.22600
C  42.49500 42.27700 39.94100
H  43.41700 41.79300 38.74900
N  48.60600 43.38700 41.81900
C  48.48400 42.01800 41.54900
C  49.79600 41.55700 41.35100
C  50.77000 42.60800 41.42800
C  49.89100 43.78200 41.72800
C  50.03900 40.08700 41.16100
C  52.26400 42.53800 41.12100
O  52.74800 41.46000 40.81400
C  53.03800 43.76900 40.96400
N  48.13700 46.26900 41.96500
C  49.50300 46.19000 42.04000
C  50.19700 47.58300 42.20000
C  48.98000 48.57400 42.25700
C  47.82100 47.62100 42.33100
C  51.21300 47.68700 43.42300
C  48.79200 49.68400 41.15300
C  49.88200 49.73500 40.04500
N  45.45200 45.95900 42.48900
C  45.30800 47.36600 42.57500
C  43.93500 47.74900 42.72500
C  43.18400 46.52000 42.70100
C  44.15300 45.48700 42.65800
C  43.50100 49.16200 42.79800
C  41.78300 45.92500 42.74700
O  40.61600 46.35900 42.75600
C  42.08800 44.35600 42.79900
C  41.68300 43.67500 44.02600
O  40.70800 42.96600 44.10300
O  42.44100 44.16800 45.11100
C  41.96800 43.81100 46.49800
H  47.44600 40.16800 41.36100
H  51.30800 45.32200 42.00800
H  46.56700 49.17000 42.81300
H  43.22700 41.38300 43.13100
H  44.75900 39.93200 41.29000
H  46.20500 39.86700 43.82600
H  45.25600 38.63800 43.12700
H  44.43200 39.91100 44.07700
H  41.57300 41.52900 41.77500
H  42.65300 40.33600 40.99200
H  42.89800 43.27100 40.13400
H  41.48300 42.40600 39.55800
H  50.91300 39.83600 40.55900
H  49.23500 39.61600 40.59500
H  50.00900 39.67200 42.16800
H  52.64600 44.50800 40.26500
H  53.97900 43.42200 40.53700
H  53.09700 44.25400 41.93900
H  50.72700 47.74700 41.26200
H  49.00100 49.10900 43.20600
H  51.32100 46.78000 44.01800
H  51.04600 48.56200 44.05200
H  52.11200 47.93800 42.86100
H  48.80500 50.71800 41.50000
H  47.84800 49.50700 40.63700
H  49.89800 50.74400 39.63300
H  49.76000 48.99200 39.25700
H  50.84900 49.67700 40.54500
H  42.47600 49.32000 43.13200
H  43.50000 49.62300 41.81000
H  44.16100 49.72600 43.45700
H  41.46200 43.91100 42.02600
H  42.62200 43.09700 46.99900
H  41.06900 43.19800 46.56200
H  41.74700 44.71400 47.06700

