158

Mg 24.02900 -5.76300 46.16100
C  26.08700 -3.26800 44.38900
C  21.39500 -4.53600 44.34700
C  22.41800 -8.48200 46.88800
C  27.09900 -7.13200 47.34800
N  23.86600 -4.00800 44.49900
C  24.74200 -3.06600 44.06400
C  24.06300 -2.16700 43.09700
C  22.52900 -2.37700 43.28600
C  22.60000 -3.70800 44.10300
C  21.81700 -1.25700 44.14600
C  24.53500 -2.42700 41.65300
C  25.26900 -1.28900 40.82100
H  26.18700 -1.62000 39.58500
N  22.09400 -6.33800 45.81000
C  21.13300 -5.74100 45.06100
C  19.98800 -6.55000 45.06500
C  20.21900 -7.67600 45.88600
C  21.60900 -7.53800 46.26800
C  18.67300 -6.09000 44.36400
C  19.19800 -8.75300 46.35100
O  17.99600 -8.77400 45.97100
C  19.55000 -9.86300 47.27300
N  24.63200 -7.60200 46.93600
C  23.72100 -8.51200 47.17200
C  24.35400 -9.62400 48.03300
C  25.90200 -9.23600 48.15100
C  25.89400 -7.90600 47.47000
C  23.79000 -9.75900 49.42500
C  26.76700 -10.28300 47.50500
C  27.77100 -10.84300 48.43100
N  26.11500 -5.29300 46.08100
C  27.19300 -5.87000 46.70700
C  28.39200 -5.11400 46.41800
C  28.00600 -4.10300 45.55600
C  26.57200 -4.22500 45.31100
C  29.77300 -5.42700 46.98300
C  28.50000 -2.99100 44.69900
O  29.66600 -2.64300 44.39200
C  27.23900 -2.47000 43.85700
C  26.96800 -1.05800 44.19500
O  26.32700 -0.66100 45.13700
O  27.67400 -0.32100 43.32100
C  27.91900 1.07600 43.58000
H  20.58000 -4.02000 43.83400
H  21.90000 -9.43400 47.02600
H  28.02200 -7.64700 47.62200
H  24.40100 -1.18200 43.42000
H  21.95800 -2.53500 42.37100
H  22.08400 -1.35700 45.19800
H  20.73300 -1.17500 44.06400
H  22.16500 -0.26600 43.85500
H  23.72500 -2.60800 40.94700
H  25.22800 -3.26500 41.58600
H  25.77300 -0.67700 41.56900
H  24.52400 -0.56700 40.48600
H  18.00200 -6.03200 45.22200
H  18.20100 -6.80500 43.69100
H  18.72700 -5.12300 43.86400
H  18.73900 -10.24000 47.89600
H  20.22300 -9.44900 48.02300
H  20.11200 -10.67000 46.80200
H  24.16800 -10.54000 47.47200
H  26.21200 -9.10700 49.18700
H  22.75800 -10.11200 49.42100
H  23.93200 -8.82800 49.97400
H  24.34300 -10.62000 49.80000
H  27.22300 -9.88700 46.59700
H  26.11300 -11.14100 47.35000
H  28.02400 -10.13400 49.21900
H  28.72700 -11.12300 47.98800
H  27.32000 -11.65900 48.99600
H  30.03700 -6.45500 46.73200
H  29.64300 -5.46000 48.06500
H  30.57900 -4.78300 46.63300
H  27.59800 -2.58400 42.83400
H  28.32700 1.44900 42.64000
H  28.74600 1.09200 44.29000
H  27.08600 1.73000 43.83800
Mg 48.34500 24.69900 27.53800
C  49.26700 26.98200 29.85800
C  47.66900 22.42000 30.04600
C  47.65100 22.35400 25.14000
C  49.76300 26.70700 25.04300
N  48.38300 24.70300 29.76400
C  48.82900 25.74800 30.51600
C  48.52200 25.58200 32.05500
C  48.23300 24.00500 32.09300
C  48.12100 23.61600 30.53900
C  49.29800 23.12900 32.80200
C  47.27400 26.41300 32.43800
C  46.69300 26.05000 33.76400
H  46.52200 27.14800 34.82300
N  47.67500 22.70200 27.54800
C  47.44300 21.95000 28.64200
C  46.81700 20.69000 28.27000
C  46.70200 20.71700 26.81500
C  47.30200 22.01000 26.42800
C  46.36800 19.68600 29.26000
C  46.13100 19.69700 25.86600
O  46.03600 19.97300 24.67800
C  45.54700 18.43200 26.41200
N  48.71900 24.61000 25.41900
C  48.25800 23.53700 24.71800
C  48.50100 23.73600 23.18800
C  49.03900 25.24700 23.09100
C  49.19400 25.56700 24.54300
C  49.54900 22.73000 22.42200
C  48.04400 26.20200 22.37600
C  48.67300 27.36700 21.57100
N  49.16200 26.49000 27.41200
C  49.73600 27.19800 26.36200
C  50.19700 28.45300 26.88200
C  49.95800 28.46000 28.20900
C  49.38200 27.23200 28.49700
C  50.85600 29.53100 26.03400
C  50.11600 29.18000 29.42400
O  50.56700 30.29400 29.62600
C  49.63100 28.27100 30.55500
C  50.70000 28.10400 31.51800
O  51.72900 27.49600 31.23500
O  50.33800 28.60000 32.77900
C  51.32900 28.44100 33.85700
H  47.27300 21.81600 30.86400
H  47.38300 21.63600 24.36100
H  49.95100 27.40400 24.22300
H  49.35700 25.93900 32.65900
H  47.22000 23.73900 32.39400
H  48.89600 22.19000 33.18200
H  49.92500 23.63400 33.53700
H  49.93300 22.91400 31.94300
H  46.48700 26.22700 31.70700
H  47.58200 27.45800 32.44900
H  47.28900 25.26400 34.22800
H  45.72100 25.61500 33.53400
H  45.39200 19.21400 29.14800
H  46.51600 20.05200 30.27600
H  47.02100 18.81300 29.27800
H  45.51300 17.77000 25.54700
H  44.54600 18.66100 26.78000
H  46.24200 17.93000 27.08500
H  47.57200 23.58100 22.64000
H  50.03600 25.32100 22.65500
H  50.41300 23.37200 22.25100
H  49.17500 22.27500 21.50600
H  49.80200 22.02600 23.21500
H  47.51500 26.75900 23.14900
H  47.34800 25.57300 21.82100
H  48.40000 28.34400 21.96800
H  48.50500 27.24700 20.50100
H  49.76100 27.42600 21.52700
H  50.92800 29.20800 24.99500
H  51.88000 29.84400 26.24200
H  50.08400 30.29700 26.09900
H  48.80100 28.86000 30.94400
H  52.33900 28.23100 33.50500
H  50.98200 27.58000 34.42700
H  51.43500 29.34200 34.46100

