158

Mg 25.57800 1.26200 30.06700
C  27.54200 0.85400 32.82000
C  22.86500 1.31600 32.04800
C  23.62600 0.76200 27.18700
C  28.38400 0.58700 27.97100
N  25.26100 0.99600 32.16800
C  26.21400 1.07800 33.10700
C  25.64600 1.50500 34.60500
C  24.13600 1.31100 34.28600
C  24.03800 1.17900 32.75200
C  23.54100 0.00700 34.98900
C  26.08400 2.96800 34.99400
C  27.07800 3.04900 36.11100
H  26.49500 3.61900 37.40000
N  23.51200 1.21900 29.65700
C  22.57200 1.26400 30.64200
C  21.28400 1.16600 29.98500
C  21.49200 0.89700 28.59700
C  22.94300 0.92600 28.40800
C  19.98600 1.33300 30.73700
C  20.48700 0.75200 27.46000
O  20.66300 0.59600 26.27800
C  19.08500 0.78700 27.73400
N  25.92500 0.74200 27.95300
C  24.97100 0.73500 27.03400
C  25.58100 0.98300 25.56500
C  27.10100 0.85200 25.78500
C  27.15800 0.73200 27.32700
C  25.09800 0.07000 24.42100
C  27.94200 2.09700 25.34500
C  29.23500 1.81400 24.65900
N  27.58400 0.87900 30.27300
C  28.55400 0.63900 29.41800
C  29.73700 0.21800 30.14600
C  29.44000 0.35300 31.52500
C  28.08300 0.67200 31.53000
C  30.99900 -0.23000 29.55500
C  29.88200 0.27700 32.82400
O  31.00600 -0.00900 33.20300
C  28.74300 0.74600 33.78700
C  28.58100 -0.32200 34.77400
O  28.05500 -1.44300 34.63400
O  29.17600 0.03700 35.93000
C  28.89400 -0.67500 37.15800
H  21.95100 1.33500 32.64500
H  23.12900 0.69100 26.21700
H  29.22300 0.45100 27.28500
H  25.93600 0.71200 35.29300
H  23.53400 2.11300 34.71100
H  24.03400 -0.14900 35.94800
H  23.60700 -0.84300 34.30900
H  22.46300 0.14900 35.06900
H  25.13900 3.44800 35.24900
H  26.44400 3.59200 34.17600
H  27.75900 3.85200 35.82900
H  27.54000 2.06900 36.23100
H  19.51200 0.36800 30.91600
H  19.36100 2.11000 30.29600
H  20.22300 1.69400 31.73800
H  18.55000 0.85800 26.78700
H  18.84900 1.68100 28.31200
H  18.77200 -0.15900 28.17500
H  25.34700 2.03300 25.39200
H  27.39200 -0.10300 25.34900
H  24.85400 -0.93300 24.77100
H  25.87400 -0.14500 23.68600
H  24.19500 0.61900 24.15500
H  28.11100 2.75900 26.19500
H  27.37100 2.64300 24.59400
H  29.38400 0.73600 24.60500
H  30.02500 2.41100 25.11500
H  29.23500 2.26700 23.66700
H  31.79700 -0.00900 30.26400
H  31.35200 0.27400 28.65500
H  30.78400 -1.27100 29.31200
H  29.10700 1.67800 34.22000
H  28.35000 -1.61800 37.10900
H  28.34500 -0.01900 37.83300
H  29.83500 -0.79000 37.69600
Mg -11.83600 16.85700 40.96500
C  -8.67000 15.53400 41.04100
C  -10.38900 19.93000 40.28300
C  -14.85500 18.02000 39.97500
C  -13.14600 13.52700 41.16700
N  -9.70500 17.65300 40.78500
C  -8.57300 16.94700 40.78700
C  -7.30500 17.78800 40.56800
C  -7.92200 19.25900 40.68000
C  -9.42700 18.96700 40.56500
C  -7.43700 19.97000 42.00200
C  -6.48200 17.36000 39.30900
C  -5.04900 16.75200 39.50900
H  -4.80000 15.45900 38.85200
N  -12.55000 18.71000 40.26800
C  -11.80100 19.84700 40.05400
C  -12.62200 20.87200 39.58600
C  -13.93200 20.39100 39.50100
C  -13.83800 18.96500 39.94500
C  -12.12900 22.25800 39.15600
C  -15.19400 21.20100 39.11100
O  -15.00000 22.41100 38.81100
C  -16.63300 20.74700 39.15600
N  -13.72800 15.97900 40.74500
C  -14.83700 16.68000 40.32600
C  -15.96400 15.71000 39.88400
C  -15.49700 14.44000 40.54500
C  -14.00300 14.59400 40.83200
C  -17.31700 16.27200 40.46100
C  -15.89000 13.11800 39.88300
C  -16.98000 12.30600 40.62500
N  -11.12600 14.94700 41.27500
C  -11.75500 13.71000 41.36400
C  -10.73900 12.64700 41.43500
C  -9.50500 13.35200 41.37300
C  -9.85500 14.70100 41.18500
C  -11.02000 11.22800 41.54800
C  -8.10000 13.11300 41.19400
O  -7.41500 12.09700 41.06300
C  -7.51000 14.52600 41.13400
C  -6.69300 14.82000 42.33800
O  -6.97300 15.50700 43.29700
O  -5.50000 14.07400 42.31100
C  -4.66100 14.20200 43.51000
H  -9.84700 20.82400 39.96700
H  -15.78200 18.37600 39.52200
H  -13.52000 12.51500 41.33900
H  -6.66000 17.62100 41.43100
H  -7.76900 19.76800 39.72900
H  -7.41900 21.05100 41.86600
H  -6.42700 19.71200 42.31900
H  -8.20600 19.74200 42.74000
H  -6.39900 18.24100 38.67200
H  -7.03700 16.56100 38.81700
H  -4.87700 16.71100 40.58500
H  -4.28300 17.42400 39.12200
H  -12.54700 22.51900 38.18400
H  -11.04800 22.15200 39.06600
H  -12.26200 23.05900 39.88300
H  -16.75800 19.96200 38.41000
H  -17.32900 21.55400 38.92500
H  -17.00400 20.31800 40.08600
H  -16.03100 15.78000 38.79800
H  -15.95700 14.44900 41.53200
H  -17.97100 16.73000 39.71900
H  -17.03800 17.05700 41.16400
H  -17.80200 15.41200 40.92400
H  -15.01800 12.48200 39.73400
H  -16.40500 13.32700 38.94500
H  -17.88300 12.64300 40.11600
H  -17.14800 12.39900 41.69800
H  -16.71500 11.25500 40.51300
H  -11.51700 10.93900 40.62300
H  -11.61400 10.94700 42.41800
H  -10.08300 10.68400 41.67200
H  -6.86700 14.62700 40.26000
H  -4.67500 15.19700 43.95300
H  -3.66200 13.94000 43.16200
H  -5.01400 13.46700 44.23400

