158

Mg 0.96500 7.60000 26.93600
C  1.26200 9.67500 29.67000
C  0.86100 4.87400 29.17800
C  0.27400 5.45800 24.30100
C  1.00200 10.16400 24.87800
N  1.13600 7.28000 29.18300
C  1.13600 8.36700 30.07500
C  1.11700 7.86400 31.48400
C  1.16200 6.31200 31.32100
C  1.03700 6.08200 29.80700
C  2.42600 5.57100 31.94300
C  -0.15300 8.30900 32.31700
C  -0.14300 8.36200 33.82600
H  1.11100 7.97400 34.61800
N  0.69300 5.52900 26.80200
C  0.64500 4.54600 27.79000
C  0.45700 3.25300 27.21100
C  0.26300 3.45400 25.84900
C  0.41400 4.86000 25.56800
C  0.54600 2.02800 28.16200
C  -0.11200 2.43300 24.76600
O  -0.24300 2.59100 23.60100
C  -0.43400 1.05400 25.24200
N  0.94900 7.71300 24.88800
C  0.53700 6.77500 23.99600
C  0.46200 7.31700 22.53300
C  0.35600 8.84400 22.86500
C  0.78200 8.94400 24.25700
C  1.70900 7.14000 21.58400
C  -1.07800 9.47300 22.89200
C  -1.50100 10.01300 21.51400
N  1.05400 9.53200 27.18200
C  1.08400 10.49100 26.21800
C  1.33000 11.75500 26.78700
C  1.40000 11.53200 28.17800
C  1.17000 10.15800 28.36500
C  1.46400 13.03000 25.95600
C  1.63000 12.12600 29.46700
O  1.95000 13.27900 29.78000
C  1.41300 10.89100 30.47900
C  2.55200 10.83100 31.47700
O  3.68300 10.64900 31.14300
O  2.08100 11.37900 32.67300
C  2.95600 11.84100 33.74100
H  0.52800 4.10200 29.87500
H  0.03800 4.88700 23.40000
H  1.07600 10.91600 24.09000
H  2.00700 8.13200 32.05400
H  0.31800 5.79800 31.78100
H  2.21000 5.36800 32.99200
H  3.26800 6.24700 31.79600
H  2.68200 4.65100 31.41800
H  -1.00300 7.68000 32.05100
H  -0.42500 9.31900 32.00900
H  -0.92800 7.69300 34.17900
H  -0.45800 9.39600 33.96600
H  -0.47900 1.78100 28.44000
H  1.01900 2.31900 29.10000
H  1.09700 1.19600 27.72300
H  0.48400 0.52000 25.48700
H  -0.76500 0.46200 24.38900
H  -1.17700 1.06300 26.04000
H  -0.50200 7.03200 22.11300
H  1.02800 9.46300 22.27000
H  2.22300 6.22400 21.87700
H  2.47900 7.90700 21.50000
H  1.19900 7.02800 20.62800
H  -1.13600 10.26900 23.63500
H  -1.89400 8.81800 23.19600
H  -2.42000 9.50600 21.22100
H  -0.73000 9.81600 20.76900
H  -1.63400 11.09400 21.48200
H  1.22300 13.78500 26.70500
H  0.75400 13.15200 25.13800
H  2.48000 13.14200 25.57800
H  0.50500 10.99700 31.07300
H  3.71200 12.45100 33.24700
H  3.33600 11.11900 34.46400
H  2.37500 12.62000 34.23500
Mg 48.07800 16.65000 28.49800
C  45.96600 16.32800 31.40500
C  50.09200 18.68300 30.21800
C  49.46000 17.23700 25.57700
C  45.18100 15.19000 26.67200
N  47.99400 17.39400 30.54300
C  47.16800 17.11300 31.59400
C  47.62500 17.75300 32.90100
C  48.73400 18.71100 32.42200
C  48.93900 18.27600 30.98600
C  48.47400 20.26200 32.62400
C  47.96300 16.66900 33.98700
C  47.36200 16.96400 35.37900
H  47.10800 18.39200 35.81300
N  49.67300 17.73800 27.97900
C  50.48800 18.52000 28.84600
C  51.65000 18.92600 28.11300
C  51.41800 18.57200 26.77200
C  50.16900 17.75400 26.67500
C  52.79200 19.76400 28.66300
C  52.45300 18.69700 25.58200
O  52.13200 18.20700 24.46300
C  53.75300 19.35300 25.77400
N  47.32400 16.41600 26.36900
C  48.25500 16.64200 25.40100
C  47.70000 16.14800 24.02800
C  46.29600 15.54900 24.38000
C  46.17600 15.75500 25.92100
C  47.53900 17.34100 22.89200
C  46.09300 14.09300 23.80300
C  44.89600 13.97300 22.78900
N  46.02200 15.86300 28.85700
C  44.96700 15.36300 28.07200
C  43.89000 14.78800 28.88000
C  44.20000 15.20500 30.19900
C  45.47700 15.89200 30.09900
C  42.69800 14.02200 28.41700
C  43.72800 15.21700 31.53900
O  42.68400 14.89900 32.00800
C  44.87200 16.03100 32.48800
C  44.12000 17.20400 33.03700
O  44.16100 18.32200 32.56900
O  43.30400 16.87500 34.14700
C  42.79900 17.95100 34.92700
H  50.91900 19.25600 30.64200
H  50.02600 17.28900 24.64400
H  44.46200 14.57300 26.13000
H  46.79900 18.38300 33.23300
H  49.73500 18.54200 32.81800
H  47.41600 20.46000 32.79600
H  48.73600 20.69900 31.66100
H  49.06600 20.74900 33.39900
H  49.02700 16.60400 34.21500
H  47.72700 15.68700 33.57700
H  47.84900 16.51700 36.24600
H  46.43800 16.38900 35.44900
H  52.55300 20.11600 29.66700
H  53.12500 20.64700 28.11700
H  53.59000 19.05300 28.87700
H  53.65400 20.40900 26.02300
H  54.33600 19.35300 24.85300
H  54.21400 18.66000 26.47800
H  48.38500 15.39200 23.64400
H  45.47300 16.13300 23.96700
H  46.46000 17.48000 22.82300
H  47.98600 17.17200 21.91300
H  47.95500 18.22000 23.38400
H  46.00600 13.36700 24.61100
H  47.03400 13.94500 23.27300
H  44.88800 12.92200 22.50000
H  45.12000 14.57400 21.90700
H  44.01100 14.32600 23.31700
H  43.07800 13.18700 27.82800
H  41.98400 14.62400 27.85500
H  42.22600 13.71700 29.35100
H  45.16800 15.40900 33.33200
H  42.13300 18.50700 34.26900
H  43.51500 18.69400 35.27900
H  42.29900 17.62200 35.83800

