158

Mg 48.22500 25.00100 28.17200
C  49.23300 27.13900 30.79900
C  47.54300 22.66000 30.69200
C  47.61100 22.74200 25.78000
C  49.58300 27.11300 25.80200
N  48.39900 24.90100 30.53800
C  48.77100 25.92300 31.36200
C  48.42500 25.59300 32.81700
C  48.02700 24.11400 32.71300
C  48.05800 23.86200 31.20900
C  48.93300 23.08200 33.40200
C  47.28300 26.58400 33.37400
C  46.56400 26.05200 34.63400
H  46.46900 26.91600 35.89500
N  47.50000 23.04900 28.20200
C  47.30900 22.25200 29.34700
C  46.82200 20.99300 28.89100
C  46.79600 20.98200 27.50600
C  47.36500 22.30400 27.07900
C  46.51800 19.86500 29.89100
C  46.31100 19.85400 26.55200
O  46.57700 19.90000 25.34900
C  45.68500 18.62900 27.14700
N  48.74100 24.79400 26.05600
C  48.13300 23.89700 25.25200
C  48.33000 24.23800 23.75100
C  48.66200 25.74700 23.87800
C  48.97900 25.90600 25.33800
C  49.43000 23.34900 23.12500
C  47.51800 26.69200 23.44600
C  47.78000 27.83200 22.48300
N  49.28500 26.71900 28.22600
C  49.86400 27.45400 27.18000
C  50.55200 28.63100 27.73000
C  50.17500 28.57700 29.21400
C  49.47600 27.43300 29.43100
C  51.30500 29.69800 27.06200
C  50.40700 29.35000 30.47700
O  51.02100 30.33000 30.73200
C  49.52200 28.47000 31.54400
C  50.30800 28.22300 32.76000
O  51.28300 27.52500 32.74900
O  49.87500 28.97500 33.80300
C  50.66000 28.96500 35.06900
H  47.21300 21.96400 31.46600
H  47.20600 21.99700 25.09100
H  49.91200 27.87400 25.09100
H  49.26800 25.68800 33.50100
H  46.98700 23.99400 33.01700
H  49.39700 23.55900 34.26500
H  49.66500 22.62600 32.73500
H  48.24300 22.32300 33.77000
H  46.52000 26.52700 32.59800
H  47.71500 27.58100 33.46300
H  47.10400 25.18500 35.01300
H  45.54700 25.71300 34.43800
H  45.44100 19.77100 30.03200
H  46.92900 20.01500 30.88900
H  46.84100 18.92200 29.44900
H  46.38100 18.07000 27.77300
H  45.30600 17.91700 26.41400
H  44.86300 19.13800 27.65000
H  47.43100 24.02900 23.17000
H  49.55600 26.03600 23.32400
H  50.28100 23.93400 22.77500
H  49.09600 22.85200 22.21400
H  49.77300 22.57300 23.80900
H  47.04100 27.08600 24.34300
H  46.70000 26.07400 23.07600
H  47.91000 28.75400 23.05100
H  46.91700 27.98900 21.83600
H  48.59800 27.62000 21.79500
H  51.34300 29.37300 26.02200
H  52.34200 29.76500 27.39200
H  50.75800 30.64000 27.06900
H  48.62100 29.06300 31.69700
H  51.71200 28.72100 34.92000
H  50.32000 28.24600 35.81500
H  50.43900 29.94600 35.48900
Mg 9.04300 48.16200 25.56700
C  6.87000 48.79000 28.19800
C  11.67600 48.64800 27.65100
C  10.94200 47.64100 23.02000
C  6.13700 47.97900 23.54900
N  9.23000 48.77200 27.66100
C  8.24100 48.88700 28.59900
C  8.82500 48.99900 30.03900
C  10.31800 49.33800 29.72300
C  10.43300 48.94500 28.24900
C  10.72300 50.82000 29.97600
C  8.66100 47.70100 30.92200
C  9.46300 47.58200 32.20300
H  8.71700 46.75100 33.33800
N  11.04800 48.20000 25.31600
C  12.01400 48.33000 26.34700
C  13.34000 48.18600 25.80400
C  13.11900 47.71400 24.47800
C  11.68800 47.93800 24.17000
C  14.60500 48.35200 26.57800
C  14.12400 47.13200 23.48800
O  13.72900 46.63400 22.43400
C  15.60700 47.00200 23.67000
N  8.60400 48.09700 23.51900
C  9.63100 47.81100 22.65000
C  9.01200 47.39500 21.34000
C  7.46900 47.81600 21.47200
C  7.35100 47.94400 22.94000
C  9.73700 47.99500 20.11500
C  6.46200 46.86700 20.84900
C  5.35800 47.49300 20.06700
N  6.93800 48.27700 25.84600
C  5.93000 48.13100 24.92800
C  4.59900 48.38200 25.57900
C  4.98000 48.52100 26.90900
C  6.35900 48.52800 26.96100
C  3.21000 48.15600 24.93500
C  4.40900 48.73000 28.21900
O  3.24500 48.73500 28.59300
C  5.65400 48.75500 29.13000
C  5.52000 47.48900 29.88700
O  5.70000 46.34500 29.46800
O  5.13900 47.79600 31.18900
C  4.91500 46.68500 32.18800
H  12.41500 48.79100 28.44200
H  11.53100 47.17400 22.22800
H  5.15500 47.92900 23.07300
H  8.32100 49.82300 30.54400
H  11.00200 48.83300 30.40600
H  10.24500 51.41400 29.19700
H  11.79700 51.00400 29.93300
H  10.32500 51.20400 30.91500
H  8.69200 46.83400 30.26200
H  7.62400 47.68100 31.25900
H  9.69100 48.56100 32.62400
H  10.41100 47.09300 31.97600
H  15.23700 47.47200 26.69500
H  14.30700 48.58900 27.59900
H  15.18200 49.23900 26.31600
H  16.05000 47.28700 22.71600
H  15.91100 46.02600 24.04700
H  15.89500 47.79300 24.36300
H  9.08600 46.30800 21.35200
H  7.36500 48.80100 21.01700
H  10.40300 48.76700 20.50000
H  9.09200 48.38200 19.32600
H  10.34200 47.19800 19.68400
H  5.94500 46.26400 21.59500
H  7.01400 46.16600 20.22300
H  5.29900 48.56300 20.26500
H  4.39300 47.00200 20.18800
H  5.59500 47.36300 19.01100
H  2.90500 47.14600 25.20800
H  3.23400 48.05300 23.85000
H  2.45300 48.91800 25.11900
H  5.60800 49.58000 29.84100
H  3.83500 46.55000 32.24900
H  5.26900 46.98100 33.17600
H  5.36500 45.73600 31.89800

