158

Mg 53.97300 24.69500 44.43100
C  51.24200 26.81800 44.17900
C  51.96400 22.19000 43.39600
C  56.77600 22.96800 43.99200
C  55.91800 27.43300 45.37300
N  51.85100 24.53600 43.59600
C  50.95700 25.52400 43.73900
C  49.57200 24.98400 43.50700
C  49.74300 23.46300 43.72800
C  51.27500 23.37100 43.49000
C  49.18300 23.01600 45.09600
C  49.07700 25.50900 42.17500
C  48.52800 24.48600 41.14500
H  48.15200 24.82800 39.70300
N  54.32300 22.82300 43.70500
C  53.36400 21.87800 43.44200
C  54.06400 20.55900 43.05900
C  55.47800 20.83700 43.35300
C  55.59500 22.27700 43.68600
C  53.38800 19.33300 42.62500
C  56.51600 19.73700 43.36300
O  56.19800 18.65200 42.93300
C  57.87800 19.85400 43.86000
N  56.04600 25.26100 44.26700
C  57.04300 24.33400 44.22500
C  58.45400 24.88700 44.50400
C  58.12900 26.36700 44.75300
C  56.56500 26.40200 44.71800
C  59.19800 24.15600 45.63500
C  58.70700 27.38500 43.80500
C  59.45500 28.54900 44.41600
N  53.71700 26.76000 44.80000
C  54.57400 27.71100 45.32100
C  53.78400 28.83900 45.66500
C  52.53600 28.52800 45.16000
C  52.50300 27.28700 44.63500
C  54.26400 30.09000 46.34000
C  51.28300 29.13000 44.90900
O  50.98500 30.34100 45.11800
C  50.30000 28.06100 44.23300
C  49.68600 28.53800 42.88200
O  50.39300 28.85600 41.92500
O  48.27800 28.69200 42.88300
C  47.77600 29.14800 41.61900
H  51.34700 21.35800 43.05100
H  57.69100 22.38900 43.85400
H  56.55900 28.18700 45.83600
H  49.02300 25.44100 44.33000
H  49.18100 22.84500 43.02700
H  48.88500 23.82000 45.76900
H  50.00600 22.43500 45.51200
H  48.28700 22.42500 44.90600
H  49.81000 26.08500 41.61000
H  48.21400 26.13000 42.41500
H  47.72100 23.92900 41.62100
H  49.33800 23.78900 40.93100
H  53.77900 19.02200 41.65700
H  52.32200 19.54300 42.53500
H  53.48500 18.50100 43.32200
H  58.44400 20.42300 43.12300
H  58.37100 18.88500 43.94400
H  57.92200 20.28300 44.86100
H  59.13100 24.76600 43.65800
H  58.36200 26.69400 45.76600
H  60.20500 24.01000 45.24300
H  58.75800 23.16800 45.76800
H  59.17800 24.65900 46.60100
H  57.97800 27.78100 43.09800
H  59.46300 26.95500 43.14700
H  59.46200 28.44900 45.50200
H  58.98600 29.47100 44.07300
H  60.43400 28.61000 43.93900
H  53.99000 30.87200 45.63100
H  55.35200 30.10700 46.40500
H  53.77100 30.26100 47.29600
H  49.46500 27.91200 44.91700
H  47.98900 28.41300 40.84300
H  48.15000 30.14800 41.39900
H  46.71500 29.39400 41.66000
Mg -5.12800 25.07400 26.30600
C  -3.59600 26.28000 29.23700
C  -7.13400 23.10400 28.31200
C  -6.23000 23.51000 23.53900
C  -2.87700 26.90700 24.41800
N  -5.35100 24.76000 28.55800
C  -4.63600 25.45300 29.54300
C  -5.17400 25.00300 30.91200
C  -6.23500 23.90000 30.56600
C  -6.25500 23.91100 29.07000
C  -5.90300 22.40200 31.07700
C  -5.82700 26.15400 31.71800
C  -5.95900 26.12700 33.23000
H  -5.19600 24.92800 33.96000
N  -6.48800 23.54700 25.96300
C  -7.28400 22.85700 26.89500
C  -8.05400 21.84000 26.22300
C  -7.77500 21.89900 24.86200
C  -6.76800 23.01800 24.71700
C  -8.93100 20.90700 26.95600
C  -8.35600 21.09400 23.76700
O  -8.15100 21.27300 22.58200
C  -9.27700 19.96900 24.15000
N  -4.61800 25.15900 24.28800
C  -5.28900 24.46800 23.28800
C  -4.62400 24.78800 21.89900
C  -3.83500 26.07500 22.25900
C  -3.73900 26.04700 23.75000
C  -3.79200 23.57700 21.36400
C  -4.50500 27.37100 21.75200
C  -3.40100 28.29500 21.07100
N  -3.64200 26.30000 26.68700
C  -2.76600 26.99000 25.83800
C  -1.82300 27.81500 26.53200
C  -2.16100 27.56400 27.85000
C  -3.21600 26.64000 27.94900
C  -0.75000 28.64200 25.72000
C  -1.78300 28.02700 29.15900
O  -0.94200 28.82600 29.51700
C  -2.71700 27.16100 30.16000
C  -1.89100 26.43200 31.15000
O  -1.23000 25.40900 30.99100
O  -1.97600 27.09900 32.35600
C  -1.27800 26.36000 33.46200
H  -7.68000 22.39600 28.94000
H  -6.44100 22.94200 22.63100
H  -2.20000 27.55800 23.86100
H  -4.30600 24.56500 31.40500
H  -7.20800 24.17000 30.97600
H  -5.26100 22.35900 31.95700
H  -5.37400 21.81600 30.32500
H  -6.82600 21.83900 31.21300
H  -6.86000 26.23200 31.37800
H  -5.34000 27.08400 31.42500
H  -6.99200 25.99200 33.55000
H  -5.62000 27.09600 33.59700
H  -8.55900 19.89000 26.83000
H  -9.94900 21.01700 26.58100
H  -8.83100 21.10800 28.02300
H  -8.76500 19.22000 24.75300
H  -9.44300 19.39400 23.23900
H  -10.26200 20.21100 24.55000
H  -5.39800 25.01900 21.16700
H  -2.82600 26.00000 21.85200
H  -2.79000 23.78200 20.98700
H  -4.27700 23.09500 20.51500
H  -3.66000 22.81400 22.13100
H  -5.00300 27.92700 22.54700
H  -5.29900 27.22300 21.02100
H  -2.79700 27.75400 20.34300
H  -2.65800 28.65900 21.78000
H  -3.87000 29.11000 20.51900
H  -0.18200 27.93200 25.12000
H  -0.02800 29.11300 26.38800
H  -1.12800 29.53200 25.21600
H  -3.25300 27.95800 30.67500
H  -0.81000 25.38700 33.31300
H  -1.87200 26.22300 34.36600
H  -0.50300 27.06400 33.76400

