158

Mg 23.50200 -5.48100 45.86000
C  25.92500 -3.61600 44.11800
C  21.24100 -4.56500 43.42700
C  21.48000 -8.05800 46.88100
C  26.20100 -7.00600 47.69100
N  23.57900 -4.26400 44.01300
C  24.61900 -3.52100 43.54200
C  24.22200 -2.66100 42.36000
C  22.61000 -2.74600 42.54300
C  22.51700 -4.00600 43.34200
C  22.03000 -1.50200 43.25800
C  24.77600 -3.33300 41.07600
C  25.53400 -2.42100 40.02200
H  25.01900 -2.46300 38.58600
N  21.56700 -6.07700 45.30400
C  20.76100 -5.60500 44.24600
C  19.60500 -6.37800 44.19600
C  19.58700 -7.30900 45.27700
C  20.92400 -7.19700 45.87800
C  18.51200 -6.16400 43.13400
C  18.51300 -8.23300 45.65700
O  17.43000 -8.09200 45.09500
C  18.57400 -9.34200 46.73400
N  23.87300 -7.42400 46.90200
C  22.79000 -8.15700 47.29300
C  23.33600 -9.25500 48.28500
C  24.74700 -8.76100 48.71000
C  24.97800 -7.58600 47.74900
C  22.50500 -9.60100 49.52000
C  25.78600 -9.91700 48.67600
C  26.25100 -10.30200 47.23900
N  25.64600 -5.28500 46.04800
C  26.53600 -5.92400 46.88800
C  27.83900 -5.28600 46.60800
C  27.61600 -4.28700 45.61800
C  26.30200 -4.44300 45.25000
C  29.17300 -5.67000 47.35800
C  28.20100 -3.26900 44.83700
O  29.33400 -3.02200 44.82000
C  27.12300 -2.85700 43.72700
C  26.94600 -1.41000 43.99200
O  26.59500 -0.93500 45.09600
O  27.34200 -0.69500 42.92300
C  27.19700 0.75800 43.11800
H  20.46700 -4.18800 42.75700
H  20.92700 -8.87600 47.34800
H  26.90000 -7.37900 48.44300
H  24.69400 -1.69500 42.53800
H  22.08700 -2.89300 41.59700
H  22.77100 -0.89900 43.78400
H  21.22700 -1.78300 43.94000
H  21.48100 -0.81000 42.62000
H  24.00500 -3.80000 40.46200
H  25.31900 -4.25400 41.28900
H  26.58300 -2.71800 40.04400
H  25.54400 -1.39500 40.38900
H  18.02600 -7.11100 42.90200
H  19.09900 -5.88800 42.25800
H  17.86800 -5.30700 43.33400
H  17.74200 -10.00400 46.49400
H  18.54200 -8.84100 47.70100
H  19.46700 -9.95400 46.60800
H  23.50300 -10.17000 47.71600
H  24.75700 -8.34800 49.71900
H  21.76500 -8.83700 49.75800
H  23.07900 -9.72200 50.43900
H  21.96800 -10.51100 49.25400
H  25.44100 -10.83100 49.16000
H  26.72300 -9.64600 49.16200
H  27.27700 -9.96500 47.09000
H  25.68300 -9.73400 46.50200
H  26.11200 -11.37500 47.10000
H  29.95000 -6.01300 46.67500
H  28.93200 -6.51300 48.00600
H  29.42200 -4.77200 47.92300
H  27.45100 -3.08100 42.71200
H  26.22400 1.04100 43.52100
H  27.51700 1.49500 42.38100
H  27.97200 1.00400 43.84300
Mg 34.78500 2.85700 30.35600
C  32.46300 3.73300 33.04700
C  37.28100 2.90600 32.88100
C  36.89200 2.34300 28.08300
C  32.09900 3.44300 28.24400
N  34.76500 3.45600 32.67200
C  33.71200 3.54000 33.50600
C  34.18400 3.44200 34.94500
C  35.73900 3.61600 34.83500
C  35.99100 3.29200 33.36700
C  36.27900 5.00000 35.34100
C  33.72900 2.18800 35.76000
C  33.16500 2.53800 37.17900
H  33.83500 3.60300 38.06200
N  36.77500 2.53700 30.49100
C  37.62700 2.70000 31.59100
C  38.97100 2.32100 31.12600
C  38.94700 2.15000 29.72300
C  37.54700 2.32000 29.34100
C  40.17800 2.51100 32.06500
C  40.02700 1.73400 28.76700
O  39.83600 1.66000 27.53800
C  41.31200 1.24500 29.30400
N  34.51300 3.01400 28.40600
C  35.55200 2.61800 27.62200
C  35.02400 2.44800 26.21400
C  33.47600 2.58200 26.30800
C  33.36100 3.14600 27.70800
C  35.66800 3.51200 25.24000
C  32.69800 1.26800 26.14200
C  31.57400 1.34300 25.10600
N  32.69500 3.60200 30.56000
C  31.76600 3.66700 29.61000
C  30.44500 3.69500 30.21100
C  30.64600 3.79200 31.51000
C  32.06500 3.69400 31.71000
C  29.23200 3.75700 29.45900
C  30.07100 3.88000 32.78100
O  28.88800 3.89700 33.09100
C  31.19200 3.95300 33.84400
C  31.14400 5.24400 34.59700
O  31.28300 6.36000 34.08400
O  31.02900 5.09900 35.96700
C  30.98600 6.32300 36.77400
H  38.11900 2.89100 33.58000
H  37.56100 1.93800 27.32100
H  31.32700 3.44700 27.47100
H  33.81400 4.31700 35.47900
H  36.26700 2.86200 35.41900
H  36.62100 4.75600 36.34600
H  35.45000 5.69800 35.46000
H  37.18700 5.28300 34.80800
H  34.59900 1.55000 35.91600
H  33.00300 1.54400 35.26400
H  33.18600 1.70600 37.88200
H  32.10500 2.75000 37.03600
H  40.42000 1.54500 32.50800
H  40.09900 3.35500 32.75000
H  41.14100 2.66000 31.57700
H  41.15900 0.69100 30.23000
H  41.91000 2.13800 29.48800
H  41.64700 0.51300 28.56900
H  35.35600 1.49400 25.80300
H  33.15700 3.30500 25.55800
H  35.65500 4.55900 25.54100
H  35.18300 3.45400 24.26600
H  36.73500 3.28800 25.24100
H  32.38700 0.86400 27.10600
H  33.48700 0.54900 25.92100
H  30.67000 1.77900 25.53200
H  31.34500 0.30400 24.87100
H  31.88900 1.79500 24.16500
H  28.64000 2.86300 29.65400
H  29.41000 3.98300 28.40800
H  28.73400 4.68700 29.73300
H  31.05600 3.13600 34.55300
H  30.31700 7.04400 36.30600
H  31.95900 6.81500 36.81200
H  30.52800 5.94200 37.68700

