158

Mg 25.86700 0.67300 29.15500
C  27.95100 0.37300 32.07600
C  23.17900 1.35100 31.19100
C  24.10500 0.59400 26.50100
C  28.66900 -0.73600 27.32400
N  25.60500 0.73700 31.45400
C  26.62700 0.64500 32.41800
C  25.95800 0.84500 33.79500
C  24.47900 1.28100 33.46400
C  24.36600 1.09300 31.99700
C  23.39900 0.22300 34.12800
C  26.70900 1.91000 34.66300
C  26.93400 1.48700 36.08500
H  26.47100 2.47600 37.16700
N  23.90000 1.02900 28.89600
C  22.94400 1.24700 29.78300
C  21.75400 1.45300 29.15700
C  21.92800 1.18900 27.76400
C  23.38300 0.90900 27.65900
C  20.44200 1.72200 29.88100
C  20.81300 1.08100 26.67400
O  21.00500 0.53500 25.57600
C  19.39600 1.57400 26.93400
N  26.37800 -0.00800 27.21400
C  25.40100 0.18400 26.27600
C  25.92000 -0.14800 24.82500
C  27.36400 -0.62100 25.07500
C  27.52200 -0.47700 26.57500
C  25.04600 -1.05900 23.94200
C  28.35400 0.15900 24.20700
C  28.84700 1.48100 24.76500
N  27.85800 -0.05100 29.57700
C  28.81200 -0.56900 28.73200
C  30.10800 -0.67700 29.42100
C  29.77600 -0.35100 30.76800
C  28.41500 0.05800 30.78200
C  31.45400 -1.25900 28.95000
C  30.32900 -0.33600 32.13400
O  31.40400 -0.58400 32.61300
C  29.17700 0.14700 32.97600
C  28.84400 -0.87400 33.93100
O  28.13400 -1.80700 33.68600
O  29.38400 -0.61700 35.16500
C  28.92000 -1.53800 36.21100
H  22.28300 1.60100 31.76200
H  23.47400 0.76500 25.62600
H  29.54700 -0.91600 26.70000
H  25.98300 -0.09900 34.33900
H  24.22000 2.32500 33.63900
H  23.60500 -0.80600 33.83400
H  22.35200 0.41500 33.89200
H  23.45300 0.20100 35.21600
H  26.09100 2.80100 34.77200
H  27.63800 2.22000 34.18500
H  28.00600 1.56100 36.27100
H  26.68000 0.46500 36.36800
H  19.59100 1.33300 29.32200
H  20.28700 2.78900 30.04500
H  20.54300 1.22100 30.84400
H  18.84400 0.76900 27.42000
H  18.94300 1.86000 25.98500
H  19.41200 2.47400 27.54800
H  25.75200 0.83900 24.39400
H  27.36800 -1.70400 24.95100
H  24.08700 -1.37600 24.35100
H  25.62300 -1.88400 23.52500
H  24.77800 -0.38200 23.13100
H  27.77900 0.31400 23.29400
H  29.23600 -0.36700 23.84100
H  28.34600 1.72400 25.70300
H  28.68000 2.26600 24.02700
H  29.92200 1.45200 24.93900
H  32.29300 -0.72200 29.39300
H  31.60200 -0.98100 27.90600
H  31.42600 -2.33200 29.14200
H  29.48600 1.04400 33.51200
H  29.72000 -1.54900 36.95100
H  28.83100 -2.59000 35.93900
H  28.01700 -1.20300 36.72000
Mg 41.90100 40.55200 25.95700
C  41.05700 43.01400 28.42200
C  42.29200 38.28200 28.38900
C  42.87900 38.39500 23.61000
C  41.46100 42.96800 23.57200
N  41.74400 40.75500 28.15900
C  41.33200 41.75300 28.97200
C  41.31600 41.31200 30.52600
C  41.54300 39.71400 30.42100
C  41.82100 39.55500 28.89900
C  42.59000 39.12600 31.37400
C  39.95200 41.72800 31.24200
C  39.57600 41.08300 32.51000
H  39.19800 42.01000 33.63400
N  42.48600 38.54400 25.93500
C  42.59400 37.81600 27.05600
C  43.05400 36.47900 26.77800
C  43.14300 36.37900 25.36000
C  42.87000 37.83200 24.86800
C  43.27900 35.43100 27.84400
C  43.50200 35.22900 24.39000
O  43.51000 35.31500 23.16700
C  43.64700 33.83800 24.97600
N  42.28700 40.69900 23.87400
C  42.66000 39.67300 23.11800
C  42.53800 39.97300 21.61300
C  41.64200 41.28200 21.70800
C  41.82800 41.66000 23.17000
C  43.93500 40.16200 20.97600
C  40.25800 41.22100 21.08300
C  39.32800 40.14900 21.58800
N  41.42600 42.58800 25.89900
C  41.29700 43.47700 24.84700
C  40.96900 44.81900 25.34600
C  40.87700 44.65500 26.70700
C  41.17900 43.30700 27.03200
C  40.70100 46.05000 24.52700
C  40.40600 45.34500 27.93300
O  39.90800 46.45100 28.10300
C  40.60800 44.30500 29.07400
C  41.59500 44.94600 30.00400
O  42.81200 44.73300 30.10300
O  40.91900 45.83000 30.86700
C  41.52700 46.17300 32.11600
H  42.27000 37.51400 29.16500
H  43.02800 37.65100 22.82500
H  41.16300 43.67700 22.79700
H  42.08100 41.90000 31.03400
H  40.62000 39.19200 30.67500
H  42.21000 38.32500 32.00700
H  42.83100 39.85200 32.15000
H  43.45900 38.82300 30.78900
H  39.10000 41.66100 30.56500
H  40.04100 42.76600 31.56200
H  40.38900 40.41100 32.78500
H  38.62900 40.57700 32.32600
H  42.27700 35.10600 28.12600
H  43.68100 35.85700 28.76300
H  43.84400 34.55800 27.51700
H  43.56500 33.16100 24.12600
H  42.82100 33.69800 25.67400
H  44.61400 33.89500 25.47700
H  42.08300 39.13600 21.08300
H  42.08000 42.07100 21.09600
H  44.50600 39.43500 21.55400
H  44.28900 41.18300 20.83700
H  43.87900 39.73100 19.97600
H  40.31200 41.09700 20.00100
H  39.96100 42.25700 21.24500
H  38.83500 39.63600 20.76300
H  38.58500 40.45700 22.32300
H  39.93900 39.49300 22.20700
H  39.66500 46.14300 24.20000
H  41.22800 45.99400 23.57500
H  41.14400 46.94200 24.96900
H  39.62600 44.21800 29.53700
H  42.58500 46.35900 31.93300
H  41.47500 45.33700 32.81300
H  40.94600 47.01400 32.49400

