158

Mg 8.28100 3.85300 27.72600
C  9.59400 2.41400 30.52400
C  6.01800 5.63900 29.81500
C  6.93100 5.31600 24.99000
C  10.02400 1.60000 25.65500
N  7.77000 3.91100 30.01400
C  8.61600 3.35400 30.91100
C  8.26600 3.95900 32.29300
C  6.99400 4.89400 32.04000
C  6.84600 4.75800 30.52000
C  5.63100 4.43100 32.76700
C  9.52900 4.47300 33.15300
C  9.12600 5.25800 34.37000
H  9.30100 4.73700 35.83300
N  6.72600 5.31300 27.41200
C  5.94000 5.86100 28.41300
C  5.05300 6.79400 27.79700
C  5.38200 6.84400 26.41400
C  6.41900 5.79900 26.22000
C  3.92900 7.51700 28.57700
C  4.84500 7.75300 25.31300
O  5.08200 7.48800 24.15900
C  4.04800 8.94000 25.76800
N  8.40700 3.45500 25.57400
C  7.71000 4.19300 24.68900
C  7.94200 3.64000 23.27600
C  8.99400 2.43800 23.49200
C  9.15800 2.45200 24.99200
C  6.73900 3.21000 22.42600
C  10.28300 2.54900 22.66400
C  10.55600 1.33000 21.80600
N  9.52100 2.27500 27.97500
C  10.23500 1.50000 27.07200
C  10.85600 0.44400 27.78600
C  10.80000 0.82500 29.13500
C  9.89200 1.90300 29.23000
C  11.49200 -0.81600 27.18600
C  11.29000 0.52100 30.49100
O  12.09100 -0.32200 30.90100
C  10.57900 1.59500 31.45700
C  9.97100 0.75400 32.43900
O  9.02000 0.01800 32.17000
O  10.54200 0.97700 33.63700
C  9.82300 0.35800 34.72600
H  5.58700 6.31100 30.56000
H  6.70000 5.94200 24.12500
H  10.53100 0.86000 25.03200
H  7.91500 3.13400 32.91200
H  7.14800 5.91800 32.37900
H  4.88000 4.03900 32.08100
H  5.07200 5.25500 33.21000
H  5.82400 3.68400 33.53700
H  10.20700 4.95600 32.44900
H  9.88400 3.52000 33.54700
H  8.08600 5.58000 34.39200
H  9.61500 6.23100 34.39700
H  3.80100 7.08200 29.56800
H  2.97200 7.49600 28.05500
H  4.19300 8.56500 28.72000
H  4.44200 9.42700 26.66000
H  3.11800 8.39900 25.94100
H  3.99600 9.61700 24.91500
H  8.44300 4.47300 22.78200
H  8.56800 1.44700 23.33600
H  5.90200 3.59100 23.01000
H  6.67000 2.19900 22.02500
H  6.79500 3.89200 21.57700
H  11.15400 2.53900 23.32000
H  10.31800 3.47500 22.09000
H  9.63200 0.91100 21.41000
H  11.19600 0.70500 22.42900
H  11.18300 1.57900 20.95000
H  11.82700 -0.65300 26.16200
H  10.80700 -1.66200 27.22900
H  12.41400 -1.04500 27.72200
H  11.22500 2.31000 31.96700
H  9.06000 -0.34000 34.38300
H  9.35500 1.06900 35.40700
H  10.62300 -0.21100 35.20000
Mg 54.89100 24.15900 44.42900
C  52.03400 26.15400 43.41500
C  53.09000 21.51900 43.49300
C  57.77000 22.43300 44.85100
C  56.46000 27.12000 45.36000
N  52.86000 23.95700 43.40400
C  51.80800 24.86900 43.09800
C  50.60000 24.16600 42.55900
C  50.87200 22.68800 43.06200
C  52.36800 22.68700 43.35500
C  50.20100 22.41700 44.40600
C  50.45000 24.24700 41.07000
C  49.00600 24.41600 40.52000
H  48.81100 24.04400 39.09300
N  55.38900 22.20800 44.07300
C  54.47400 21.26000 43.78800
C  55.05400 19.94800 43.84100
C  56.39100 20.19700 44.33300
C  56.61400 21.65000 44.42100
C  54.36400 18.74200 43.39200
C  57.40700 19.05600 44.60400
O  57.07100 17.87600 44.44700
C  58.73700 19.25600 45.10500
N  56.91100 24.68600 44.92200
C  57.93900 23.84300 45.03900
C  59.28100 24.52500 45.37400
C  58.79500 26.00500 45.69500
C  57.32600 25.94000 45.24900
C  60.22100 23.89100 46.48000
C  59.63600 27.05100 44.96600
C  60.92300 27.45700 45.75800
N  54.38200 26.19800 44.44800
C  55.09800 27.27900 44.92900
C  54.29000 28.50100 44.99600
C  53.07300 28.08200 44.36600
C  53.19400 26.70300 44.06700
C  54.71300 29.79400 45.74200
C  51.80400 28.57200 43.90700
O  51.33800 29.65900 43.89100
C  51.07000 27.35200 43.29200
C  50.53500 27.64200 41.93500
O  51.25200 27.81600 40.95900
O  49.18800 27.70300 41.90500
C  48.47700 28.00200 40.60300
H  52.48600 20.60900 43.52300
H  58.68000 21.85600 45.02900
H  56.92100 28.01900 45.77400
H  49.74400 24.57000 43.09800
H  50.61500 21.84900 42.41400
H  49.26800 21.88100 44.23000
H  49.95400 23.36400 44.88500
H  50.78500 21.82500 45.11100
H  50.78500 23.35400 40.54200
H  50.94700 25.12200 40.65000
H  48.61800 25.41700 40.71300
H  48.41300 23.65900 41.03300
H  55.02600 18.33500 42.62800
H  53.44400 19.05800 42.90000
H  54.19800 17.92600 44.09500
H  59.37900 19.80300 44.41600
H  59.21300 18.29700 45.31100
H  58.73300 19.79100 46.05500
H  59.83500 24.45900 44.43700
H  58.76300 26.01600 46.78500
H  61.03000 24.61000 46.61200
H  60.66500 22.94100 46.18400
H  59.72600 23.85800 47.45000
H  59.00700 27.92100 44.77600
H  59.98100 26.74800 43.97700
H  61.16800 28.48200 45.48000
H  61.78200 26.84900 45.47200
H  60.79600 27.39500 46.83900
H  54.03800 30.64900 45.77900
H  55.68000 30.14500 45.38100
H  54.73300 29.55200 46.80500
H  50.23100 27.25200 43.98000
H  48.39700 29.08700 40.52800
H  47.52400 27.47200 40.59900
H  48.98600 27.61500 39.72000

