158

Mg 35.46000 2.86800 29.33200
C  33.35200 3.59900 32.07200
C  38.10600 3.25300 31.32500
C  37.34900 2.27700 26.50700
C  32.60200 2.98200 27.21500
N  35.70400 3.53700 31.53800
C  34.73700 3.45500 32.48200
C  35.37800 3.44000 33.88700
C  36.98800 3.53200 33.60500
C  36.91400 3.48100 32.06700
C  37.68600 4.78200 34.08000
C  34.87400 2.25000 34.82600
C  34.36300 2.55200 36.20400
H  34.98800 3.78300 36.84300
N  37.37600 2.80900 28.96700
C  38.31700 2.93600 29.92900
C  39.69100 2.81100 29.34400
C  39.46800 2.58000 27.92800
C  37.99500 2.59500 27.73300
C  41.06100 2.92300 30.03300
C  40.48400 2.32700 26.81400
O  40.18900 2.34200 25.64000
C  41.86400 2.03400 27.17100
N  35.06400 2.64100 27.14900
C  35.97400 2.34300 26.23100
C  35.30400 2.37800 24.78100
C  33.80400 2.26800 25.13000
C  33.79600 2.69300 26.60000
C  35.72400 3.65400 24.00300
C  33.13400 0.90600 24.88000
C  33.15400 -0.07500 26.11200
N  33.41700 3.32600 29.51900
C  32.39800 3.42000 28.62400
C  31.19500 3.78000 29.28500
C  31.49200 3.83400 30.65800
C  32.87000 3.56000 30.70900
C  29.86300 3.97600 28.63900
C  30.95900 4.16200 31.93800
O  29.87700 4.56500 32.17300
C  32.14100 3.92400 32.98800
C  32.31400 5.12700 33.79500
O  32.62900 6.23700 33.32300
O  31.86400 4.88000 35.07800
C  31.56500 6.06700 35.97300
H  39.03600 3.25700 31.89700
H  37.92400 1.95100 25.63800
H  31.69000 2.86200 26.62800
H  35.15600 4.40300 34.34700
H  37.57200 2.71600 34.03100
H  38.53200 4.50900 34.71100
H  36.95200 5.23200 34.74800
H  37.87200 5.44200 33.23300
H  35.65000 1.48900 34.91300
H  34.07200 1.83100 34.21800
H  34.62600 1.66600 36.78200
H  33.29900 2.75900 36.09200
H  41.68600 3.57400 29.42100
H  41.53400 1.94500 30.12300
H  41.00200 3.31400 31.04800
H  42.05300 1.39100 28.03000
H  42.42300 2.96700 27.24500
H  42.27500 1.43800 26.35600
H  35.63600 1.56700 24.13300
H  33.26800 3.01000 24.53800
H  36.55400 4.15100 24.50600
H  34.89200 4.28000 23.68200
H  36.16100 3.29600 23.07100
H  33.69500 0.34900 24.12900
H  32.05600 0.95700 24.72700
H  33.56700 -1.06700 25.92600
H  32.15300 -0.04100 26.54200
H  33.85900 0.30700 26.85000
H  29.58700 3.14300 27.99300
H  29.90200 4.86600 28.01200
H  29.11300 4.17200 29.40600
H  31.85500 3.08200 33.61900
H  30.49100 6.17200 35.81700
H  32.04900 7.03500 35.84500
H  31.63400 5.76000 37.01600
Mg -11.52100 16.66500 41.50900
C  -8.41200 15.01400 41.12100
C  -10.25700 19.35200 39.62700
C  -14.57200 17.79700 41.42300
C  -12.73300 13.45300 42.58100
N  -9.56300 17.10100 40.47000
C  -8.43300 16.31000 40.52300
C  -7.22500 16.94800 39.83600
C  -7.73100 18.42600 39.42300
C  -9.26700 18.33700 39.86700
C  -6.98000 19.60700 39.91000
C  -6.76200 16.15800 38.62500
C  -5.27900 16.22700 38.32500
H  -4.88000 16.90800 37.03200
N  -12.32500 18.37300 40.69900
C  -11.67600 19.36400 39.95300
C  -12.67800 20.44200 39.68400
C  -13.85200 20.03600 40.22100
C  -13.61900 18.65400 40.83500
C  -12.47600 21.64800 38.76300
C  -15.15300 20.75300 40.08000
O  -15.21300 21.94100 39.73300
C  -16.52800 20.11700 40.37200
N  -13.34600 15.69500 41.67800
C  -14.46700 16.48400 41.81100
C  -15.66600 15.80100 42.41600
C  -15.03000 14.42600 42.78300
C  -13.63800 14.46400 42.24200
C  -16.34700 16.46500 43.67300
C  -15.85500 13.16700 42.37300
C  -16.53300 12.32500 43.52600
N  -10.76200 14.70700 42.04300
C  -11.33400 13.52100 42.43100
C  -10.39800 12.44000 42.55800
C  -9.20900 12.99500 42.10000
C  -9.49000 14.32000 41.69900
C  -10.69200 11.06000 43.12100
C  -7.80400 12.71800 41.93300
O  -7.25600 11.70600 42.15900
C  -7.19100 14.03100 41.24800
C  -6.10700 14.53000 42.16500
O  -6.09400 14.41800 43.37800
O  -5.03400 15.02900 41.47400
C  -3.94000 15.52800 42.26400
H  -9.88900 20.21100 39.06100
H  -15.58900 18.12600 41.64500
H  -13.11100 12.53600 43.03700
H  -6.41500 17.04300 40.55800
H  -7.81000 18.46800 38.33700
H  -6.63800 20.11600 39.00800
H  -6.08200 19.24100 40.40600
H  -7.58500 20.25800 40.54100
H  -7.24700 16.57600 37.74200
H  -7.04600 15.10900 38.54500
H  -5.04800 15.16200 38.30000
H  -4.84500 16.81700 39.13200
H  -11.40200 21.77500 38.89200
H  -12.89300 22.55000 39.21100
H  -12.73500 21.68600 37.70400
H  -17.30000 20.84000 40.10800
H  -16.62000 19.96700 41.44800
H  -16.62900 19.17000 39.84200
H  -16.40100 15.63300 41.62900
H  -14.99300 14.42900 43.87200
H  -16.38900 17.54800 43.55700
H  -15.76900 16.18200 44.55300
H  -17.32700 16.01700 43.84100
H  -15.24000 12.50200 41.76600
H  -16.68800 13.47900 41.74300
H  -17.60700 12.50300 43.47100
H  -16.18800 12.42600 44.55500
H  -16.45100 11.25100 43.36300
H  -9.82600 10.40400 43.03900
H  -11.49600 10.63800 42.51900
H  -11.03500 11.31400 44.12400
H  -6.65300 13.74400 40.34500
H  -3.04300 15.71400 41.67200
H  -3.66700 14.72100 42.94400
H  -4.40800 16.33500 42.82800

