158

Mg 48.87400 46.25000 42.75600
C  45.58800 46.95000 42.06700
C  48.44900 43.26100 41.06500
C  52.09200 46.10100 42.59900
C  49.16200 49.73000 43.72300
N  47.21900 45.29000 41.62100
C  45.95700 45.73300 41.54100
C  45.01700 44.71000 40.74600
C  45.95000 43.53100 40.56300
C  47.28600 43.97800 41.23300
C  45.45100 42.13200 41.09800
C  44.53900 45.39000 39.41100
C  43.18300 44.93500 38.86100
H  43.10900 44.55500 37.33500
N  50.11100 44.72800 42.17400
C  49.78100 43.55000 41.57400
C  50.94500 42.70800 41.70100
C  52.08000 43.55500 42.17900
C  51.47000 44.87200 42.37100
C  50.85500 41.29400 41.46600
C  53.50400 43.04300 42.45700
O  53.87400 41.91300 42.05200
C  54.36800 43.86800 43.32700
N  50.40300 47.79100 42.90700
C  51.74100 47.40900 42.84200
C  52.66800 48.61900 43.13100
C  51.65100 49.68100 43.56400
C  50.32600 49.01000 43.47900
C  53.77300 48.31400 44.15400
C  51.79000 51.17700 43.17000
C  50.85000 51.70200 42.03800
N  47.66200 47.99500 42.96600
C  47.84800 49.26600 43.47600
C  46.63200 49.97500 43.60100
C  45.64500 49.10500 43.13800
C  46.37000 47.94000 42.65500
C  46.42900 51.35900 43.98900
C  44.23800 48.84000 42.86000
O  43.29600 49.60300 42.99900
C  44.20500 47.45600 42.23800
C  43.41400 46.40700 43.07400
O  43.85200 45.85800 44.05100
O  42.17300 46.27600 42.56200
C  41.50600 45.07400 43.14100
H  48.22800 42.34200 40.51900
H  53.17000 45.96700 42.49100
H  49.20300 50.81200 43.86300
H  44.19000 44.44900 41.40600
H  45.97600 43.49200 39.47400
H  46.14200 41.53100 41.68900
H  45.14400 41.47000 40.28800
H  44.60300 42.19300 41.78100
H  45.27600 45.15700 38.64200
H  44.58200 46.47900 39.43700
H  42.46500 45.73500 39.03800
H  42.86800 44.09800 39.48500
H  51.80200 40.77700 41.31100
H  50.46300 41.08400 40.47100
H  50.27200 40.75900 42.21600
H  53.81900 44.44800 44.06900
H  54.91100 44.53200 42.65500
H  54.99500 43.19100 43.90600
H  53.19200 48.83700 42.20100
H  51.76800 49.69400 44.64700
H  54.77000 48.27900 43.71500
H  53.61100 47.35000 44.63600
H  53.84100 49.14600 44.85500
H  52.83100 51.34300 42.89400
H  51.55300 51.69600 44.09900
H  51.40400 52.23200 41.26300
H  50.29200 52.50100 42.52600
H  50.10400 51.09600 41.52500
H  47.33500 51.82700 44.37500
H  45.62600 51.52400 44.70700
H  46.13100 51.94800 43.12100
H  43.73000 47.46600 41.25700
H  42.14900 44.23900 42.86300
H  40.50100 44.98400 42.72800
H  41.34900 45.17000 44.21600
Mg 1.78300 41.83700 24.51600
C  2.94400 42.06800 27.99600
C  -1.04100 40.66900 25.74500
C  1.13900 41.13200 21.39900
C  4.93600 42.95800 23.70700
N  1.08400 41.46100 26.64200
C  1.63900 41.65500 27.86300
C  0.69900 41.32200 28.98800
C  -0.51600 40.70700 28.31500
C  -0.15100 40.90800 26.76100
C  -0.82000 39.25600 28.72900
C  0.46700 42.50800 29.93000
C  0.30700 42.31000 31.44700
H  -0.28000 41.05200 31.90600
N  0.26700 41.04200 23.67000
C  -0.85900 40.64000 24.28000
C  -1.87900 40.32800 23.34100
C  -1.21900 40.23900 22.09700
C  0.11100 40.87700 22.32400
C  -3.24900 39.86600 23.63400
C  -1.82600 39.76200 20.82400
O  -1.19500 39.73500 19.71300
C  -3.21000 39.27700 20.80200
N  2.89900 41.85100 22.80700
C  2.44600 41.51600 21.63300
C  3.43200 41.69800 20.52400
C  4.59600 42.45800 21.27000
C  4.11500 42.42300 22.68600
C  3.75800 40.39700 19.80600
C  4.83200 43.90800 20.73300
C  3.72600 45.01100 20.90200
N  3.57400 42.41500 25.62200
C  4.75200 42.98100 25.08700
C  5.68000 43.22000 26.09200
C  5.06000 42.76800 27.26600
C  3.75700 42.42200 26.91300
C  7.03100 43.83800 25.99700
C  5.26500 42.55500 28.70900
O  6.20000 42.64200 29.47000
C  3.84200 42.17700 29.21500
C  4.00900 40.82900 29.89100
O  4.77200 39.89400 29.52000
O  3.30200 40.84500 31.07200
C  3.52600 39.68800 31.92100
H  -1.97100 40.28100 26.16700
H  0.80700 41.01300 20.36500
H  5.89100 43.20000 23.23700
H  1.19200 40.53800 29.56200
H  -1.48700 41.17500 28.47700
H  -0.15400 38.92200 29.52400
H  -0.53100 38.68500 27.84700
H  -1.86600 39.25000 29.03800
H  -0.47400 42.96400 29.62300
H  1.14700 43.35600 29.84800
H  -0.31900 43.12400 31.81300
H  1.26100 42.45800 31.95200
H  -3.57500 40.12800 24.64000
H  -3.29000 38.77900 23.55100
H  -4.00000 40.42400 23.07600
H  -3.48500 38.64900 19.95400
H  -3.94800 40.06500 20.65300
H  -3.25600 38.50700 21.57300
H  2.97600 42.32400 19.75700
H  5.50100 41.89700 21.03900
H  3.39300 39.50200 20.30900
H  4.76100 39.99100 19.68000
H  3.58000 40.50500 18.73600
H  5.10200 43.71400 19.69500
H  5.74200 44.26900 21.21400
H  2.73400 44.75200 21.27200
H  3.60200 45.37600 19.88200
H  4.26600 45.69400 21.55700
H  7.61800 43.00000 25.62200
H  7.34200 44.08500 27.01200
H  7.10300 44.66400 25.29000
H  3.58200 42.90200 29.98600
H  3.15600 39.82100 32.93800
H  4.59200 39.50200 32.05400
H  3.10100 38.76800 31.51900

