158

Mg 1.79200 -2.32100 44.50300
C  5.04400 -1.05200 44.27200
C  0.66400 0.22800 42.48200
C  -1.29400 -3.79500 44.71200
C  3.19100 -5.28900 45.85600
N  2.80800 -0.64500 43.44000
C  4.13400 -0.30300 43.50600
C  4.41600 0.83500 42.53500
C  3.00800 1.39200 42.12100
C  2.07500 0.24600 42.62500
C  2.60100 2.77100 42.65400
C  5.30200 0.49500 41.28000
C  6.45900 1.52500 40.99400
H  6.42900 2.08200 39.58200
N  -0.05500 -1.79200 43.83400
C  -0.31100 -0.65000 43.02500
C  -1.76300 -0.63500 42.76200
C  -2.36900 -1.78800 43.43400
C  -1.26600 -2.51400 44.04300
C  -2.40300 0.41000 41.92300
C  -3.79600 -2.06100 43.45700
O  -4.62400 -1.33600 42.95800
C  -4.39300 -3.26300 44.10200
N  1.17000 -4.27100 45.10000
C  -0.20700 -4.55400 45.17300
C  -0.49000 -5.87500 45.87700
C  0.88300 -6.48300 46.03500
C  1.82200 -5.31700 45.57200
C  -1.22300 -5.58700 47.20000
C  1.16700 -7.68800 45.12400
C  2.05900 -8.82200 45.59200
N  3.71200 -3.06500 45.10100
C  4.11700 -4.26600 45.62200
C  5.53100 -4.33300 45.90000
C  5.97900 -3.07100 45.39200
C  4.79500 -2.33400 44.92100
C  6.31000 -5.45500 46.49100
C  7.12300 -2.17800 45.17900
O  8.30400 -2.45600 45.29600
C  6.54200 -0.90600 44.38500
C  6.77300 0.35600 45.13700
O  6.28700 0.54500 46.26200
O  7.61500 1.22700 44.45900
C  8.09500 2.32900 45.30500
H  0.32200 1.08500 41.89700
H  -2.23400 -4.30200 44.94000
H  3.43900 -6.18700 46.42600
H  5.04400 1.47400 43.15400
H  2.91400 1.58100 41.05200
H  1.68200 2.68000 43.23200
H  2.22900 3.33800 41.80000
H  3.42100 3.31300 43.12700
H  4.64200 0.45600 40.41400
H  5.68300 -0.52300 41.35800
H  7.35300 0.91800 41.13500
H  6.41500 2.34400 41.71300
H  -3.22800 -0.13900 41.46900
H  -1.85700 0.50900 40.98500
H  -2.69900 1.35300 42.38300
H  -4.05800 -4.09600 43.48400
H  -5.45900 -3.26400 43.87400
H  -4.14100 -3.50400 45.13500
H  -1.20400 -6.43700 45.27300
H  1.11300 -6.59400 47.09500
H  -2.03200 -6.31700 47.22900
H  -1.70600 -4.61000 47.20600
H  -0.55200 -5.67400 48.05500
H  1.53900 -7.28200 44.18400
H  0.23500 -8.20000 44.88200
H  1.37400 -9.61600 45.89400
H  2.46200 -8.44900 46.53400
H  2.91000 -8.89800 44.91600
H  6.51200 -6.25000 45.77400
H  5.87100 -5.92400 47.37200
H  7.22500 -4.93700 46.77800
H  7.06400 -0.83200 43.43100
H  8.58700 2.93000 44.54000
H  8.81900 2.02000 46.05800
H  7.33800 3.02300 45.67100
Mg 6.18200 53.92400 40.92400
C  5.54800 50.42600 40.51700
C  9.56400 53.30900 40.36500
C  6.69800 57.22900 40.68700
C  2.81400 54.34900 41.29600
N  7.36500 52.09100 40.60200
C  6.94500 50.78600 40.43900
C  8.08100 49.76200 40.31700
C  9.31300 50.70000 40.63300
C  8.73600 52.18500 40.52700
C  10.11700 50.49300 41.97400
C  8.34300 49.13600 38.89100
C  8.14200 50.09600 37.62600
H  7.19400 49.62900 36.50200
N  7.88000 55.12900 40.55200
C  9.13300 54.66900 40.31500
C  9.93200 55.83000 40.00100
C  9.21000 57.01000 40.19800
C  7.85700 56.50600 40.47200
C  11.31500 55.55200 39.40900
C  9.64800 58.37400 40.01600
O  10.79100 58.58600 39.63800
C  8.81700 59.50700 40.41000
N  4.91200 55.56300 41.10300
C  5.37400 56.80100 41.03600
C  4.25200 57.85500 41.18100
C  3.02300 56.89100 41.15600
C  3.59700 55.51300 41.15300
C  4.35800 58.70600 42.41400
C  2.18300 57.00000 39.89900
C  0.66300 56.81700 40.08000
N  4.42200 52.69600 40.89600
C  3.16400 53.01000 41.19000
C  2.30600 51.85700 41.12400
C  3.19800 50.80600 40.95600
C  4.50000 51.40700 40.77100
C  0.80200 51.83900 41.29500
C  3.30600 49.37500 40.79800
O  2.44400 48.55000 40.83400
C  4.82400 49.03300 40.57500
C  4.98800 48.33200 39.27900
O  4.61900 48.71800 38.19500
O  5.61900 47.10500 39.57400
C  5.76300 46.38200 38.32600
H  10.63900 53.15100 40.25800
H  6.58200 58.31400 40.64700
H  1.75600 54.57900 41.44300
H  7.93300 48.94800 41.02700
H  10.12100 50.58600 39.91000
H  11.16900 50.51700 41.69000
H  9.76100 49.60200 42.49100
H  9.95800 51.34900 42.63000
H  7.73500 48.24400 38.74300
H  9.40000 48.89200 38.79000
H  9.09600 50.18500 37.10600
H  8.01500 51.16000 37.82800
H  11.35000 54.69200 38.74000
H  12.10200 55.62200 40.16000
H  11.66000 56.35200 38.75400
H  9.52100 60.32800 40.54600
H  8.35300 59.20000 41.34700
H  8.05100 59.70700 39.66100
H  4.22600 58.47800 40.28600
H  2.40300 57.00300 42.04600
H  5.11800 58.31900 43.09400
H  3.40500 58.74500 42.94200
H  4.67800 59.73400 42.24300
H  2.28600 56.15000 39.22500
H  2.37900 57.87500 39.28100
H  0.35100 56.39700 41.03600
H  0.28600 56.10800 39.34300
H  0.17000 57.78500 39.98500
H  0.41000 52.77900 40.90700
H  0.59400 51.68700 42.35500
H  0.47800 50.98400 40.70100
H  5.26700 48.38800 41.33400
H  6.33200 46.96900 37.60500
H  4.79200 46.07900 37.93200
H  6.30500 45.45000 38.48600

