158

Mg 6.08500 54.20800 42.48800
C  5.41300 50.91000 41.93300
C  9.24000 53.79300 40.99400
C  6.41300 57.69800 42.06600
C  2.91300 54.65900 43.73400
N  7.16000 52.56000 41.59500
C  6.63000 51.32400 41.49000
C  7.65300 50.41100 40.87600
C  9.00100 51.19700 41.08400
C  8.49200 52.61700 41.24200
C  9.83000 50.74400 42.28300
C  7.45600 50.10600 39.33700
C  7.05900 51.29600 38.48300
H  5.95200 50.96700 37.45800
N  7.63400 55.53900 41.71200
C  8.84400 55.12700 41.18000
C  9.64800 56.26700 40.94800
C  8.86200 57.44200 41.18800
C  7.52500 56.89700 41.62600
C  11.03600 56.23700 40.60300
C  9.42500 58.85400 41.02900
O  10.54900 59.03300 40.62700
C  8.63300 60.04600 41.41300
N  4.81700 55.91100 42.73700
C  5.20000 57.24400 42.54600
C  4.09000 58.16300 42.97000
C  2.95700 57.16000 43.41500
C  3.60300 55.81100 43.33700
C  4.47000 59.34400 43.93900
C  1.61000 57.38800 42.67400
C  0.75300 58.51700 43.26000
N  4.44600 52.97900 42.85900
C  3.27400 53.34900 43.57400
C  2.60500 52.09200 43.89000
C  3.41500 51.05600 43.33600
C  4.43900 51.71100 42.53500
C  1.41300 51.88300 44.72100
C  3.54600 49.57000 43.14800
O  2.88000 48.66200 43.58800
C  4.79300 49.46100 42.16400
C  4.17600 48.85300 40.86100
O  3.21900 49.27600 40.28300
O  4.80800 47.70500 40.52800
C  4.33500 46.91800 39.41600
H  10.20000 53.50100 40.56400
H  6.57000 58.77800 42.04400
H  1.97500 54.70700 44.29100
H  7.57700 49.46700 41.41500
H  9.60700 51.17900 40.17700
H  10.72500 50.21900 41.94900
H  9.32800 50.03900 42.94400
H  10.06300 51.62400 42.88300
H  6.81000 49.23200 39.24800
H  8.37900 49.75500 38.87500
H  7.99600 51.60800 38.02100
H  6.68600 52.17900 39.00300
H  11.13800 56.44900 39.53900
H  11.43100 55.22900 40.73000
H  11.68500 56.84500 41.23300
H  7.72600 60.02500 40.80900
H  9.06500 60.99300 41.08900
H  8.27200 60.16200 42.43500
H  3.79400 58.67600 42.05500
H  2.72700 57.42100 44.44800
H  5.52200 59.25800 44.21400
H  3.79700 59.37500 44.79600
H  4.37300 60.33400 43.49300
H  0.92800 56.54400 42.77500
H  1.88600 57.59500 41.64000
H  0.60900 59.34800 42.56900
H  1.02600 58.79900 44.27700
H  -0.25900 58.11700 43.33000
H  1.42700 50.84800 45.06400
H  0.58900 52.14300 44.05600
H  1.33500 52.66600 45.47500
H  5.50200 48.74500 42.57900
H  3.25500 47.04800 39.34000
H  4.46900 45.84700 39.56700
H  4.81000 47.26800 38.49900
Mg 16.75900 52.40200 26.87200
C  18.68100 50.70700 29.26700
C  14.67900 53.41900 29.45100
C  14.70900 53.77600 24.41400
C  18.71000 51.08800 24.42400
N  16.47200 51.77100 29.00700
C  17.60600 51.28800 29.80800
C  17.42800 51.53800 31.36100
C  15.93200 51.92100 31.26300
C  15.71400 52.52600 29.85100
C  14.83500 50.85700 31.47300
C  18.45200 52.60100 31.95400
C  18.51100 52.67400 33.44700
H  17.43300 51.92600 34.22100
N  15.16400 53.59400 26.93500
C  14.44000 53.84000 28.06400
C  13.24800 54.74100 27.71000
C  13.25000 54.91100 26.30100
C  14.39300 54.03200 25.81400
C  12.33200 55.28800 28.81700
C  12.31800 55.77300 25.40200
O  12.40300 55.74600 24.18100
C  11.22400 56.68600 26.01200
N  16.67600 52.33300 24.70300
C  15.75800 52.96500 23.92300
C  16.11700 52.85700 22.38300
C  17.56300 52.33900 22.54700
C  17.63700 51.75600 23.95200
C  15.20200 51.94500 21.48300
C  18.78100 53.32600 22.32900
C  20.06100 52.74800 21.61300
N  18.32200 51.11600 26.81600
C  19.05800 50.68900 25.72000
C  20.21600 49.81900 26.13600
C  20.08600 49.83600 27.51200
C  18.97400 50.64600 27.87900
C  21.34500 49.26900 25.32300
C  20.64800 49.32000 28.78600
O  21.63000 48.59700 29.04200
C  19.79100 49.91600 29.90000
C  19.11400 48.88400 30.81900
O  18.31900 48.01300 30.45700
O  19.66700 49.03300 32.05500
C  19.32500 48.12200 33.12400
H  13.99400 53.69000 30.25700
H  14.12200 54.16500 23.57900
H  19.36800 50.66900 23.66000
H  17.40100 50.61500 31.94000
H  15.83500 52.76900 31.94200
H  14.00500 50.88500 30.76700
H  14.33000 50.98200 32.43000
H  15.17200 49.82000 31.47900
H  18.03100 53.56800 31.68000
H  19.42200 52.48000 31.47200
H  18.58300 53.74700 33.62600
H  19.46300 52.17700 33.63600
H  12.21400 56.36400 28.69000
H  12.69100 55.27600 29.84600
H  11.36900 54.77900 28.77900
H  10.55900 57.12000 25.26500
H  11.71700 57.52100 26.50900
H  10.72200 56.12700 26.80200
H  16.08400 53.86200 21.96200
H  17.81900 51.52600 21.86700
H  14.47400 51.36700 22.05400
H  15.75800 51.22900 20.87700
H  14.68500 52.68200 20.86900
H  19.19000 53.69100 23.27100
H  18.61900 54.11600 21.59700
H  19.99400 51.66700 21.49100
H  20.86000 53.00000 22.31100
H  20.30100 53.30600 20.70800
H  21.26900 49.23300 24.23600
H  21.54700 48.29400 25.76500
H  22.31000 49.74500 25.49700
H  20.41800 50.60100 30.47100
H  19.80600 47.15700 32.96600
H  18.25700 47.90400 33.15600
H  19.67500 48.47600 34.09400

