158

Mg 29.90800 58.62500 39.67700
C  27.19100 56.51600 38.70900
C  31.98500 56.22100 38.47700
C  32.44100 60.95600 39.91800
C  27.55600 61.32500 39.99700
N  29.56600 56.66600 38.56200
C  28.43800 55.91900 38.47000
C  28.71300 54.41800 38.08300
C  30.26400 54.54600 37.89300
C  30.65300 55.89900 38.40300
C  31.04200 53.34100 38.52900
C  27.87300 53.86300 36.91400
C  27.75800 54.66000 35.66200
H  28.09600 54.11500 34.30100
N  31.96700 58.47300 39.53500
C  32.63300 57.45000 38.90200
C  33.97900 57.79500 38.86900
C  34.17200 59.09100 39.46700
C  32.82500 59.56100 39.71300
C  35.02800 56.78500 38.50300
C  35.49800 59.74600 39.73600
O  36.50500 59.14700 39.44100
C  35.62400 61.03100 40.59400
N  29.88700 60.80100 39.88900
C  31.12800 61.45500 40.05500
C  30.92100 63.00600 40.25000
C  29.34800 63.09700 40.11300
C  28.86600 61.64000 39.96700
C  31.39200 63.61600 41.52700
C  28.86400 63.99700 38.93600
C  27.68500 64.92500 39.22000
N  27.79400 58.84300 39.54600
C  27.04300 60.00100 39.83500
C  25.63900 59.61500 39.66500
C  25.65500 58.22500 39.29900
C  27.02100 57.86700 39.14200
C  24.45600 60.60200 39.68700
C  24.78100 57.15600 38.88400
O  23.55600 57.16000 38.71900
C  25.75300 55.98000 38.56400
C  25.47700 54.93600 39.59000
O  26.08400 54.95100 40.65900
O  24.49000 54.08900 39.13200
C  24.03700 53.04000 40.02600
H  32.52300 55.35000 38.09700
H  33.18300 61.72800 40.13200
H  26.83300 62.13600 39.88100
H  28.49900 53.94100 39.03900
H  30.50000 54.47900 36.83000
H  31.93700 53.00800 38.00300
H  30.33600 52.51800 38.64300
H  31.31600 53.63800 39.54200
H  26.89400 53.85400 37.39400
H  28.19700 52.86000 36.63900
H  28.62900 55.31100 35.74000
H  26.88600 55.31100 35.61300
H  35.74000 57.24200 37.81700
H  34.58900 55.85200 38.14700
H  35.50200 56.53100 39.45100
H  34.92700 61.13500 41.42500
H  35.42700 61.83800 39.88800
H  36.68500 61.15900 40.80700
H  31.39100 63.54300 39.42700
H  28.82500 63.50300 40.97900
H  31.66700 62.89600 42.29800
H  30.59700 64.25700 41.90700
H  32.31900 64.11000 41.23700
H  28.41600 63.27700 38.25100
H  29.67300 64.47700 38.38600
H  26.95900 64.44400 39.87600
H  27.09800 65.06800 38.31200
H  28.05700 65.83200 39.69500
H  24.74200 61.45400 39.07100
H  24.20500 60.88100 40.71100
H  23.65800 60.15000 39.09800
H  25.48100 55.58600 37.58500
H  24.04800 53.43400 41.04200
H  24.81100 52.28600 39.88200
H  23.09000 52.69400 39.61300
Mg 36.38300 49.05400 24.12700
C  36.71000 47.49100 27.20700
C  35.25400 51.87500 25.57200
C  35.69600 50.33900 21.01600
C  37.59400 46.21200 22.63300
N  35.83800 49.49400 26.12500
C  36.17900 48.80600 27.29600
C  35.70000 49.54800 28.53700
C  35.10100 50.92100 27.94600
C  35.32100 50.71200 26.41400
C  33.64000 51.23700 28.29900
C  36.89400 49.88500 29.52000
C  36.57300 49.65800 31.07300
H  35.16700 49.60000 31.57500
N  35.61300 50.84300 23.45900
C  35.26700 51.90600 24.21900
C  34.81600 53.02000 23.37300
C  34.88800 52.56100 22.04500
C  35.39400 51.20000 22.14200
C  34.63600 54.38100 23.90400
C  34.60900 53.33200 20.72100
O  34.74500 52.93000 19.55900
C  34.15000 54.74900 20.87500
N  36.49400 48.38400 22.10000
C  36.16800 49.06200 21.01200
C  36.56300 48.25800 19.65900
C  37.54700 47.16000 20.24700
C  37.27000 47.27800 21.75000
C  35.31800 47.75500 18.80400
C  39.02200 47.10300 19.68800
C  39.94200 48.11800 20.28800
N  37.03400 47.19700 24.74500
C  37.40400 46.08600 24.02300
C  37.57800 44.95800 24.92600
C  37.36200 45.50000 26.18900
C  37.10300 46.87900 26.02900
C  37.97000 43.54200 24.46400
C  37.42200 45.16600 27.61200
O  37.81300 44.17900 28.27900
C  36.91100 46.50400 28.30600
C  35.61300 46.10900 28.95000
O  34.50300 46.11700 28.44000
O  35.90700 45.75700 30.29200
C  34.79800 45.08400 30.93900
H  34.91100 52.81500 26.00900
H  35.56600 50.82000 20.04400
H  38.12100 45.38300 22.15500
H  34.93300 49.00400 29.08800
H  35.73400 51.72200 28.32700
H  33.50100 52.31800 28.30900
H  33.37500 50.89900 29.30100
H  33.01400 50.71500 27.57500
H  37.33200 50.86900 29.34800
H  37.66600 49.14900 29.29400
H  36.99200 50.53500 31.56500
H  37.15400 48.83000 31.48100
H  35.16300 55.14000 23.32600
H  35.16500 54.43400 24.85500
H  33.55900 54.54700 23.89700
H  33.31800 54.92800 21.55600
H  33.91700 55.03200 19.84900
H  35.03500 55.35700 21.06300
H  37.19600 48.90800 19.05500
H  37.19300 46.18300 19.91900
H  34.31000 48.11900 19.00500
H  35.38100 46.67500 18.67100
H  35.41400 48.15200 17.79400
H  39.07400 47.23900 18.60800
H  39.50100 46.18000 20.01300
H  39.33400 48.83900 20.83500
H  40.39800 48.66100 19.46000
H  40.66800 47.74300 21.00800
H  37.44500 43.48000 23.51100
H  37.55700 42.77200 25.11500
H  39.03900 43.34900 24.37200
H  37.56300 46.83500 29.11400
H  34.23800 44.54200 30.17700
H  34.13700 45.74200 31.50300
H  35.28300 44.39700 31.63200

