158

Mg 23.90200 -4.86200 45.74700
C  25.86900 -2.66700 43.76200
C  21.15900 -3.92700 44.00600
C  22.43400 -7.64300 46.72800
C  26.93800 -5.88400 47.33000
N  23.51300 -3.56600 43.89800
C  24.45800 -2.71000 43.40500
C  23.83300 -1.76400 42.37700
C  22.29800 -2.05400 42.59900
C  22.29800 -3.22800 43.55100
C  21.41600 -0.87100 43.10100
C  24.44000 -2.05700 40.96300
C  24.82300 -0.85300 40.11000
H  24.60800 -1.06900 38.62800
N  22.04200 -5.66100 45.54900
C  21.03100 -5.09500 44.87400
C  19.81200 -5.79200 45.02700
C  20.10700 -6.86700 45.93000
C  21.58100 -6.79800 46.04900
C  18.43900 -5.42700 44.48600
C  19.20700 -7.82800 46.52600
O  17.97800 -7.99100 46.31000
C  19.78700 -8.85500 47.41100
N  24.53900 -6.44900 47.00400
C  23.72100 -7.48900 47.22800
C  24.52300 -8.58900 48.00100
C  25.85400 -7.87900 48.49700
C  25.78000 -6.61800 47.63300
C  23.81300 -9.31800 49.17900
C  27.20100 -8.74500 48.31900
C  28.11400 -8.62200 49.58300
N  25.99500 -4.47500 45.61700
C  27.07300 -4.86200 46.40000
C  28.19100 -4.02100 46.16700
C  27.75100 -3.15500 45.13200
C  26.43000 -3.49700 44.78600
C  29.44100 -4.08200 46.91900
C  28.17900 -2.08700 44.35100
O  29.24800 -1.54300 44.31400
C  26.99600 -1.71600 43.36100
C  26.74900 -0.26200 43.63500
O  26.13300 0.07900 44.62700
O  27.55400 0.48300 42.77500
C  27.56200 1.89900 43.23200
H  20.21400 -3.54600 43.61400
H  22.15900 -8.69700 46.79400
H  27.81900 -6.23500 47.87100
H  24.08300 -0.74400 42.66800
H  21.80800 -2.43100 41.70200
H  21.31700 -0.75100 44.17900
H  20.44700 -0.92800 42.60500
H  21.87200 0.00600 42.64200
H  23.71300 -2.58700 40.34700
H  25.32300 -2.66600 41.15400
H  25.84400 -0.68400 40.45100
H  24.12400 -0.07400 40.41300
H  18.34500 -5.72400 43.44100
H  18.40200 -4.33800 44.49700
H  17.60800 -5.83700 45.06100
H  19.01600 -9.31700 48.02700
H  20.49400 -8.41400 48.11400
H  20.19700 -9.63500 46.77000
H  24.77000 -9.39000 47.30400
H  25.81000 -7.41300 49.48200
H  24.20300 -10.33100 49.28100
H  22.73700 -9.14300 49.21300
H  24.18800 -8.86000 50.09400
H  27.75700 -8.40900 47.44400
H  26.82900 -9.75400 48.14400
H  28.16700 -9.54800 50.15600
H  27.82400 -7.70200 50.09100
H  29.12600 -8.49100 49.20000
H  30.16400 -3.56400 46.29000
H  29.83800 -5.07600 47.12800
H  29.37500 -3.49000 47.83200
H  27.40500 -1.76900 42.35200
H  27.75500 1.90500 44.30400
H  26.63700 2.45300 43.06900
H  28.44700 2.42300 42.87200
Mg -11.87000 38.43100 41.01500
C  -9.63900 35.76600 40.62500
C  -9.51200 40.45800 39.52500
C  -14.23700 40.78100 40.64800
C  -14.21100 36.03500 42.03500
N  -9.77000 38.13000 40.21700
C  -9.18900 36.96200 39.99500
C  -7.88800 37.15700 39.24900
C  -7.65700 38.76300 39.24300
C  -9.02800 39.18700 39.72700
C  -6.37900 39.28100 40.00300
C  -7.99500 36.58500 37.84700
C  -7.01900 35.37900 37.57000
H  -5.80500 35.80300 36.75000
N  -11.77600 40.40500 40.34300
C  -10.73400 41.05500 39.84000
C  -11.12200 42.46500 39.63500
C  -12.47300 42.57600 40.01100
C  -12.88800 41.23300 40.35500
C  -10.32400 43.54800 39.13700
C  -13.22600 43.89600 39.98200
O  -12.63500 44.94200 39.65400
C  -14.69100 44.03100 40.27900
N  -13.92200 38.41600 41.39000
C  -14.70000 39.54800 41.13600
C  -16.16300 39.26400 41.42900
C  -16.17100 37.70300 41.81900
C  -14.72700 37.29100 41.69300
C  -16.83200 40.20600 42.46300
C  -17.04600 36.82000 40.94200
C  -18.05200 35.92900 41.72500
N  -11.91000 36.38100 41.42700
C  -12.88000 35.54000 41.89400
C  -12.34600 34.19400 42.20500
C  -11.09800 34.26100 41.67500
C  -10.85400 35.59100 41.24600
C  -13.10600 33.08800 42.81100
C  -9.90600 33.49700 41.43600
O  -9.78600 32.34500 41.79200
C  -8.95600 34.39400 40.60500
C  -7.56200 34.18700 41.22800
O  -6.91300 33.16500 41.18300
O  -7.17300 35.29900 42.07500
C  -5.89600 35.29900 42.82400
H  -8.78300 41.12200 39.05500
H  -15.05400 41.46600 40.41100
H  -14.97200 35.28300 42.25200
H  -7.02500 36.71600 39.74700
H  -7.41900 39.11100 38.23800
H  -6.73000 40.12200 40.60200
H  -5.63700 39.71100 39.33000
H  -5.94400 38.46400 40.57900
H  -7.69500 37.37800 37.16200
H  -9.05400 36.33800 37.77200
H  -7.50900 34.65800 36.91600
H  -6.61200 34.95200 38.48700
H  -10.71600 44.03900 38.24600
H  -9.32900 43.18200 38.88600
H  -9.99500 44.27200 39.88300
H  -14.97600 45.07500 40.41100
H  -14.80200 43.49800 41.22300
H  -15.29200 43.67400 39.44300
H  -16.63000 39.33200 40.44600
H  -16.44800 37.63500 42.87100
H  -17.44100 40.99900 42.03000
H  -16.07700 40.56100 43.16500
H  -17.54500 39.60500 43.02800
H  -16.46700 36.17100 40.28600
H  -17.62700 37.51200 40.33200
H  -17.76800 35.95500 42.77700
H  -18.05600 34.85100 41.56900
H  -19.00100 36.46600 41.73600
H  -13.72500 32.61100 42.05100
H  -13.85900 33.55000 43.44900
H  -12.46000 32.33200 43.25600
H  -8.89300 33.96300 39.60500
H  -5.14700 36.01200 42.47800
H  -5.40000 34.32900 42.82700
H  -6.15500 35.52200 43.85900

