158

Mg -1.88100 17.40200 26.74500
C  -2.18200 14.97100 29.27600
C  -2.70000 19.96700 29.07700
C  -2.06000 19.63200 24.23900
C  -2.09200 14.62100 24.36400
N  -2.26300 17.39300 28.94000
C  -2.32700 16.30200 29.82800
C  -2.58900 16.74800 31.29000
C  -2.77900 18.34900 31.09100
C  -2.59400 18.63300 29.61700
C  -4.06700 18.94400 31.63900
C  -1.46000 16.39600 32.22900
C  -1.45300 17.14800 33.53500
H  -0.76700 16.48900 34.72200
N  -2.01300 19.51200 26.63900
C  -2.31000 20.38200 27.69500
C  -2.07000 21.76600 27.20900
C  -1.77700 21.64100 25.82600
C  -1.86200 20.25600 25.47600
C  -2.09700 22.98100 28.04900
C  -1.45400 22.76200 24.79500
O  -1.14200 22.51500 23.58400
C  -1.66500 24.18400 25.12500
N  -1.98200 17.12500 24.67200
C  -2.10000 18.25000 23.83300
C  -2.34300 17.80300 22.38600
C  -2.02000 16.24500 22.43100
C  -2.01700 15.93400 23.90000
C  -3.77500 18.14100 21.85300
C  -0.69700 15.79500 21.75900
C  0.68600 16.41400 22.25800
N  -2.13700 15.24800 26.75700
C  -2.09300 14.29800 25.75700
C  -2.01400 13.00000 26.36000
C  -2.03800 13.22500 27.74200
C  -2.17700 14.57500 27.93900
C  -2.06900 11.73200 25.62400
C  -2.03100 12.53900 29.11200
O  -1.91500 11.34100 29.36800
C  -2.26700 13.67800 30.13300
C  -1.11400 13.49200 31.04900
O  0.02800 13.90700 30.99100
O  -1.61500 12.75200 32.07000
C  -0.83000 12.64600 33.33900
H  -2.92100 20.78500 29.76600
H  -2.26400 20.36600 23.45700
H  -2.13900 13.80300 23.64200
H  -3.54100 16.30800 31.58600
H  -1.99800 18.87900 31.63500
H  -4.77100 19.29400 30.88300
H  -3.77200 19.79700 32.25000
H  -4.56400 18.20300 32.26500
H  -0.46400 16.44300 31.78900
H  -1.65700 15.39300 32.60900
H  -2.47800 17.36800 33.83500
H  -0.97900 18.12600 33.45600
H  -2.94300 23.65500 27.91600
H  -1.23300 23.64500 28.01200
H  -2.13800 22.70100 29.10200
H  -0.89300 24.46900 25.84000
H  -2.66300 24.22000 25.56100
H  -1.72900 24.81700 24.24000
H  -1.58500 18.30200 21.78200
H  -2.74800 15.65200 21.87700
H  -4.18300 18.95500 22.45300
H  -4.36800 17.23500 21.72600
H  -3.74600 18.61000 20.87000
H  -0.83600 16.14100 20.73500
H  -0.70500 14.70700 21.81200
H  1.37000 15.57100 22.35800
H  0.58800 17.08500 23.11200
H  0.99200 17.08900 21.45900
H  -1.56800 10.94900 26.19300
H  -1.39800 11.94100 24.79000
H  -3.02000 11.48000 25.15600
H  -3.17500 13.53400 30.72000
H  -0.13700 11.80700 33.27700
H  -1.42100 12.35100 34.20700
H  -0.24900 13.55200 33.51000
Mg 8.33900 3.39500 27.36900
C  9.95000 1.81900 30.13500
C  6.66900 5.42400 29.49900
C  6.56400 4.44800 24.76600
C  9.80900 0.82300 25.31900
N  8.37300 3.61200 29.59600
C  9.12800 2.86900 30.51300
C  8.75700 3.38000 31.89100
C  7.54400 4.37300 31.65700
C  7.53700 4.46500 30.15400
C  6.14600 3.92700 32.07800
C  10.02400 3.98400 32.63900
C  10.40000 3.49800 34.04700
H  10.61500 4.46800 35.21000
N  6.83800 4.76900 27.15200
C  6.34300 5.51800 28.12000
C  5.35600 6.40100 27.53500
C  5.40300 6.29700 26.05600
C  6.34100 5.15500 25.90800
C  4.50000 7.36500 28.31900
C  4.67400 7.14300 24.91200
O  4.65500 6.84600 23.73900
C  4.04300 8.42800 25.27300
N  8.18000 2.66200 25.36200
C  7.40300 3.34400 24.51000
C  7.55400 2.81900 23.12200
C  8.68400 1.70800 23.24400
C  8.93400 1.69600 24.72800
C  6.23400 2.29200 22.43500
C  10.01700 2.08200 22.52500
C  10.93000 3.14300 23.16300
N  9.63200 1.69700 27.57200
C  10.03200 0.76300 26.67800
C  10.92500 -0.22300 27.36900
C  10.89300 0.16800 28.75300
C  10.15000 1.38400 28.80000
C  11.82400 -1.22200 26.84000
C  11.31900 -0.20800 30.11000
O  12.01800 -1.16500 30.47600
C  10.79000 0.87800 31.00100
C  9.95400 0.17100 32.03900
O  8.94700 -0.45100 31.67000
O  10.31000 0.30400 33.41600
C  9.34500 -0.06100 34.46900
H  6.39400 6.31300 30.07100
H  6.18500 4.84000 23.82000
H  10.24600 0.00500 24.74400
H  8.33700 2.51500 32.40500
H  7.89100 5.28600 32.14200
H  5.43000 4.09600 31.27400
H  5.79600 4.57500 32.88100
H  5.98800 2.87800 32.32900
H  9.89700 5.06700 32.66000
H  10.94200 3.86500 32.06400
H  11.30900 2.89700 34.02600
H  9.63400 2.77900 34.34100
H  4.49000 8.40100 27.98100
H  4.79500 7.51700 29.35700
H  3.48300 7.01800 28.13400
H  3.75400 9.03800 24.41800
H  4.85500 8.99700 25.72600
H  3.32500 8.30400 26.08500
H  7.88200 3.66200 22.51300
H  8.28900 0.78300 22.82400
H  6.06800 2.94400 21.57700
H  5.38100 2.49000 23.08300
H  6.11200 1.22300 22.25900
H  9.78400 2.39100 21.50600
H  10.64800 1.19500 22.55600
H  11.23600 3.80500 22.35300
H  11.83700 2.66600 23.53300
H  10.50000 3.79600 23.92200
H  12.24500 -1.04500 25.85100
H  11.32600 -2.19000 26.89300
H  12.63800 -1.27700 27.56400
H  11.61500 1.44100 31.43700
H  8.33800 0.29500 34.25300
H  9.70200 0.32300 35.42500
H  9.27500 -1.14800 34.48100

