158

Mg -0.81100 7.66000 25.17200
C  -0.05500 9.47900 28.23400
C  -0.82100 4.75600 27.09600
C  -1.13900 5.94800 22.40900
C  -0.08700 10.61400 23.40800
N  -0.44500 7.20600 27.44500
C  -0.21400 8.11800 28.48300
C  -0.30500 7.49000 29.83700
C  -0.36900 5.88900 29.52500
C  -0.55300 5.92500 27.92600
C  0.80100 5.09000 30.14800
C  -1.42400 7.89100 30.82500
C  -1.08300 7.95900 32.31000
H  0.06600 7.16500 32.95800
N  -0.94500 5.67600 24.77900
C  -0.91600 4.57000 25.68500
C  -1.16500 3.35900 24.99800
C  -1.22900 3.69700 23.65100
C  -1.07500 5.17200 23.51300
C  -1.28300 2.04600 25.73800
C  -1.39300 2.80200 22.40600
O  -1.49400 3.28600 21.30300
C  -1.59100 1.31100 22.63000
N  -0.52700 8.26900 23.25000
C  -0.86900 7.35200 22.25300
C  -0.82200 7.94800 20.86800
C  -0.51400 9.39500 21.16800
C  -0.35200 9.46800 22.69300
C  0.06500 7.27900 19.78500
C  -1.46200 10.49000 20.67000
C  -2.75700 10.68500 21.49500
N  -0.18300 9.72100 25.65500
C  0.05300 10.80000 24.83000
C  0.48100 11.93100 25.62000
C  0.46000 11.47700 26.95500
C  0.02300 10.13900 26.94800
C  0.73900 13.40300 25.20500
C  0.68800 11.87400 28.35900
O  1.05600 12.99400 28.77400
C  0.29300 10.57600 29.25200
C  1.44800 10.29300 30.17000
O  2.31600 9.43900 29.94200
O  1.30900 11.06700 31.31000
C  2.51500 10.98900 32.18500
H  -0.83100 3.83900 27.68800
H  -1.47000 5.57400 21.43800
H  0.09100 11.51200 22.81100
H  0.59900 7.74100 30.39200
H  -1.30600 5.42900 29.84000
H  1.53900 5.69000 30.68000
H  1.24300 4.67000 29.24500
H  0.42900 4.31800 30.82200
H  -2.26000 7.19200 30.79000
H  -1.69000 8.92600 30.61200
H  -2.00400 7.61200 32.77900
H  -0.92200 8.99500 32.60800
H  -0.84100 2.18800 26.72500
H  -0.66500 1.29900 25.24000
H  -2.35100 1.82600 25.73800
H  -2.49800 1.13400 23.20700
H  -0.64800 1.01000 23.08600
H  -1.63800 0.80500 21.66600
H  -1.84900 7.74100 20.56800
H  0.51900 9.68600 20.97900
H  0.70800 6.48000 20.15300
H  0.73500 8.01500 19.34200
H  -0.57700 6.71900 19.10500
H  -1.74200 10.45300 19.61700
H  -0.88900 11.41600 20.69900
H  -2.79900 10.03500 22.36900
H  -3.65900 10.56500 20.89400
H  -2.80900 11.71300 21.85300
H  1.37500 13.78800 26.00300
H  -0.19800 13.94400 25.33700
H  1.21000 13.58300 24.23900
H  -0.68800 10.71400 29.70700
H  2.74900 9.93300 32.32100
H  2.21900 11.36800 33.16300
H  3.30700 11.59600 31.74700
Mg 16.68000 -2.18100 27.71800
C  15.40900 0.02300 30.17400
C  18.77500 -3.47700 30.04800
C  18.09100 -3.99700 25.30000
C  14.80600 -0.31600 25.34700
N  16.98200 -1.79900 29.85000
C  16.31900 -0.94500 30.64000
C  16.63400 -1.17800 32.07200
C  17.93900 -2.04400 32.05100
C  17.96000 -2.49500 30.55500
C  19.30200 -1.32200 32.47600
C  15.46500 -1.71600 32.96400
C  15.11800 -0.86400 34.18000
H  16.19300 -0.05800 34.89100
N  18.10900 -3.59000 27.73100
C  18.89800 -4.03600 28.77100
C  19.80900 -5.04000 28.38700
C  19.56400 -5.23300 27.01000
C  18.52900 -4.25000 26.58800
C  20.80600 -5.71500 29.25100
C  20.24000 -6.14200 26.00000
O  20.08400 -6.10000 24.80000
C  21.04500 -7.43100 26.43200
N  16.53200 -2.07600 25.66300
C  17.20500 -2.97400 24.83400
C  16.94800 -2.75500 23.32200
C  15.75900 -1.77000 23.39600
C  15.70900 -1.27900 24.86500
C  18.16700 -2.13700 22.65800
C  14.38700 -2.20400 22.76800
C  14.21300 -2.02800 21.18200
N  15.34000 -0.50300 27.70000
C  14.68700 0.17700 26.65900
C  13.88200 1.24900 27.19600
C  14.15700 1.24800 28.57900
C  15.01100 0.19800 28.80400
C  12.86400 2.03700 26.42000
C  13.89400 1.90900 29.86400
O  13.24800 2.88900 30.12100
C  14.66900 1.10000 30.89500
C  15.54500 2.10100 31.61600
O  16.69300 2.40900 31.32100
O  14.78500 2.65500 32.59000
C  15.56300 3.78500 33.22500
H  19.44600 -3.96400 30.75900
H  18.43300 -4.53400 24.41300
H  14.28000 0.34200 24.65100
H  16.97800 -0.24400 32.51800
H  17.98700 -2.94700 32.65900
H  20.00000 -1.26400 31.64100
H  19.73200 -1.89500 33.29700
H  19.13300 -0.29400 32.79700
H  15.73400 -2.69800 33.35400
H  14.53000 -1.77300 32.40700
H  14.85100 -1.57100 34.96600
H  14.17900 -0.32400 34.05400
H  21.81200 -5.85000 28.85300
H  20.46000 -6.70400 29.55200
H  20.95200 -5.18400 30.19200
H  20.98200 -8.19000 25.65300
H  20.53700 -7.89100 27.27900
H  22.10900 -7.27400 26.60700
H  16.68700 -3.60900 22.69800
H  15.91700 -0.80300 22.91700
H  18.08800 -2.36300 21.59400
H  19.12100 -2.50500 23.03600
H  18.08600 -1.05100 22.71400
H  13.54100 -1.69400 23.22900
H  14.16600 -3.27000 22.80900
H  14.98900 -1.35700 20.81400
H  13.26600 -1.54400 20.94400
H  14.26100 -2.99900 20.68900
H  12.71500 1.66100 25.40800
H  13.11900 3.09600 26.38000
H  11.89800 1.91200 26.91100
H  13.95500 0.67800 31.60200
H  16.58500 3.52400 33.49800
H  15.06500 4.01700 34.16700
H  15.58100 4.72100 32.66600

