158

Mg 41.58200 41.82900 27.79400
C  40.68400 44.33700 30.18000
C  42.45400 39.79900 30.44400
C  42.80600 39.67700 25.61300
C  41.40200 44.23400 25.33600
N  41.62200 42.04200 30.07200
C  41.06700 43.12200 30.77500
C  40.92700 42.65800 32.25600
C  41.62900 41.25400 32.35500
C  41.97300 41.02000 30.85900
C  42.87100 41.08800 33.21200
C  39.36300 42.65000 32.79700
C  38.89400 43.78000 33.75000
H  38.45100 43.42100 35.19800
N  42.53500 39.91300 27.98700
C  42.76600 39.30800 29.16700
C  43.12300 37.92300 28.83100
C  43.10000 37.80200 27.40100
C  42.77000 39.13700 26.94900
C  43.52500 36.85100 29.87100
C  43.31000 36.65300 26.60600
O  43.33100 36.67800 25.37600
C  43.49000 35.33700 27.16700
N  42.04300 41.89400 25.87000
C  42.58600 40.93100 25.15300
C  42.67900 41.22200 23.65800
C  42.04300 42.59600 23.50500
C  41.83700 42.95100 25.01500
C  44.08500 41.08000 23.10000
C  40.67700 42.62200 22.71700
C  39.54000 41.83100 23.34100
N  41.04500 43.82100 27.72600
C  41.00700 44.65300 26.61300
C  40.51300 45.96800 27.02500
C  40.32400 45.83400 28.42600
C  40.67000 44.58100 28.82100
C  40.19700 47.14300 26.13800
C  39.86800 46.54300 29.63700
O  39.49700 47.66600 29.83000
C  40.16100 45.57000 30.78200
C  40.99700 46.25400 31.82300
O  42.12500 45.95800 32.28000
O  40.13600 47.16400 32.48400
C  40.52400 47.85700 33.71000
H  42.74400 39.06200 31.19500
H  43.27200 39.05300 24.84800
H  41.15200 44.92200 24.52600
H  41.51600 43.30700 32.90400
H  40.96500 40.41000 32.54100
H  42.55500 40.43700 34.02700
H  43.00600 42.05200 33.70100
H  43.75700 40.75100 32.67500
H  39.04600 41.66600 33.14100
H  38.87700 42.71200 31.82300
H  38.03800 44.28400 33.29900
H  39.69900 44.51100 33.82800
H  43.20200 37.03400 30.89500
H  44.59300 36.63400 29.85000
H  42.96100 35.99700 29.49800
H  42.48800 35.14700 27.55300
H  44.34100 35.34500 27.84900
H  43.69000 34.60900 26.38100
H  41.96500 40.53100 23.21100
H  42.74300 43.29000 23.04000
H  43.95500 40.13700 22.56900
H  44.79900 40.83500 23.88600
H  44.50000 41.80400 22.40000
H  40.82300 42.12700 21.75700
H  40.35000 43.63000 22.46400
H  38.67200 42.48400 23.43100
H  39.82100 41.47500 24.33200
H  39.36900 40.96600 22.69900
H  39.32500 47.67800 26.51200
H  39.99700 46.76900 25.13400
H  41.01400 47.86300 26.07500
H  39.24700 45.30400 31.31400
H  39.75800 48.54300 34.06900
H  41.27700 48.56500 33.36400
H  40.67200 47.24600 34.60000
Mg 6.67600 58.02400 41.24000
C  5.50900 54.62200 41.09100
C  9.67700 57.00400 40.44100
C  7.38700 61.18500 40.73400
C  3.29900 58.91100 41.86900
N  7.48600 56.00800 40.56300
C  6.83000 54.76000 40.70100
C  7.95100 53.64100 40.37700
C  9.36100 54.50100 40.64000
C  8.85400 55.92200 40.56600
C  10.11200 54.27200 41.93000
C  7.83900 53.14400 38.92200
C  8.42600 51.77400 38.60400
H  7.71000 50.83700 37.69900
N  8.26700 58.97000 40.61200
C  9.49300 58.35700 40.45000
C  10.46800 59.40500 40.09300
C  9.89800 60.66300 40.09000
C  8.46200 60.29100 40.42100
C  11.91200 59.04300 39.81100
C  10.57100 62.03900 39.75900
O  11.76200 62.06200 39.44800
C  9.85000 63.36200 39.88600
N  5.50200 59.77500 41.41600
C  6.16500 60.94400 41.21200
C  5.21900 62.08300 41.52300
C  3.82300 61.39700 41.41600
C  4.17500 59.93600 41.65100
C  5.41900 62.76100 42.87200
C  3.05200 61.68600 40.16300
C  1.55800 61.70800 40.36200
N  4.86800 57.06000 41.50000
C  3.56500 57.53200 41.78700
C  2.59200 56.35500 41.96100
C  3.35600 55.20600 41.83000
C  4.62900 55.68900 41.38900
C  1.19300 56.45900 42.42700
C  3.42400 53.79800 41.93700
O  2.47600 53.00100 42.13800
C  4.87000 53.29800 41.47500
C  4.73300 52.25200 40.43400
O  4.47000 52.48900 39.25500
O  4.88000 50.95800 41.00200
C  4.79400 49.86500 40.02900
H  10.75300 56.81900 40.41100
H  7.69400 62.23300 40.70900
H  2.28000 59.30400 41.88400
H  7.79300 52.79600 41.04700
H  10.03700 54.24600 39.82400
H  11.17700 54.31600 41.70100
H  9.79600 53.38700 42.48300
H  9.85700 55.06600 42.63100
H  8.30200 53.97300 38.38800
H  6.79800 53.20900 38.60400
H  8.52700 51.32600 39.59200
H  9.45900 51.86900 38.26800
H  11.90100 58.04200 39.38000
H  12.73500 59.13300 40.52000
H  12.23400 59.65300 38.96700
H  8.96300 63.34700 39.25200
H  10.38900 64.18700 39.42100
H  9.60900 63.61000 40.92000
H  5.34700 62.84400 40.75400
H  3.11600 61.55600 42.23000
H  4.81800 63.65400 43.04400
H  6.48600 62.91300 43.03500
H  5.33300 62.02900 43.67500
H  3.35600 61.15700 39.26000
H  3.29500 62.72500 39.94100
H  0.97500 61.59700 39.44800
H  1.26900 62.68000 40.76100
H  1.23800 60.92700 41.05200
H  1.12800 56.14700 43.46900
H  0.42600 56.03500 41.78000
H  1.00100 57.53100 42.37900
H  5.44400 52.88900 42.30600
H  3.87600 49.33500 40.28200
H  5.61000 49.14600 40.09700
H  4.66700 50.27100 39.02500

