158

Mg 26.43800 50.28900 27.14500
C  24.27700 51.27500 29.68200
C  28.53700 49.02400 29.48800
C  28.31600 49.13400 24.68200
C  24.23400 51.76600 24.85800
N  26.37100 50.12800 29.32400
C  25.37000 50.58000 30.19700
C  25.69500 50.26400 31.63600
C  27.13500 49.66600 31.52400
C  27.38400 49.58800 30.03200
C  28.21200 50.42000 32.41700
C  24.67100 49.33500 32.40700
C  24.08200 49.83800 33.73300
H  24.22400 48.82200 34.90600
N  28.19200 49.12400 27.11200
C  28.94700 48.73200 28.18400
C  30.16900 48.10800 27.69300
C  30.06000 48.18900 26.26700
C  28.77300 48.81100 25.98700
C  31.31100 47.51200 28.52400
C  31.10200 47.73300 25.23100
O  30.95200 47.88700 24.00500
C  32.34800 46.97500 25.66000
N  26.34400 50.56600 25.06700
C  27.24600 49.86400 24.25200
C  26.92200 50.15600 22.77100
C  25.45100 50.72000 22.86000
C  25.29600 51.06300 24.34100
C  28.04300 51.11300 22.11800
C  24.32400 49.80800 22.29000
C  23.56200 48.88400 23.25300
N  24.72700 51.43800 27.21300
C  23.86000 51.87500 26.21300
C  22.73700 52.48300 26.77300
C  22.85400 52.19800 28.13200
C  24.07200 51.64100 28.38100
C  21.64000 53.15700 26.06600
C  22.21200 52.36500 29.38000
O  21.07800 52.77600 29.59600
C  23.08600 51.83600 30.48300
C  23.47600 52.90400 31.44900
O  24.27200 53.72800 31.10000
O  22.73700 52.79800 32.58400
C  22.67900 53.94700 33.56200
H  29.22800 48.69400 30.26700
H  28.86100 48.65800 23.86400
H  23.52200 52.15100 24.12400
H  25.74700 51.19000 32.21000
H  27.17500 48.63900 31.88700
H  28.88900 49.76600 32.96600
H  27.79900 50.98200 33.25500
H  28.64600 51.16500 31.75000
H  25.13500 48.37300 32.62500
H  23.96400 48.98400 31.65500
H  23.01100 50.02600 33.65900
H  24.51500 50.81100 33.96400
H  31.18000 46.43500 28.62300
H  31.23300 47.92800 29.52900
H  32.28800 47.81400 28.14700
H  32.78600 46.80300 24.67700
H  32.18000 45.98200 26.07700
H  33.04400 47.41800 26.37200
H  26.95300 49.18700 22.27300
H  25.44400 51.62900 22.25900
H  28.77200 51.44500 22.85800
H  27.65500 52.03800 21.69000
H  28.53100 50.56200 21.31400
H  24.80600 49.16500 21.55400
H  23.61500 50.47000 21.79300
H  24.26800 48.57000 24.02200
H  23.11000 48.08900 22.66000
H  22.67300 49.38900 23.63200
H  21.98100 54.05800 25.55400
H  20.76000 53.48700 26.61900
H  21.19500 52.46600 25.35000
H  22.49100 51.06900 30.97700
H  22.90900 54.89300 33.07400
H  23.41300 53.64700 34.31000
H  21.70000 53.95500 34.04200
Mg 6.85100 53.21300 42.02900
C  6.25200 49.66000 41.54500
C  10.06000 52.62000 40.71200
C  7.36100 56.48200 41.81500
C  3.47300 53.51800 42.48500
N  7.94700 51.28100 41.02400
C  7.56800 49.96000 41.17500
C  8.78200 49.11200 40.73200
C  9.92500 50.04800 40.62500
C  9.33600 51.42000 40.91000
C  11.13400 49.76500 41.56500
C  8.67900 48.09200 39.60100
C  8.67100 48.65300 38.21200
H  7.35100 48.49800 37.54100
N  8.54400 54.35000 41.47000
C  9.76600 53.96800 40.98000
C  10.65400 55.16000 40.88000
C  9.87500 56.23100 41.34600
C  8.49500 55.71900 41.49900
C  12.11700 55.02300 40.51100
C  10.40300 57.59500 41.60000
O  11.55500 57.83200 41.46100
C  9.62100 58.78100 42.08100
N  5.59000 54.74100 42.04300
C  6.09000 56.01000 42.12600
C  5.04000 56.94400 42.61600
C  3.75200 56.00600 42.63200
C  4.29000 54.65600 42.43000
C  5.21300 57.80300 43.94200
C  2.65400 56.41900 41.63100
C  2.47800 55.58700 40.34600
N  5.17000 51.90200 42.11100
C  3.89800 52.20300 42.39200
C  3.07300 51.08200 42.48600
C  3.99000 50.03800 42.25700
C  5.23000 50.61800 41.98100
C  1.57800 51.01000 42.80800
C  4.15300 48.61900 42.22200
O  3.29900 47.80200 42.60100
C  5.60500 48.22900 41.76100
C  5.23100 47.57500 40.43800
O  4.62200 48.07500 39.48000
O  5.66200 46.26700 40.37900
C  5.14900 45.24400 39.42100
H  11.08100 52.44700 40.36700
H  7.64600 57.51800 42.01100
H  2.45000 53.72100 42.80800
H  8.80800 48.59600 41.69200
H  10.37000 50.01100 39.63100
H  10.65200 49.28200 42.41500
H  11.49800 50.72100 41.94000
H  11.97100 49.29100 41.05300
H  7.76000 47.51100 39.68000
H  9.60100 47.55000 39.81200
H  9.26100 47.98500 37.58400
H  8.78800 49.73500 38.15000
H  12.65800 54.94300 41.45400
H  12.36000 55.94400 39.98200
H  12.42600 54.24700 39.81000
H  8.98000 59.12500 41.26900
H  10.32500 59.58500 42.29200
H  9.10600 58.49700 42.99900
H  5.02000 57.67600 41.80800
H  3.19000 56.17200 43.55100
H  6.23200 58.00700 44.27000
H  4.54300 57.39200 44.69600
H  4.88800 58.83900 43.84000
H  2.78200 57.45700 41.32600
H  1.78300 56.28700 42.27300
H  3.44500 55.17700 40.05700
H  2.12000 56.18300 39.50600
H  1.79200 54.75500 40.50500
H  1.17300 50.81300 41.81600
H  1.24500 51.97200 43.20000
H  1.29400 50.17300 43.44500
H  6.08700 47.45500 42.35800
H  4.95300 45.62500 38.41900
H  4.25500 44.82900 39.88600
H  5.89000 44.44600 39.37700

