158

Mg 35.80700 1.72600 29.71500
C  33.49300 2.70100 32.17700
C  38.12600 1.52800 32.36300
C  38.11400 1.12200 27.47800
C  33.37800 2.25900 27.23300
N  35.81500 2.19400 32.01800
C  34.70800 2.50500 32.78900
C  35.01400 2.48900 34.27100
C  36.60400 2.39700 34.25700
C  36.90400 1.96700 32.77700
C  37.32600 3.59200 34.70800
C  34.36200 1.22200 34.88500
C  33.78100 1.48300 36.34000
H  34.41900 2.52900 37.23300
N  37.86100 1.27800 29.85400
C  38.57300 1.12500 31.04700
C  39.91800 0.63300 30.68100
C  39.97300 0.62100 29.24900
C  38.66100 1.04200 28.81400
C  40.89700 0.08300 31.76700
C  41.21000 0.34200 28.36700
O  41.14600 0.39500 27.10000
C  42.45900 -0.10800 29.02000
N  35.72700 1.77000 27.65900
C  36.83300 1.34600 26.98000
C  36.57200 1.30100 25.51200
C  35.00200 1.43900 25.42300
C  34.69300 1.89200 26.81400
C  37.37400 2.29800 24.63700
C  34.13800 0.20500 25.00400
C  33.16500 0.38700 23.77000
N  33.77600 2.36000 29.61100
C  32.91200 2.53000 28.56800
C  31.64900 2.99800 29.07500
C  31.79200 3.03600 30.50800
C  33.14300 2.60200 30.77900
C  30.49000 3.29900 28.17900
C  31.11700 3.28300 31.73900
O  29.98600 3.61200 32.02300
C  32.24200 3.04500 32.91300
C  32.21700 4.30500 33.77200
O  32.66700 5.37900 33.46200
O  31.65600 4.08700 35.01000
C  31.46700 5.24600 35.91900
H  38.83300 1.60600 33.19200
H  38.91700 0.79900 26.81300
H  32.69500 2.24100 26.38000
H  34.71200 3.40900 34.77000
H  36.98100 1.53600 34.81000
H  36.70300 4.44500 34.97900
H  37.98500 3.85800 33.88200
H  37.93000 3.32500 35.57500
H  35.08100 0.40300 34.90000
H  33.45200 0.98200 34.33600
H  33.78300 0.46800 36.73800
H  32.70900 1.67200 36.29900
H  41.61500 0.88800 31.92000
H  41.42600 -0.80800 31.42800
H  40.32100 -0.09100 32.67500
H  42.65900 0.46100 29.92800
H  43.25600 0.16900 28.33000
H  42.34500 -1.16700 29.25100
H  36.81000 0.30500 25.14000
H  34.79200 2.22400 24.69700
H  37.79100 3.12500 25.21200
H  36.65800 2.64100 23.89000
H  38.12400 1.65500 24.17600
H  33.44000 -0.00400 25.81500
H  34.82900 -0.62700 24.86900
H  33.28200 1.39100 23.36100
H  32.16400 0.12800 24.11500
H  33.43600 -0.24000 22.92100
H  30.95000 3.71400 27.28200
H  29.78300 3.96800 28.66900
H  29.96900 2.36600 27.96800
H  31.91200 2.23400 33.56200
H  31.44500 6.19100 35.37600
H  32.25700 5.32000 36.66600
H  30.53500 5.10500 36.46600
Mg -10.45800 16.80800 41.44600
C  -7.00200 16.88000 41.56000
C  -10.49300 20.25800 40.85400
C  -13.87300 16.74300 40.86500
C  -10.38000 13.35100 41.57300
N  -8.87400 18.32900 41.00500
C  -7.50700 18.20200 41.15700
C  -6.81500 19.56900 40.94700
C  -7.97000 20.51700 41.35500
C  -9.22300 19.67300 41.02100
C  -8.05800 20.95100 42.85200
C  -6.18200 19.95000 39.58000
C  -4.80900 19.31700 39.25000
H  -4.71500 18.29200 38.15800
N  -11.99500 18.29900 40.84300
C  -11.76900 19.61800 40.79100
C  -13.02100 20.27600 40.51100
C  -14.01200 19.34000 40.72700
C  -13.33900 18.05900 40.80400
C  -13.08700 21.75700 40.14000
C  -15.41600 19.51900 40.72400
O  -15.84200 20.63900 40.70300
C  -16.45500 18.45700 40.91500
N  -11.83600 15.28200 41.09200
C  -13.15700 15.51000 40.91900
C  -13.98800 14.14600 40.96200
C  -12.93400 13.14100 41.37100
C  -11.63400 13.93400 41.25200
C  -15.42000 14.01000 41.58900
C  -13.02800 11.77700 40.57400
C  -13.25900 10.43500 41.27200
N  -9.02400 15.38400 41.68100
C  -9.10500 14.01900 41.60700
C  -7.81700 13.43100 42.05000
C  -6.94200 14.51200 41.91700
C  -7.74100 15.67800 41.69800
C  -7.50800 11.99200 42.16000
C  -5.50200 14.94800 42.02400
O  -4.48200 14.29700 42.36600
C  -5.49800 16.46700 41.78900
C  -4.88500 17.10200 43.00000
O  -3.66400 17.30700 43.19700
O  -5.84800 17.51300 43.88500
C  -5.61000 18.10800 45.20700
H  -10.40900 21.34600 40.88600
H  -14.92500 16.69400 40.57600
H  -10.40300 12.26300 41.67300
H  -6.01800 19.70300 41.67800
H  -7.86800 21.37100 40.68400
H  -8.38300 21.97400 42.66400
H  -7.04800 20.95800 43.26100
H  -8.69500 20.22000 43.35000
H  -6.19400 21.03600 39.48600
H  -6.94200 19.75300 38.82300
H  -4.43200 18.94300 40.20200
H  -4.06900 20.08200 39.01700
H  -12.49500 22.36100 40.82700
H  -14.10700 22.13500 40.07400
H  -12.80100 21.90300 39.09900
H  -17.35900 18.89800 41.33500
H  -16.10400 17.85400 41.75300
H  -16.58700 17.95300 39.95800
H  -14.15900 13.98100 39.89800
H  -13.02000 12.79300 42.40000
H  -15.50800 13.00300 41.99500
H  -16.22100 14.16800 40.86700
H  -15.59200 14.74900 42.37200
H  -12.16300 11.65400 39.92200
H  -13.80900 11.92800 39.82800
H  -14.28400 10.29600 41.61800
H  -12.79800 10.48500 42.25800
H  -12.94800 9.50000 40.80700
H  -6.48700 11.86500 42.52100
H  -7.55800 11.69100 41.11300
H  -8.21600 11.43500 42.77300
H  -4.91200 16.68900 40.89700
H  -4.62600 17.76500 45.52600
H  -6.37500 17.89800 45.95400
H  -5.42100 19.17800 45.12400

