158

Mg -2.96400 16.50400 26.85700
C  -3.47400 14.65100 29.83100
C  -3.78800 19.26200 28.64700
C  -3.25500 18.10000 23.93500
C  -2.93900 13.45300 25.12100
N  -3.55100 16.87100 29.16100
C  -3.63500 15.99900 30.17400
C  -4.03300 16.66500 31.49200
C  -4.18000 18.14700 31.04300
C  -3.86600 18.10300 29.49500
C  -5.48400 18.88100 31.34400
C  -3.14300 16.53700 32.75500
C  -3.87300 16.33500 34.01700
H  -2.96900 16.22000 35.29100
N  -3.33700 18.42200 26.39800
C  -3.53300 19.42300 27.25400
C  -3.58100 20.68300 26.50400
C  -3.28600 20.40300 25.12100
C  -3.33100 18.88900 25.07600
C  -3.68900 22.05500 27.20900
C  -3.16400 21.34100 23.94100
O  -3.14000 21.03200 22.74300
C  -3.21500 22.82600 24.21700
N  -3.07600 15.82400 24.86500
C  -3.21600 16.73400 23.75500
C  -3.11800 15.98400 22.42700
C  -2.60700 14.61500 22.89100
C  -2.86100 14.58600 24.40400
C  -4.34300 15.91900 21.49900
C  -1.11000 14.32800 22.63200
C  -0.05600 15.26200 23.17700
N  -3.17800 14.49200 27.33300
C  -3.25100 13.40700 26.47400
C  -3.60000 12.16800 27.30900
C  -3.60400 12.62500 28.65500
C  -3.33700 14.01500 28.57600
C  -3.80700 10.77900 26.77000
C  -3.82100 12.23400 30.03500
O  -4.19000 11.20200 30.53600
C  -3.76600 13.54500 30.89200
C  -2.72800 13.48000 31.83700
O  -1.58700 13.73800 31.61000
O  -3.19100 12.88800 33.01500
C  -2.22300 12.65400 34.07200
H  -3.88000 20.16200 29.25800
H  -2.95700 18.62200 23.02400
H  -2.75600 12.59700 24.46900
H  -5.00800 16.29400 31.80700
H  -3.39900 18.76400 31.48700
H  -5.91200 19.43700 30.50900
H  -5.14900 19.67100 32.01600
H  -6.10100 18.06800 31.72400
H  -2.62100 17.47000 32.97000
H  -2.37900 15.77000 32.62700
H  -4.28300 15.34300 33.82700
H  -4.74700 16.94900 34.23600
H  -2.71500 22.53700 27.29000
H  -3.96800 22.06400 28.26300
H  -4.55700 22.60500 26.84600
H  -2.51400 22.99300 25.03500
H  -4.13500 23.30500 24.55000
H  -2.70300 23.41700 23.45700
H  -2.32600 16.44000 21.83300
H  -3.17000 13.79000 22.45300
H  -4.94100 16.80700 21.70500
H  -4.93000 15.00400 21.56900
H  -3.94000 16.10200 20.50300
H  -1.04500 14.31800 21.54400
H  -0.77700 13.29700 22.75400
H  0.15500 16.07600 22.48300
H  0.90400 14.75400 23.07800
H  -0.24000 15.72800 24.14400
H  -2.83400 10.34600 26.53900
H  -4.43900 10.73200 25.88300
H  -4.24100 10.28500 27.63900
H  -4.65600 13.75400 31.48600
H  -1.56700 13.52100 34.14400
H  -1.66100 11.75800 33.80500
H  -2.67100 12.70500 35.06400
Mg 1.68500 41.63400 25.66100
C  2.59300 42.02600 29.14400
C  -1.52900 40.68100 26.78400
C  1.04600 40.59300 22.54800
C  5.02300 42.27200 24.89600
N  0.71300 41.44700 27.70200
C  1.23800 41.75500 28.95900
C  0.23100 41.51300 30.10800
C  -1.12000 41.09200 29.28300
C  -0.65300 41.05300 27.80200
C  -1.75700 39.72200 29.75000
C  0.03900 42.71900 31.06600
C  0.27600 42.39800 32.56700
H  -0.13100 40.96300 33.02000
N  -0.02500 40.80500 24.84200
C  -1.26300 40.47800 25.39300
C  -2.14800 40.01700 24.36500
C  -1.47000 40.15800 23.16900
C  -0.07100 40.52900 23.48000
C  -3.60100 39.69400 24.65900
C  -2.07200 40.09700 21.73000
O  -1.43300 40.23100 20.72400
C  -3.53400 39.75800 21.50600
N  2.88800 41.38800 24.04300
C  2.35200 40.97800 22.82900
C  3.39100 40.88000 21.66000
C  4.58500 41.63700 22.32700
C  4.18200 41.78000 23.87300
C  3.54900 39.48200 21.15700
C  4.78700 43.06300 21.76400
C  5.40900 43.18000 20.30900
N  3.51900 42.20600 26.76500
C  4.79800 42.40900 26.28600
C  5.61900 42.79200 27.39000
C  4.86100 42.56600 28.54200
C  3.57300 42.26100 28.11900
C  7.11800 42.99600 27.35200
C  4.87400 42.55700 29.98500
O  5.81400 42.76700 30.71300
C  3.34400 42.11300 30.45200
C  3.67600 40.81400 31.25100
O  3.58400 39.68400 30.88900
O  4.13000 41.17800 32.52800
C  4.56900 39.93700 33.31100
H  -2.56500 40.43900 27.03100
H  1.02200 40.25800 21.50900
H  6.00600 42.52400 24.49400
H  0.65000 40.68700 30.68200
H  -1.80000 41.93100 29.43100
H  -1.24300 39.29600 30.61100
H  -1.56700 38.91700 29.04000
H  -2.83700 39.74800 29.89600
H  -0.97800 43.10000 30.96700
H  0.61700 43.56700 30.69700
H  -0.41500 43.10100 33.03300
H  1.29500 42.57100 32.91300
H  -4.24200 40.56500 24.51800
H  -3.75000 39.32600 25.67400
H  -3.94100 38.96400 23.92500
H  -3.86900 39.93200 20.48300
H  -4.09700 40.41700 22.16600
H  -3.68300 38.69300 21.68800
H  3.07800 41.53100 20.84400
H  5.56000 41.14800 22.33500
H  2.78700 39.30100 20.40000
H  3.47200 38.75600 21.96600
H  4.55800 39.27200 20.80200
H  5.30300 43.70500 22.47900
H  3.81300 43.53600 21.64100
H  5.23500 42.28000 19.71800
H  6.46600 43.44300 20.35500
H  4.82600 43.99700 19.88300
H  7.43300 43.48900 26.43200
H  7.58900 42.01800 27.45200
H  7.40300 43.51600 28.26600
H  2.94400 42.78600 31.21100
H  5.54400 40.25000 33.68600
H  4.88400 39.07100 32.73000
H  4.00100 39.71600 34.21500

