158

Mg 16.18500 -1.33300 28.51100
C  15.06700 0.64300 31.11000
C  18.32300 -3.00800 30.65800
C  17.55100 -2.94000 25.80600
C  14.36100 0.74800 26.39300
N  16.82700 -0.96300 30.65600
C  16.01900 -0.30400 31.55800
C  16.55500 -0.59000 32.95600
C  17.57700 -1.77600 32.71900
C  17.59100 -1.96800 31.25800
C  18.99000 -1.63500 33.40600
C  15.35600 -1.01500 33.93000
C  15.75500 -1.13900 35.39600
H  16.94800 -0.41800 35.95900
N  17.80200 -2.79900 28.21000
C  18.45300 -3.38300 29.29000
C  19.27700 -4.40600 28.75200
C  19.09300 -4.50600 27.33100
C  18.12900 -3.44000 27.00900
C  20.18400 -5.23400 29.70000
C  19.81700 -5.45300 26.35100
O  19.53500 -5.56300 25.09100
C  20.94200 -6.33300 26.83800
N  15.91000 -1.25200 26.38000
C  16.72800 -1.89100 25.50400
C  16.60300 -1.29600 24.08200
C  15.39200 -0.29600 24.30700
C  15.21100 -0.22300 25.79900
C  17.90800 -0.76500 23.44200
C  14.09200 -0.52400 23.53700
C  12.83700 -1.11600 24.23900
N  14.98800 0.33200 28.61000
C  14.14200 0.99900 27.73100
C  13.35100 2.02000 28.31900
C  13.66200 1.89900 29.68800
C  14.70700 0.92300 29.78100
C  12.47700 2.96200 27.65800
C  13.40900 2.49500 30.94900
O  12.63800 3.39400 31.29800
C  14.24300 1.67400 31.98100
C  15.16900 2.55600 32.74400
O  16.17200 3.08300 32.28100
O  14.68800 2.80200 33.99200
C  15.42700 3.80800 34.72000
H  18.79100 -3.61400 31.43600
H  18.02100 -3.54600 25.02800
H  13.75900 1.36700 25.72500
H  17.15300 0.20100 33.41000
H  17.30000 -2.77600 33.05100
H  19.73900 -1.74100 32.62100
H  19.15300 -2.37800 34.18700
H  19.02000 -0.71000 33.98200
H  15.11400 -2.06000 33.73900
H  14.56600 -0.27600 33.79400
H  15.95000 -2.19400 35.59000
H  14.84000 -0.84600 35.91100
H  21.26300 -5.22700 29.54600
H  19.81000 -6.22100 29.42800
H  19.97400 -5.20600 30.76900
H  21.29700 -7.02300 26.07200
H  20.48200 -7.01500 27.55300
H  21.77900 -5.77300 27.25400
H  16.26200 -2.17900 23.54100
H  15.71300 0.72700 24.11000
H  18.74200 -1.12900 24.04200
H  17.71800 0.30800 23.41100
H  17.90700 -1.10000 22.40500
H  14.39800 -1.29800 22.83300
H  13.69700 0.35100 23.02100
H  12.14900 -0.37500 24.64800
H  13.08000 -1.68100 25.13800
H  12.25800 -1.74000 23.55700
H  12.82500 3.16500 26.64500
H  12.55600 3.91500 28.18100
H  11.47100 2.55400 27.75900
H  13.59100 1.09800 32.63700
H  16.48700 3.55900 34.69000
H  14.92500 4.01800 35.66400
H  15.31100 4.72200 34.13700
Mg 0.53500 41.99700 25.39100
C  1.81600 41.89500 28.75500
C  -2.39400 40.95700 26.51200
C  -0.26100 41.22800 22.27200
C  3.80500 42.87700 24.34900
N  -0.20600 41.57500 27.38900
C  0.41200 41.60400 28.58900
C  -0.52300 41.34200 29.75900
C  -1.79100 40.77100 29.09500
C  -1.44900 41.11900 27.55600
C  -2.05800 39.26700 29.39600
C  -0.69900 42.79200 30.35700
C  -0.99800 42.72300 31.95100
H  -1.66300 41.51000 32.69300
N  -1.18600 41.38900 24.43500
C  -2.33900 41.09900 25.09500
C  -3.37800 40.88000 24.13000
C  -2.73600 40.90000 22.81500
C  -1.33700 41.16500 23.15200
C  -4.84500 40.67800 24.41700
C  -3.37100 40.75200 21.42300
O  -2.72400 40.97600 20.40400
C  -4.86000 40.56100 21.38500
N  1.60100 42.00700 23.64800
C  1.06600 41.61600 22.43300
C  2.09500 41.69100 21.37900
C  3.10700 42.67500 21.95900
C  2.86800 42.47000 23.43100
C  2.63200 40.33500 20.74200
C  3.09200 44.19700 21.55400
C  3.98200 44.59300 20.34500
N  2.47100 42.21600 26.32400
C  3.65300 42.67600 25.73800
C  4.67700 42.96600 26.78400
C  4.02700 42.63900 28.06500
C  2.67500 42.16800 27.67400
C  6.05400 43.45500 26.53500
C  4.09500 42.47700 29.48100
O  4.99900 42.59700 30.24400
C  2.70200 42.06000 29.92600
C  2.73000 40.77100 30.68800
O  2.90100 39.62400 30.30900
O  2.28800 41.08600 31.97200
C  1.81200 39.97400 32.77400
H  -3.39100 40.58500 26.75700
H  -0.42100 40.87500 21.25100
H  4.78200 43.17800 23.96600
H  0.08600 40.70500 30.40100
H  -2.70100 41.28900 29.39500
H  -2.41400 39.22000 30.42500
H  -1.22400 38.62400 29.11500
H  -2.83800 38.86600 28.74700
H  -1.57500 43.14800 29.81400
H  0.18900 43.36300 30.08800
H  -1.52000 43.65000 32.18600
H  0.02900 42.92100 32.25700
H  -5.37700 41.53700 24.00600
H  -5.00800 40.77300 25.49100
H  -5.26200 39.73100 24.07600
H  -5.27400 40.29600 20.41200
H  -5.32800 41.48000 21.73600
H  -4.96800 39.67100 22.00500
H  1.70900 42.24700 20.52500
H  4.05100 42.21500 21.66900
H  1.89000 39.53700 20.78600
H  3.50500 39.96100 21.27700
H  2.83400 40.54300 19.69200
H  3.42700 44.85500 22.35600
H  2.08600 44.52700 21.29300
H  3.33900 44.95100 19.54100
H  4.51700 43.74300 19.92000
H  4.74500 45.33500 20.58000
H  6.09600 44.17700 25.72000
H  6.73900 42.67100 26.21500
H  6.34500 43.94000 27.46700
H  2.35200 42.86800 30.56900
H  1.51600 40.56200 33.64300
H  2.62300 39.25900 32.91600
H  0.91000 39.51800 32.36500

