158

Mg 40.72800 8.28100 29.34000
C  42.53700 9.85600 32.25100
C  38.88700 6.76700 31.76400
C  39.37500 6.77100 26.94200
C  43.50700 9.38300 27.46800
N  40.83900 8.12800 31.78500
C  41.48500 8.97000 32.75800
C  40.93800 8.81600 34.21700
C  39.88200 7.69400 33.97100
C  39.88800 7.46800 32.42200
C  40.11300 6.47700 34.84700
C  40.31500 10.12600 34.57900
C  40.90000 10.97800 35.78600
H  41.39300 10.29300 37.10800
N  39.25900 7.00100 29.34700
C  38.57400 6.54200 30.39000
C  37.39700 5.89700 29.91500
C  37.46800 5.87100 28.50300
C  38.79500 6.54000 28.21600
C  36.39900 5.18100 30.82600
C  36.39300 5.40000 27.47700
O  36.73700 5.21700 26.31600
C  34.96800 5.13300 27.93500
N  41.57700 7.91600 27.52300
C  40.67300 7.29200 26.63500
C  41.22100 7.29200 25.14700
C  42.39600 8.28200 25.26600
C  42.55000 8.53800 26.84900
C  41.68400 5.88800 24.67600
C  42.19000 9.63000 24.47500
C  40.99100 10.46200 24.97000
N  42.63300 9.38300 29.72200
C  43.57500 9.77400 28.82700
C  44.54800 10.59200 29.43800
C  44.12100 10.71700 30.77000
C  42.96900 9.94100 30.90200
C  45.72400 11.26100 28.66300
C  44.59300 11.16900 32.08800
O  45.55200 11.81900 32.54900
C  43.55400 10.66900 33.02800
C  44.27000 9.82000 34.06000
O  44.34500 8.60200 33.97000
O  44.78400 10.59100 35.13500
C  45.41400 9.94300 36.28000
H  38.19000 6.43500 32.53700
H  38.84300 6.36900 26.07700
H  44.19300 9.91600 26.80600
H  41.73000 8.61800 34.93900
H  38.86100 7.97600 34.22600
H  39.19400 6.00700 35.19800
H  40.54800 6.80300 35.79200
H  40.77800 5.74800 34.38400
H  39.27400 9.93600 34.84000
H  40.39000 10.88200 33.79700
H  40.12700 11.65800 36.14200
H  41.71100 11.56600 35.35600
H  36.67200 5.40100 31.85800
H  36.47900 4.10800 30.65500
H  35.37600 5.55200 30.76500
H  34.50300 6.04900 28.29700
H  35.09400 4.43900 28.76600
H  34.42100 4.76300 27.06900
H  40.37200 7.61300 24.54400
H  43.31100 7.83900 24.87300
H  41.25000 5.67900 23.69800
H  41.11600 5.26300 25.36400
H  42.73400 5.62100 24.56100
H  41.83400 9.27400 23.50800
H  43.07800 10.26100 24.42600
H  41.28400 11.40200 25.43900
H  40.49200 10.00600 25.82400
H  40.27200 10.70300 24.18700
H  46.10200 12.16600 29.13900
H  45.26500 11.62300 27.74300
H  46.48800 10.51900 28.43000
H  43.01300 11.45600 33.55400
H  44.83300 9.76900 37.18500
H  46.26500 10.57300 36.53900
H  45.84300 8.97100 36.03700
Mg 34.29500 49.36600 25.46100
C  34.83700 47.76000 28.53300
C  32.56400 51.86800 27.19500
C  33.76300 50.93100 22.48400
C  35.86700 46.62600 23.84600
N  33.72700 49.73100 27.58700
C  34.11200 48.95900 28.69400
C  33.72300 49.67400 29.98300
C  32.79400 50.87400 29.53100
C  33.04700 50.82600 28.00300
C  31.33300 50.76700 29.94000
C  34.93000 50.15200 30.85300
C  34.57100 51.19700 31.90100
H  33.29000 50.99800 32.71400
N  33.29500 51.15000 24.89200
C  32.80500 52.09300 25.82000
C  32.24200 53.21300 25.02700
C  32.47400 52.92500 23.66500
C  33.24600 51.65200 23.62900
C  31.54100 54.32600 25.65600
C  31.99600 53.77100 22.50500
O  32.36600 53.51000 21.39400
C  31.15500 54.97200 22.65800
N  34.69300 48.82400 23.42500
C  34.40400 49.69400 22.38800
C  34.89700 49.04400 21.01000
C  35.69300 47.74500 21.51100
C  35.36800 47.66600 22.97500
C  33.78300 48.75000 19.87200
C  37.19900 47.67800 21.11800
C  38.20100 48.56400 21.92900
N  35.18800 47.54500 26.00600
C  35.75200 46.51800 25.19500
C  36.18300 45.48700 26.01800
C  35.83600 45.91200 27.36600
C  35.24100 47.18000 27.29600
C  36.76700 44.20100 25.66400
C  35.77100 45.47000 28.73800
O  36.13100 44.39900 29.25600
C  35.26200 46.72400 29.51600
C  34.18600 46.42600 30.42500
O  32.95300 46.48200 30.20300
O  34.65300 45.81200 31.56700
C  33.71400 45.42300 32.66500
H  32.04600 52.66600 27.73000
H  33.62100 51.36000 21.49000
H  36.39800 45.81400 23.34500
H  33.26100 48.85900 30.54100
H  33.10900 51.83200 29.94500
H  31.09400 49.91200 30.57200
H  30.66500 50.81700 29.08000
H  31.04800 51.62500 30.54900
H  35.79500 50.48000 30.27500
H  35.23500 49.24900 31.38200
H  34.59800 52.20900 31.49900
H  35.41600 51.11200 32.58400
H  32.02100 55.27800 25.42800
H  31.46100 54.30800 26.74300
H  30.48900 54.28400 25.37100
H  31.68300 55.76100 23.19300
H  30.26200 54.82300 23.26500
H  31.03700 55.39800 21.66200
H  35.53200 49.73600 20.45600
H  35.20100 46.86500 21.09700
H  32.88300 48.94600 20.45500
H  33.81600 47.73000 19.49100
H  33.90700 49.51000 19.10100
H  37.39600 48.02100 20.10300
H  37.52000 46.63600 21.10800
H  38.91100 47.88700 22.40400
H  37.54000 49.09000 22.61800
H  38.74700 49.34800 21.40500
H  37.42800 43.79700 26.43000
H  37.33900 44.23600 24.73600
H  35.95500 43.49100 25.50600
H  36.15300 46.90400 30.11800
H  33.60400 44.34200 32.74100
H  32.65800 45.60700 32.46800
H  34.09900 45.88300 33.57600

