158

Mg 16.86000 -2.49500 28.22500
C  16.04900 -0.29800 30.96200
C  18.71700 -4.21100 30.44500
C  18.04600 -4.05900 25.62600
C  15.17100 -0.30800 26.22100
N  17.16400 -2.34000 30.47900
C  16.84600 -1.34500 31.34100
C  17.21200 -1.66000 32.76300
C  18.11700 -2.92300 32.64500
C  17.99500 -3.21200 31.13800
C  19.54300 -2.87900 33.28500
C  15.91900 -1.83600 33.65100
C  15.95800 -1.22800 35.09300
H  17.35700 -0.77500 35.61500
N  18.15900 -4.05100 28.06200
C  18.80900 -4.64300 29.10100
C  19.56200 -5.70700 28.52400
C  19.31100 -5.70600 27.14900
C  18.47200 -4.58400 26.88900
C  20.33000 -6.79100 29.36400
C  19.78400 -6.67900 26.05000
O  19.43200 -6.59300 24.86800
C  20.83700 -7.73800 26.49200
N  16.61000 -2.30500 26.23700
C  17.28600 -2.99400 25.32700
C  17.13500 -2.47500 23.90600
C  16.04900 -1.30300 24.07100
C  15.84100 -1.34300 25.63200
C  18.42800 -2.10800 23.11100
C  14.66800 -1.51300 23.28800
C  13.57000 -2.33700 24.03100
N  15.73800 -0.80800 28.49300
C  15.05300 -0.03200 27.57100
C  14.35500 1.07100 28.18500
C  14.76900 1.03200 29.49600
C  15.58100 -0.12800 29.62800
C  13.47200 2.03100 27.47800
C  14.59300 1.69400 30.70200
O  13.97200 2.71300 30.99000
C  15.39900 0.87100 31.70700
C  16.50300 1.73300 32.30500
O  17.55100 2.01100 31.77800
O  16.02700 2.39200 33.45000
C  16.75600 3.41800 34.15500
H  19.40400 -4.74300 31.10700
H  18.47100 -4.60900 24.78400
H  14.72000 0.41500 25.53900
H  17.78300 -0.80500 33.12600
H  17.66200 -3.77400 33.15100
H  20.28100 -3.34100 32.62900
H  19.49400 -3.56500 34.13000
H  19.84600 -1.88400 33.61100
H  15.77000 -2.90800 33.77900
H  15.03300 -1.48300 33.12300
H  15.73200 -2.01900 35.80800
H  15.23500 -0.41400 35.15700
H  21.38200 -6.52300 29.45700
H  19.97200 -7.74800 28.98600
H  19.87800 -6.84700 30.35500
H  20.37000 -8.56400 27.02800
H  21.57000 -7.27700 27.15300
H  21.25800 -8.14400 25.57200
H  16.70300 -3.23500 23.25500
H  16.47100 -0.31100 23.91100
H  18.36200 -1.09800 22.70700
H  18.79200 -2.83800 22.38700
H  19.21200 -1.99600 23.86000
H  14.77400 -2.11200 22.38400
H  14.28500 -0.52400 23.04000
H  12.95500 -1.61600 24.57000
H  14.09500 -2.99600 24.72200
H  12.97400 -2.81400 23.25300
H  13.03000 1.45800 26.66300
H  14.02000 2.78300 26.91100
H  12.75000 2.55300 28.10600
H  14.71400 0.69900 32.53700
H  17.00300 4.24500 33.49000
H  17.51700 2.95300 34.78200
H  16.12100 3.90600 34.89400
Mg 9.44400 48.22000 25.80300
C  7.02500 48.49400 28.50100
C  11.76800 49.54600 27.97700
C  11.70200 47.76800 23.33400
C  6.80000 47.60300 23.61100
N  9.36700 48.87300 27.96600
C  8.36800 48.72000 28.89400
C  8.87700 48.96700 30.32400
C  10.29400 49.71200 30.00600
C  10.51500 49.34100 28.56900
C  10.36400 51.21400 30.25300
C  9.04900 47.68500 31.19200
C  8.70300 47.89600 32.66000
H  8.66300 46.65900 33.48200
N  11.44800 48.53800 25.67700
C  12.25800 49.08700 26.68600
C  13.58600 49.11300 26.21000
C  13.56000 48.65100 24.84900
C  12.21200 48.22700 24.54000
C  14.82200 49.53100 27.12900
C  14.75000 48.56500 23.94800
O  14.65400 48.23100 22.80200
C  16.17000 49.07600 24.31200
N  9.22500 47.85000 23.77300
C  10.38500 47.63300 22.98900
C  9.91000 47.23800 21.61900
C  8.33200 47.23000 21.59400
C  8.07900 47.55600 23.08500
C  10.42900 48.18400 20.50400
C  7.67600 45.92100 21.17800
C  7.49000 45.95200 19.64600
N  7.34300 48.06900 25.89700
C  6.44200 47.84600 24.91800
C  5.08400 47.83900 25.49100
C  5.26800 48.07300 26.86600
C  6.68400 48.23700 27.10200
C  3.72500 47.68200 24.75100
C  4.60300 48.06200 28.17300
O  3.40100 47.86300 28.44200
C  5.68700 48.49100 29.18400
C  5.52400 47.63800 30.36200
O  5.73200 46.39900 30.47600
O  4.83600 48.41000 31.33300
C  4.45400 47.57600 32.48500
H  12.55800 49.80800 28.68400
H  12.47300 47.41800 22.64400
H  5.96900 47.33800 22.95500
H  8.11500 49.61800 30.75200
H  11.14500 49.29300 30.54300
H  10.54800 51.74000 29.31700
H  11.11500 51.39300 31.02300
H  9.36300 51.51400 30.56200
H  10.09800 47.41600 31.07100
H  8.42800 46.93200 30.70800
H  7.65100 48.17800 32.63700
H  9.35600 48.64800 33.10600
H  15.55000 48.71900 27.12300
H  14.50300 49.51000 28.17100
H  15.42800 50.38900 26.84000
H  16.18800 50.08400 24.72700
H  16.68600 49.08100 23.35300
H  16.65000 48.37600 24.99600
H  10.39700 46.27400 21.47100
H  7.90800 48.09500 21.08300
H  10.91300 47.44000 19.87100
H  11.21400 48.85700 20.84900
H  9.72900 48.82600 19.96800
H  6.77400 45.80400 21.77900
H  8.42500 45.15500 21.37900
H  6.44300 45.80200 19.38500
H  7.98000 45.11700 19.14400
H  7.71200 46.90900 19.17400
H  3.05100 48.33300 25.30800
H  3.40300 46.65900 24.55800
H  3.81200 48.10300 23.75000
H  5.41600 49.51000 29.46200
H  5.21800 47.63800 33.26000
H  4.25600 46.56700 32.12300
H  3.57200 48.01100 32.95300

