158

Mg 17.28600 -0.76100 27.10900
C  15.93800 1.10200 29.82000
C  19.25400 -2.45600 29.21200
C  18.41700 -2.40500 24.43300
C  15.44200 1.37000 24.91100
N  17.56800 -0.60600 29.22900
C  16.92600 0.17900 30.15900
C  17.24600 -0.20200 31.56900
C  18.48700 -1.20200 31.37500
C  18.54000 -1.40600 29.83500
C  19.81300 -0.70200 31.98300
C  16.02600 -0.85200 32.28000
C  16.14300 -0.96300 33.85900
H  17.30300 -0.33100 34.57900
N  18.61000 -2.30900 26.85500
C  19.25000 -2.90100 27.88600
C  20.02800 -3.94700 27.37500
C  19.76900 -4.04200 25.96800
C  18.84700 -2.90900 25.68500
C  20.72100 -4.88800 28.28800
C  20.33400 -5.01700 24.90100
O  20.01400 -4.93600 23.76400
C  21.44200 -5.94800 25.32800
N  16.97500 -0.57500 24.92700
C  17.56300 -1.37600 24.09700
C  17.25900 -1.01500 22.60100
C  16.20700 0.18600 22.72300
C  16.15800 0.29500 24.26400
C  18.51200 -0.49300 21.79800
C  14.74300 0.03200 22.14700
C  14.13400 1.27900 21.53400
N  15.92800 0.82500 27.26700
C  15.27700 1.58900 26.26600
C  14.47600 2.61500 26.92600
C  14.69100 2.45500 28.31700
C  15.50900 1.37400 28.46300
C  13.66300 3.74900 26.14700
C  14.28200 2.93900 29.63900
O  13.49500 3.89100 29.97900
C  15.08600 2.05900 30.62700
C  15.89500 2.96900 31.51200
O  16.81200 3.65600 31.08700
O  15.34600 2.94700 32.81100
C  15.90400 3.93300 33.72800
H  19.96600 -2.85700 29.93600
H  18.73800 -2.89400 23.51100
H  14.84900 2.00600 24.25000
H  17.49000 0.76700 32.00400
H  18.15800 -2.15700 31.78400
H  19.80300 0.33600 32.31400
H  20.51200 -0.72200 31.14700
H  20.16200 -1.26900 32.84600
H  15.98800 -1.88000 31.92100
H  15.07200 -0.46300 31.92300
H  16.22200 -2.03100 34.06500
H  15.21800 -0.62400 34.32500
H  20.43500 -5.93000 28.14700
H  20.71900 -4.59300 29.33800
H  21.78500 -4.94500 28.05700
H  21.01600 -6.91900 25.58200
H  22.21100 -5.59000 26.01200
H  21.85600 -6.25900 24.36900
H  16.86000 -1.79800 21.95700
H  16.55800 1.12800 22.30100
H  18.78700 -1.26100 21.07500
H  19.35400 -0.23000 22.43900
H  18.26800 0.36300 21.16800
H  14.06000 -0.17800 22.97000
H  14.67100 -0.77200 21.41400
H  14.98400 1.84000 21.14500
H  13.60900 1.83400 22.31100
H  13.34500 1.10200 20.80200
H  14.22000 4.35300 25.43200
H  13.24900 4.37400 26.93800
H  12.83200 3.21800 25.68100
H  14.43800 1.49300 31.29600
H  16.33500 4.83300 33.28800
H  16.66100 3.47400 34.36400
H  15.13400 4.20800 34.44900
Mg 34.87400 1.95100 29.30000
C  33.00500 3.21400 31.94700
C  37.66500 2.03300 31.50700
C  36.90500 1.41800 26.75300
C  32.30900 2.80700 27.09100
N  35.19800 2.40300 31.52500
C  34.29000 2.89200 32.42100
C  34.90800 3.09100 33.85200
C  36.40600 2.73900 33.61200
C  36.46000 2.36000 32.11300
C  37.40800 3.84500 34.07500
C  34.18800 2.19800 34.92300
C  33.71500 2.78900 36.18600
H  34.59300 3.81900 36.91000
N  36.95300 1.46600 29.20600
C  37.88700 1.58900 30.18400
C  39.06500 1.10400 29.68100
C  38.94400 0.84100 28.31400
C  37.53600 1.26000 28.00900
C  40.27500 1.10900 30.54300
C  39.91300 0.35200 27.32700
O  39.68700 0.20200 26.13900
C  41.37700 0.11400 27.75900
N  34.66500 2.05800 27.20800
C  35.64100 1.77000 26.35100
C  35.19700 2.13300 24.92700
C  33.65900 2.19600 25.03800
C  33.48200 2.33800 26.52100
C  36.01500 3.27300 24.21400
C  32.84900 1.02800 24.36000
C  32.75900 -0.26000 25.24900
N  33.06600 2.93600 29.39300
C  32.12400 3.19400 28.45600
C  30.98600 3.84800 29.04200
C  31.27100 3.85100 30.41300
C  32.60500 3.33800 30.58400
C  29.75500 4.22800 28.36100
C  30.74600 4.13400 31.67900
O  29.67500 4.65400 32.05500
C  31.94300 3.87200 32.70300
C  32.32900 5.14200 33.41900
O  33.10000 5.94900 32.92100
O  31.72200 5.30900 34.63700
C  31.89300 6.69400 35.12200
H  38.48100 2.11800 32.22800
H  37.47300 1.37300 25.82100
H  31.48600 2.96200 26.39100
H  34.88200 4.14500 34.12900
H  36.78500 1.88500 34.17300
H  37.99100 4.18400 33.21800
H  38.01700 3.33300 34.82000
H  36.83000 4.71100 34.39700
H  34.68300 1.26400 35.19100
H  33.22500 1.98100 34.46200
H  33.53600 2.02800 36.94600
H  32.75100 3.26800 36.01400
H  40.42500 2.04300 31.08400
H  41.25400 0.86000 30.13200
H  40.22700 0.30300 31.27500
H  41.29900 -0.76100 28.40400
H  41.70600 1.07700 28.15000
H  41.97900 -0.13300 26.88500
H  35.42400 1.21000 24.39400
H  33.16900 3.07900 24.62700
H  36.53800 2.90000 23.33300
H  36.78200 3.65100 24.89000
H  35.27100 3.98200 23.85200
H  33.32100 0.61300 23.47000
H  31.83300 1.32300 24.09700
H  33.05200 -1.15000 24.69200
H  31.75200 -0.45900 25.61600
H  33.45600 -0.15300 26.08100
H  29.17000 3.32700 28.17800
H  29.94500 4.78400 27.44400
H  29.20900 4.88200 29.04100
H  31.60400 3.13100 33.42700
H  32.05900 7.46100 34.36600
H  32.68300 6.60800 35.86800
H  31.06600 6.92400 35.79400

