158

Mg 30.08400 58.17500 39.25000
C  27.40200 55.91900 38.14800
C  32.21800 55.59700 38.56200
C  32.56100 60.42700 38.97200
C  27.76100 60.81600 38.91900
N  29.77300 55.97600 38.42600
C  28.63900 55.28600 38.20300
C  29.00400 53.77200 38.09800
C  30.51700 53.71300 38.24400
C  30.85800 55.21000 38.47500
C  30.91700 52.76900 39.42900
C  28.48000 53.17900 36.69200
C  29.04600 53.92700 35.42700
H  28.13100 54.82100 34.57200
N  32.12900 58.01200 38.93500
C  32.78300 56.91900 38.64900
C  34.19300 57.20000 38.53000
C  34.35100 58.59700 38.88200
C  32.99800 59.06500 38.91000
C  35.31200 56.19100 38.25400
C  35.61500 59.24900 39.19400
O  36.66300 58.59600 39.23800
C  35.76900 60.70000 39.44100
N  30.20500 60.30900 38.82200
C  31.34400 60.96400 39.05000
C  31.11700 62.44500 39.23100
C  29.55000 62.57400 39.28900
C  29.08900 61.16800 38.96200
C  31.90300 63.26700 40.33400
C  29.03300 63.70700 38.35100
C  28.95400 65.11000 39.13700
N  28.06100 58.34100 38.77600
C  27.23100 59.47300 38.80300
C  25.82500 59.08300 38.72400
C  25.91400 57.75600 38.50400
C  27.24700 57.34600 38.49000
C  24.70100 60.04500 38.81900
C  25.10100 56.52700 38.25700
O  23.88800 56.43900 38.14300
C  26.00800 55.29500 38.04200
C  25.70300 54.16200 39.00800
O  26.09400 54.08900 40.14100
O  24.80600 53.28500 38.49400
C  24.34900 52.22900 39.41000
H  32.78300 54.71200 38.26200
H  33.38200 61.14700 39.00800
H  27.06100 61.65300 38.86400
H  28.43900 53.20900 38.84100
H  30.88500 53.37500 37.27500
H  29.98900 52.30000 39.75600
H  31.54900 53.25100 40.17500
H  31.55000 51.99300 38.99800
H  27.39200 53.23500 36.66700
H  28.78800 52.13400 36.65400
H  29.52100 53.19100 34.77900
H  29.83800 54.59000 35.77500
H  34.79600 55.23700 38.14800
H  35.99500 55.99900 39.08100
H  35.80900 56.45700 37.32100
H  35.26400 61.00000 40.35900
H  35.43700 61.29800 38.59200
H  36.80500 60.97000 39.64500
H  31.43600 62.87600 38.28200
H  29.29700 62.74900 40.33400
H  31.13200 63.71900 40.95600
H  32.55100 63.95500 39.79100
H  32.45100 62.60500 41.00500
H  28.03700 63.48100 37.97000
H  29.80200 63.76500 37.58100
H  29.94700 65.53000 39.29700
H  28.53100 64.85200 40.10700
H  28.42400 65.89800 38.60200
H  23.83700 59.57000 39.28300
H  24.26800 60.34100 37.86400
H  25.06700 60.88200 39.41300
H  25.73600 54.93900 37.04800
H  24.24000 52.59200 40.43200
H  25.15100 51.50000 39.53000
H  23.50700 51.65200 39.02600
Mg -5.66900 25.41700 26.26000
C  -4.44600 26.86700 29.25000
C  -7.65800 23.36800 28.16600
C  -6.43300 23.93900 23.37300
C  -3.42700 27.59800 24.53100
N  -5.90500 25.12000 28.52700
C  -5.41800 25.91200 29.50100
C  -6.04500 25.57400 30.80200
C  -6.88100 24.29800 30.40000
C  -6.82600 24.23500 28.94700
C  -6.43000 22.93700 31.01700
C  -6.85900 26.79300 31.44200
C  -6.79300 27.03900 32.92900
H  -6.27500 25.83200 33.77900
N  -6.88300 23.87600 25.78400
C  -7.68000 23.17500 26.71500
C  -8.51000 22.21600 26.05000
C  -8.06100 22.28800 24.64300
C  -7.12800 23.42300 24.49500
C  -9.45500 21.28900 26.71700
C  -8.40600 21.35000 23.47900
O  -8.08000 21.50000 22.29700
C  -9.35600 20.22300 23.66000
N  -5.05700 25.76100 24.20100
C  -5.52300 24.95000 23.21900
C  -4.80800 25.28300 21.87500
C  -4.13500 26.63200 22.21300
C  -4.25700 26.74800 23.74200
C  -3.88600 24.06300 21.53800
C  -4.84600 27.84700 21.58400
C  -4.49300 28.28800 20.15000
N  -4.20100 27.00500 26.81600
C  -3.36300 27.64200 25.95900
C  -2.47500 28.49900 26.77200
C  -2.89600 28.25200 28.05800
C  -3.93900 27.27900 28.00800
C  -1.45800 29.44900 26.09700
C  -2.70500 28.61800 29.45900
O  -1.99300 29.48000 29.91000
C  -3.66200 27.73500 30.26500
C  -2.88400 26.92300 31.21700
O  -2.44300 25.80400 31.02500
O  -2.63000 27.65000 32.33000
C  -2.00900 26.89000 33.42400
H  -8.40000 22.85700 28.78300
H  -6.73700 23.53400 22.40500
H  -2.83100 28.31500 23.96200
H  -5.22000 25.33500 31.47400
H  -7.90900 24.61000 30.58700
H  -6.66500 22.95000 32.08100
H  -5.34800 22.84200 30.92600
H  -7.02400 22.16600 30.52600
H  -7.91500 26.63000 31.22800
H  -6.58800 27.74100 30.97700
H  -7.76700 27.39800 33.26200
H  -6.18800 27.93200 33.08800
H  -10.40000 21.11600 26.20200
H  -9.53000 21.43100 27.79500
H  -8.92000 20.34300 26.63300
H  -10.39200 20.56000 23.62500
H  -9.05700 19.54600 24.46000
H  -9.29800 19.55400 22.80200
H  -5.48100 25.49400 21.04400
H  -3.10500 26.58900 21.86000
H  -2.84700 24.38600 21.59200
H  -4.10900 23.71800 20.52800
H  -4.00100 23.17200 22.15600
H  -4.63400 28.72400 22.19500
H  -5.90900 27.63200 21.48300
H  -5.27100 28.80800 19.59100
H  -3.95900 27.55800 19.54300
H  -3.77900 29.10800 20.22700
H  -2.07500 30.32200 25.89000
H  -0.92900 29.13400 25.19700
H  -0.76800 29.70600 26.90000
H  -4.35700 28.37600 30.80800
H  -0.92200 26.95800 33.38300
H  -2.32100 25.85200 33.54100
H  -1.97600 27.40500 34.38500

