158

Mg 35.66200 3.13500 30.44800
C  33.17600 3.76700 32.71000
C  38.05600 3.61400 32.85400
C  38.05600 2.54200 28.07400
C  33.28800 3.48700 27.85500
N  35.63600 3.78300 32.47700
C  34.50400 3.73900 33.30900
C  34.83100 3.80600 34.79900
C  36.33600 4.20500 34.73400
C  36.72300 3.83800 33.27300
C  36.61100 5.69700 35.14300
C  34.51200 2.51300 35.55100
C  34.38600 2.58000 37.09200
H  35.13200 3.63200 37.86300
N  37.78300 3.02900 30.47300
C  38.59700 3.25900 31.56100
C  39.97700 3.10700 31.15500
C  39.97800 2.76600 29.77600
C  38.54200 2.77400 29.37800
C  41.15600 3.05300 32.11000
C  41.09700 2.42800 28.77300
O  40.91800 2.26500 27.53100
C  42.47700 2.28300 29.15500
N  35.62000 3.04100 28.26500
C  36.74600 2.60200 27.58100
C  36.36700 2.19000 26.11100
C  34.78600 2.52200 26.00300
C  34.53900 3.12900 27.42800
C  37.33400 2.67900 24.97400
C  33.92400 1.25700 25.79300
C  32.66500 1.38500 24.81400
N  33.57900 3.60700 30.22200
C  32.74400 3.65300 29.15800
C  31.42800 3.88700 29.64500
C  31.53900 3.89200 31.03700
C  32.89500 3.78200 31.31200
C  30.32000 4.13900 28.70100
C  30.83800 4.12700 32.29000
O  29.65500 4.44600 32.50500
C  31.91600 3.99900 33.46700
C  31.99500 5.39000 34.09800
O  32.48300 6.45300 33.58000
O  31.57700 5.16700 35.37600
C  31.92600 6.21400 36.34000
H  38.80000 3.65200 33.65200
H  38.76500 2.41700 27.25300
H  32.57000 3.49900 27.03300
H  34.26000 4.66800 35.14300
H  36.82700 3.51500 35.42000
H  37.37100 5.72200 35.92400
H  35.69400 6.11100 35.56200
H  37.10600 6.34600 34.42200
H  35.33600 1.83600 35.32600
H  33.64800 1.97500 35.16000
H  34.45500 1.62000 37.60500
H  33.33600 2.87300 37.10800
H  41.71800 3.96200 31.89400
H  41.74900 2.15000 31.96700
H  40.74200 3.13600 33.11500
H  43.09800 2.03500 28.29400
H  42.55100 1.55200 29.96000
H  42.69800 3.24100 29.62500
H  36.47300 1.10800 26.19400
H  34.54200 3.21300 25.19600
H  37.88000 3.55600 25.32300
H  36.78600 2.82700 24.04400
H  38.03600 1.85300 24.85500
H  33.54600 0.89600 26.74900
H  34.59900 0.56100 25.29300
H  32.91500 0.77800 23.94400
H  32.28300 2.38000 24.58700
H  31.79200 0.96400 25.31300
H  29.32800 4.22300 29.14400
H  30.21500 3.38400 27.92200
H  30.49100 5.08500 28.18700
H  31.89000 3.13900 34.13600
H  32.07300 7.18300 35.86400
H  32.78500 5.92900 36.94800
H  31.02800 6.28900 36.95300
Mg -10.68700 39.63000 40.55600
C  -9.85500 36.45900 39.58200
C  -7.52300 40.73200 39.81500
C  -11.98500 42.85200 40.42600
C  -14.04800 38.49100 41.09200
N  -9.04700 38.75500 39.43000
C  -8.85800 37.39300 39.28200
C  -7.38100 37.07600 38.81200
C  -6.66800 38.36700 39.41900
C  -7.84800 39.37500 39.57700
C  -5.86600 38.18300 40.69900
C  -7.25800 37.18600 37.24700
C  -7.08500 35.88100 36.44700
H  -8.05500 35.60300 35.32200
N  -9.93400 41.45300 40.23000
C  -8.55200 41.73800 39.98900
C  -8.43100 43.13800 39.97600
C  -9.65100 43.76200 40.12200
C  -10.55300 42.65100 40.36000
C  -7.10300 43.77300 39.68900
C  -9.80800 45.26600 40.08900
O  -8.86300 45.93400 39.71600
C  -11.12700 45.96500 40.24100
N  -12.80900 40.59800 40.67400
C  -13.03300 41.93500 40.62800
C  -14.51500 42.27600 40.80200
C  -15.06700 40.86900 41.29700
C  -13.95400 39.89000 40.95200
C  -14.89600 43.40100 41.76200
C  -16.48700 40.57000 40.72800
C  -17.52500 40.02000 41.74000
N  -11.79100 37.79000 40.47200
C  -13.05000 37.52300 40.81000
C  -13.14600 36.08500 40.82700
C  -11.96600 35.53900 40.31000
C  -11.15800 36.68300 40.09500
C  -14.33600 35.25600 41.23600
C  -11.19900 34.37900 39.90600
O  -11.47900 33.20500 39.83100
C  -9.76000 34.96600 39.40100
C  -8.59400 34.30700 40.01900
O  -8.21600 34.40100 41.19000
O  -7.90800 33.68000 39.00100
C  -6.62800 32.88200 39.20200
H  -6.49000 41.07200 39.71400
H  -12.37600 43.83100 40.14200
H  -15.00100 38.11900 41.47400
H  -6.92700 36.20400 39.28300
H  -5.89900 38.73300 38.73800
H  -6.13700 38.85600 41.51300
H  -4.86200 38.57400 40.53400
H  -5.81900 37.16300 41.07800
H  -6.49900 37.91800 36.97300
H  -8.25500 37.57200 37.03300
H  -6.90300 35.01000 37.07700
H  -6.12900 36.13200 35.98600
H  -7.08000 44.20400 38.68800
H  -6.23200 43.15000 39.89200
H  -6.85000 44.67000 40.25400
H  -11.70500 45.91700 39.31900
H  -10.88400 46.97800 40.56300
H  -11.62300 45.56800 41.12700
H  -14.86000 42.49500 39.79100
H  -15.07500 40.89900 42.38700
H  -14.04900 44.02600 42.04800
H  -15.53500 43.03100 42.56300
H  -15.50900 44.06100 41.14800
H  -16.45400 39.76900 39.98900
H  -16.83900 41.41800 40.14000
H  -17.11500 40.03000 42.75000
H  -17.65600 38.93900 41.69400
H  -18.35100 40.72900 41.79900
H  -15.20900 35.74700 41.66700
H  -13.83600 34.50400 41.84700
H  -14.69900 34.69100 40.37700
H  -9.67100 34.82900 38.32300
H  -6.37600 32.73000 40.25100
H  -5.81800 33.18500 38.53900
H  -6.85400 31.81600 39.16100

