158

Mg 24.85900 -7.31100 47.99400
C  27.02800 -4.82000 46.86100
C  22.54200 -6.06900 45.67400
C  22.94700 -9.85200 48.75600
C  27.30400 -8.51600 50.24000
N  24.92100 -5.74500 46.18900
C  25.87000 -4.78900 46.11700
C  25.54900 -3.89300 44.83900
C  23.99000 -4.10100 44.71300
C  23.79000 -5.38000 45.57600
C  23.09700 -2.90500 45.04300
C  26.47300 -4.17000 43.60900
C  27.03000 -2.98900 42.83300
H  27.07600 -3.06500 41.31600
N  23.08200 -7.90500 47.22800
C  22.21000 -7.29700 46.38900
C  20.99500 -8.12800 46.25900
C  21.14100 -9.28600 47.08400
C  22.40700 -9.04900 47.71900
C  19.82800 -7.63500 45.26700
C  20.10300 -10.40000 47.22600
O  18.95300 -10.26800 46.78400
C  20.47000 -11.68000 47.93800
N  25.11000 -8.97000 49.31700
C  24.11600 -9.85800 49.46100
C  24.34500 -10.84900 50.61500
C  25.89400 -10.62500 50.79200
C  26.10800 -9.26000 50.14900
C  23.41700 -10.63400 51.84700
C  26.82200 -11.66900 50.07600
C  27.82100 -12.43900 50.98400
N  26.79800 -6.79000 48.44000
C  27.64400 -7.33400 49.46400
C  28.87500 -6.54500 49.40900
C  28.56000 -5.49900 48.45200
C  27.38000 -5.72400 47.87100
C  30.13100 -6.80900 50.20500
C  29.03800 -4.31900 47.83300
O  30.11100 -3.76700 48.09500
C  28.06100 -3.79400 46.80200
C  27.54200 -2.46100 47.18900
O  27.16900 -2.11600 48.32200
O  27.65000 -1.62500 46.12300
C  27.03800 -0.22900 46.21000
H  21.70500 -5.57200 45.18100
H  22.29300 -10.63800 49.14200
H  28.10700 -8.91600 50.86200
H  25.80800 -2.88500 45.16400
H  23.75700 -4.28000 43.66300
H  23.54900 -1.95400 44.76000
H  22.82600 -2.88900 46.09900
H  22.21800 -3.08400 44.42400
H  25.82100 -4.78200 42.98600
H  27.28100 -4.84300 43.89700
H  28.01300 -2.84200 43.28100
H  26.31200 -2.19200 43.02900
H  19.73900 -6.56300 45.09500
H  18.85400 -8.01600 45.57400
H  20.07700 -7.94500 44.25200
H  21.42800 -12.13500 47.68200
H  19.66400 -12.34700 47.63200
H  20.46300 -11.46300 49.00600
H  24.13600 -11.82200 50.16900
H  26.15500 -10.47000 51.83900
H  22.45200 -10.19400 51.59300
H  23.88800 -10.16400 52.71100
H  23.11200 -11.62500 52.18600
H  27.21400 -11.24400 49.15200
H  26.11300 -12.41900 49.72700
H  28.75200 -12.53900 50.42600
H  27.59000 -13.48900 51.16700
H  28.03700 -11.81800 51.85300
H  29.95200 -7.49600 51.03200
H  30.47700 -5.85300 50.59700
H  30.90100 -7.21100 49.54700
H  28.37700 -3.67100 45.76600
H  26.14700 -0.02900 45.61400
H  27.85300 0.43300 45.91800
H  26.72700 -0.00500 47.23100
Mg -10.10700 17.34200 42.67700
C  -6.60200 16.94400 42.74100
C  -9.50200 20.59100 41.41600
C  -13.41000 17.68600 42.09600
C  -10.45500 13.81300 43.04700
N  -8.23300 18.69400 42.24000
C  -6.92100 18.25200 42.39600
C  -5.93400 19.39500 42.11300
C  -6.90200 20.63700 41.76600
C  -8.31400 19.91400 41.79900
C  -6.74600 21.79600 42.82900
C  -4.97900 19.06300 40.90500
C  -5.56900 18.25600 39.71700
H  -5.01000 18.45700 38.29600
N  -11.27500 18.92500 41.86300
C  -10.84200 20.16800 41.51300
C  -11.93800 20.97100 41.10900
C  -13.12600 20.18000 41.25800
C  -12.66200 18.84700 41.79000
C  -11.76200 22.40700 40.70000
C  -14.60100 20.62100 40.91900
O  -14.78900 21.66100 40.30300
C  -15.80800 19.74600 41.09700
N  -11.74900 15.86600 42.39900
C  -13.02900 16.32400 42.40600
C  -13.99600 15.20600 42.57700
C  -13.03800 13.96400 42.97400
C  -11.66300 14.55300 42.78900
C  -15.15700 15.40000 43.58500
C  -13.29200 12.69600 42.16800
C  -13.26200 12.79900 40.63100
N  -8.92400 15.63200 42.89900
C  -9.14600 14.31100 43.03900
C  -7.93200 13.65900 43.28600
C  -6.99500 14.61100 43.30400
C  -7.59900 15.81200 42.91800
C  -7.80500 12.15700 43.39900
C  -5.59400 14.81100 43.44500
O  -4.79300 13.91000 43.64400
C  -5.26900 16.27900 43.05800
C  -4.55200 16.91700 44.15500
O  -3.43900 17.43600 44.08900
O  -5.47300 17.12700 45.20900
C  -5.15000 17.87100 46.41700
H  -9.23400 21.57000 41.01300
H  -14.50200 17.70300 42.10400
H  -10.58300 12.74100 43.21300
H  -5.32400 19.61900 42.98700
H  -6.58600 20.92300 40.76300
H  -6.11200 21.65600 43.70400
H  -7.69600 21.95800 43.33700
H  -6.53300 22.71300 42.28000
H  -4.21000 18.44000 41.36200
H  -4.58800 20.02300 40.56600
H  -6.62400 18.50200 39.59500
H  -5.44600 17.20600 39.98000
H  -11.69600 22.42700 39.61200
H  -10.93700 22.92500 41.18800
H  -12.61100 22.95900 41.10500
H  -15.62500 18.81200 40.56600
H  -16.57400 20.35100 40.61200
H  -16.02200 19.54300 42.14700
H  -14.39500 14.94800 41.59600
H  -13.17900 13.76600 44.03700
H  -15.74400 16.30000 43.40300
H  -14.84400 15.47900 44.62600
H  -15.84600 14.56100 43.68300
H  -14.31200 12.39800 42.41200
H  -12.56700 11.91400 42.39700
H  -13.16200 13.84400 40.33400
H  -14.23000 12.55200 40.19600
H  -12.49100 12.15600 40.20500
H  -8.69300 11.55800 43.19800
H  -7.43500 11.91500 44.39500
H  -7.19400 11.75900 42.58900
H  -4.67100 16.38900 42.15300
H  -5.13400 18.93600 46.18700
H  -4.18300 17.61300 46.85100
H  -5.93800 17.62200 47.12700

