158

Mg 39.82300 10.17100 30.42200
C  41.86800 11.34600 33.02600
C  37.77800 8.77000 32.80900
C  38.19100 8.65400 28.00700
C  42.34400 11.12500 28.16700
N  39.72900 10.16600 32.64500
C  40.65900 10.76100 33.45200
C  40.20400 10.60500 34.88800
C  39.02900 9.58100 34.86100
C  38.85200 9.49900 33.35100
C  39.32000 8.17000 35.54500
C  39.85200 11.95200 35.53300
C  40.49800 12.51700 36.76000
H  39.61700 12.64800 37.96800
N  38.14700 8.91100 30.40600
C  37.48600 8.48300 31.44400
C  36.36900 7.67200 30.96000
C  36.42400 7.57800 29.53900
C  37.60000 8.40300 29.25900
C  35.44700 7.05400 31.95300
C  35.52300 6.86000 28.55100
O  35.60000 6.96100 27.31200
C  34.38200 6.09800 29.07500
N  40.33500 9.79200 28.41400
C  39.40600 9.22100 27.59700
C  39.75800 9.26600 26.07700
C  41.21000 9.93800 26.17400
C  41.33900 10.34200 27.64500
C  39.73000 7.92600 25.26500
C  41.28100 11.10900 25.20000
C  41.12900 12.58600 25.76800
N  41.68300 11.10900 30.50000
C  42.52900 11.50900 29.51000
C  43.50300 12.33300 30.06300
C  43.29700 12.33900 31.44000
C  42.17500 11.50200 31.68700
C  44.69700 12.99800 29.46400
C  43.85600 12.76400 32.75100
O  44.84600 13.36600 32.95700
C  42.86800 12.12700 33.83400
C  43.59700 11.27500 34.88300
O  43.65200 10.06600 34.91300
O  44.07500 12.17000 35.81000
C  44.92000 11.63000 36.92300
H  37.20100 8.26200 33.58500
H  37.51900 8.24100 27.25100
H  43.04200 11.50400 27.41800
H  40.96500 10.21700 35.56500
H  38.11700 9.79500 35.41900
H  40.34400 7.93300 35.83400
H  38.88000 7.31800 35.02600
H  38.74700 8.31700 36.46000
H  38.81000 11.81700 35.82500
H  39.76400 12.76100 34.80900
H  40.86500 13.53000 36.59400
H  41.32300 11.86200 37.03800
H  34.52600 7.63700 31.93600
H  35.75800 6.85700 32.97900
H  35.17700 6.06200 31.59000
H  33.84300 5.77800 28.18400
H  33.83700 6.76900 29.73900
H  34.73300 5.23200 29.63700
H  39.06800 9.98100 25.62800
H  41.95100 9.15000 26.04000
H  39.75100 7.10300 25.98000
H  40.59800 7.75400 24.63000
H  38.85600 7.91600 24.61400
H  40.76100 10.97900 24.25100
H  42.30900 11.06800 24.83900
H  42.06900 13.12600 25.65300
H  40.66800 12.66200 26.75300
H  40.40000 13.12900 25.16700
H  44.84500 13.88800 30.07700
H  44.37000 13.29000 28.46600
H  45.65700 12.48200 29.46400
H  42.44800 12.98700 34.35700
H  44.30800 11.67100 37.82400
H  45.83900 12.19800 37.06900
H  45.17100 10.58600 36.73400
Mg -11.53800 16.31700 40.53100
C  -8.39300 14.95700 39.91200
C  -10.24200 19.37500 39.62600
C  -14.64100 17.55100 40.19600
C  -12.83300 13.10800 40.81900
N  -9.51100 17.05700 39.80500
C  -8.39900 16.35800 39.68200
C  -7.13300 17.21700 39.40000
C  -7.75700 18.65000 39.57000
C  -9.26900 18.36400 39.74500
C  -7.21600 19.57200 40.69500
C  -6.61400 16.86600 37.93600
C  -5.16500 17.22700 37.61000
H  -4.81000 17.70600 36.21200
N  -12.29000 18.27100 40.18300
C  -11.58300 19.37000 39.74000
C  -12.51000 20.46800 39.54400
C  -13.80800 20.01600 39.95900
C  -13.64200 18.54500 40.11600
C  -12.05300 21.87300 39.26600
C  -15.01200 20.90500 40.01900
O  -14.96200 22.12300 39.75800
C  -16.26400 20.29500 40.62900
N  -13.44300 15.43300 40.38900
C  -14.55600 16.15700 40.23700
C  -15.81900 15.24700 40.16100
C  -15.21200 13.76200 40.28500
C  -13.76400 14.10100 40.52800
C  -16.88700 15.55900 41.30800
C  -15.28900 12.87400 38.95700
C  -16.00200 11.53600 39.08400
N  -10.83700 14.39800 40.61400
C  -11.44300 13.19100 40.80000
C  -10.45800 12.15700 40.71200
C  -9.21500 12.80300 40.39100
C  -9.51300 14.16000 40.32300
C  -10.81800 10.69800 40.89200
C  -7.84700 12.57400 40.13500
O  -7.24300 11.52000 40.08700
C  -7.23100 13.93200 39.80300
C  -6.23900 14.10000 40.92800
O  -6.52700 14.52600 42.01400
O  -4.98000 13.96800 40.40200
C  -3.85600 14.51600 41.20100
H  -9.89500 20.41000 39.63000
H  -15.66300 17.89400 40.01900
H  -13.26700 12.11200 40.92400
H  -6.38400 17.03300 40.17000
H  -7.74500 19.13500 38.59400
H  -6.25300 19.16700 41.00600
H  -7.84800 19.60200 41.58300
H  -7.23400 20.57800 40.27500
H  -7.26800 17.29100 37.17500
H  -6.68100 15.77900 37.91000
H  -4.54800 16.36300 37.85400
H  -4.92600 18.07000 38.25800
H  -12.54700 22.25400 38.37200
H  -11.00000 21.89200 38.98400
H  -12.33400 22.50300 40.11100
H  -16.90600 21.15400 40.82300
H  -16.06100 19.71000 41.52600
H  -16.74400 19.63800 39.90400
H  -16.28500 15.39300 39.18700
H  -15.70200 13.19000 41.07300
H  -17.17800 14.66800 41.86500
H  -17.74600 15.85700 40.70600
H  -16.48100 16.23200 42.06400
H  -14.30100 12.78700 38.50500
H  -15.79100 13.43900 38.17000
H  -15.41600 10.72600 38.65200
H  -17.05200 11.63100 38.80600
H  -16.20800 11.20300 40.10100
H  -9.84700 10.21300 40.79700
H  -11.50500 10.35100 40.12000
H  -11.19500 10.47600 41.89100
H  -6.72600 13.83600 38.84200
H  -3.06500 14.85400 40.53100
H  -3.42300 13.78700 41.88600
H  -4.14600 15.46000 41.66300

