158

Mg 1.60200 -1.55900 44.77200
C  4.75700 -0.37800 44.00100
C  0.31600 1.23400 43.29700
C  -1.42400 -3.08600 44.70400
C  3.09200 -4.66000 45.55300
N  2.49300 0.16400 43.54600
C  3.77900 0.49700 43.43400
C  4.02000 1.83500 42.68600
C  2.51600 2.45400 42.95300
C  1.69900 1.22600 43.30800
C  2.43900 3.49900 44.02700
C  4.41500 1.60800 41.19500
C  5.85900 2.10900 40.90700
H  6.70400 1.37000 39.89100
N  -0.31900 -0.91000 44.34800
C  -0.60600 0.25600 43.71400
C  -2.05100 0.32500 43.57600
C  -2.65900 -0.90500 43.99600
C  -1.50900 -1.66800 44.43600
C  -2.68700 1.63800 42.99900
C  -4.16200 -1.33500 43.93800
O  -5.01200 -0.52300 43.59800
C  -4.77100 -2.66100 44.29800
N  0.96600 -3.62100 44.81100
C  -0.37600 -3.90700 45.03700
C  -0.70300 -5.24600 45.67700
C  0.73300 -5.78100 45.89400
C  1.67300 -4.62000 45.37100
C  -1.53000 -5.11100 46.90600
C  0.96000 -7.20300 45.22600
C  1.42300 -8.28000 46.24200
N  3.51400 -2.38000 44.83900
C  4.04700 -3.64300 45.19300
C  5.50600 -3.63300 45.13800
C  5.78600 -2.33600 44.72800
C  4.57900 -1.64800 44.56500
C  6.42200 -4.86000 45.41700
C  6.92600 -1.48600 44.40000
O  8.13800 -1.58500 44.45700
C  6.26700 -0.17800 43.94900
C  6.55600 0.73800 45.07400
O  5.86900 0.83100 46.08700
O  7.66100 1.41600 44.74900
C  7.85900 2.68600 45.37600
H  -0.21100 2.14800 43.01700
H  -2.44500 -3.46000 44.80300
H  3.61900 -5.56200 45.86900
H  4.77400 2.40000 43.23300
H  2.15000 2.89700 42.02700
H  2.98500 4.38200 43.69500
H  2.81800 3.18100 44.99800
H  1.42900 3.87900 44.18300
H  3.79200 2.29500 40.62200
H  4.39400 0.57600 40.84500
H  6.47200 2.03900 41.80500
H  5.72600 3.15400 40.62700
H  -3.77100 1.56100 42.91700
H  -2.42200 1.85200 41.96300
H  -2.47500 2.55800 43.54300
H  -4.38100 -2.93800 45.27700
H  -4.33200 -3.33900 43.56600
H  -5.85600 -2.64600 44.40600
H  -1.31500 -5.87700 45.03400
H  1.04600 -5.85400 46.93600
H  -2.57800 -5.10700 46.60700
H  -1.25200 -4.18100 47.40100
H  -1.30200 -6.01000 47.47900
H  1.63400 -6.98400 44.39700
H  -0.01800 -7.57300 44.91900
H  1.21300 -8.06700 47.29000
H  2.46300 -8.57500 46.10200
H  0.80900 -9.15600 46.03200
H  5.77100 -5.72200 45.27700
H  6.70400 -4.83300 46.46900
H  7.30600 -4.86200 44.77900
H  6.71500 0.20700 43.03300
H  8.80400 2.98400 44.92100
H  7.73300 2.51300 46.44500
H  7.15300 3.44400 45.03600
Mg -13.09500 15.59300 43.14600
C  -10.44300 13.43400 42.32900
C  -11.65700 18.01800 41.39900
C  -16.16400 17.17100 42.95900
C  -14.78100 12.72800 44.50300
N  -11.31200 15.60800 41.82100
C  -10.35500 14.73600 41.72700
C  -9.09000 15.34800 41.08000
C  -9.37100 16.88500 41.11900
C  -10.90600 16.84800 41.49200
C  -8.49100 17.65100 42.20000
C  -8.70300 14.80500 39.75000
C  -7.22100 14.68800 39.38500
H  -6.63500 15.60000 38.21600
N  -13.76300 17.42800 42.43500
C  -13.00900 18.25000 41.68400
C  -13.66200 19.45900 41.39600
C  -15.00800 19.28800 41.88400
C  -15.04500 17.89400 42.46700
C  -13.11100 20.71300 40.72300
C  -16.10200 20.36700 41.84000
O  -15.89200 21.42900 41.16900
C  -17.48700 20.32000 42.48400
N  -15.21100 14.93000 43.59200
C  -16.18400 15.84000 43.54100
C  -17.51700 15.15200 44.07800
C  -17.01600 13.76100 44.73300
C  -15.59500 13.76400 44.19600
C  -18.42000 16.08400 44.97800
C  -17.81400 12.50300 44.51200
C  -18.13200 11.63000 45.75600
N  -12.69200 13.49900 43.53400
C  -13.43200 12.56800 44.16200
C  -12.62100 11.35700 44.28200
C  -11.41100 11.60600 43.64600
C  -11.53500 12.93900 43.13600
C  -13.02600 10.10600 44.96700
C  -10.09700 11.12600 43.27200
O  -9.47100 10.11200 43.53700
C  -9.47200 12.35600 42.37900
C  -8.23900 12.85100 43.06500
O  -8.16500 13.51800 44.08300
O  -7.16300 12.33200 42.38000
C  -5.79700 12.53600 42.76200
H  -11.08600 18.90200 41.10500
H  -17.17400 17.58400 42.91700
H  -15.35500 11.88800 44.89800
H  -8.33700 15.11800 41.83400
H  -9.25600 17.37000 40.15000
H  -9.06400 17.75400 43.12200
H  -8.11600 18.62300 41.87900
H  -7.64000 17.01200 42.43300
H  -9.23800 15.48000 39.08200
H  -9.06100 13.77600 39.76100
H  -7.21200 13.68900 38.94900
H  -6.64600 14.75500 40.30900
H  -12.06800 20.62200 40.42000
H  -13.27600 21.59100 41.34800
H  -13.64600 20.82100 39.77900
H  -17.53000 19.67600 43.36200
H  -18.06300 19.76800 41.74100
H  -17.91100 21.30200 42.69100
H  -18.15200 14.93200 43.22000
H  -16.91000 13.92800 45.80500
H  -17.71900 16.76100 45.46700
H  -18.96900 15.46400 45.68600
H  -19.19700 16.54900 44.37200
H  -17.38100 11.78000 43.82100
H  -18.82400 12.80800 44.23700
H  -19.13400 11.66700 46.18400
H  -17.70100 11.92900 46.71200
H  -17.81300 10.59700 45.61800
H  -12.18000 9.77200 45.56700
H  -13.19800 9.51200 44.07000
H  -13.86300 10.15100 45.66400
H  -9.25400 11.96800 41.38500
H  -5.55200 13.20200 43.59000
H  -5.39100 12.97500 41.85100
H  -5.22400 11.61100 42.83200

