158

Mg 53.79500 23.92400 44.55300
C  51.36900 26.30500 43.62500
C  51.68500 21.48900 43.46000
C  56.46500 21.85900 44.34100
C  55.88800 26.60400 45.28800
N  51.90900 23.89400 43.49200
C  51.02400 24.98700 43.31700
C  49.63100 24.55600 42.80100
C  49.64600 23.06900 43.21900
C  51.15500 22.76300 43.46800
C  48.85700 22.84400 44.52700
C  49.66900 24.72000 41.24500
C  48.25800 24.64900 40.59700
H  48.24700 23.65800 39.43100
N  53.99300 21.88500 44.13500
C  52.99500 21.06700 43.75900
C  53.50200 19.68700 43.69100
C  54.95200 19.78000 43.86100
C  55.23800 21.25800 44.09700
C  52.69700 18.49100 43.34100
C  55.92400 18.59900 43.75200
O  55.57700 17.48100 43.39800
C  57.33400 18.67900 44.06900
N  55.93400 24.19600 44.59800
C  56.75100 23.18600 44.59900
C  58.20200 23.65200 44.82000
C  58.01800 25.13100 45.19200
C  56.55000 25.33000 45.04200
C  59.11400 22.84800 45.82400
C  58.89700 26.16200 44.37300
C  59.34200 27.47400 44.96400
N  53.66900 26.03800 44.50400
C  54.50500 26.98800 45.06300
C  53.91800 28.28600 45.21300
C  52.65200 28.10500 44.58900
C  52.59500 26.72000 44.17900
C  54.49700 29.47300 45.88100
C  51.35500 28.68200 44.30500
O  50.99100 29.84000 44.35500
C  50.51100 27.51200 43.57800
C  50.19200 27.96300 42.14600
O  51.01200 28.14200 41.29600
O  48.81800 28.04300 41.88200
C  48.52500 28.41800 40.45200
H  50.96300 20.71100 43.20300
H  57.32100 21.19700 44.19700
H  56.60300 27.39400 45.52600
H  48.86400 25.05700 43.39300
H  49.23500 22.47300 42.40400
H  49.45700 22.38700 45.31400
H  48.11500 22.11700 44.19400
H  48.41800 23.72800 44.98900
H  50.12200 23.82200 40.82500
H  50.18300 25.62900 40.93300
H  48.00400 25.63000 40.19700
H  47.40800 24.26400 41.16100
H  52.95100 17.94100 42.43500
H  51.62200 18.66700 43.30300
H  52.76500 17.77700 44.16200
H  57.97300 19.22800 43.37600
H  57.66400 17.64100 44.06300
H  57.39300 19.12000 45.06400
H  58.68400 23.54000 43.84900
H  58.09900 25.16600 46.27800
H  59.76400 23.48900 46.42000
H  59.70600 22.17500 45.20400
H  58.43000 22.42300 46.55900
H  58.18800 26.50200 43.61800
H  59.73700 25.60000 43.96300
H  60.42800 27.56300 44.94400
H  58.98500 27.48800 45.99400
H  58.80800 28.24100 44.40400
H  54.32100 30.36500 45.28000
H  55.58200 29.47700 45.98300
H  54.05100 29.65500 46.85900
H  49.55000 27.27300 44.03200
H  47.47900 28.61400 40.21500
H  48.89400 27.62400 39.80400
H  48.96300 29.41400 40.38900
Mg 35.99200 48.82700 24.95800
C  36.16200 47.26900 28.16200
C  35.03800 51.66600 26.68200
C  35.79200 50.19900 22.03600
C  36.90200 45.78200 23.51300
N  35.64800 49.36800 27.24600
C  35.81000 48.60100 28.34300
C  35.68800 49.44400 29.63200
C  35.14100 50.83800 29.09900
C  35.28800 50.64900 27.60200
C  33.69300 51.28700 29.50600
C  36.94100 49.44400 30.46600
C  36.88700 49.22600 31.91400
H  35.52300 49.33200 32.67000
N  35.41600 50.61500 24.43500
C  35.09000 51.69700 25.26300
C  35.02300 52.86900 24.41900
C  35.17900 52.43200 23.10000
C  35.48300 50.99700 23.17500
C  34.80700 54.30200 24.97800
C  34.99100 53.31300 21.88400
O  35.07900 52.90700 20.71800
C  34.79000 54.82000 22.03800
N  36.20600 48.08200 23.00800
C  36.14700 48.86000 21.94400
C  36.44700 48.09200 20.60300
C  36.95500 46.69100 21.17300
C  36.58900 46.87100 22.65800
C  35.17500 47.84500 19.80700
C  38.51900 46.48300 20.95900
C  38.83000 46.00400 19.51100
N  36.41900 46.90700 25.66700
C  36.83500 45.77700 24.92100
C  37.13400 44.68500 25.81900
C  36.89800 45.22600 27.11300
C  36.39500 46.57400 26.90500
C  37.62400 43.36100 25.43200
C  37.00300 44.97500 28.51900
O  37.52600 43.99200 29.05800
C  36.51100 46.22600 29.31300
C  35.33400 45.86200 30.12500
O  34.25100 45.59400 29.66500
O  35.69500 45.83500 31.44400
C  34.67000 45.15200 32.24700
H  34.77200 52.65100 27.07200
H  35.67700 50.69300 21.06900
H  37.25400 44.87400 23.02000
H  34.84000 49.03300 30.17900
H  35.91200 51.57200 29.33600
H  33.79100 52.19500 30.10200
H  33.20500 50.59500 30.19100
H  33.06100 51.42100 28.62800
H  37.32200 50.45200 30.29800
H  37.72700 48.79100 30.08700
H  37.56400 49.97600 32.32200
H  37.28500 48.25300 32.20100
H  35.27000 55.10500 24.40500
H  35.39300 54.34100 25.89700
H  33.76400 54.49800 25.22700
H  34.52900 55.20800 21.05300
H  35.79100 55.16600 22.29400
H  33.98100 55.14800 22.69000
H  37.29000 48.48100 20.03200
H  36.49700 45.73900 20.90300
H  34.27300 47.77600 20.41400
H  35.36000 46.97200 19.18000
H  35.10400 48.71600 19.15700
H  38.96700 45.91200 21.77300
H  38.97600 47.46500 21.08200
H  39.43800 45.10100 19.56600
H  39.45800 46.79000 19.09300
H  37.91400 45.75600 18.97400
H  36.90200 42.69800 24.95400
H  37.86300 42.91100 26.39600
H  38.50600 43.48300 24.80300
H  37.41100 46.47600 29.87500
H  33.76200 45.74200 32.36700
H  35.12800 45.01000 33.22600
H  34.36800 44.19900 31.81000

