158

Mg 35.71500 0.34200 29.71800
C  33.59200 1.03700 32.51600
C  38.24600 0.10800 32.09400
C  37.73000 -0.06000 27.24800
C  32.96500 0.78200 27.63800
N  35.85900 0.61400 32.14100
C  34.87100 0.83500 32.99000
C  35.43700 0.87600 34.48300
C  36.94300 0.77100 34.30600
C  37.03000 0.45100 32.76900
C  37.78400 2.04000 34.61300
C  34.75300 -0.15600 35.39900
C  34.48000 0.20900 36.84800
H  35.07600 1.43000 37.56500
N  37.74400 0.01200 29.67400
C  38.60700 -0.01100 30.70600
C  39.90000 -0.48100 30.22500
C  39.74900 -0.43200 28.78600
C  38.39400 -0.15500 28.50800
C  41.02600 -0.74400 31.21600
C  40.77300 -0.74600 27.65700
O  40.69000 -0.67500 26.44300
C  42.11900 -1.11000 28.18700
N  35.37100 0.24100 27.77600
C  36.41700 0.11300 26.89400
C  35.91400 -0.00800 25.46800
C  34.39100 0.13400 25.61800
C  34.20700 0.40700 27.11600
C  36.53800 0.94900 24.42200
C  33.68400 -1.01700 25.08700
C  33.37000 -2.11900 26.15900
N  33.67100 0.91300 29.92300
C  32.71100 1.06600 29.00500
C  31.43800 1.37400 29.70200
C  31.81200 1.47800 31.05100
C  33.10600 1.01400 31.15400
C  30.20300 1.79900 29.04800
C  31.25100 1.83300 32.31500
O  30.13300 2.15800 32.55400
C  32.38600 1.47500 33.36500
C  32.66500 2.72500 34.11600
O  33.40900 3.67400 33.81800
O  31.91900 2.63500 35.28600
C  31.90100 3.93700 36.04000
H  39.13000 0.16300 32.73200
H  38.32900 -0.21000 26.34600
H  32.12600 0.75200 26.93900
H  35.25600 1.83300 34.97300
H  37.26800 -0.11900 34.84500
H  38.60000 2.13400 33.89700
H  38.34100 1.77500 35.51100
H  37.13900 2.91900 34.62700
H  35.29000 -1.09900 35.29900
H  33.78000 -0.26700 34.92100
H  34.90800 -0.58600 37.46000
H  33.42000 0.32500 37.07500
H  41.93800 -1.16500 30.79200
H  40.58500 -1.43800 31.93100
H  41.20700 0.18300 31.76000
H  42.14000 -2.04600 28.74600
H  42.37300 -0.24900 28.80500
H  42.83600 -1.11900 27.36600
H  36.10800 -1.04600 25.19800
H  34.04400 1.08900 25.22500
H  35.97100 1.87900 24.42200
H  36.67100 0.57500 23.40600
H  37.55300 1.17400 24.75200
H  34.16100 -1.46800 24.21700
H  32.78900 -0.56300 24.66200
H  33.94700 -2.18600 27.08200
H  33.71200 -2.97000 25.57100
H  32.30400 -2.21800 26.36300
H  29.82200 2.79000 29.29500
H  29.52600 0.96300 29.22400
H  30.35800 1.68100 27.97600
H  31.92700 0.67300 33.94400
H  32.78600 4.00200 36.67200
H  30.96300 3.98400 36.59300
H  31.95800 4.74500 35.31100
Mg 15.45600 52.21700 26.25400
C  17.67300 51.46500 28.77200
C  12.94100 52.62400 28.53700
C  13.23900 52.38000 23.70600
C  18.05300 51.28600 23.89900
N  15.34600 51.91200 28.36700
C  16.36000 51.68800 29.25100
C  15.94900 52.01700 30.65400
C  14.40500 51.83900 30.53300
C  14.19700 52.19500 29.05100
C  13.88300 50.45200 30.99300
C  16.54100 53.40100 31.11900
C  16.56500 53.78900 32.57500
H  15.72900 52.90500 33.49900
N  13.37000 52.47400 26.09900
C  12.56600 52.74300 27.13200
C  11.21800 53.12600 26.69700
C  11.27900 52.99700 25.26700
C  12.64300 52.47200 24.96900
C  10.14400 53.66100 27.62100
C  10.15000 53.22000 24.27900
O  10.33900 52.94700 23.12100
C  8.87900 53.72800 24.70900
N  15.58600 51.98100 24.14200
C  14.54500 52.18900 23.31500
C  14.95800 52.12900 21.90300
C  16.48200 51.78200 21.90900
C  16.72400 51.65600 23.38500
C  14.01700 51.15000 21.06700
C  17.34600 52.88700 21.22400
C  18.18200 52.52100 20.01700
N  17.54300 51.57600 26.29500
C  18.48100 51.26600 25.25600
C  19.68000 50.78300 25.89100
C  19.39800 50.89400 27.25800
C  18.10900 51.44400 27.47100
C  20.97000 50.37200 25.28700
C  19.96100 50.71900 28.59500
O  21.06000 50.25600 28.92000
C  18.93900 51.12900 29.62600
C  18.76400 50.02300 30.62600
O  18.48900 48.84800 30.41600
O  18.93400 50.54300 31.91600
C  18.81600 49.61300 32.99700
H  12.17300 52.80700 29.29100
H  12.72600 52.68200 22.79100
H  18.83100 50.95400 23.20900
H  16.42800 51.27300 31.29100
H  13.81300 52.58400 31.06500
H  14.65200 49.69000 30.86500
H  12.97600 50.20300 30.44200
H  13.67000 50.64000 32.04500
H  15.97800 54.15700 30.57100
H  17.54100 53.34400 30.69000
H  16.26600 54.83500 32.65500
H  17.62000 53.75400 32.84800
H  10.23300 53.20100 28.60600
H  9.18300 53.19600 27.40000
H  10.12500 54.75100 27.63300
H  8.54900 52.98600 25.43700
H  8.17500 53.78700 23.87900
H  9.01300 54.69900 25.18400
H  14.55400 53.08000 21.55800
H  16.52100 50.75300 21.55000
H  14.57300 50.58000 20.32200
H  13.21300 51.74500 20.63300
H  13.67600 50.41800 21.79900
H  18.09100 53.36700 21.85900
H  16.67800 53.73900 21.10400
H  18.00000 51.48200 19.74000
H  19.23300 52.56600 20.30400
H  17.93900 53.28800 19.28100
H  20.92500 50.75500 24.26800
H  20.90800 49.28400 25.33300
H  21.78500 50.79900 25.87100
H  19.20400 51.96200 30.27700
H  17.87000 49.07400 32.94600
H  18.83900 50.16500 33.93600
H  19.65200 48.91500 33.03400

