158

Mg 54.72100 22.84500 44.76100
C  52.24400 25.15500 43.78800
C  52.54300 20.36300 43.79500
C  57.22100 20.74300 45.20600
C  56.88900 25.56000 45.39100
N  52.70300 22.74900 43.64500
C  51.86800 23.84400 43.43700
C  50.53500 23.33500 42.80900
C  50.50200 21.88100 43.35000
C  51.97700 21.61000 43.66400
C  49.56600 21.64400 44.53900
C  50.24400 23.45800 41.26400
C  48.95800 24.20300 40.81500
H  48.46300 23.96900 39.39600
N  54.85000 20.78800 44.63900
C  53.91800 19.97700 44.08000
C  54.46900 18.66500 43.93500
C  55.79800 18.71200 44.41900
C  56.00600 20.09900 44.85400
C  53.70900 17.47200 43.40800
C  56.67000 17.55700 44.63400
O  56.27600 16.44700 44.36500
C  58.06900 17.66600 45.26600
N  56.75300 23.13000 45.43500
C  57.62200 22.04000 45.48400
C  59.05200 22.52100 45.56500
C  58.96600 24.11000 45.59200
C  57.44500 24.28800 45.50900
C  59.66500 22.00700 46.86200
C  59.86500 24.85600 44.54900
C  60.98000 25.84100 45.06700
N  54.59600 24.93900 44.74800
C  55.58200 25.91600 45.07600
C  54.97400 27.20000 45.01500
C  53.65400 26.99300 44.54600
C  53.46700 25.54900 44.39400
C  55.60000 28.53700 45.40700
C  52.39500 27.63100 44.25000
O  52.08200 28.81800 44.13200
C  51.48500 26.50000 43.58500
C  51.32600 26.74800 42.12800
O  52.13700 26.40100 41.24700
O  50.23100 27.53700 41.89900
C  49.90500 27.95800 40.49800
H  52.01400 19.48500 43.41900
H  58.08100 20.13500 44.91900
H  57.49500 26.46700 45.45300
H  49.73100 23.85000 43.33600
H  50.28900 21.18400 42.54000
H  50.05500 21.08700 45.33800
H  48.74600 21.06400 44.11600
H  49.12900 22.50900 45.03700
H  50.23900 22.53600 40.68300
H  51.17300 23.96400 40.99900
H  49.08700 25.27300 40.97800
H  48.15500 23.91700 41.49400
H  54.24500 16.63900 42.95300
H  52.89400 17.82900 42.78000
H  53.21000 17.09000 44.29900
H  58.01900 18.28900 46.15900
H  58.83800 17.97800 44.56000
H  58.33800 16.65400 45.57100
H  59.47400 22.03200 44.68600
H  59.11800 24.54400 46.58000
H  59.56300 22.70000 47.69600
H  60.73300 21.79900 46.78800
H  59.24100 21.01700 47.03100
H  59.24300 25.35300 43.80500
H  60.45800 24.07600 44.07100
H  61.97400 25.39400 45.04800
H  60.77800 26.08300 46.11100
H  61.01000 26.67600 44.36800
H  54.86300 29.34100 45.43000
H  56.17600 28.90800 44.56000
H  56.11000 28.49900 46.37000
H  50.53300 26.49900 44.11500
H  49.82700 27.17600 39.74300
H  50.65300 28.64400 40.10000
H  48.92600 28.43700 40.48900
Mg -2.39200 34.55800 26.05300
C  -3.77100 32.36000 28.39800
C  -1.10500 36.47900 28.61300
C  -1.04900 36.46800 23.68800
C  -3.95400 32.52600 23.52800
N  -2.49900 34.42800 28.27000
C  -3.01000 33.37600 29.01300
C  -2.84200 33.63500 30.49000
C  -2.27000 35.14600 30.54200
C  -1.95500 35.40500 29.06200
C  -3.23800 36.23000 31.15600
C  -1.94600 32.55000 31.14100
C  -2.49300 31.90300 32.39600
H  -1.46900 32.06600 33.55200
N  -1.24700 36.28900 26.12300
C  -0.73100 36.82000 27.34400
C  0.01100 38.05900 26.92600
C  0.16300 38.04400 25.46700
C  -0.74000 36.88700 25.01200
C  0.69800 38.95100 27.89100
C  0.81600 39.09500 24.59200
O  0.82800 38.92800 23.36000
C  1.46200 40.35400 25.14400
N  -2.70000 34.71100 23.87900
C  -1.93200 35.51500 23.19400
C  -1.95600 35.17600 21.63600
C  -2.72800 33.86700 21.56400
C  -3.14900 33.65500 23.12100
C  -2.60200 36.34700 20.84300
C  -2.01800 32.57600 20.99100
C  -0.67900 32.74900 20.30600
N  -3.65500 32.88600 25.90900
C  -4.14000 32.12700 24.88200
C  -4.91100 31.02300 25.33400
C  -4.73300 31.05100 26.76600
C  -4.02800 32.22600 27.07000
C  -5.56000 30.00500 24.42700
C  -5.02800 30.35200 27.96000
O  -5.76800 29.38900 28.16800
C  -4.39600 31.15400 29.13700
C  -5.43800 31.58200 30.12400
O  -6.15500 32.54600 29.98500
O  -5.38200 30.70300 31.17900
C  -6.14200 30.97500 32.38100
H  -0.87800 37.12500 29.46400
H  -0.65200 37.01200 22.82900
H  -4.38900 31.89000 22.75500
H  -3.83100 33.59200 30.94700
H  -1.31500 35.23600 31.06000
H  -2.71000 36.78900 31.92800
H  -4.13400 35.80700 31.61100
H  -3.59800 36.94200 30.41400
H  -1.12800 33.14800 31.54300
H  -1.62600 31.73400 30.49300
H  -2.77400 30.86600 32.21300
H  -3.37400 32.39800 32.80400
H  1.76900 39.02000 27.69900
H  0.42700 38.56200 28.87200
H  0.24300 39.94100 27.86600
H  2.34600 40.15700 25.75100
H  0.76100 40.97300 25.70400
H  1.87900 41.03100 24.39900
H  -0.93000 35.12400 21.27100
H  -3.65700 34.06800 21.03100
H  -2.78500 37.31500 21.31100
H  -3.62800 36.07200 20.59800
H  -2.02000 36.57400 19.95000
H  -2.66200 32.01300 20.31500
H  -1.80100 31.88000 21.80200
H  -0.51500 33.68300 19.76700
H  -0.50800 31.91200 19.63000
H  0.02500 32.76700 21.13800
H  -6.24800 30.46000 23.71400
H  -6.10500 29.23300 24.97000
H  -4.77300 29.52200 23.84900
H  -3.70700 30.44500 29.59600
H  -5.66500 31.83600 32.85000
H  -6.09600 30.07500 32.99300
H  -7.18300 31.22000 32.17200

