158

Mg 49.88300 46.31600 43.48700
C  46.68500 47.03700 42.15200
C  49.69600 43.27500 42.06300
C  53.08300 45.97300 44.04800
C  50.12800 49.85200 44.19600
N  48.32700 45.32800 42.23800
C  47.10900 45.77000 41.87200
C  46.35100 44.68300 41.04400
C  47.21500 43.42900 41.31200
C  48.46300 44.02500 41.97600
C  46.62500 42.25500 42.16700
C  46.29200 45.13900 39.57000
C  45.09000 44.80100 38.66200
H  45.32400 43.71900 37.59500
N  51.17300 44.80200 43.14200
C  50.95100 43.60300 42.59400
C  52.09100 42.78400 42.57700
C  53.10800 43.55200 43.27000
C  52.44800 44.86100 43.47900
C  52.03600 41.43600 41.93800
C  54.53300 42.99100 43.53200
O  54.84000 41.78600 43.31600
C  55.60300 43.84900 44.18800
N  51.40200 47.72700 43.96600
C  52.69100 47.31400 44.19000
C  53.63400 48.45000 44.51000
C  52.59600 49.58900 44.83800
C  51.26700 49.07300 44.26400
C  54.58100 48.20000 45.69700
C  53.03100 50.94100 44.26800
C  52.81500 52.22100 45.13900
N  48.66300 48.11500 43.31600
C  48.87400 49.41900 43.70700
C  47.75400 50.25300 43.33300
C  46.85400 49.35200 42.81200
C  47.52500 48.04200 42.70800
C  47.55500 51.74600 43.43700
C  45.55400 49.23900 42.28700
O  44.75300 50.15700 42.07000
C  45.49000 47.76000 41.76600
C  44.32000 47.13600 42.48500
O  44.06200 47.24200 43.70500
O  43.70800 46.20700 41.71000
C  42.55100 45.51100 42.25700
H  49.57800 42.28100 41.62800
H  54.13500 45.76400 44.25000
H  50.32000 50.91000 44.38500
H  45.35300 44.44500 41.41400
H  47.39500 43.06800 40.29900
H  46.47200 41.32200 41.62500
H  45.72400 42.62500 42.65700
H  47.35600 41.97600 42.92600
H  47.16800 44.76700 39.03800
H  46.41700 46.22200 39.55000
H  44.79200 45.81400 38.38800
H  44.24400 44.47000 39.26400
H  51.26400 40.81900 42.39800
H  52.88200 40.80800 42.21700
H  51.93200 41.46800 40.85300
H  55.91600 44.70800 43.59400
H  56.47000 43.21500 44.37400
H  55.27800 44.20300 45.16700
H  54.18900 48.69400 43.60500
H  52.37900 49.56400 45.90600
H  54.55200 47.12100 45.84900
H  54.23000 48.56300 46.66300
H  55.60800 48.50300 45.49100
H  52.36500 51.19200 43.44200
H  54.05500 50.88800 43.89600
H  52.86400 51.98800 46.20300
H  51.86500 52.72900 44.97700
H  53.58300 52.94300 44.85800
H  46.61400 52.06300 43.88600
H  47.62600 52.14300 42.42400
H  48.28300 52.25200 44.07100
H  45.26900 47.74900 40.69800
H  42.25900 45.93000 43.22000
H  42.85200 44.46600 42.33500
H  41.70800 45.61700 41.57500
Mg 36.24200 49.19700 24.80900
C  36.33200 47.45600 27.77300
C  34.86000 51.96600 26.42900
C  35.58900 50.59800 21.82400
C  37.00600 46.16400 23.17700
N  35.45500 49.61300 26.86600
C  35.73600 48.78200 27.94300
C  35.30500 49.49800 29.25200
C  34.66800 50.87300 28.74200
C  35.12100 50.84500 27.26500
C  33.19200 51.05400 29.11800
C  36.53400 49.73000 30.23100
C  36.34900 49.34600 31.71000
H  34.92300 49.28500 32.35700
N  35.51500 51.09300 24.20900
C  34.98100 52.10200 24.97300
C  34.71500 53.32000 24.21700
C  34.91600 52.92800 22.84100
C  35.41000 51.51500 22.89900
C  34.35400 54.62100 24.87500
C  34.82400 53.72400 21.55100
O  35.21400 53.30900 20.44800
C  34.24300 55.03300 21.56700
N  36.11900 48.42900 22.84500
C  35.93700 49.24100 21.81200
C  35.85400 48.30500 20.55800
C  36.63700 47.07700 20.91000
C  36.46400 47.15600 22.36800
C  34.42600 48.05700 20.05300
C  38.10700 46.85000 20.43800
C  39.15500 47.97600 20.71500
N  36.61100 47.19200 25.29000
C  36.99800 46.10400 24.56200
C  37.39100 45.03400 25.48400
C  37.11300 45.50000 26.75300
C  36.67200 46.80700 26.53700
C  37.86800 43.68800 25.04300
C  37.25400 45.21400 28.21300
O  37.59100 44.23000 28.86900
C  36.68600 46.40400 28.89100
C  35.53800 45.85600 29.69300
O  34.40800 45.60400 29.29800
O  36.01800 45.74200 31.01900
C  35.06500 45.08200 31.90400
H  34.47500 52.79400 27.02800
H  35.23800 50.90400 20.83600
H  37.41700 45.25100 22.74200
H  34.49000 48.89100 29.64700
H  35.24200 51.71000 29.13900
H  32.65700 50.10800 29.20100
H  32.64800 51.58200 28.33500
H  33.18200 51.50800 30.10900
H  36.90800 50.75300 30.18900
H  37.39500 49.14700 29.90500
H  36.93100 50.10800 32.22900
H  36.90000 48.41900 31.86800
H  33.29600 54.88100 24.89400
H  34.76100 55.41500 24.24900
H  34.55000 54.66400 25.94600
H  34.05200 55.45500 20.58100
H  35.06400 55.62800 21.96700
H  33.35400 54.92100 22.18700
H  36.38200 48.75400 19.71700
H  36.13700 46.17200 20.56300
H  33.64800 48.74200 20.39000
H  34.11200 47.03400 20.25700
H  34.48300 48.15800 18.96900
H  37.96600 46.78900 19.35900
H  38.53700 45.88000 20.68700
H  38.77500 48.91300 21.12300
H  39.60300 48.07300 19.72600
H  39.92800 47.66600 21.41800
H  37.34400 43.29800 24.17000
H  37.75800 42.93600 25.82400
H  38.90100 43.80800 24.71500
H  37.51600 46.78600 29.48500
H  34.81400 44.09800 31.50700
H  34.17000 45.67200 32.09900
H  35.53600 45.05300 32.88700

