158

Mg 8.20300 3.08700 27.05800
C  9.37300 1.56800 29.96800
C  5.77100 4.65900 28.93600
C  7.03200 4.54900 24.23600
C  10.42000 1.15400 25.09200
N  7.46900 2.83800 29.19900
C  8.23600 2.32400 30.20300
C  7.73200 2.85500 31.55200
C  6.32800 3.50600 31.14700
C  6.48800 3.66500 29.67100
C  5.01900 2.78500 31.52800
C  8.82600 3.87200 32.12400
C  8.67500 4.37100 33.59400
H  9.79500 3.92400 34.53700
N  6.61600 4.40700 26.63800
C  5.78700 4.96800 27.54500
C  4.95300 6.05700 26.88100
C  5.36100 6.04000 25.52400
C  6.33800 4.92600 25.39800
C  3.99800 6.98200 27.63700
C  4.86900 6.81800 24.39100
O  5.02100 6.61900 23.19000
C  3.99500 8.08500 24.66600
N  8.60600 2.77700 24.94300
C  8.02500 3.58600 23.99800
C  8.79700 3.41400 22.62800
C  9.79900 2.33200 22.99400
C  9.67900 2.15100 24.45300
C  7.75900 3.14500 21.54100
C  11.30600 2.76100 22.68900
C  11.98100 3.69100 23.68300
N  9.58500 1.57900 27.37500
C  10.42800 0.93700 26.46100
C  11.30900 0.06700 27.22700
C  10.96700 0.34000 28.58500
C  9.85800 1.20800 28.65100
C  12.44700 -0.89300 26.62800
C  11.34200 -0.02500 29.95400
O  12.07200 -0.85400 30.45900
C  10.38500 0.90000 30.90400
C  9.76900 0.16500 32.05900
O  8.77500 -0.56700 32.07200
O  10.66600 0.25400 33.09200
C  10.14600 -0.14700 34.37900
H  5.05200 5.24100 29.51700
H  6.91000 5.21500 23.37900
H  11.06000 0.53400 24.46000
H  7.63800 1.97200 32.18500
H  6.24200 4.53500 31.49500
H  5.27300 1.82700 31.98200
H  4.36900 2.58600 30.67600
H  4.38700 3.24700 32.28600
H  8.67800 4.71800 31.45300
H  9.85000 3.60000 31.87200
H  7.66000 4.12100 33.90100
H  8.68400 5.45900 33.65800
H  4.44800 7.96500 27.77400
H  3.75200 6.47100 28.56800
H  3.10600 7.16700 27.03900
H  2.95900 7.83700 24.89700
H  4.07200 8.58700 23.70100
H  4.40500 8.56100 25.55700
H  9.33000 4.31400 22.32300
H  9.47700 1.45200 22.43600
H  8.22000 2.49200 20.80000
H  7.36800 4.09500 21.17500
H  6.93900 2.55900 21.95700
H  11.41300 3.15400 21.67900
H  11.82300 1.80500 22.60300
H  11.37200 4.06000 24.50900
H  12.15300 4.60100 23.10800
H  12.95000 3.30500 24.00100
H  13.29700 -0.88500 27.31100
H  12.73000 -0.44300 25.67600
H  12.00900 -1.86700 26.41100
H  11.10500 1.66600 31.19000
H  9.66000 -1.11200 34.23700
H  9.45800 0.60300 34.76700
H  10.94800 -0.24300 35.11200
Mg 6.31100 54.43200 39.58600
C  6.00000 50.91100 39.51500
C  9.66700 53.99800 38.55900
C  6.46800 57.77400 39.17700
C  2.99400 54.77700 40.49600
N  7.64700 52.68200 38.87400
C  7.28600 51.33300 38.98400
C  8.44700 50.39800 38.80400
C  9.68500 51.40600 38.77900
C  8.96600 52.85100 38.76900
C  10.64700 51.29200 39.94600
C  8.34700 49.58200 37.53700
C  7.75000 50.31700 36.28500
H  6.26100 50.02000 35.85400
N  7.83600 55.69500 38.86200
C  9.18600 55.34100 38.48700
C  9.93400 56.55100 38.25100
C  9.02100 57.62900 38.43200
C  7.68800 57.08400 38.82700
C  11.47500 56.55900 37.90300
C  9.41600 59.15300 38.24700
O  10.56800 59.45400 38.02000
C  8.38700 60.23500 38.26500
N  4.76300 55.98100 39.43700
C  5.21200 57.31100 39.45400
C  4.07600 58.31700 39.79800
C  2.89900 57.32800 40.06100
C  3.57900 55.98300 40.01400
C  4.35800 59.34600 40.89100
C  1.64800 57.38000 39.03800
C  0.30000 57.83600 39.66600
N  4.78100 53.18800 39.86200
C  3.54000 53.45100 40.44600
C  2.87600 52.19800 40.80000
C  3.86800 51.22000 40.50600
C  4.91500 51.87600 39.88200
C  1.55400 51.85700 41.48800
C  4.11400 49.74400 40.62500
O  3.41200 48.76700 40.91400
C  5.50700 49.54500 40.05400
C  5.30400 48.44800 39.07400
O  4.70600 48.60600 38.02900
O  5.66100 47.25600 39.65600
C  5.05200 46.11200 38.92800
H  10.75600 54.03600 38.62400
H  6.62500 58.84200 39.33800
H  1.97300 54.92600 40.85500
H  8.35000 49.81400 39.71800
H  10.34200 51.23100 37.92700
H  10.73800 50.24500 40.23500
H  10.40000 51.94900 40.78000
H  11.61600 51.67400 39.62600
H  7.65100 48.80500 37.85500
H  9.31800 49.11600 37.36800
H  8.45900 49.98900 35.52500
H  7.92200 51.39000 36.36900
H  11.87500 55.54800 37.97900
H  12.02700 57.09600 38.67500
H  11.57000 56.87300 36.86400
H  7.59500 59.83100 37.63500
H  8.78700 61.16600 37.86300
H  8.08100 60.52200 39.27100
H  3.81600 58.90500 38.91800
H  2.52000 57.50400 41.06800
H  5.40300 59.19400 41.16100
H  3.60300 59.29500 41.67600
H  4.40500 60.34700 40.46300
H  1.45900 56.49300 38.43400
H  1.83900 58.20800 38.35500
H  -0.42700 57.02800 39.58400
H  -0.07800 58.76600 39.24200
H  0.39000 58.10400 40.71800
H  1.64500 51.62700 42.55000
H  1.02200 51.04600 40.99000
H  0.88400 52.71000 41.38500
H  6.16500 49.07200 40.78400
H  5.28900 46.31800 37.88400
H  3.97000 46.05100 39.04500
H  5.48300 45.16800 39.25900

