158

Mg 17.15400 -2.25800 28.13500
C  16.13700 -0.05400 30.80700
C  18.99800 -3.88200 30.42800
C  18.74100 -3.62900 25.50600
C  15.80400 0.17800 25.91900
N  17.47700 -1.93500 30.43700
C  16.87300 -1.14400 31.28700
C  17.30600 -1.45000 32.68200
C  18.30400 -2.61300 32.53000
C  18.26500 -2.81000 31.01100
C  19.74200 -2.31300 32.99400
C  16.13700 -1.62900 33.66900
C  16.59500 -2.19700 35.01300
H  17.85800 -1.66800 35.75200
N  18.52200 -3.72100 28.04300
C  19.15000 -4.31900 29.08800
C  19.97000 -5.37600 28.51100
C  19.97000 -5.31800 27.06700
C  18.99900 -4.19400 26.78200
C  20.64600 -6.41100 29.40900
C  20.67200 -6.19400 26.02800
O  20.45300 -6.05400 24.83300
C  21.61200 -7.30100 26.41000
N  17.08500 -1.87900 25.96600
C  17.90800 -2.52700 25.15900
C  17.80100 -2.02900 23.74000
C  16.75200 -0.87000 23.81200
C  16.57400 -0.83200 25.28200
C  19.19300 -1.68700 23.04100
C  15.54100 -1.11000 22.96000
C  14.26200 -1.67900 23.70300
N  15.99600 -0.46000 28.23800
C  15.54400 0.39300 27.22900
C  14.99300 1.56000 27.81100
C  15.16500 1.39600 29.18200
C  15.85800 0.19700 29.41800
C  14.43800 2.64300 27.07200
C  14.81100 2.00700 30.39900
O  14.27100 3.05900 30.65400
C  15.40200 1.03000 31.52100
C  16.35000 1.79500 32.49500
O  17.49900 2.07500 32.18900
O  15.70800 2.23400 33.62400
C  16.44000 3.14600 34.40500
H  19.58800 -4.50500 31.10300
H  19.31700 -4.07400 24.69100
H  15.38200 0.94600 25.26800
H  17.91100 -0.55300 32.81700
H  17.89500 -3.48700 33.03500
H  19.85400 -1.36200 33.51500
H  20.37200 -2.24500 32.10700
H  20.06600 -3.14900 33.61400
H  15.44200 -2.33400 33.21200
H  15.78300 -0.61700 33.87000
H  16.59400 -3.27400 34.84600
H  15.76200 -2.01700 35.69400
H  20.54200 -7.36300 28.88900
H  20.48300 -6.40300 30.48700
H  21.68800 -6.10300 29.32100
H  22.24500 -7.06000 27.26500
H  22.32500 -7.56900 25.63000
H  21.03800 -8.21300 26.57200
H  17.39200 -2.93000 23.28400
H  17.31400 -0.03200 23.39800
H  19.31300 -0.64900 22.72800
H  19.48900 -2.34800 22.22700
H  19.96300 -1.80800 23.80300
H  15.70300 -1.77600 22.11300
H  15.14200 -0.15600 22.61400
H  13.70800 -0.80800 24.05300
H  14.57700 -2.39200 24.46500
H  13.68200 -2.27700 23.00000
H  13.87400 3.31600 27.71700
H  13.64600 2.29300 26.41000
H  15.25600 3.12000 26.53000
H  14.60800 0.66100 32.17000
H  15.93800 3.47700 35.31400
H  16.70100 4.03500 33.83000
H  17.36600 2.68700 34.75100
Mg 41.28900 40.82800 26.44000
C  40.68600 43.16100 29.03300
C  42.24900 38.61000 29.02400
C  42.21000 38.76000 24.04000
C  40.62600 43.33600 24.14800
N  41.44100 40.88500 28.81500
C  41.11000 41.95500 29.59400
C  40.99900 41.45200 31.05400
C  41.81200 40.11100 31.00100
C  41.88200 39.82300 29.54100
C  43.27000 40.11500 31.62800
C  39.49800 41.48200 31.50400
C  39.24800 42.47600 32.67400
H  39.56600 41.95500 34.05300
N  42.02100 38.91300 26.50700
C  42.40900 38.17100 27.65300
C  43.03600 36.88400 27.28800
C  42.98700 36.90900 25.88600
C  42.43100 38.26500 25.38500
C  43.48700 35.85300 28.24300
C  43.30300 35.77400 24.93900
O  43.32700 35.83000 23.72500
C  43.73100 34.39700 25.49900
N  41.29900 41.00600 24.38500
C  41.68700 39.98600 23.57200
C  41.49500 40.28700 22.15600
C  40.74500 41.65400 22.19000
C  40.91700 42.05400 23.62400
C  42.82400 40.19700 21.34200
C  39.27200 41.51500 21.74500
C  38.30500 40.64200 22.67700
N  40.78100 42.81400 26.55600
C  40.55900 43.77800 25.48500
C  40.24100 45.07000 26.02000
C  40.20500 44.82400 27.46300
C  40.62700 43.46800 27.69800
C  40.08300 46.32200 25.21600
C  40.02700 45.56500 28.66600
O  39.67500 46.70600 29.00500
C  40.22500 44.45900 29.80500
C  41.21600 45.04100 30.66100
O  42.44800 44.86300 30.57300
O  40.66700 45.81100 31.67400
C  41.54700 46.35700 32.71000
H  42.58300 37.86200 29.74600
H  42.50600 38.04200 23.27300
H  40.28900 44.16000 23.51700
H  41.55500 42.16900 31.65900
H  41.21800 39.37500 31.54200
H  43.97400 39.75600 30.87700
H  43.22900 39.43600 32.48000
H  43.47800 41.10000 32.04500
H  39.20400 40.50400 31.88700
H  38.82300 41.68900 30.67400
H  38.22500 42.85200 32.70200
H  39.85600 43.34700 32.42900
H  42.72800 35.09100 28.41400
H  43.64100 36.29300 29.22800
H  44.45600 35.48900 27.90000
H  44.68700 34.65800 25.95400
H  43.68700 33.65600 24.70000
H  43.10700 34.06500 26.32900
H  40.82000 39.53900 21.74000
H  41.20600 42.43900 21.58900
H  42.77900 39.36100 20.64500
H  43.60600 40.13300 22.09900
H  42.96200 41.14300 20.81700
H  39.22600 41.05600 20.75800
H  38.85600 42.52200 21.71300
H  38.25100 39.59600 22.37400
H  37.37200 41.20500 22.68900
H  38.72300 40.68800 23.68200
H  39.15900 46.59700 24.70800
H  40.78800 46.35600 24.38500
H  40.37100 47.18300 25.81800
H  39.24300 44.38600 30.27400
H  41.61500 45.56300 33.45300
H  41.22400 47.31300 33.12400
H  42.54000 46.54500 32.30200

