158

Mg 2.39000 -1.28100 44.69300
C  5.45600 0.07800 43.81500
C  0.87300 1.03600 42.53900
C  -0.51600 -2.88900 45.24500
C  4.10700 -3.80000 46.39100
N  3.13200 0.34000 43.24300
C  4.47400 0.77700 43.21400
C  4.62000 1.89000 42.11000
C  3.13800 2.27200 41.85800
C  2.25900 1.14500 42.54400
C  2.69500 3.70100 42.31000
C  5.39000 1.37100 40.85100
C  6.62800 2.13200 40.47800
H  6.79900 2.47700 39.02100
N  0.40700 -0.91300 44.11700
C  0.00900 0.03700 43.19200
C  -1.36500 -0.06000 43.16000
C  -1.84400 -1.16800 43.92700
C  -0.61200 -1.76700 44.50000
C  -2.16800 0.94400 42.31400
C  -3.39100 -1.48700 44.19400
O  -4.23700 -0.85700 43.54700
C  -3.85400 -2.63400 45.05500
N  1.88200 -3.07200 45.66900
C  0.64300 -3.55600 45.75100
C  0.55500 -4.98300 46.26700
C  2.03000 -5.34100 46.42600
C  2.79100 -4.02100 46.04200
C  -0.14800 -5.15000 47.63000
C  2.63500 -6.60400 45.73400
C  3.45600 -7.63600 46.63000
N  4.31800 -1.75900 45.11800
C  4.82300 -2.79000 45.79600
C  6.25800 -2.66300 45.90100
C  6.58600 -1.55300 45.12900
C  5.39400 -1.05000 44.63100
C  7.11100 -3.60900 46.68200
C  7.64300 -0.67100 44.65200
O  8.87000 -0.69500 44.76200
C  6.95400 0.42900 43.76600
C  7.19500 1.77800 44.39200
O  6.76400 2.15800 45.47500
O  7.90000 2.62100 43.61300
C  8.40500 3.88900 44.11600
H  0.34700 1.72600 41.87600
H  -1.49400 -3.36700 45.32700
H  4.65300 -4.70400 46.66800
H  5.20900 2.63500 42.64400
H  3.06000 2.14100 40.77900
H  3.61600 4.28300 42.34200
H  2.34000 3.68500 43.34000
H  1.98000 4.07000 41.57400
H  4.80400 1.40700 39.93300
H  5.62800 0.33800 41.10500
H  7.52000 1.61000 40.82500
H  6.70800 3.01300 41.11400
H  -1.98700 0.62300 41.28900
H  -1.79200 1.96600 42.35900
H  -3.25400 0.86400 42.37100
H  -3.49800 -3.62900 44.79000
H  -4.94300 -2.58500 45.06400
H  -3.57500 -2.53000 46.10400
H  0.03100 -5.51900 45.47600
H  2.23300 -5.42300 47.49300
H  -0.50300 -4.17900 47.97600
H  0.36900 -5.66400 48.44100
H  -1.04800 -5.74000 47.45500
H  3.27200 -6.21200 44.94200
H  1.80500 -7.21500 45.37900
H  3.69200 -7.50600 47.68600
H  4.46500 -7.71300 46.22700
H  2.91800 -8.58300 46.58900
H  7.60500 -4.35400 46.05900
H  6.50500 -4.15900 47.40200
H  7.93900 -3.11100 47.18700
H  7.43300 0.42100 42.78700
H  9.48000 3.80200 43.96300
H  8.25500 4.04700 45.18400
H  8.05700 4.81200 43.65000
Mg 35.31100 48.39700 24.59500
C  35.45900 46.74600 27.73000
C  33.93300 51.15700 26.09600
C  34.73200 49.71200 21.52900
C  36.13600 45.23500 23.15700
N  34.61900 48.73400 26.76000
C  35.00100 48.04400 27.87000
C  34.70000 48.93300 29.15700
C  34.11300 50.27800 28.52900
C  34.21000 50.04600 26.99000
C  32.67200 50.59100 28.96500
C  35.85200 49.14400 30.21400
C  35.54900 48.66500 31.60000
H  34.10900 48.57500 32.10800
N  34.58100 50.16100 23.92900
C  34.13700 51.19000 24.64600
C  33.90500 52.33800 23.89000
C  33.98700 51.87400 22.49900
C  34.41600 50.52800 22.58800
C  33.49600 53.62100 24.39500
C  33.61900 52.64000 21.21400
O  33.70000 52.09200 20.10200
C  33.24900 53.99000 21.20300
N  35.33800 47.53600 22.69800
C  35.23900 48.33100 21.58900
C  35.53400 47.56400 20.34800
C  36.02700 46.13700 20.80100
C  35.81000 46.27600 22.32300
C  34.48000 47.56700 19.27100
C  37.49600 45.78500 20.51300
C  38.46800 46.80200 21.21900
N  35.73600 46.40300 25.22700
C  36.08600 45.32300 24.54000
C  36.43500 44.24500 25.44300
C  36.19100 44.76200 26.71400
C  35.80300 46.09000 26.53300
C  36.85600 42.93800 25.01600
C  36.28400 44.41300 28.07200
O  36.50400 43.37800 28.65500
C  35.81200 45.80900 28.80500
C  34.64400 45.42900 29.71100
O  33.45700 45.18300 29.41700
O  35.14800 45.18800 30.94000
C  34.34700 44.58100 31.98300
H  33.67300 52.07400 26.62800
H  34.56100 50.13300 20.53600
H  36.35900 44.34000 22.57300
H  33.95500 48.29400 29.63000
H  34.71800 51.16600 28.71500
H  32.19700 49.78000 29.51600
H  32.11500 50.77800 28.04700
H  32.64500 51.46200 29.62000
H  36.14300 50.19300 30.27300
H  36.71200 48.65400 29.75700
H  36.10700 49.27600 32.31000
H  36.10600 47.73600 31.71700
H  33.64600 54.48000 23.74100
H  34.04000 53.85300 25.31000
H  32.43700 53.66000 24.65100
H  34.12800 54.59100 21.43800
H  32.48900 54.26200 21.93600
H  32.85000 54.33200 20.24800
H  36.38100 48.15600 20.00100
H  35.29300 45.43100 20.41400
H  34.58600 46.61400 18.75300
H  34.60100 48.45400 18.64900
H  33.52100 47.58400 19.78800
H  37.69300 45.86200 19.44300
H  37.77200 44.75300 20.72700
H  39.12900 47.33500 20.53500
H  39.28300 46.44400 21.84900
H  37.93100 47.54800 21.80600
H  37.91600 42.68500 25.00400
H  36.31200 42.58500 24.13900
H  36.51600 42.41600 25.91000
H  36.65300 46.21900 29.36400
H  34.15300 43.54100 31.72100
H  33.40900 45.09600 32.18600
H  34.89400 44.55900 32.92600

