158

Mg 45.75800 4.82500 48.31300
C  43.80000 7.59800 47.68000
C  43.03300 2.80700 47.77900
C  47.82300 2.10300 48.17300
C  48.61000 6.79900 48.52500
N  43.55300 5.22300 47.85200
C  42.98500 6.43100 47.57800
C  41.54400 6.22400 47.13100
C  41.26800 4.72600 47.54700
C  42.72100 4.15300 47.75800
C  40.20700 4.42800 48.67000
C  41.38200 6.54600 45.64400
C  40.16200 7.40300 45.27900
H  39.51600 7.09800 43.96300
N  45.41800 2.78400 48.05900
C  44.24200 2.13000 47.92200
C  44.41300 0.70200 47.78600
C  45.78300 0.47400 47.99400
C  46.41600 1.79700 48.08600
C  43.33800 -0.28000 47.45100
C  46.42000 -0.96600 48.14400
O  45.77000 -2.00400 48.17600
C  47.88300 -1.16000 48.32900
N  47.95300 4.50400 48.02200
C  48.51100 3.29600 48.18600
C  50.02500 3.31600 48.21100
C  50.35900 4.83700 48.39300
C  48.87500 5.44900 48.25700
C  50.64400 2.32800 49.25500
C  51.32600 5.33900 47.28300
C  52.10700 6.67500 47.64800
N  46.12000 6.76000 48.21600
C  47.27900 7.42100 48.40900
C  47.02300 8.81600 48.48200
C  45.70400 8.94200 48.23300
C  45.17300 7.64200 48.03500
C  48.08000 9.86000 48.59000
C  44.68000 9.85200 47.92000
O  44.71800 11.05800 47.91800
C  43.35300 9.01300 47.62000
C  42.33300 9.36700 48.65700
O  42.51600 9.10500 49.84000
O  41.24700 9.97500 48.08700
C  40.14300 10.21200 49.14500
H  42.20900 2.11300 47.59900
H  48.49400 1.24500 48.09500
H  49.50000 7.38200 48.77300
H  40.86700 6.91100 47.63900
H  40.83900 4.11000 46.75700
H  39.44200 3.87800 48.12000
H  39.82600 5.31100 49.18200
H  40.62100 3.80400 49.46200
H  41.35300 5.63200 45.05100
H  42.23200 7.07900 45.22000
H  40.54600 8.41400 45.41900
H  39.34700 7.27500 45.99100
H  42.81400 -0.83000 48.23300
H  43.72700 -0.90200 46.64500
H  42.60300 0.31800 46.91300
H  48.33700 -0.69700 47.45300
H  48.16200 -2.16300 48.65200
H  48.15700 -0.68000 49.26900
H  50.39300 2.96500 47.24700
H  50.77400 5.05000 49.37800
H  49.99800 2.06000 50.09200
H  51.48600 2.87000 49.68500
H  51.12000 1.46300 48.79400
H  50.81100 5.47500 46.33200
H  52.09200 4.57200 47.16000
H  53.13900 6.62900 47.30000
H  52.15800 6.78200 48.73100
H  51.56700 7.54500 47.27400
H  48.40900 9.71200 49.61900
H  47.55600 10.78700 48.35800
H  48.92200 9.69000 47.91800
H  42.97200 9.24000 46.62500
H  40.39500 10.81800 50.01500
H  39.73000 9.28000 49.53100
H  39.27300 10.75800 48.77900
Mg -1.70500 34.09900 27.89300
C  -3.52300 32.18900 30.19800
C  -0.16100 35.52800 30.52100
C  -0.18400 36.07100 25.68800
C  -3.66600 32.58400 25.35100
N  -1.90300 33.82000 30.07200
C  -2.60800 32.98800 30.81400
C  -2.31600 33.15700 32.34300
C  -1.43000 34.45600 32.41100
C  -1.13300 34.61200 30.89200
C  -1.97000 35.77000 33.12400
C  -1.65900 31.89900 33.01600
C  -2.30900 31.44000 34.38300
H  -1.48800 31.43600 35.66200
N  -0.21300 35.43500 28.07100
C  0.20600 35.96200 29.24200
C  1.13700 37.08800 28.98300
C  1.26800 37.13400 27.50700
C  0.30500 36.18100 26.99200
C  1.80000 37.88500 30.06500
C  2.25600 37.97000 26.65600
O  2.25000 37.96300 25.41400
C  3.30100 38.80300 27.28300
N  -2.11300 34.42900 25.78700
C  -1.22000 35.20000 25.10900
C  -1.54500 35.14100 23.59400
C  -2.34200 33.86100 23.45500
C  -2.80400 33.62600 24.92900
C  -2.21200 36.37200 22.94300
C  -1.64800 32.64000 22.87700
C  -1.57300 32.61500 21.39600
N  -3.30300 32.71200 27.77900
C  -3.89800 32.11300 26.69200
C  -4.75400 31.13000 27.04700
C  -4.72500 31.00700 28.49300
C  -3.79000 32.06300 28.85000
C  -5.48700 30.24400 26.07500
C  -5.26500 30.40500 29.66600
O  -6.15200 29.55800 29.79900
C  -4.55300 31.17900 30.80200
C  -5.65100 31.85700 31.63300
O  -6.68600 32.37300 31.11700
O  -5.51000 31.60800 33.01900
C  -6.90400 31.73800 33.58400
H  0.32100 36.05400 31.34700
H  0.42600 36.57200 24.93300
H  -4.16700 31.97000 24.60000
H  -3.26400 33.42300 32.81000
H  -0.51500 34.15500 32.92300
H  -2.67800 35.49100 33.90500
H  -2.39500 36.45700 32.39100
H  -1.25300 36.38200 33.67100
H  -0.61100 32.05100 33.27300
H  -1.59700 31.12400 32.25200
H  -2.69900 30.42500 34.30400
H  -3.25000 31.98800 34.43100
H  1.49800 37.70400 31.09700
H  1.57700 38.91200 29.77600
H  2.86900 37.70300 29.95700
H  4.03500 38.12700 27.72100
H  2.92000 39.49400 28.03500
H  3.78400 39.47300 26.57100
H  -0.64400 34.98500 23.00100
H  -3.23200 34.05200 22.85500
H  -1.69500 36.97000 22.19300
H  -2.38500 37.02400 23.79800
H  -3.17900 36.12000 22.50700
H  -2.27500 31.82500 23.23800
H  -0.62400 32.42300 23.18000
H  -0.55700 32.71800 21.01600
H  -2.29700 33.33900 21.02300
H  -1.99200 31.65600 21.09000
H  -6.25500 30.61700 25.39700
H  -5.99200 29.56200 26.75800
H  -4.72000 29.77100 25.46200
H  -4.06400 30.45300 31.45200
H  -7.03300 31.77300 34.66600
H  -7.47000 30.87800 33.22900
H  -7.42800 32.62000 33.21600

