158

Mg 45.14400 4.29000 47.74800
C  43.31300 7.27400 46.95300
C  42.27400 2.56500 46.94100
C  46.93700 1.60300 47.23500
C  48.04300 6.42700 47.88000
N  43.04600 4.84200 46.87600
C  42.58300 6.10300 46.67000
C  41.16900 6.03000 46.13900
C  40.69900 4.57500 46.40600
C  42.03800 3.97800 46.88200
C  39.47900 4.42000 47.33900
C  41.15700 6.42600 44.64100
C  40.66000 7.85900 44.33200
H  39.59100 7.88200 43.18600
N  44.62400 2.21600 47.44100
C  43.40200 1.70000 47.20000
C  43.47700 0.27900 47.11900
C  44.89500 -0.08200 47.30000
C  45.56600 1.21800 47.40100
C  42.19400 -0.59200 46.85000
C  45.48400 -1.48900 47.17800
O  44.81000 -2.48200 46.91800
C  46.97600 -1.74400 47.35700
N  47.22900 4.10700 47.56300
C  47.66500 2.81100 47.33600
C  49.23200 2.84900 47.31400
C  49.57700 4.41000 47.54000
C  48.20200 5.03500 47.71900
C  49.79500 1.92900 48.41000
C  50.41000 4.98700 46.36200
C  51.80100 5.66700 46.63200
N  45.60500 6.46400 47.61100
C  46.79600 7.09600 47.69700
C  46.56600 8.54800 47.53700
C  45.21300 8.69100 47.36200
C  44.64800 7.38500 47.29600
C  47.56400 9.59300 47.60300
C  44.04800 9.60800 47.14600
O  43.98800 10.83100 47.15700
C  42.83600 8.73400 46.79200
C  41.87900 9.09000 47.90200
O  41.71500 8.48800 48.96000
O  40.98900 10.02400 47.39000
C  39.84000 10.35200 48.25200
H  41.33300 2.05700 46.71800
H  47.69400 0.81900 47.16800
H  48.89000 7.10600 47.99900
H  40.59300 6.76300 46.70600
H  40.40300 4.03200 45.50900
H  39.06900 5.40900 47.54100
H  39.85000 3.99900 48.27400
H  38.73600 3.72300 46.95100
H  40.63500 5.76200 43.95100
H  42.18900 6.37200 44.29600
H  41.49600 8.47400 43.99700
H  40.14300 8.26500 45.20100
H  42.51700 -1.40100 46.19300
H  41.37400 -0.14400 46.28900
H  41.73300 -1.02800 47.73600
H  47.10600 -2.80700 47.56100
H  47.21400 -1.21600 48.28000
H  47.59500 -1.45700 46.50700
H  49.50500 2.58100 46.29300
H  49.97200 4.65100 48.52700
H  50.57000 2.48900 48.93300
H  50.28400 1.07200 47.94700
H  49.06800 1.47900 49.08700
H  49.79200 5.73600 45.86700
H  50.71200 4.21100 45.65900
H  52.22600 5.42000 47.60500
H  51.72600 6.73300 46.41500
H  52.58600 5.32200 45.95900
H  48.14700 9.73600 48.51300
H  47.11300 10.53400 47.28700
H  48.26200 9.27200 46.83000
H  42.52300 8.89500 45.76100
H  40.01100 10.21200 49.31900
H  38.99200 9.72000 47.98700
H  39.66900 11.41900 48.10800
Mg -11.77000 38.74700 40.77200
C  -9.90200 35.81900 39.98200
C  -9.12400 40.57400 39.30000
C  -13.71500 41.47800 40.61500
C  -14.40300 36.64900 41.44400
N  -9.72900 38.29700 39.72200
C  -9.23000 37.01600 39.48100
C  -7.97800 37.03700 38.61100
C  -7.66300 38.58900 38.59600
C  -8.88300 39.22300 39.31300
C  -6.33500 38.99300 39.24600
C  -8.22600 36.38500 37.23900
C  -6.96800 35.62800 36.74400
H  -6.39600 36.02300 35.40000
N  -11.38300 40.81400 40.34600
C  -10.22300 41.39900 39.81800
C  -10.47200 42.85500 39.84800
C  -11.80400 43.07200 39.98600
C  -12.38700 41.75700 40.30100
C  -9.32800 43.71200 39.36300
C  -12.53900 44.42600 39.96800
O  -11.78400 45.39600 40.02600
C  -14.02200 44.67800 40.08500
N  -13.72500 39.04500 40.92300
C  -14.27700 40.27700 41.04800
C  -15.84200 40.16600 41.22000
C  -16.05900 38.59800 41.20700
C  -14.61600 38.03400 41.27300
C  -16.56900 40.82900 42.44200
C  -16.75300 38.09400 39.88800
C  -17.59900 36.80200 40.06700
N  -12.11700 36.67900 40.90700
C  -13.19700 35.96200 41.27400
C  -12.92000 34.57800 41.32700
C  -11.66700 34.46500 40.85600
C  -11.19300 35.74700 40.59900
C  -13.93300 33.48900 41.57900
C  -10.59400 33.55300 40.59500
O  -10.56400 32.35200 40.68900
C  -9.38600 34.35700 39.98200
C  -8.32300 34.09500 40.92000
O  -7.54400 33.14900 40.74500
O  -8.07500 35.17800 41.79600
C  -6.89700 35.11500 42.73800
H  -8.47700 41.20200 38.68400
H  -14.45000 42.28500 40.62500
H  -15.27100 36.03600 41.69500
H  -7.27100 36.51300 39.25500
H  -7.57800 38.91000 37.55800
H  -5.58900 39.55200 38.68300
H  -5.83100 38.13400 39.69000
H  -6.55700 39.75400 39.99400
H  -8.60200 37.13100 36.53900
H  -9.07900 35.70800 37.29100
H  -7.19400 34.56500 36.66100
H  -6.13000 35.65300 37.44100
H  -8.32700 43.35900 39.61200
H  -9.36100 44.73400 39.74000
H  -9.36900 43.76400 38.27500
H  -14.27700 45.69500 39.78700
H  -14.33600 44.45800 41.10500
H  -14.68800 44.13400 39.41400
H  -16.28300 40.66900 40.36000
H  -16.67900 38.23000 42.02500
H  -17.22300 41.64200 42.12500
H  -15.80900 41.24600 43.10300
H  -17.15900 40.08800 42.98300
H  -15.93100 37.91500 39.19400
H  -17.42900 38.82400 39.44300
H  -17.89400 36.63700 41.10300
H  -17.03800 35.99600 39.59400
H  -18.59900 36.84300 39.63700
H  -14.72300 33.55300 40.83000
H  -14.24900 33.58500 42.61800
H  -13.60200 32.46400 41.41100
H  -9.05500 33.92900 39.03600
H  -6.33000 34.20500 42.54400
H  -7.22700 35.29400 43.76100
H  -6.21700 35.89600 42.39700

