158

Mg 53.46500 24.98300 43.92900
C  50.86700 27.19400 43.33500
C  51.34500 22.46500 42.77300
C  56.05100 22.89000 43.90000
C  55.56400 27.75400 44.10300
N  51.45600 24.87600 42.90300
C  50.53100 25.87400 42.96700
C  49.15500 25.37800 42.49300
C  49.26900 23.82200 42.51700
C  50.79700 23.74700 42.70400
C  48.48200 23.06900 43.63100
C  48.65100 25.93600 41.12600
C  49.58200 26.21300 39.95500
H  49.42000 25.49100 38.66500
N  53.64900 22.97100 43.58300
C  52.65400 22.08400 43.14600
C  53.23700 20.74400 42.91500
C  54.60200 20.75500 43.22000
C  54.84000 22.22000 43.58200
C  52.48400 19.46600 42.43900
C  55.51700 19.60700 43.23400
O  55.18700 18.45700 42.78400
C  56.88300 19.68200 43.97500
N  55.45600 25.28700 43.89400
C  56.38300 24.26900 43.91800
C  57.80200 24.89100 43.94900
C  57.60400 26.41200 43.78600
C  56.11800 26.48000 43.90800
C  58.65000 24.42300 45.17400
C  58.15300 27.03800 42.47600
C  59.01400 28.30500 42.69700
N  53.34100 27.07500 43.83200
C  54.22600 28.09700 44.10400
C  53.55900 29.39600 44.29800
C  52.20700 29.06700 44.05700
C  52.18000 27.63200 43.66700
C  54.15900 30.70300 44.52800
C  50.88800 29.59700 44.01700
O  50.47500 30.69000 44.33300
C  50.02700 28.45300 43.38100
C  49.64200 28.96700 41.97700
O  50.42300 29.18800 41.04300
O  48.31500 29.30600 41.96500
C  47.90100 30.05500 40.71300
H  50.68800 21.63000 42.51900
H  56.92500 22.23600 43.94500
H  56.21100 28.63400 44.09200
H  48.43400 25.74800 43.22200
H  48.96200 23.41100 41.55400
H  47.78200 23.73000 44.14100
H  49.14400 22.63400 44.37900
H  47.90400 22.31200 43.10000
H  48.01500 26.76900 41.42300
H  47.92200 25.21600 40.75200
H  50.47800 25.67000 40.25800
H  49.71700 27.25500 39.66700
H  53.05700 18.79800 41.79500
H  51.46600 19.59200 42.06900
H  52.49900 18.94200 43.39400
H  57.39400 18.71900 44.00900
H  56.75100 20.07500 44.98300
H  57.48000 20.34700 43.35200
H  58.30200 24.42600 43.09900
H  58.00500 26.92800 44.65800
H  58.08400 23.66200 45.71000
H  58.99600 25.30200 45.71900
H  59.49000 23.86300 44.76400
H  57.33900 27.36400 41.82900
H  58.81300 26.30700 42.00900
H  59.18300 28.46800 43.76100
H  58.57500 29.10700 42.10300
H  59.95100 28.09900 42.17900
H  53.99600 31.19900 43.57100
H  55.23300 30.75400 44.70500
H  53.64400 31.28600 45.29200
H  49.10600 28.28400 43.93900
H  46.93100 30.52700 40.87100
H  47.82100 29.32700 39.90600
H  48.55600 30.80600 40.27000
Mg -12.90200 16.41700 42.63100
C  -10.17900 14.06300 42.33000
C  -10.92500 18.73900 41.08500
C  -15.54500 18.16000 42.11800
C  -14.64300 13.76900 44.00900
N  -10.85800 16.33400 41.69100
C  -9.89100 15.29700 41.80300
C  -8.58800 15.85900 41.19300
C  -8.79900 17.40900 41.08900
C  -10.30700 17.47300 41.33800
C  -7.87100 18.31200 42.07700
C  -8.12000 15.22300 39.83100
C  -6.56600 15.11900 39.61400
H  -6.04500 15.74900 38.29300
N  -13.14100 18.32200 41.87600
C  -12.22800 19.15200 41.29100
C  -12.83200 20.40100 41.07900
C  -14.27300 20.16000 41.15100
C  -14.38000 18.85700 41.77300
C  -12.00400 21.52400 40.63600
C  -15.30500 21.12700 40.58300
O  -14.95200 22.22500 40.07500
C  -16.79900 20.79400 40.63800
N  -14.88500 16.01300 42.99100
C  -15.82400 16.86100 42.65100
C  -17.19800 16.30100 42.95700
C  -16.90200 15.02300 43.77000
C  -15.37800 14.91100 43.58200
C  -18.09300 17.38500 43.69700
C  -17.56800 13.76600 43.28800
C  -17.92100 12.71700 44.26700
N  -12.50200 14.37300 43.09300
C  -13.30600 13.43200 43.72900
C  -12.61000 12.24300 44.01800
C  -11.36300 12.46300 43.42400
C  -11.37600 13.77100 42.89800
C  -13.14500 10.99600 44.63800
C  -10.11100 11.76300 43.11700
O  -9.74700 10.64400 43.39200
C  -9.30400 12.83700 42.28900
C  -7.96400 12.99900 43.00600
O  -7.76900 13.29000 44.19400
O  -6.96100 12.78500 42.15400
C  -5.67400 13.17800 42.70800
H  -10.17500 19.45100 40.73300
H  -16.45500 18.76300 42.11600
H  -15.24700 13.03400 44.54500
H  -7.92200 15.65300 42.03100
H  -8.66000 17.74600 40.06200
H  -8.46700 19.08200 42.56700
H  -7.13400 18.77100 41.41800
H  -7.33300 17.83100 42.89500
H  -8.56000 15.88000 39.08100
H  -8.50600 14.21700 39.66400
H  -6.47700 14.05200 39.81800
H  -5.97700 15.69600 40.32800
H  -12.39700 22.53800 40.55700
H  -11.66400 21.27800 39.63000
H  -11.04700 21.58800 41.15400
H  -17.12200 20.79700 41.67900
H  -17.03900 19.79200 40.28000
H  -17.30400 21.54900 40.03600
H  -17.67800 16.05800 42.00900
H  -17.14000 15.12400 44.82900
H  -17.52600 18.24100 44.06200
H  -18.49500 16.98500 44.62800
H  -18.89600 17.70600 43.03300
H  -16.90400 13.43100 42.49100
H  -18.49600 14.07200 42.80500
H  -17.54100 12.83300 45.28200
H  -17.63700 11.74000 43.87700
H  -19.00300 12.60300 44.32400
H  -12.43100 10.49200 45.28900
H  -13.47000 10.25000 43.91200
H  -14.08400 11.17600 45.16200
H  -9.13400 12.52300 41.25900
H  -5.05200 12.29800 42.87100
H  -5.51000 13.84400 43.55600
H  -5.24900 13.71300 41.85900

