158

Mg 35.45600 1.00300 29.17700
C  33.08000 2.18700 31.64800
C  37.91500 0.94600 31.71900
C  37.65100 -0.07100 26.91700
C  32.99800 1.56800 26.70100
N  35.42900 1.50200 31.40100
C  34.31900 1.94800 32.21400
C  34.68400 1.77900 33.72800
C  36.22800 1.51200 33.63100
C  36.55300 1.35400 32.17000
C  37.14900 2.62600 34.42300
C  33.86300 0.63500 34.40300
C  33.16700 0.87000 35.79300
H  33.66100 2.12800 36.62100
N  37.42400 0.47700 29.28900
C  38.27900 0.52300 30.41900
C  39.62100 0.11000 30.02500
C  39.57500 -0.24400 28.66500
C  38.15500 0.03600 28.24400
C  40.74000 -0.11900 31.03300
C  40.62000 -0.91300 27.75600
O  40.33100 -1.36700 26.60800
C  41.98600 -1.15200 28.33000
N  35.33300 0.92400 27.03900
C  36.34800 0.30700 26.34600
C  35.99300 0.10900 24.85600
C  34.51100 0.55300 24.83400
C  34.30100 1.10700 26.27300
C  37.00100 0.68900 23.90900
C  33.53700 -0.63600 24.49100
C  33.46100 -0.97900 23.00000
N  33.44700 1.80700 29.07200
C  32.62800 1.90200 28.03000
C  31.32800 2.39700 28.48800
C  31.45300 2.53100 29.90100
C  32.76200 2.14000 30.20600
C  30.07500 2.68700 27.66200
C  30.81100 2.89800 31.12300
O  29.68600 3.33000 31.39300
C  31.81900 2.65100 32.31300
C  31.93500 3.95000 33.00900
O  32.90600 4.60700 33.19100
O  30.79600 4.26300 33.74700
C  30.83800 5.48200 34.59100
H  38.71500 1.15800 32.43200
H  38.25400 -0.54900 26.14200
H  32.24900 1.62300 25.90800
H  34.49900 2.77000 34.14500
H  36.43400 0.56500 34.13000
H  36.58500 3.20000 35.15800
H  37.68600 3.28900 33.74500
H  37.94400 2.18200 35.02200
H  34.53300 -0.21300 34.54800
H  33.05600 0.38000 33.71600
H  33.16300 -0.03100 36.40700
H  32.10500 1.09500 35.70000
H  41.54000 0.58400 30.80100
H  41.09400 -1.14800 30.97200
H  40.45600 0.02100 32.07600
H  42.75200 -1.22100 27.55800
H  41.97800 -2.04000 28.96100
H  42.33700 -0.27100 28.86800
H  36.06600 -0.96300 24.67100
H  34.42100 1.36800 24.11600
H  37.53000 1.50700 24.40000
H  36.51500 1.26400 23.12100
H  37.57700 -0.12600 23.47400
H  32.51600 -0.33000 24.71900
H  33.68400 -1.53300 25.09200
H  34.35700 -0.65200 22.47200
H  32.53500 -0.64000 22.53600
H  33.52300 -2.06200 22.89400
H  29.63300 1.83800 27.14100
H  30.46400 3.45200 26.99100
H  29.32200 3.23900 28.22400
H  31.40700 1.89600 32.98200
H  29.92100 5.73200 35.12400
H  31.22300 6.31200 33.99800
H  31.55700 5.39500 35.40600
Mg 40.62300 8.05600 29.49800
C  42.64500 9.21200 32.31600
C  38.43400 7.05800 31.63400
C  39.17000 6.74800 26.78500
C  43.38500 8.99200 27.46000
N  40.67100 7.99600 31.79100
C  41.43000 8.68400 32.68500
C  40.70000 8.67600 34.07700
C  39.39900 7.95500 33.74900
C  39.44000 7.69900 32.29900
C  39.21500 6.75000 34.68800
C  40.49000 10.12300 34.71400
C  41.32700 10.34500 35.99900
H  41.16600 9.54900 37.22700
N  39.09800 7.03800 29.24200
C  38.20300 6.74700 30.27900
C  36.98500 6.09200 29.77000
C  37.23900 5.93700 28.40600
C  38.52900 6.61500 28.06800
C  35.90200 5.58600 30.73600
C  36.36000 5.41100 27.33700
O  36.56400 5.46400 26.14900
C  34.99700 4.89500 27.74700
N  41.19200 7.96000 27.39300
C  40.38000 7.43700 26.45000
C  40.90700 7.69900 25.05100
C  42.19100 8.53000 25.31000
C  42.31500 8.49700 26.79600
C  41.17000 6.30800 24.37200
C  42.18400 9.97000 24.64300
C  41.42100 11.01300 25.51500
N  42.66200 8.87900 29.78200
C  43.54900 9.31400 28.80700
C  44.63000 10.05300 29.36200
C  44.35000 10.01100 30.78000
C  43.14400 9.24100 30.99500
C  45.64800 10.84600 28.65900
C  44.81800 10.45500 32.05900
O  45.74900 11.11700 32.39200
C  43.74300 10.05600 33.09600
C  44.51200 9.23300 34.17100
O  44.79700 8.05800 34.11400
O  44.84600 10.03900 35.20200
C  45.37600 9.38200 36.39800
H  37.64700 6.80000 32.34600
H  38.71500 6.23500 25.93400
H  44.07900 9.44500 26.74900
H  41.33200 8.10300 34.75500
H  38.49600 8.54800 33.89700
H  39.50500 5.80900 34.22000
H  38.14200 6.65600 34.85600
H  39.82100 6.81500 35.59200
H  39.46100 10.22800 35.05600
H  40.80500 10.90000 34.01600
H  41.22600 11.38700 36.30200
H  42.39400 10.22800 35.80600
H  35.85700 4.49800 30.68100
H  35.07000 6.14000 30.30100
H  36.12300 5.94900 31.73900
H  35.25200 4.20500 28.55100
H  34.51700 4.35300 26.93200
H  34.45700 5.73400 28.18500
H  40.20500 8.33400 24.51000
H  43.04100 8.10500 24.77500
H  40.40600 5.54900 24.53900
H  42.11600 5.90600 24.73400
H  41.29700 6.44300 23.29700
H  41.76500 9.98400 23.63700
H  43.16700 10.37900 24.40900
H  41.12700 10.56000 26.46200
H  40.46300 11.32200 25.09600
H  42.08900 11.83800 25.76200
H  45.73000 11.83100 29.11800
H  45.54400 11.04100 27.59200
H  46.58500 10.32300 28.85200
H  43.32900 10.95000 33.56300
H  46.06100 8.54600 36.25500
H  44.59700 9.10900 37.11000
H  45.91100 10.07000 37.05300

