158

Mg 1.23800 8.25300 26.30200
C  1.46800 10.21000 29.06000
C  0.88700 5.43300 28.16700
C  1.09900 6.47100 23.39600
C  1.99900 11.09200 24.26900
N  1.29400 7.80300 28.50600
C  1.18400 8.85400 29.39900
C  1.05200 8.24400 30.84100
C  1.12500 6.66200 30.53400
C  1.12000 6.60000 29.02600
C  2.29000 6.00600 31.14200
C  -0.25700 8.59500 31.56900
C  -0.15800 8.44500 33.14000
H  1.01700 7.69600 33.83600
N  1.09900 6.21300 25.87700
C  0.95600 5.19300 26.76500
C  0.73800 3.94800 26.08900
C  0.81400 4.19500 24.74800
C  1.04900 5.66500 24.58100
C  0.62100 2.63300 26.86000
C  0.74800 3.19200 23.55000
O  0.96700 3.56900 22.41900
C  0.36400 1.77800 23.78600
N  1.67600 8.71200 24.12900
C  1.39500 7.77700 23.18000
C  1.34300 8.36100 21.78700
C  1.51200 9.91900 22.00700
C  1.81700 9.95400 23.55200
C  2.52800 7.69800 20.88400
C  0.39900 10.82900 21.49100
C  -0.79300 11.07900 22.38000
N  1.65600 10.25600 26.54300
C  1.93900 11.28000 25.68700
C  2.10000 12.51800 26.41400
C  2.07200 12.15300 27.77600
C  1.71300 10.77500 27.77900
C  2.34200 13.91100 25.94300
C  2.08700 12.57200 29.09800
O  2.40500 13.67800 29.57100
C  1.59300 11.39300 29.97100
C  2.66800 11.17100 31.02900
O  3.68900 10.58900 30.97200
O  2.13100 11.64600 32.26100
C  2.96000 11.41700 33.46500
H  0.61500 4.57200 28.78000
H  0.87500 6.04500 22.41600
H  2.07600 12.02700 23.70900
H  1.86400 8.66200 31.43700
H  0.23300 6.11600 30.84100
H  1.89400 5.36500 31.93000
H  2.99900 6.76300 31.47700
H  2.83900 5.36800 30.44900
H  -1.10300 7.97800 31.26400
H  -0.38800 9.65400 31.34400
H  -1.08700 8.01300 33.51200
H  -0.09500 9.48500 33.45900
H  0.91200 2.85400 27.88700
H  1.30200 1.88400 26.45600
H  -0.41600 2.30400 26.80000
H  0.27500 1.27000 22.82600
H  -0.62000 1.66200 24.24000
H  1.13100 1.25700 24.35900
H  0.35400 8.12300 21.39300
H  2.40500 10.35200 21.55600
H  2.07100 6.97500 20.20800
H  3.27000 7.21000 21.51700
H  3.08700 8.41500 20.28300
H  -0.15500 10.39000 20.66100
H  0.66300 11.84700 21.20600
H  -0.72700 10.35000 23.18800
H  -1.74900 10.85600 21.90700
H  -0.81200 12.07400 22.82500
H  1.44600 14.34100 25.49600
H  3.21400 14.03300 25.30100
H  2.48200 14.48500 26.85900
H  0.68500 11.59900 30.53800
H  2.26200 11.12200 34.24900
H  3.55200 12.32100 33.60400
H  3.72600 10.64600 33.38400
Mg -5.09400 25.69700 25.38000
C  -3.99000 26.98600 28.45500
C  -6.93200 23.26600 27.23400
C  -5.65200 23.87200 22.62300
C  -2.85400 27.63800 23.80600
N  -5.37700 25.19000 27.59100
C  -4.84600 25.87900 28.64800
C  -5.53400 25.42900 29.95300
C  -6.19400 24.04700 29.56800
C  -6.13300 24.11500 28.05200
C  -5.36200 22.84900 30.14200
C  -6.56300 26.48500 30.50700
C  -6.35000 26.96700 31.95300
H  -6.05400 25.97800 33.09900
N  -6.18800 23.92400 25.01600
C  -6.90600 23.09500 25.85100
C  -7.63800 22.11000 25.09100
C  -7.27400 22.25100 23.73900
C  -6.35700 23.36100 23.76300
C  -8.42200 21.03700 25.74100
C  -7.71800 21.43500 22.50100
O  -7.34000 21.64600 21.37700
C  -8.67300 20.17900 22.69000
N  -4.23500 25.65200 23.50700
C  -4.66300 24.89100 22.49600
C  -3.98600 25.25300 21.15300
C  -3.05600 26.49700 21.58600
C  -3.44600 26.67000 23.03300
C  -3.21200 24.09200 20.52100
C  -3.09300 27.73800 20.75100
C  -4.48700 28.12400 20.28500
N  -3.72100 27.07400 25.95300
C  -2.89000 27.81200 25.19400
C  -2.08100 28.72400 26.00500
C  -2.55700 28.46500 27.31400
C  -3.40000 27.36000 27.22800
C  -1.03800 29.70300 25.55300
C  -2.52600 28.90200 28.68300
O  -1.87700 29.76600 29.23600
C  -3.40400 27.86400 29.54300
C  -2.51500 27.17900 30.56900
O  -1.84800 26.19900 30.30000
O  -2.67200 27.79700 31.81400
C  -1.92800 27.25200 32.99900
H  -7.59600 22.58500 27.77100
H  -5.92700 23.42400 21.66600
H  -2.14900 28.27600 23.26900
H  -4.77200 25.49700 30.73000
H  -7.20700 23.97800 29.96600
H  -4.68600 22.40200 29.41300
H  -6.07100 22.09800 30.49000
H  -4.86700 23.18300 31.05300
H  -7.55300 26.03500 30.43400
H  -6.55300 27.28900 29.77100
H  -7.19300 27.61400 32.19800
H  -5.55900 27.71200 31.86600
H  -7.94500 20.08900 25.49400
H  -9.43600 21.03200 25.34300
H  -8.53000 21.12300 26.82200
H  -8.30500 19.54400 23.49600
H  -8.63300 19.62100 21.75500
H  -9.69400 20.52100 22.86100
H  -4.84700 25.59900 20.58100
H  -2.02600 26.16100 21.70800
H  -3.51400 23.19200 21.05700
H  -2.17100 24.03500 20.83800
H  -3.31400 24.08700 19.43600
H  -2.38100 27.42700 19.98700
H  -2.44800 28.46200 21.24800
H  -4.70000 29.19200 20.32800
H  -5.22200 27.74600 20.99500
H  -4.66200 27.64600 19.32100
H  -0.81600 29.48400 24.50900
H  -0.17900 29.76300 26.22100
H  -1.72100 30.54800 25.46400
H  -4.19000 28.41300 30.06200
H  -0.97600 26.78900 32.73900
H  -2.68700 26.56100 33.36600
H  -1.81900 27.96700 33.81400

