158

Mg 41.38000 8.85400 29.82400
C  43.56900 9.98900 32.36800
C  39.43700 7.51000 32.47200
C  39.60100 7.26800 27.57400
C  43.81900 9.64600 27.54600
N  41.49400 8.68300 32.18700
C  42.46700 9.30000 32.90500
C  42.05700 9.25000 34.43400
C  40.97800 8.20400 34.46300
C  40.60300 8.08500 32.93800
C  41.28500 6.90000 35.24400
C  41.63800 10.65800 34.96900
C  42.34300 10.94200 36.34100
H  41.63000 11.80800 37.39000
N  39.70300 7.62400 29.97600
C  38.99600 7.28900 31.15900
C  37.74600 6.69500 30.70000
C  37.74200 6.56800 29.27000
C  39.05400 7.15000 28.86400
C  36.53800 6.23100 31.65300
C  36.79400 6.02100 28.30600
O  36.88300 6.09100 27.09900
C  35.60000 5.43400 28.90300
N  41.74100 8.34500 27.89200
C  40.85200 7.69800 27.14500
C  41.21600 7.80000 25.67600
C  42.50900 8.56400 25.61500
C  42.70800 8.92000 27.14100
C  41.19800 6.52900 24.88600
C  42.36000 9.83100 24.64200
C  41.67900 11.13100 25.12900
N  43.29500 9.72500 29.84100
C  44.16900 9.98300 28.85600
C  45.29600 10.72000 29.31700
C  45.13200 10.74600 30.73900
C  43.90300 10.07300 30.99300
C  46.47400 11.06400 28.53500
C  45.81600 11.19900 31.99200
O  46.80800 11.86600 32.16500
C  44.73300 10.76400 33.05900
C  45.40800 9.99700 34.14600
O  45.56100 8.79900 34.16600
O  45.71700 10.83100 35.18900
C  46.27200 10.19000 36.38200
H  38.82300 7.15800 33.30400
H  38.97200 6.92700 26.74800
H  44.64500 9.86800 26.86700
H  42.91300 8.95000 35.03900
H  40.07300 8.57000 34.94800
H  41.03100 6.07800 34.57500
H  40.67300 6.89000 36.14600
H  42.35500 6.89600 35.45200
H  40.57600 10.86900 35.09700
H  41.99800 11.37000 34.22600
H  43.28000 11.40700 36.03400
H  42.63300 9.96200 36.72000
H  36.54700 5.15300 31.48600
H  35.56000 6.64500 31.40900
H  36.90300 6.54800 32.62900
H  35.82100 4.56000 29.51600
H  35.00200 5.12400 28.04600
H  34.89500 6.14200 29.33700
H  40.46400 8.46100 25.24600
H  43.38300 7.97000 25.34900
H  40.42800 6.36500 24.13200
H  41.14300 5.69900 25.59000
H  42.06900 6.30500 24.27000
H  41.89600 9.45000 23.73200
H  43.37700 10.15200 24.41300
H  40.90300 11.17800 24.36500
H  42.37200 11.95000 24.93300
H  41.22600 11.16200 26.11900
H  46.26700 11.93000 27.90700
H  46.67400 10.28800 27.79600
H  47.38100 11.12900 29.13600
H  44.24700 11.59100 33.57600
H  46.77700 9.24300 36.19200
H  45.37700 10.00800 36.97800
H  46.91800 10.89100 36.91000
Mg 47.47200 24.88700 27.85100
C  47.89100 27.31400 30.34900
C  46.87100 22.59100 30.29200
C  46.81700 22.74300 25.43200
C  48.11500 27.54500 25.44400
N  47.13000 25.02200 30.02500
C  47.40900 26.08600 30.81600
C  47.07600 25.74800 32.30200
C  46.88000 24.17900 32.28000
C  47.03900 23.87100 30.71900
C  47.83100 23.20900 33.11200
C  45.95400 26.67600 32.92400
C  45.28500 26.26200 34.18500
H  45.39900 27.18300 35.40100
N  46.97400 22.87500 27.88400
C  46.83200 22.11600 28.99300
C  46.49000 20.72400 28.48400
C  46.36100 20.76000 27.03500
C  46.66500 22.17600 26.70400
C  46.09300 19.54800 29.41800
C  45.90500 19.61800 26.09700
O  45.95100 19.77200 24.89200
C  45.63800 18.13300 26.65800
N  47.44600 25.09200 25.74900
C  47.20200 24.00900 24.98300
C  47.32700 24.42100 23.45100
C  47.55200 25.99500 23.49600
C  47.69900 26.27000 24.99500
C  48.43200 23.66400 22.70400
C  46.40800 26.87700 22.89100
C  46.20200 26.61300 21.42200
N  48.07100 26.93900 27.86900
C  48.37700 27.83600 26.80100
C  48.57900 29.18600 27.36400
C  48.49900 28.96800 28.80300
C  48.18100 27.62100 29.00500
C  48.92800 30.41400 26.51000
C  48.51400 29.63700 30.05300
O  48.82600 30.79100 30.32600
C  48.08300 28.65300 31.14300
C  48.94700 28.62500 32.33100
O  50.06900 28.17100 32.38100
O  48.24800 29.16700 33.36100
C  48.96900 29.03900 34.63100
H  46.67800 21.81300 31.03300
H  46.47000 21.99000 24.72100
H  48.17700 28.34200 24.70000
H  47.95800 25.85700 32.93500
H  45.83300 23.91800 32.43200
H  48.40500 22.55100 32.45900
H  47.14500 22.67100 33.76600
H  48.39800 23.83200 33.80400
H  45.10700 26.80800 32.25100
H  46.46600 27.60000 33.19200
H  45.69500 25.26700 34.35500
H  44.22900 26.15800 33.93900
H  46.84500 18.76200 29.34900
H  45.11100 19.14900 29.16700
H  46.06300 19.80400 30.47700
H  44.57500 18.12800 26.90000
H  46.31600 17.85000 27.46300
H  45.89400 17.54800 25.77400
H  46.40100 24.27200 22.89600
H  48.47500 26.36500 23.04900
H  49.10800 24.37000 22.22000
H  48.01700 23.09500 21.87200
H  49.02000 23.02900 23.36700
H  46.65000 27.91600 23.11600
H  45.38400 26.79700 23.25500
H  45.37800 25.93400 21.20700
H  47.14500 26.22500 21.03600
H  45.99100 27.55500 20.91500
H  47.99300 30.95100 26.34400
H  49.17700 30.19800 25.47100
H  49.59200 31.06500 27.07900
H  47.15200 29.09300 31.50200
H  48.41200 29.74200 35.25100
H  49.89100 29.61400 34.53500
H  49.04700 28.09500 35.17000

