158

Mg 35.40200 49.47200 26.26900
C  35.80600 47.49100 29.00000
C  34.20600 52.06100 28.15000
C  34.99100 51.28000 23.33900
C  36.36700 46.76800 24.20400
N  34.83300 49.67600 28.36200
C  35.22700 48.79200 29.28600
C  35.12900 49.38000 30.71800
C  34.34500 50.68900 30.46200
C  34.39400 50.82000 28.93000
C  32.86000 50.78500 31.08800
C  36.50700 49.55200 31.43900
C  36.57800 48.82100 32.83400
H  35.56200 49.06100 33.99000
N  34.83000 51.37000 25.85500
C  34.44800 52.33100 26.76400
C  34.29900 53.59400 26.02000
C  34.42500 53.39700 24.64000
C  34.78700 51.93300 24.61300
C  34.05200 54.86700 26.77500
C  34.33700 54.28700 23.45000
O  34.28000 53.88300 22.28900
C  34.06900 55.73100 23.72200
N  35.76700 49.11000 24.08700
C  35.45600 50.00400 23.10400
C  35.56500 49.33600 21.71300
C  36.19200 47.97600 22.05800
C  36.17800 47.91700 23.54800
C  34.26700 49.26000 20.88400
C  37.69100 47.88900 21.46200
C  38.82900 48.30900 22.48500
N  35.96600 47.48700 26.53000
C  36.38800 46.56700 25.56400
C  36.66200 45.33500 26.34600
C  36.49500 45.67300 27.69000
C  36.07900 46.99200 27.71500
C  37.19900 44.06100 25.73700
C  36.55600 45.11500 28.97800
O  36.92100 44.04300 29.41000
C  36.10000 46.29700 29.92900
C  34.88300 45.77800 30.65700
O  33.81300 45.55500 30.24200
O  35.25100 45.50200 31.94200
C  34.14400 45.24400 32.84300
H  33.82300 52.85400 28.79700
H  35.05200 51.80800 22.38600
H  36.31300 45.88100 23.56900
H  34.49200 48.69500 31.27700
H  34.81800 51.52600 30.97500
H  32.19400 51.18300 30.32300
H  32.94000 51.49300 31.91300
H  32.47600 49.86500 31.52600
H  36.88700 50.57100 31.50700
H  37.22700 48.94800 30.88800
H  37.58400 49.00700 33.20900
H  36.58900 47.73200 32.79100
H  33.10200 55.29900 26.46200
H  34.94400 55.48700 26.68900
H  33.82600 54.68900 27.82700
H  33.06700 55.94400 24.09500
H  34.19800 56.22400 22.75900
H  34.83400 56.00800 24.44800
H  36.34700 49.90900 21.21600
H  35.62300 47.13100 21.67000
H  34.10600 48.18800 20.76900
H  34.53400 49.88400 20.03100
H  33.46700 49.71100 21.47200
H  37.68300 48.51900 20.57300
H  37.89300 46.83800 21.25800
H  39.68200 47.69500 22.19600
H  38.66600 48.26000 23.56200
H  39.09100 49.35600 22.33100
H  38.28800 44.03000 25.78300
H  36.90800 43.85900 24.70600
H  36.74200 43.29800 26.36700
H  36.89500 46.38200 30.67100
H  34.38600 45.71600 33.79500
H  33.96700 44.17100 32.91500
H  33.16900 45.63000 32.54400
Mg 26.81300 50.69400 26.75400
C  24.73200 51.55700 29.64600
C  29.14100 49.55300 28.94100
C  28.58900 49.67000 24.10000
C  24.35700 51.94100 24.76900
N  26.77500 50.39900 29.06500
C  25.85600 50.80200 29.99700
C  26.21400 50.40100 31.43300
C  27.74700 50.00400 31.16300
C  27.95500 50.00600 29.63500
C  28.83000 50.80000 31.91800
C  25.36300 49.27100 32.19500
C  24.77300 49.50000 33.55400
H  25.78500 49.94000 34.60000
N  28.58200 49.72100 26.58600
C  29.43100 49.35900 27.60500
C  30.57700 48.68700 27.09700
C  30.53000 48.78000 25.66500
C  29.20200 49.38400 25.41100
C  31.68200 48.26800 28.02000
C  31.51200 48.40600 24.53900
O  31.31300 48.74500 23.35800
C  32.87200 47.94800 24.88600
N  26.53500 50.71400 24.70900
C  27.39600 50.27500 23.74800
C  26.86400 50.58500 22.36000
C  25.43200 50.88200 22.60500
C  25.40100 51.21100 24.09800
C  27.67000 51.71700 21.63300
C  24.30000 49.90100 22.19400
C  23.11800 50.48900 21.45500
N  25.04400 51.69700 27.06000
C  24.11900 52.19000 26.12800
C  22.88300 52.69300 26.80400
C  23.14800 52.54500 28.15300
C  24.42400 51.88500 28.26900
C  21.68000 53.24100 26.08900
C  22.57000 52.77200 29.49800
O  21.60700 53.37100 29.79400
C  23.57100 52.12400 30.46600
C  23.97900 53.16100 31.50400
O  24.76800 54.01200 31.25600
O  23.22900 52.93100 32.61600
C  23.61700 53.69500 33.80500
H  29.83100 49.14700 29.68300
H  29.15600 49.35600 23.22200
H  23.58600 52.24300 24.05700
H  26.16300 51.31900 32.01900
H  27.90400 48.93600 31.31700
H  28.44500 50.96900 32.92300
H  29.11700 51.73100 31.42900
H  29.73400 50.19100 31.95600
H  25.89200 48.32000 32.14000
H  24.45100 49.19300 31.60400
H  24.34200 48.57300 33.93200
H  23.98100 50.24900 33.58900
H  32.34800 47.52300 27.58300
H  31.28100 47.90900 28.96800
H  32.13900 49.23600 28.22300
H  33.51800 48.04000 24.01200
H  32.82100 46.89000 25.14300
H  33.24600 48.47000 25.76700
H  27.07000 49.69900 21.76000
H  25.02800 51.79700 22.17100
H  28.44800 52.04800 22.32200
H  27.07200 52.57100 21.31600
H  28.34400 51.41800 20.83000
H  23.80600 49.43500 23.04600
H  24.74700 49.05800 21.66600
H  23.03300 49.89700 20.54400
H  23.31300 51.48300 21.05200
H  22.19100 50.55900 22.02400
H  20.96300 53.63000 26.81100
H  21.14600 52.59600 25.39100
H  22.15700 53.96500 25.42900
H  23.10600 51.27900 30.97200
H  22.71500 53.76500 34.41300
H  23.95500 54.72000 33.65400
H  24.38900 53.15000 34.34700

