158

Mg 1.98900 -1.30700 43.58600
C  5.43700 -1.40300 42.88200
C  1.78700 1.55100 41.76700
C  -1.30300 -1.85300 43.25700
C  2.31900 -4.71900 44.60600
N  3.41000 -0.11800 42.36500
C  4.77000 -0.28500 42.29700
C  5.42000 0.73600 41.26700
C  4.30500 1.84800 41.29700
C  3.10100 1.13000 41.91900
C  4.70200 3.13100 42.09600
C  5.75500 0.12700 39.81600
C  7.03800 0.67500 39.11800
H  6.93500 1.22000 37.71200
N  0.40500 -0.15400 42.82300
C  0.55900 1.01100 42.16000
C  -0.75000 1.64400 41.96900
C  -1.68700 0.54500 42.07500
C  -0.89300 -0.56100 42.66800
C  -0.95700 3.01100 41.37800
C  -3.13600 0.58600 41.70000
O  -3.61900 1.58400 41.18700
C  -3.96700 -0.68200 41.85300
N  0.68800 -3.14200 43.75600
C  -0.65700 -2.88600 43.83700
C  -1.33500 -4.09600 44.43600
C  -0.20000 -5.00900 44.98300
C  1.00500 -4.27200 44.46600
C  -2.45700 -3.82600 45.47500
C  -0.23400 -6.52700 44.41100
C  0.24000 -7.70700 45.31800
N  3.52100 -2.71300 43.93000
C  3.49200 -4.07700 44.19000
C  4.85900 -4.46000 44.52400
C  5.66200 -3.47300 43.96100
C  4.79800 -2.41800 43.64600
C  5.24900 -5.78400 45.11200
C  7.04900 -3.15700 43.55800
O  8.11700 -3.73000 43.74600
C  6.88400 -1.85100 42.70900
C  7.87200 -0.75100 43.27200
O  8.93000 -0.46800 42.78500
O  7.41400 -0.30000 44.40900
C  8.08200 0.80300 45.08800
H  1.77100 2.57600 41.39000
H  -2.37200 -1.98600 43.43000
H  2.34900 -5.70400 45.07700
H  6.41300 0.95600 41.66000
H  4.09800 2.11700 40.26100
H  4.03600 3.35700 42.92900
H  4.57500 3.97900 41.42200
H  5.71700 3.20700 42.48300
H  5.00200 0.42200 39.08500
H  6.03800 -0.92400 39.88000
H  7.80800 -0.09700 39.13800
H  7.51600 1.45500 39.71100
H  -0.17100 3.68500 41.71900
H  -1.87200 3.56000 41.60300
H  -0.80700 2.93100 40.30200
H  -4.94700 -0.36900 41.49300
H  -4.11100 -0.85600 42.91900
H  -3.50800 -1.55600 41.39000
H  -1.75200 -4.65300 43.59700
H  -0.18100 -5.09300 46.06900
H  -2.30800 -2.84700 45.92900
H  -2.48900 -4.56900 46.27200
H  -3.33900 -3.89300 44.83800
H  0.30700 -6.53900 43.46500
H  -1.29100 -6.69700 44.20600
H  -0.58900 -8.38500 45.11600
H  0.11600 -7.47400 46.37600
H  1.20300 -8.04200 44.93400
H  5.13600 -6.51300 44.31000
H  4.74200 -6.07100 46.03300
H  6.30300 -5.90300 45.36500
H  7.29700 -2.03700 41.71700
H  7.85300 1.78000 44.66300
H  9.11800 0.51800 45.27100
H  7.69200 0.90800 46.10100
Mg 16.72500 52.60800 25.30700
C  18.49300 51.47100 28.10600
C  14.20800 53.72400 27.32100
C  15.25000 53.87500 22.58300
C  19.27300 51.27900 23.31300
N  16.45300 52.57500 27.43000
C  17.28800 52.15300 28.39400
C  16.87800 52.58500 29.78400
C  15.30900 52.82700 29.45800
C  15.29500 53.09800 27.98300
C  14.38200 51.65400 29.79200
C  17.71100 53.79400 30.25200
C  17.71400 53.97300 31.73900
H  16.75900 53.15300 32.56500
N  14.98300 53.63800 24.93900
C  14.05300 53.98900 25.91200
C  12.95900 54.68600 25.22200
C  13.32000 54.77600 23.88600
C  14.56100 54.14200 23.79300
C  11.74100 55.17700 25.94800
C  12.59100 55.40200 22.65200
O  13.06900 55.51100 21.53800
C  11.27500 56.01100 22.82100
N  17.19200 52.44500 23.20400
C  16.44700 53.18600 22.29500
C  17.24000 53.33900 20.97200
C  18.63700 52.73600 21.27500
C  18.33100 52.00100 22.62700
C  16.53200 52.52800 19.87600
C  19.82800 53.70800 21.46100
C  21.14800 53.33300 20.69500
N  18.50200 51.42300 25.57900
C  19.43000 50.96100 24.67600
C  20.53500 50.28200 25.41400
C  20.12600 50.44900 26.76600
C  18.88300 51.10000 26.77100
C  21.85800 49.67200 24.80500
C  20.58500 50.15600 28.10900
O  21.68100 49.69300 28.42000
C  19.61800 50.94300 28.98100
C  19.14300 50.00600 30.02200
O  18.38800 49.04200 29.90300
O  19.72300 50.33900 31.22000
C  19.39300 49.41700 32.32900
H  13.42000 54.05800 28.00000
H  14.79500 54.33100 21.70100
H  20.12800 50.93000 22.73100
H  16.96400 51.75800 30.48900
H  14.92500 53.68100 30.01600
H  13.70900 51.44200 28.96100
H  13.82800 51.91300 30.69400
H  14.88500 50.72400 30.05700
H  17.20100 54.64200 29.79500
H  18.70100 53.63600 29.82600
H  17.36900 54.99600 31.89100
H  18.75400 53.84200 32.03700
H  10.87400 54.63200 25.57600
H  11.61200 56.25800 25.88700
H  11.59500 54.96300 27.00600
H  11.36000 56.73100 23.63400
H  10.54700 55.29300 23.19700
H  10.86800 56.55700 21.97000
H  17.35400 54.40100 20.75400
H  18.98600 51.98800 20.56400
H  15.50800 52.20900 20.07200
H  17.03000 51.56800 19.74200
H  16.61400 53.05500 18.92600
H  20.00300 53.89500 22.52100
H  19.62700 54.67700 21.00400
H  21.41700 54.22300 20.12600
H  21.10600 52.64900 19.84800
H  22.02300 53.03700 21.27300
H  22.61400 49.59000 25.58600
H  22.27000 50.20300 23.94700
H  21.60100 48.66400 24.47800
H  20.18900 51.69800 29.52200
H  20.13400 48.73000 32.73700
H  18.45700 48.87300 32.20200
H  19.23800 50.00000 33.23700

