158

Mg 35.48800 1.45600 29.40900
C  33.46600 2.46200 32.05700
C  38.19500 1.40700 31.52000
C  37.67700 0.93300 26.77500
C  32.82400 1.90500 27.19800
N  35.78200 1.93400 31.59900
C  34.82000 2.21200 32.50100
C  35.41300 2.16500 33.90300
C  36.98000 2.24000 33.62600
C  37.01700 1.80800 32.15100
C  37.62700 3.67300 33.82700
C  34.90900 0.91300 34.70700
C  34.64100 1.09900 36.17100
H  35.06300 2.34100 36.87500
N  37.63900 1.04700 29.20400
C  38.51900 1.07900 30.25200
C  39.81200 0.69000 29.67300
C  39.73200 0.55600 28.28100
C  38.31000 0.89900 28.01500
C  41.03300 0.54600 30.72500
C  40.84400 0.26700 27.20800
O  40.77700 0.16000 25.94800
C  42.27800 -0.13100 27.79100
N  35.32400 1.32100 27.41200
C  36.33200 1.11500 26.47000
C  35.85800 1.05200 25.01900
C  34.31200 1.03500 25.24500
C  34.10700 1.42600 26.70000
C  36.48500 2.17900 24.16300
C  33.66400 -0.20200 24.78800
C  33.19400 -1.26100 25.87500
N  33.54600 2.12500 29.49900
C  32.54700 2.26700 28.54200
C  31.33000 2.78200 29.15900
C  31.63100 2.75700 30.53400
C  33.03300 2.50700 30.67900
C  30.03500 3.14400 28.43900
C  31.04400 2.87900 31.86300
O  29.87700 3.00200 32.21700
C  32.27200 2.78700 32.90700
C  32.36600 3.95700 33.62700
O  32.61900 5.08000 33.15000
O  31.89500 3.79500 34.92100
C  31.56000 5.00600 35.62800
H  39.09000 1.54100 32.13100
H  38.34500 0.79400 25.92300
H  32.03300 2.01100 26.45300
H  35.05000 3.05600 34.41600
H  37.55000 1.55000 34.24800
H  36.88300 4.32900 34.27900
H  37.74900 4.09400 32.82900
H  38.60700 3.60600 34.30000
H  35.57000 0.04900 34.63200
H  33.94800 0.66400 34.25700
H  35.15300 0.21700 36.55600
H  33.57900 1.01400 36.40100
H  41.85000 -0.09900 30.40000
H  40.77800 0.01800 31.64300
H  41.41200 1.56500 30.80500
H  42.60900 0.67800 28.44200
H  43.03300 -0.33900 27.03200
H  42.05200 -0.98800 28.42700
H  36.18000 0.11000 24.57500
H  33.77400 1.75600 24.63000
H  37.03900 1.70400 23.35300
H  37.14100 2.84600 24.72300
H  35.70900 2.75900 23.66200
H  34.38500 -0.74600 24.17800
H  32.78000 0.15400 24.26100
H  32.11100 -1.30900 25.76200
H  33.55600 -1.17600 26.89900
H  33.67200 -2.14900 25.46100
H  29.17400 2.82700 29.02700
H  30.01500 2.60000 27.49400
H  29.95100 4.20000 28.18200
H  32.01700 1.93600 33.53800
H  30.77600 4.78800 36.35300
H  31.30100 5.85600 34.99700
H  32.50200 5.29000 36.09800
Mg -9.70000 41.31300 41.76900
C  -8.56200 38.04900 41.12500
C  -6.80000 42.43400 40.39100
C  -11.11600 44.19800 41.87500
C  -12.76000 39.85200 43.01000
N  -8.03400 40.34800 40.73700
C  -7.75400 38.97900 40.63800
C  -6.38200 38.71000 39.82900
C  -5.80400 40.12400 39.83300
C  -6.90800 41.00500 40.39000
C  -4.42400 40.45200 40.59900
C  -6.59700 38.04900 38.40300
C  -5.85600 36.72700 38.04000
H  -4.99100 36.86700 36.75000
N  -9.05200 43.11900 41.20500
C  -7.84800 43.39700 40.68600
C  -7.72900 44.81200 40.51800
C  -8.99400 45.39200 40.89700
C  -9.81100 44.25900 41.30300
C  -6.43900 45.49400 39.84100
C  -9.35900 46.87600 40.86600
O  -8.55800 47.72300 40.43900
C  -10.68700 47.32600 41.21200
N  -11.68900 41.92100 42.29700
C  -11.88600 43.23400 42.40100
C  -13.31500 43.50400 42.85300
C  -13.62600 42.19300 43.67300
C  -12.64200 41.25700 42.96000
C  -13.55000 44.87100 43.64500
C  -15.13300 41.71300 43.47300
C  -15.92300 41.20800 44.68100
N  -10.55300 39.30900 42.07200
C  -11.81900 38.90400 42.51200
C  -11.71500 37.40500 42.59800
C  -10.44800 37.06600 42.08000
C  -9.82800 38.27200 41.72200
C  -12.84600 36.51400 43.12500
C  -9.55200 35.97500 41.84000
O  -9.71800 34.74500 42.04300
C  -8.34600 36.53200 41.10900
C  -7.16700 35.97300 41.85400
O  -6.42700 36.54300 42.62900
O  -6.85000 34.83900 41.14600
C  -5.56200 34.23800 41.43300
H  -5.81600 42.76400 40.05400
H  -11.52000 45.20300 42.01400
H  -13.57800 39.37900 43.55900
H  -5.66400 38.10300 40.38100
H  -5.60300 40.49600 38.82900
H  -3.82900 41.13100 39.98800
H  -3.99100 39.45500 40.67200
H  -4.57500 40.75000 41.63700
H  -6.36600 38.81100 37.65900
H  -7.66100 37.88900 38.23300
H  -6.69700 36.06700 37.82600
H  -5.20300 36.40800 38.85300
H  -6.47200 46.56200 39.62600
H  -6.11000 44.98700 38.93400
H  -5.63100 45.26800 40.53700
H  -10.86500 48.38400 41.01800
H  -10.92800 47.26400 42.27300
H  -11.48400 46.79300 40.69300
H  -13.80200 43.57400 41.88100
H  -13.43000 42.35800 44.73200
H  -13.96200 45.57100 42.91900
H  -12.64600 45.35000 44.02100
H  -14.26200 44.71000 44.45500
H  -15.22000 40.87700 42.77900
H  -15.71400 42.51900 43.02500
H  -16.82300 41.82100 44.71400
H  -15.31700 41.48400 45.54400
H  -16.01000 40.12300 44.74600
H  -13.55400 37.24600 43.51300
H  -12.56600 35.82300 43.92100
H  -13.12900 35.89100 42.27600
H  -8.29700 36.22200 40.06500
H  -5.49000 33.41200 40.72600
H  -5.56100 33.76000 42.41200
H  -4.80500 35.01800 41.34700

