158

Mg 1.61300 41.91100 26.13900
C  3.22200 42.10900 29.33200
C  -1.20800 40.91400 27.75400
C  0.55300 40.94100 23.27200
C  4.89400 42.35500 24.65900
N  1.06600 41.60500 28.33900
C  1.80800 41.98200 29.46400
C  0.96100 41.91000 30.71500
C  -0.48400 41.64300 30.12600
C  -0.21900 41.34200 28.62300
C  -1.41600 40.65500 30.92700
C  1.22900 43.14600 31.62000
C  0.16800 43.68000 32.64700
H  -0.31000 42.62200 33.70700
N  -0.13200 41.02500 25.59400
C  -1.19900 40.74500 26.37500
C  -2.27700 40.25600 25.48600
C  -1.85300 40.27700 24.13400
C  -0.40100 40.78000 24.27100
C  -3.57500 39.81200 26.04800
C  -2.55300 40.00800 22.86600
O  -1.93700 40.10000 21.78600
C  -4.02300 39.56800 22.92400
N  2.59600 41.65300 24.20700
C  1.79900 41.41400 23.23200
C  2.67900 41.23100 21.89000
C  3.94900 42.08500 22.25800
C  3.79100 42.06000 23.82700
C  2.98200 39.79000 21.56600
C  3.91900 43.46100 21.59500
C  2.65000 44.32100 21.94600
N  3.59600 42.24600 26.77400
C  4.81700 42.30400 26.09500
C  5.92700 42.39000 27.07000
C  5.33000 42.21300 28.34700
C  3.94400 42.18300 28.08500
C  7.38800 42.71600 26.78400
C  5.56200 42.15000 29.75000
O  6.66000 42.02900 30.35400
C  4.16400 42.19300 30.48500
C  4.07300 41.02600 31.45700
O  4.01300 39.84500 31.03600
O  4.07600 41.41700 32.73900
C  4.35200 40.35000 33.68800
H  -2.14700 40.70400 28.27000
H  0.29900 40.41800 22.34700
H  5.79900 42.73400 24.18100
H  1.19700 40.96800 31.21000
H  -0.96800 42.61800 30.17000
H  -0.96100 40.28900 31.84700
H  -1.65400 39.78800 30.31100
H  -2.33700 41.18000 31.18000
H  1.50100 44.01300 31.01800
H  2.07300 42.88300 32.25800
H  -0.74800 44.18000 32.33000
H  0.72800 44.35600 33.29300
H  -3.73000 38.77900 25.73700
H  -4.47300 40.31500 25.68900
H  -3.56000 39.81700 27.13800
H  -4.25800 39.48700 21.86200
H  -4.69300 40.32200 23.33400
H  -4.23800 38.64700 23.46500
H  2.08500 41.67600 21.09100
H  4.82700 41.56700 21.87400
H  3.96900 39.56400 21.16300
H  2.27100 39.53800 20.77900
H  2.71500 39.19600 22.44100
H  3.89000 43.25100 20.52600
H  4.80600 43.98600 21.94800
H  1.75700 43.71200 22.08300
H  2.44600 44.93200 21.06600
H  2.91800 44.94600 22.79800
H  7.61500 43.68300 27.23100
H  7.57700 42.74500 25.71000
H  8.12100 42.01200 27.17700
H  4.12300 43.13200 31.03700
H  5.37400 39.99000 33.80500
H  3.63400 39.57500 33.41800
H  4.08900 40.63600 34.70700
Mg -12.33100 15.52200 41.89500
C  -9.25700 13.91800 41.80000
C  -10.74000 18.26800 40.60700
C  -15.27500 16.90300 41.47900
C  -13.90700 12.38900 42.74400
N  -10.25900 15.94100 41.06100
C  -9.18200 15.12600 41.19600
C  -7.89600 15.76500 40.63500
C  -8.32900 17.24700 40.64500
C  -9.86400 17.24400 40.79300
C  -7.78200 18.09700 41.93700
C  -7.60900 15.15300 39.20400
C  -6.07600 14.88400 38.87000
H  -5.62500 15.76300 37.69600
N  -12.90700 17.39700 41.18900
C  -12.12900 18.42700 40.75000
C  -12.99500 19.55800 40.42700
C  -14.31800 19.21300 40.77400
C  -14.21500 17.76900 41.12700
C  -12.47500 20.87200 39.88700
C  -15.58700 20.02500 40.74300
O  -15.48800 21.14700 40.28900
C  -16.92200 19.59300 41.04500
N  -14.31100 14.65900 41.78800
C  -15.32500 15.51700 41.85500
C  -16.72900 14.87600 42.05700
C  -16.25600 13.36000 42.25800
C  -14.76600 13.46400 42.28900
C  -17.52900 15.36700 43.28300
C  -16.76200 12.39700 41.04100
C  -17.99600 11.53400 41.26900
N  -11.72300 13.58400 42.30800
C  -12.45600 12.48500 42.77100
C  -11.51400 11.46400 43.16900
C  -10.26700 11.93800 42.82600
C  -10.41400 13.18800 42.24300
C  -11.81100 10.12700 43.84500
C  -8.87500 11.64700 42.87700
O  -8.21600 10.69700 43.29200
C  -8.12100 12.96200 42.18000
C  -7.13700 13.63800 43.15900
O  -7.46600 14.38800 44.04500
O  -5.85600 13.49000 42.74900
C  -4.86100 14.31100 43.44400
H  -10.20900 19.21700 40.50400
H  -16.30800 17.25600 41.50300
H  -14.37600 11.42700 42.96100
H  -7.09700 15.56500 41.34900
H  -8.00800 17.76800 39.74300
H  -7.27500 17.42600 42.63100
H  -8.58000 18.70900 42.35700
H  -6.98500 18.70600 41.50900
H  -8.04800 15.80500 38.45000
H  -7.92700 14.11100 39.17700
H  -5.98900 13.84100 38.56500
H  -5.40600 15.06000 39.71100
H  -13.00400 21.28800 39.02900
H  -11.38900 20.89900 39.80700
H  -12.67800 21.56000 40.70800
H  -17.68300 20.37300 41.02100
H  -16.79800 19.30600 42.08900
H  -17.19500 18.73800 40.42700
H  -17.42400 14.88700 41.21800
H  -16.67200 12.95200 43.17900
H  -18.60300 15.44300 43.10900
H  -17.13200 16.32700 43.61200
H  -17.46300 14.72700 44.16300
H  -15.93600 11.84400 40.59500
H  -16.97500 13.11000 40.24400
H  -18.25800 11.40500 42.31900
H  -17.84800 10.49800 40.96400
H  -18.86400 11.96700 40.77300
H  -11.93400 10.22200 44.92400
H  -11.00500 9.45100 43.55900
H  -12.75000 9.65800 43.55200
H  -7.50000 12.66900 41.33300
H  -4.26300 14.79800 42.67400
H  -4.24500 13.62000 44.01900
H  -5.17600 15.10300 44.12300

