158

Mg 54.21400 24.79600 45.46000
C  51.52700 26.96900 44.66700
C  52.03900 22.10800 44.63400
C  56.76100 22.83000 45.54900
C  56.07300 27.49300 46.18100
N  52.08300 24.70600 44.61800
C  51.17700 25.64300 44.45000
C  49.86200 25.10200 43.84600
C  49.94300 23.60100 44.37100
C  51.43800 23.46500 44.56100
C  49.05800 23.36400 45.68400
C  49.72200 25.11800 42.33600
C  48.33700 25.03300 41.73400
H  48.13900 24.31500 40.38700
N  54.40800 22.73500 45.08200
C  53.41300 21.83300 44.85000
C  53.95100 20.53700 44.89500
C  55.36500 20.62600 45.12000
C  55.63600 22.08700 45.30800
C  53.09600 19.27400 44.75900
C  56.27400 19.46700 45.08300
O  55.77800 18.32100 45.05600
C  57.70900 19.62600 45.12000
N  56.15200 25.13200 45.77400
C  57.04900 24.14700 45.75700
C  58.47900 24.65500 46.00300
C  58.28100 26.19600 46.31100
C  56.73500 26.32900 46.10900
C  59.26900 23.98300 47.09400
C  59.06400 27.17200 45.37800
C  59.66100 28.38600 46.15100
N  53.90000 26.81800 45.47000
C  54.77500 27.80800 45.83600
C  54.05200 29.11000 45.83000
C  52.81900 28.75400 45.34600
C  52.76800 27.39200 45.09000
C  54.47900 30.43200 46.39900
C  51.60500 29.43200 45.09900
O  51.32300 30.58900 45.11800
C  50.67800 28.23700 44.61000
C  50.16100 28.57000 43.26700
O  50.82000 28.77700 42.22900
O  48.78600 28.71000 43.26800
C  48.22800 28.93500 41.93100
H  51.23400 21.37100 44.62300
H  57.65000 22.20100 45.63400
H  56.65200 28.38400 46.43000
H  48.93500 25.56900 44.17800
H  49.50200 22.91500 43.64800
H  49.72100 23.16000 46.52400
H  48.32900 22.56000 45.58300
H  48.60000 24.29200 46.02800
H  50.30200 24.23500 42.06600
H  50.36000 25.88900 41.90500
H  48.18500 26.09000 41.51400
H  47.65500 24.64700 42.49200
H  53.27300 18.51500 45.52200
H  53.20200 18.90500 43.73900
H  52.11000 19.54000 45.13900
H  58.06300 18.65900 44.76200
H  58.04200 19.87200 46.12800
H  58.00700 20.34900 44.36100
H  59.12900 24.50500 45.14200
H  58.61400 26.34000 47.33900
H  59.52100 24.60600 47.95300
H  60.06600 23.35700 46.69200
H  58.65900 23.18800 47.52200
H  58.49800 27.50600 44.50900
H  59.91200 26.63700 44.95100
H  60.71900 28.29400 46.39600
H  59.09400 28.62800 47.04900
H  59.54800 29.29000 45.55200
H  54.25100 30.40000 47.46400
H  54.01200 31.32100 45.97300
H  55.56000 30.47900 46.27200
H  49.86100 28.12600 45.32400
H  47.38800 28.24100 41.88600
H  48.81400 28.86900 41.01500
H  47.88400 29.97000 41.94100
Mg 48.16700 25.58400 28.47300
C  49.03300 27.53000 31.28700
C  47.38500 23.05400 30.62400
C  47.66200 23.58600 25.83600
C  49.76900 27.89500 26.53100
N  47.96200 25.36100 30.65900
C  48.42000 26.30000 31.60400
C  48.09400 25.84300 33.02300
C  47.85800 24.31000 32.90300
C  47.70000 24.19600 31.30500
C  48.95200 23.43800 33.69200
C  46.93700 26.65900 33.65700
C  47.11400 27.15000 35.09400
H  45.81900 27.32600 35.95400
N  47.24000 23.72900 28.26900
C  47.06200 22.83700 29.27200
C  46.52600 21.62400 28.67300
C  46.54800 21.73900 27.20500
C  47.14400 23.07000 27.05600
C  46.09500 20.49000 29.48000
C  46.11400 20.86500 26.10100
O  46.26400 21.18600 24.91100
C  45.31400 19.57300 26.45600
N  48.71700 25.77200 26.47100
C  48.28700 24.83500 25.51900
C  48.76300 25.25000 24.12900
C  49.34800 26.69200 24.36100
C  49.27400 26.80100 25.86600
C  49.77400 24.30700 23.50700
C  48.47500 27.80100 23.60400
C  49.24200 28.92400 22.84200
N  49.17600 27.35300 28.75900
C  49.76600 28.23300 27.85900
C  50.41000 29.44000 28.55900
C  50.04300 29.18800 29.90000
C  49.36000 27.93600 29.97000
C  50.95900 30.62400 27.87800
C  50.17600 29.70700 31.19700
O  50.85700 30.67300 31.58500
C  49.57200 28.60500 32.17800
C  50.57400 28.28800 33.26300
O  51.18000 27.23700 33.22700
O  50.65300 29.25800 34.22800
C  51.37700 28.99100 35.47100
H  47.32100 22.19900 31.30000
H  47.75700 22.83800 25.04700
H  50.31100 28.55800 25.85400
H  48.95400 26.15000 33.61800
H  46.91500 23.94400 33.31000
H  49.65000 22.88800 33.06100
H  48.36600 22.78000 34.33300
H  49.64900 24.05700 34.25700
H  46.08300 25.98300 33.69900
H  46.64800 27.53900 33.08200
H  47.74600 28.02800 35.22700
H  47.85500 26.47400 35.51900
H  46.54400 20.49900 30.47300
H  46.48900 19.57000 29.04800
H  45.00800 20.43700 29.52700
H  45.92800 18.89100 27.04400
H  45.00000 18.95300 25.61600
H  44.38000 19.84200 26.94800
H  47.86600 25.35100 23.52000
H  50.40400 26.69600 24.09000
H  49.23300 24.00700 22.61000
H  50.03500 23.46800 24.15200
H  50.67500 24.82400 23.17600
H  47.87800 28.30100 24.36700
H  47.75900 27.45000 22.86000
H  50.12000 28.61200 22.27600
H  49.49600 29.72700 23.53500
H  48.51600 29.30600 22.12500
H  50.85900 30.62600 26.79200
H  51.99700 30.56700 28.20600
H  50.40700 31.48700 28.25000
H  48.73300 29.10200 32.66600
H  52.07800 29.76700 35.77600
H  52.06400 28.14600 35.52000
H  50.61700 28.88100 36.24400

