158

Mg 6.06200 54.64600 39.71500
C  5.99500 51.12800 39.19800
C  9.43900 54.55600 38.97800
C  6.04800 57.95300 39.43400
C  2.65100 54.59000 39.95200
N  7.50100 53.04000 38.71000
C  7.25000 51.65200 38.82600
C  8.59000 50.85800 38.79300
C  9.65600 51.98000 39.04900
C  8.81100 53.29800 38.89700
C  10.50200 51.81200 40.33200
C  8.82000 50.24100 37.38000
C  8.45800 51.15400 36.21500
H  7.07300 51.08900 35.66000
N  7.56900 56.07500 39.36000
C  8.87500 55.86100 39.09000
C  9.58100 57.14700 38.90600
C  8.61200 58.19500 39.12800
C  7.34400 57.45400 39.32500
C  11.11500 57.27900 38.53900
C  8.91500 59.69900 39.03600
O  10.06000 60.10600 38.74900
C  7.84600 60.73300 39.21400
N  4.50600 56.05200 39.47200
C  4.79700 57.38800 39.48800
C  3.49700 58.18800 39.83100
C  2.53200 57.14300 40.20300
C  3.22400 55.84300 39.71100
C  3.70900 59.12900 40.98900
C  1.12700 57.33600 39.53400
C  -0.08100 57.32600 40.47700
N  4.56800 53.13500 39.66600
C  3.22600 53.27600 39.91700
C  2.67900 52.01100 40.25200
C  3.72000 51.17600 39.98400
C  4.89200 51.90700 39.60100
C  1.27300 51.58400 40.73100
C  4.10300 49.80900 40.06600
O  3.48300 48.88100 40.60100
C  5.58600 49.70400 39.50800
C  5.54900 48.73600 38.38700
O  5.09700 49.02800 37.29400
O  6.02000 47.55700 38.82500
C  5.96200 46.37900 37.89900
H  10.52400 54.53000 38.85400
H  6.02400 59.03200 39.60000
H  1.57000 54.59000 40.11100
H  8.49500 50.18000 39.64000
H  10.35700 51.94300 38.21500
H  11.50000 52.16800 40.07700
H  10.46100 50.77000 40.65000
H  10.06000 52.45200 41.09600
H  8.20400 49.34900 37.26900
H  9.87300 49.97000 37.31800
H  9.22900 50.97300 35.46600
H  8.59900 52.18800 36.53200
H  11.19200 58.06600 37.78800
H  11.52400 56.35800 38.12300
H  11.51400 57.52400 39.52300
H  7.17200 60.71600 38.35700
H  8.33400 61.70600 39.27700
H  7.35700 60.63400 40.18300
H  3.18100 58.76800 38.96300
H  2.51000 56.91800 41.27000
H  3.14100 58.95100 41.90200
H  3.33100 60.05900 40.56200
H  4.74300 59.18500 41.32900
H  1.06800 56.59500 38.73700
H  1.12400 58.36000 39.16300
H  0.17800 57.18400 41.52700
H  -0.70600 56.49900 40.14000
H  -0.51300 58.32600 40.44200
H  1.17900 51.15900 41.73000
H  0.87700 51.00100 39.90000
H  0.67400 52.49500 40.70400
H  6.16100 49.29400 40.33800
H  6.46600 45.59200 38.45900
H  6.46600 46.59700 36.95800
H  4.94700 46.10500 37.61100
Mg -9.83300 16.84800 40.96700
C  -6.29900 16.61000 41.07000
C  -9.42900 20.22800 40.21600
C  -13.05800 16.97100 39.94200
C  -10.03800 13.49800 41.40200
N  -8.10500 18.21400 40.53300
C  -6.81500 17.85000 40.65300
C  -5.90600 19.02100 40.28800
C  -6.90600 20.23100 40.53800
C  -8.25700 19.50800 40.50100
C  -6.56200 21.15300 41.83200
C  -5.37500 19.06600 38.81500
C  -3.76700 18.85600 38.62000
H  -3.37300 17.57600 37.98700
N  -11.12900 18.44000 40.23500
C  -10.75600 19.69200 39.97600
C  -11.85500 20.44900 39.55200
C  -12.95800 19.55400 39.53900
C  -12.43400 18.26600 39.93700
C  -11.76300 21.95000 39.29500
C  -14.32200 19.92500 38.97200
O  -14.67100 21.06200 38.77300
C  -15.39500 18.90100 38.73000
N  -11.26800 15.31400 40.27500
C  -12.51900 15.69200 40.16700
C  -13.52900 14.59200 40.58400
C  -12.51900 13.38500 40.87400
C  -11.23500 14.11700 40.89800
C  -14.44000 14.93300 41.77600
C  -12.37200 12.21600 39.87200
C  -12.92600 10.89800 40.30000
N  -8.50600 15.30000 41.16000
C  -8.71600 13.94000 41.36700
C  -7.46900 13.28400 41.65100
C  -6.50600 14.28100 41.53300
C  -7.16100 15.51000 41.26200
C  -7.35300 11.84000 42.03500
C  -5.07500 14.54100 41.69100
O  -4.22300 13.80200 42.08900
C  -4.91500 16.17300 41.41700
C  -4.54100 16.74000 42.75900
O  -5.25600 17.02100 43.69500
O  -3.18300 16.75600 42.70700
C  -2.54800 17.20500 43.82500
H  -9.14300 21.28100 40.25500
H  -14.14500 17.03600 40.02700
H  -10.13000 12.46300 41.73900
H  -5.04500 19.11900 40.94800
H  -6.92300 20.91100 39.68700
H  -6.64900 22.22900 41.68000
H  -5.55300 20.98100 42.20700
H  -7.31700 20.93100 42.58700
H  -5.50400 20.05000 38.36300
H  -5.90800 18.32600 38.21800
H  -3.25200 18.88400 39.58000
H  -3.28400 19.67500 38.08700
H  -12.11500 22.53100 40.14800
H  -12.36400 22.21000 38.42400
H  -10.70700 22.21500 39.23200
H  -16.26700 19.35200 38.25700
H  -15.71200 18.50700 39.69600
H  -15.03100 18.06300 38.13500
H  -14.12900 14.36900 39.70200
H  -12.57800 13.06400 41.91400
H  -14.22000 14.48400 42.74400
H  -15.43800 14.56300 41.54100
H  -14.40900 16.01700 41.88800
H  -11.33600 11.93600 39.68300
H  -12.86400 12.40100 38.91800
H  -13.01800 10.84700 41.38500
H  -12.17700 10.13100 40.10300
H  -13.83600 10.59000 39.78500
H  -8.35400 11.41200 42.07800
H  -6.72200 11.63300 42.89900
H  -6.91000 11.41500 41.13400
H  -4.31100 16.37500 40.53200
H  -2.96300 16.67700 44.68300
H  -2.83100 18.24700 43.97000
H  -1.46400 17.11800 43.74300

