158

Mg -1.61900 17.67900 25.59400
C  -2.19900 15.65000 28.20500
C  -2.73600 20.43500 27.52400
C  -1.27100 19.72000 22.93200
C  -1.13500 14.96300 23.59800
N  -2.24400 18.02100 27.61500
C  -2.48100 17.02500 28.49100
C  -2.90500 17.60300 29.89400
C  -3.61500 18.97500 29.45000
C  -2.81400 19.15500 28.10900
C  -5.17700 19.00300 29.15800
C  -1.77500 17.80300 30.88300
C  -2.08100 17.75100 32.38200
H  -1.10700 17.18500 33.35300
N  -1.84600 19.85300 25.27300
C  -2.35100 20.79900 26.22400
C  -2.48300 22.10500 25.58300
C  -1.98100 21.91800 24.23100
C  -1.67700 20.46700 24.10000
C  -3.07800 23.38200 26.27000
C  -1.68900 22.89700 23.13100
O  -1.17000 22.67000 22.04200
C  -2.10600 24.31200 23.30300
N  -1.32300 17.41100 23.53300
C  -1.23100 18.40800 22.65400
C  -1.00000 17.85100 21.17900
C  -0.88100 16.32100 21.46200
C  -1.02900 16.22700 22.94500
C  -2.10000 18.21500 20.14100
C  0.42500 15.75900 21.00900
C  1.66300 16.23100 21.75900
N  -1.63900 15.65800 25.77800
C  -1.38600 14.65600 24.91800
C  -1.62800 13.37300 25.56000
C  -1.88700 13.72300 26.89700
C  -1.82500 15.11000 26.96300
C  -1.84400 11.99400 24.96700
C  -2.32200 13.24800 28.17000
O  -2.57500 12.14600 28.56900
C  -2.52800 14.50000 29.02600
C  -1.70500 14.43400 30.22600
O  -0.46900 14.48900 30.26500
O  -2.55400 14.17300 31.28200
C  -2.00500 13.38600 32.39900
H  -3.30400 21.19200 28.06800
H  -1.14700 20.42200 22.10500
H  -0.91300 14.17400 22.87700
H  -3.66400 16.93300 30.29800
H  -3.35900 19.80100 30.11400
H  -5.69300 19.69900 29.82000
H  -5.49400 17.98800 29.39700
H  -5.53400 19.36100 28.19200
H  -1.42100 18.80900 30.65800
H  -1.00900 17.05500 30.67700
H  -3.07000 17.34000 32.58600
H  -2.07400 18.76100 32.79200
H  -2.24100 24.05300 26.45800
H  -3.59300 23.20600 27.21400
H  -3.82300 23.86400 25.63700
H  -3.18100 24.29800 23.11900
H  -1.63900 24.97700 22.57700
H  -1.95100 24.74800 24.29000
H  -0.06500 18.25700 20.79400
H  -1.65300 15.78800 20.90600
H  -3.01900 18.39700 20.69900
H  -2.45500 17.38100 19.53600
H  -1.86900 19.06300 19.49600
H  0.52000 16.10000 19.97800
H  0.39200 14.67100 21.06200
H  2.12900 15.31300 22.11700
H  1.36000 16.83600 22.61300
H  2.29200 16.64700 20.97200
H  -2.15600 12.15400 23.93500
H  -2.61200 11.48000 25.54500
H  -0.92400 11.41300 25.02400
H  -3.59600 14.55700 29.23600
H  -1.10900 12.80600 32.17900
H  -2.67800 12.54700 32.57700
H  -1.95100 13.97500 33.31400
Mg 47.10100 34.70200 28.45100
C  45.59100 32.87100 31.00200
C  47.54700 37.29700 30.51500
C  47.90900 36.57400 25.79100
C  46.30200 31.99000 26.21600
N  46.80300 34.95700 30.59700
C  46.17900 34.09500 31.45000
C  46.20500 34.68800 32.83800
C  46.39700 36.22900 32.54300
C  47.04200 36.15000 31.14500
C  45.15800 37.20800 32.67400
C  47.47600 34.10500 33.53000
C  47.76000 34.64300 34.98500
H  46.69000 35.54000 35.65300
N  47.81000 36.67300 28.23500
C  47.98500 37.56200 29.20200
C  48.54300 38.80700 28.64900
C  48.63900 38.60200 27.22300
C  48.06700 37.22900 27.01000
C  48.86500 39.88700 29.63300
C  49.17700 39.50500 26.14800
O  49.40600 39.13300 25.00500
C  49.65200 40.85100 26.59100
N  47.06400 34.33400 26.34700
C  47.46700 35.27900 25.44100
C  47.25000 34.75400 23.94600
C  47.13900 33.24400 24.16800
C  46.75100 33.16800 25.69400
C  45.94300 35.55000 23.32400
C  48.42600 32.34400 23.82600
C  48.17200 31.21100 22.71900
N  46.12200 32.81100 28.56200
C  45.87600 31.85600 27.59100
C  45.12000 30.74100 28.17600
C  44.96500 31.10400 29.52400
C  45.58800 32.36500 29.69500
C  44.64200 29.46500 27.42100
C  44.44500 30.71400 30.79100
O  43.94700 29.62900 31.15900
C  44.55500 31.98100 31.76100
C  44.81100 31.57200 33.19600
O  45.79100 31.06000 33.64200
O  43.62600 31.80000 33.91700
C  43.57900 31.54600 35.37200
H  47.55800 38.14200 31.20600
H  48.06100 37.20900 24.91600
H  45.94400 31.18900 25.56600
H  45.28400 34.51100 33.39500
H  47.10200 36.64200 33.26400
H  44.27700 36.59100 32.85100
H  45.02900 37.86100 31.81100
H  45.36100 37.70000 33.62500
H  48.39700 34.42700 33.04400
H  47.48000 33.01700 33.58300
H  48.73600 35.12800 35.02100
H  47.80900 33.74500 35.60100
H  49.83800 40.23800 29.29200
H  49.18200 39.44900 30.57900
H  48.12400 40.64500 29.88800
H  48.84200 41.23500 27.21200
H  49.78200 41.47300 25.70600
H  50.56700 40.92000 27.17900
H  48.10800 35.01300 23.32700
H  46.34600 32.88000 23.51500
H  45.67300 36.39400 23.95900
H  45.13700 34.82100 23.40900
H  46.13400 35.77700 22.27500
H  48.65500 31.74500 24.70700
H  49.28100 33.01400 23.73100
H  47.24700 31.28500 22.14700
H  48.28000 30.23900 23.20000
H  49.06400 31.35500 22.10900
H  43.56900 29.33200 27.28800
H  45.00000 28.60400 27.98400
H  45.05200 29.48700 26.41100
H  43.54700 32.37900 31.64400
H  42.67900 30.96800 35.58700
H  43.54100 32.52600 35.84700
H  44.49000 31.00900 35.63600

