158

Mg 2.80400 -0.41100 43.73600
C  6.13500 0.00300 42.94200
C  2.09800 2.18200 41.64800
C  -0.43800 -1.45000 43.72800
C  3.73300 -3.25900 45.60200
N  3.99400 1.00400 42.56200
C  5.31500 0.96100 42.35000
C  5.83200 2.10000 41.48800
C  4.53200 3.01200 41.51400
C  3.43600 2.04100 41.94500
C  4.63200 4.21100 42.49900
C  6.20900 1.57400 40.04600
C  7.13100 2.55300 39.32400
H  6.74900 2.89500 37.87700
N  1.02900 0.35200 42.93400
C  0.96100 1.42500 42.04400
C  -0.34600 1.75700 41.64600
C  -1.15400 0.76300 42.30500
C  -0.18900 -0.23300 42.97100
C  -0.76000 2.94100 40.73500
C  -2.62300 0.64800 42.14100
O  -3.24400 1.30400 41.38400
C  -3.31500 -0.29300 42.97300
N  1.77200 -2.38700 44.25300
C  0.42400 -2.36400 44.33000
C  0.01200 -3.60900 45.11400
C  1.27200 -4.03900 45.91400
C  2.35100 -3.23000 45.24100
C  -1.26100 -3.44200 45.99800
C  1.54400 -5.50200 45.94000
C  1.50800 -6.24700 47.30600
N  4.59200 -1.42400 44.20700
C  4.80400 -2.55800 44.96600
C  6.30100 -2.76200 45.04500
C  6.84000 -1.73900 44.27400
C  5.75900 -1.02300 43.80600
C  6.94800 -3.77400 45.93200
C  8.08600 -1.14200 43.79900
O  9.24700 -1.33900 44.12600
C  7.66400 0.03100 42.84900
C  8.23400 1.26900 43.45800
O  7.79500 1.72700 44.52200
O  9.07900 1.88600 42.53400
C  9.35500 3.25300 43.01600
H  1.94600 3.00300 40.94500
H  -1.47200 -1.73400 43.93700
H  3.97100 -4.04300 46.32500
H  6.69600 2.63900 41.87800
H  4.47100 3.44200 40.51400
H  5.51400 4.18600 43.13900
H  3.73200 4.36700 43.09300
H  4.57500 5.07400 41.83500
H  5.36100 1.35600 39.39800
H  6.66400 0.58600 40.12600
H  8.19300 2.32300 39.23400
H  7.15800 3.45800 39.93100
H  -1.37700 3.58300 41.36300
H  -1.31700 2.62300 39.85400
H  0.06500 3.56900 40.39800
H  -4.38800 -0.16000 42.83400
H  -3.13900 -0.20800 44.04600
H  -2.93500 -1.25300 42.62400
H  -0.24200 -4.40600 44.41500
H  1.34100 -3.68800 46.94400
H  -2.14200 -3.85800 45.50800
H  -1.35100 -2.41000 46.33500
H  -1.07700 -3.99200 46.92100
H  2.50800 -5.68000 45.46300
H  0.82000 -5.97300 45.27600
H  1.23900 -5.62300 48.15800
H  2.43600 -6.78600 47.49700
H  0.76300 -7.03600 47.20400
H  8.03800 -3.77200 45.91000
H  6.63800 -4.79400 45.70600
H  6.63900 -3.55700 46.95500
H  8.13800 -0.20600 41.89600
H  9.68400 3.02000 44.02900
H  8.43000 3.82400 43.09700
H  10.16400 3.77500 42.50500
Mg 47.59200 45.41500 43.37400
C  44.19400 44.61600 43.28300
C  48.26400 42.00000 43.19100
C  50.76300 46.15100 42.71300
C  46.72600 48.87200 43.19400
N  46.30900 43.56000 42.96900
C  44.95200 43.46900 42.96000
C  44.48800 42.06200 42.62600
C  45.83100 41.21000 42.82800
C  46.87300 42.31300 43.04200
C  45.81700 40.21400 44.05700
C  43.75500 41.82100 41.29200
C  44.33200 42.56000 40.01000
H  44.81100 41.51100 38.95400
N  49.24300 44.24400 42.94500
C  49.36800 42.89100 43.13700
C  50.71100 42.48700 42.91300
C  51.45000 43.64000 42.75800
C  50.47200 44.78500 42.77600
C  51.31900 41.04500 42.90500
C  52.96100 43.64400 42.66000
O  53.62100 42.61800 42.63600
C  53.71200 44.91500 42.61900
N  48.63500 47.36300 43.29400
C  50.00100 47.29800 42.94400
C  50.45200 48.75800 42.90800
C  49.11900 49.53900 42.66700
C  48.13400 48.60600 43.15800
C  51.23400 49.21100 44.17400
C  48.85100 49.95700 41.19200
C  48.02400 51.28600 41.04500
N  45.81800 46.57900 43.25800
C  45.63200 47.93600 43.27700
C  44.22900 48.18600 43.44600
C  43.61900 46.94700 43.52700
C  44.61000 45.96600 43.35500
C  43.54600 49.46100 43.45700
C  42.38400 46.23900 43.68200
O  41.23400 46.60100 43.84900
C  42.74500 44.72800 43.60600
C  42.40900 44.17600 44.96600
O  43.06600 44.28400 45.96100
O  41.18800 43.59900 44.91100
C  40.74800 43.05900 46.22100
H  48.63400 40.97600 43.10800
H  51.78100 46.39400 42.40200
H  46.40900 49.91700 43.21800
H  43.78400 41.90800 43.44300
H  46.04800 40.60600 41.94700
H  44.89100 40.31500 44.62400
H  46.63400 40.41700 44.74900
H  45.71800 39.14100 43.89000
H  42.71600 42.12900 41.40300
H  43.52900 40.77400 41.09000
H  45.26100 43.11600 40.13300
H  43.70600 43.29500 39.50300
H  51.72300 40.82500 41.91700
H  50.51800 40.39700 43.26200
H  52.07100 40.71000 43.61900
H  53.47700 45.33200 41.63900
H  54.79300 44.77900 42.64700
H  53.31500 45.57100 43.39300
H  51.02700 48.78100 41.98200
H  49.04700 50.47200 43.22600
H  52.26800 49.42500 43.90100
H  51.15600 48.36500 44.85600
H  50.88400 50.11500 44.67100
H  48.18600 49.18700 40.80000
H  49.67000 49.91100 40.47400
H  48.58800 52.01300 40.46000
H  47.76500 51.76000 41.99200
H  47.11700 51.15600 40.45600
H  42.49400 49.24500 43.26900
H  43.84600 50.05200 42.59200
H  43.66600 50.07400 44.35100
H  42.19300 44.18500 42.84000
H  40.55900 43.86900 46.92600
H  41.47600 42.30100 46.50900
H  39.89900 42.43300 45.94600

