158

Mg -2.58800 17.28800 26.36500
C  -2.76000 14.90100 29.02900
C  -3.23500 19.65300 28.67900
C  -2.64200 19.44300 23.92100
C  -2.46600 14.65500 24.06700
N  -2.76800 17.26300 28.73000
C  -2.85600 16.18700 29.52400
C  -3.41000 16.58000 30.87600
C  -3.72600 18.11300 30.73100
C  -3.24600 18.36500 29.30400
C  -5.22600 18.53100 30.92100
C  -2.46400 16.25500 32.12600
C  -2.56300 16.99600 33.42600
H  -2.59100 16.25000 34.72300
N  -2.79200 19.33100 26.28400
C  -3.04600 20.12500 27.33100
C  -3.24900 21.51400 26.83600
C  -3.02500 21.44200 25.41500
C  -2.76900 20.02100 25.17100
C  -3.44900 22.75100 27.70100
C  -2.86700 22.57100 24.44100
O  -2.41100 22.34200 23.31700
C  -3.06400 24.02500 24.72700
N  -2.85600 17.05800 24.32300
C  -2.71100 18.11400 23.53700
C  -2.48300 17.67100 22.08800
C  -2.30200 16.15100 22.13000
C  -2.44300 15.94300 23.62200
C  -3.56400 18.04800 21.05500
C  -1.04300 15.59100 21.41700
C  0.27800 15.57400 22.20700
N  -2.55900 15.22100 26.42200
C  -2.51600 14.29500 25.39700
C  -2.47500 12.93700 25.96300
C  -2.61200 13.17300 27.32800
C  -2.66500 14.58800 27.59200
C  -2.47900 11.66200 25.19200
C  -2.76700 12.47800 28.59500
O  -2.76100 11.25600 28.74900
C  -2.81000 13.55200 29.69300
C  -1.66200 13.32500 30.62600
O  -0.59900 13.91400 30.59500
O  -2.07000 12.56400 31.63100
C  -0.93500 12.17500 32.47800
H  -3.29800 20.49600 29.37000
H  -2.51400 20.05500 23.02600
H  -2.41400 13.83600 23.34700
H  -4.32700 15.99100 30.86700
H  -3.05000 18.72600 31.32600
H  -5.75700 18.08300 31.76100
H  -5.81800 18.46300 30.00800
H  -5.22100 19.57300 31.24200
H  -1.44600 16.21300 31.73800
H  -2.77000 15.25900 32.44300
H  -3.43400 17.63200 33.27100
H  -1.71800 17.68300 33.47100
H  -3.64600 22.53200 28.75100
H  -4.35900 23.26400 27.39100
H  -2.67600 23.51400 27.61400
H  -4.08200 24.29800 25.00600
H  -3.00200 24.49300 23.74400
H  -2.35000 24.37200 25.47300
H  -1.48400 18.06600 21.90800
H  -3.14300 15.61300 21.69200
H  -3.41800 17.42600 20.17200
H  -3.39800 19.06700 20.70600
H  -4.55300 17.86600 21.47500
H  -0.86500 16.34100 20.64700
H  -1.30500 14.62400 20.98800
H  0.23000 15.80000 23.27200
H  0.91200 16.27300 21.66200
H  0.68400 14.56900 22.09400
H  -1.42800 11.43000 25.02400
H  -2.90100 11.78600 24.19400
H  -3.06700 10.91900 25.73100
H  -3.70000 13.50000 30.32100
H  0.04700 11.94900 32.06300
H  -1.22100 11.28200 33.03300
H  -0.84700 12.95800 33.23200
Mg 25.76300 0.53100 29.86600
C  27.65500 0.25300 32.83600
C  22.91400 0.89300 31.84200
C  23.74900 0.64400 27.15500
C  28.47700 -0.32200 27.96400
N  25.37400 0.58900 32.03600
C  26.27900 0.49800 33.08100
C  25.70500 0.76400 34.41100
C  24.18900 0.97400 34.13700
C  24.15700 0.78400 32.60000
C  23.13600 -0.10800 34.74400
C  26.38700 1.90400 35.19000
C  26.70900 1.57900 36.66200
H  26.24700 2.69700 37.60600
N  23.59400 0.73300 29.58200
C  22.60800 0.90400 30.49000
C  21.37400 1.21600 29.91800
C  21.62000 1.10700 28.52400
C  22.99500 0.88700 28.37000
C  20.14400 1.58600 30.69500
C  20.70900 1.04400 27.34800
O  21.01100 0.67900 26.18400
C  19.24400 1.33000 27.59200
N  26.12700 0.13000 27.85500
C  25.11700 0.28100 26.90200
C  25.67200 0.17400 25.44900
C  27.22000 0.08100 25.67200
C  27.31700 -0.03400 27.24000
C  25.00800 -0.99500 24.73700
C  28.08900 1.31000 25.14600
C  27.75200 2.72300 25.69600
N  27.68400 0.12100 30.25800
C  28.63900 -0.30700 29.37800
C  29.87700 -0.62800 30.21100
C  29.48300 -0.30300 31.49700
C  28.20500 0.02200 31.52000
C  31.16500 -1.04600 29.77800
C  29.99900 -0.32400 32.87100
O  31.07300 -0.70200 33.33600
C  28.87600 0.12200 33.82300
C  28.75500 -1.01900 34.74300
O  28.47700 -2.11300 34.39800
O  29.23800 -0.65100 35.95800
C  29.07000 -1.56900 37.09200
H  22.07400 1.16500 32.48500
H  23.30700 1.04600 26.24100
H  29.43400 -0.52000 27.47800
H  25.80800 -0.05800 35.11900
H  23.89500 1.99300 34.38600
H  22.28800 0.37000 35.23300
H  23.65800 -0.59500 35.56700
H  22.66400 -0.88400 34.14000
H  25.74000 2.77900 35.12100
H  27.25600 2.32100 34.68200
H  27.79300 1.59200 36.77500
H  26.35400 0.59600 36.96900
H  19.95900 2.64200 30.49600
H  20.18500 1.54700 31.78400
H  19.24600 1.04400 30.39900
H  19.21900 2.20600 28.24000
H  18.82600 0.49000 28.14700
H  18.65100 1.61600 26.72300
H  25.33700 1.14800 25.09200
H  27.65600 -0.82300 25.24700
H  24.58900 -1.67600 25.47800
H  25.81600 -1.48800 24.19600
H  24.27900 -0.75600 23.96300
H  27.95100 1.44900 24.07300
H  29.12800 0.98300 25.19100
H  28.52300 3.25500 26.25400
H  26.95500 2.71700 26.44000
H  27.47400 3.30100 24.81400
H  31.28500 -1.26900 28.71800
H  31.43300 -2.03600 30.14600
H  31.90900 -0.29600 30.04400
H  29.06800 1.01900 34.41200
H  28.21100 -1.27800 37.69500
H  30.00100 -1.61200 37.65700
H  28.84700 -2.59200 36.78600

