158

Mg -0.10700 7.99300 25.72000
C  1.21000 9.40700 28.63700
C  -0.66600 5.11300 27.28700
C  -0.84500 6.66700 22.68300
C  0.45600 11.08600 24.11000
N  0.36000 7.32800 27.69900
C  0.74500 8.09800 28.82100
C  0.43200 7.36100 30.12500
C  0.07600 5.92800 29.64000
C  -0.12600 6.09500 28.10000
C  1.15700 4.85900 29.98600
C  -0.68900 8.06100 31.01700
C  -0.43500 8.23600 32.52200
H  -0.00700 6.95800 33.29500
N  -0.80900 6.15400 25.06700
C  -1.00500 5.08200 25.87500
C  -1.36500 3.95600 25.00000
C  -1.35400 4.35400 23.65100
C  -1.00900 5.80400 23.74700
C  -1.63200 2.64700 25.59400
C  -1.73400 3.64300 22.41700
O  -1.86100 4.11700 21.30500
C  -2.17500 2.17700 22.58800
N  -0.10700 8.79800 23.67400
C  -0.57300 8.08600 22.64800
C  -0.43500 8.94900 21.37900
C  -0.53000 10.41400 21.92300
C  0.00400 10.09800 23.33700
C  0.88700 8.60100 20.66800
C  -1.93400 11.06400 21.83300
C  -2.37900 11.75200 20.51000
N  0.83700 9.76500 26.12200
C  0.91000 10.97100 25.39000
C  1.28800 12.03000 26.22400
C  1.47200 11.49800 27.47900
C  1.17400 10.11700 27.39800
C  1.33800 13.56500 25.94500
C  1.82900 11.75500 28.93600
O  2.14400 12.82500 29.45900
C  1.47400 10.43100 29.71600
C  2.54900 10.05700 30.63500
O  3.50300 9.30800 30.34300
O  2.42900 10.83800 31.69100
C  3.40400 10.43700 32.69300
H  -0.96900 4.26800 27.90800
H  -1.18200 6.18500 21.76300
H  0.61600 12.07900 23.68700
H  1.37400 7.25600 30.66400
H  -0.87500 5.58300 30.04300
H  1.44800 4.43400 29.02500
H  0.63300 4.07100 30.52600
H  1.97700 5.22800 30.60200
H  -1.64000 7.53100 30.95600
H  -0.90200 9.07700 30.68600
H  -1.44900 8.35700 32.90100
H  0.12100 9.14200 32.76200
H  -1.56000 2.65000 26.68200
H  -0.98600 1.90000 25.13200
H  -2.64600 2.31600 25.37100
H  -2.71300 1.73700 21.74900
H  -2.89200 2.08000 23.40300
H  -1.24400 1.63000 22.73900
H  -1.21800 8.79000 20.63800
H  0.19900 11.03900 21.40600
H  0.72200 8.15700 19.68600
H  1.45900 7.89100 21.26600
H  1.55000 9.46600 20.65200
H  -1.94700 11.88000 22.55500
H  -2.57400 10.22300 22.09900
H  -1.62700 11.57800 19.74000
H  -2.55000 12.80500 20.73400
H  -3.32300 11.34300 20.14900
H  0.45300 13.94200 25.43200
H  2.24200 13.96900 25.48700
H  1.27800 14.04200 26.92300
H  0.51600 10.53600 30.22500
H  3.57100 11.26100 33.38700
H  4.33800 10.07200 32.26600
H  3.01300 9.58000 33.24200
Mg 7.92800 2.29700 27.87000
C  9.30200 1.15700 30.80900
C  5.88500 4.42000 29.80500
C  6.34200 3.28500 24.99700
C  9.64400 -0.15400 26.16300
N  7.63500 2.61600 30.11100
C  8.39700 2.13900 31.10700
C  8.16000 2.80900 32.41500
C  6.81700 3.65500 32.10900
C  6.69700 3.54200 30.56900
C  5.45800 3.13300 32.64900
C  9.29400 3.47500 33.13800
C  9.77800 2.98500 34.53000
H  8.73900 2.87200 35.60600
N  6.36700 3.69400 27.48900
C  5.70700 4.48100 28.39400
C  4.88900 5.36400 27.66600
C  5.08400 5.18000 26.25100
C  5.93300 4.00800 26.18600
C  4.16300 6.55300 28.35600
C  4.65300 6.03900 25.06400
O  4.84000 5.73200 23.88300
C  3.95300 7.37500 25.24600
N  7.80600 1.49800 25.97400
C  7.09600 2.11400 24.92300
C  7.41400 1.49900 23.60300
C  8.68000 0.57700 23.89000
C  8.74500 0.63600 25.45000
C  6.39500 0.88800 22.72500
C  9.94300 1.14100 23.14800
C  10.85500 2.03200 23.97900
N  9.24100 0.78100 28.34300
C  9.87200 -0.14700 27.56700
C  10.76600 -0.88800 28.32900
C  10.57100 -0.44300 29.60200
C  9.57400 0.51800 29.61600
C  11.59900 -2.03500 27.83500
C  11.02600 -0.57400 30.97300
O  11.88800 -1.26400 31.44700
C  10.15100 0.39000 31.84200
C  9.39400 -0.44100 32.79000
O  8.24800 -0.84500 32.67100
O  10.09200 -0.55000 33.97900
C  9.34800 -1.10900 35.19700
H  5.34800 5.07600 30.49400
H  5.79400 3.59500 24.10500
H  10.21300 -0.81100 25.50200
H  7.93400 1.93500 33.02600
H  6.79200 4.66000 32.53000
H  5.04900 2.60400 31.78800
H  4.82800 3.97900 32.92400
H  5.69700 2.48200 33.49000
H  9.00400 4.48900 33.41700
H  10.15400 3.55400 32.47400
H  10.59900 3.59000 34.91500
H  10.19200 1.99700 34.32800
H  4.54800 6.73400 29.36000
H  3.10200 6.30200 28.34100
H  4.38500 7.43900 27.76100
H  3.08300 7.27700 25.89600
H  3.57900 7.66400 24.26400
H  4.71900 8.05400 25.62000
H  7.60500 2.36800 22.97400
H  8.46300 -0.46500 23.65200
H  5.35600 1.02300 23.02500
H  6.65400 -0.16000 22.57400
H  6.50300 1.37400 21.75600
H  9.58900 1.53900 22.19700
H  10.52500 0.23900 22.95600
H  11.46000 2.73500 23.40700
H  11.51300 1.32900 24.49000
H  10.29900 2.63700 24.69500
H  11.98000 -2.03000 26.81400
H  11.06300 -2.97000 28.00100
H  12.48400 -2.07700 28.46900
H  10.79000 1.04200 32.43600
H  8.55800 -1.80200 34.91000
H  8.95200 -0.39500 35.91900
H  10.06200 -1.78100 35.67400

