158

Mg 47.04900 25.00700 28.92700
C  47.85500 27.44700 31.36100
C  46.02700 22.99900 31.46500
C  46.54200 22.73200 26.62700
C  48.84100 26.99600 26.55100
N  47.03900 25.20700 31.18900
C  47.19600 26.34100 31.90800
C  46.98200 26.14500 33.43000
C  46.49900 24.62500 33.50000
C  46.48300 24.24500 31.92000
C  47.30400 23.67600 34.42100
C  46.01900 27.18700 33.94700
C  46.10300 27.59700 35.44000
H  46.94700 26.79100 36.39900
N  46.24400 23.10600 29.00200
C  45.89600 22.45700 30.14400
C  45.36100 21.20600 29.72600
C  45.54800 21.15700 28.34700
C  46.08500 22.37700 27.91800
C  44.86900 20.15600 30.70800
C  45.27800 19.98700 27.39300
O  45.54000 20.03100 26.21300
C  44.83300 18.68800 28.04700
N  47.53300 25.00000 26.84800
C  47.20500 23.85900 26.13300
C  47.52400 24.13800 24.66300
C  48.27300 25.50700 24.58900
C  48.17200 25.88600 26.08800
C  48.28000 22.97200 23.85500
C  47.37500 26.40500 23.64400
C  46.20200 27.20800 24.26600
N  48.08000 26.83100 28.86500
C  48.69600 27.52500 27.85000
C  49.12300 28.78200 28.32900
C  48.83800 28.79600 29.70100
C  48.22900 27.60000 29.98800
C  49.57600 29.87600 27.36600
C  48.94400 29.64700 30.83600
O  49.41100 30.80500 30.85300
C  48.33400 28.78400 32.01600
C  49.33200 28.62300 33.08200
O  50.30800 27.85500 33.06800
O  49.01800 29.54400 34.00400
C  49.98600 29.46800 35.15200
H  45.43500 22.46300 32.21000
H  46.35200 22.01300 25.82800
H  49.34200 27.55200 25.75700
H  47.98400 26.14700 33.86000
H  45.43600 24.67300 33.73500
H  48.07900 24.29400 34.87400
H  47.64900 22.84500 33.80600
H  46.66700 23.42200 35.26700
H  45.06900 26.65200 33.94400
H  45.90900 28.07200 33.32000
H  45.04600 27.63500 35.70100
H  46.48300 28.61600 35.51800
H  45.50400 19.27300 30.79100
H  43.89600 19.77000 30.40500
H  44.82800 20.57700 31.71300
H  45.56800 18.04100 28.52700
H  44.65800 18.08500 27.15600
H  43.87600 19.01500 28.45200
H  46.53300 24.16400 24.20900
H  49.32800 25.52900 24.31600
H  49.21500 23.38400 23.47600
H  47.64600 22.71400 23.00700
H  48.39000 22.14600 24.55800
H  46.92000 25.74400 22.90600
H  48.03700 27.03300 23.04700
H  46.08000 27.17500 25.34800
H  45.26900 26.84500 23.83500
H  46.43900 28.21900 23.93500
H  49.42700 29.74000 26.29500
H  50.63400 30.06300 27.54900
H  48.95700 30.74100 27.60700
H  47.46700 29.37000 32.32400
H  50.97300 29.01100 35.08600
H  49.30300 29.04700 35.88900
H  50.21400 30.48800 35.46400
Mg 36.29100 49.16000 25.38800
C  36.27700 47.15000 28.35200
C  35.07400 51.77100 27.36200
C  35.65800 50.85100 22.67100
C  36.98600 46.25700 23.60800
N  35.71300 49.45100 27.55700
C  35.91300 48.49400 28.55400
C  35.63800 49.05400 29.96600
C  35.10800 50.44600 29.63400
C  35.25500 50.59100 28.11000
C  33.60400 50.79000 30.05300
C  36.92000 49.10300 30.84100
C  36.77600 48.66300 32.27700
H  35.47500 49.00000 32.99000
N  35.44300 51.06700 25.01500
C  35.07600 52.00600 25.92500
C  34.94500 53.31600 25.30800
C  35.17300 53.07300 23.89800
C  35.48200 51.60400 23.79400
C  34.50900 54.57900 26.14400
C  35.06500 54.06100 22.82700
O  35.14000 53.65600 21.65100
C  34.84300 55.53900 23.14200
N  36.34900 48.58400 23.41100
C  35.96600 49.46100 22.48800
C  36.12200 48.80000 21.03800
C  36.79700 47.45100 21.40100
C  36.72800 47.41900 22.92700
C  34.76000 48.72200 20.29900
C  38.23900 47.36800 20.77900
C  39.48600 48.02600 21.53900
N  36.65000 47.13000 25.84000
C  37.00600 46.10400 24.96700
C  37.30100 44.91500 25.75800
C  36.98700 45.26000 27.08200
C  36.63000 46.64300 27.08800
C  37.89600 43.64700 25.25600
C  37.04700 44.78500 28.49500
O  37.38500 43.77100 29.04100
C  36.47000 46.06500 29.38800
C  35.19100 45.71600 30.09000
O  34.18500 45.23900 29.53400
O  35.36200 45.83400 31.42300
C  34.26000 45.25000 32.18800
H  34.71100 52.54200 28.04400
H  35.39800 51.41000 21.77000
H  37.23000 45.48000 22.88000
H  34.85500 48.41100 30.36700
H  35.65800 51.26100 30.10300
H  33.78200 51.60800 30.75100
H  33.38000 49.87400 30.60000
H  32.93500 51.07900 29.24300
H  37.20300 50.15200 30.92900
H  37.73800 48.55600 30.37400
H  37.44400 49.24000 32.91700
H  37.02500 47.60200 32.29100
H  35.32000 55.27600 25.93600
H  34.27700 54.36400 27.18800
H  33.56500 54.98900 25.78500
H  35.72800 55.94500 23.63100
H  33.84200 55.75200 23.51900
H  34.74400 55.94500 22.13500
H  36.79900 49.41100 20.44000
H  36.22700 46.59000 21.05100
H  33.94400 49.01700 20.95800
H  34.52000 47.70100 20.00200
H  34.68400 49.36300 19.42000
H  38.21800 47.78100 19.77000
H  38.55300 46.33100 20.66200
H  39.31900 48.36300 22.56300
H  39.80000 48.91800 20.99700
H  40.30600 47.31300 21.46700
H  38.37700 43.79400 24.28900
H  36.97300 43.11800 25.01700
H  38.54400 43.19700 26.00800
H  37.30400 46.44800 29.97600
H  34.57000 45.06000 33.21600
H  33.90400 44.32500 31.73300
H  33.41300 45.93500 32.16700

