158

Mg 40.74100 9.81100 29.03600
C  42.41700 10.80900 31.91900
C  38.18800 8.60800 31.01100
C  39.56400 8.27900 26.38100
C  43.68100 10.74700 27.19600
N  40.34800 9.65700 31.24400
C  41.13200 10.20400 32.16400
C  40.31200 10.23600 33.49000
C  39.13200 9.23800 33.21900
C  39.15400 9.30100 31.74200
C  39.18200 7.82200 33.84300
C  39.95700 11.66300 34.01600
C  39.70400 11.85300 35.48300
H  40.76900 12.60000 36.27700
N  39.11800 8.69000 28.68400
C  38.11000 8.29900 29.63700
C  36.98900 7.65000 28.99100
C  37.33300 7.66900 27.60100
C  38.76600 8.21900 27.53700
C  35.83500 7.00500 29.78000
C  36.48300 7.23700 26.43700
O  36.87700 7.37100 25.30300
C  35.10500 6.66800 26.70300
N  41.53600 9.53600 27.09400
C  40.81500 8.87900 26.18400
C  41.43500 8.98100 24.78400
C  42.74600 9.75800 25.04200
C  42.66300 10.13900 26.50900
C  41.65400 7.57700 24.23000
C  43.01800 10.95900 24.04800
C  42.40700 12.31100 24.41300
N  42.64200 10.71900 29.39300
C  43.71700 11.02500 28.58200
C  44.74600 11.66900 29.34000
C  44.29700 11.54700 30.67200
C  43.01200 11.00300 30.61700
C  46.06500 12.03000 28.86300
C  44.61100 11.88100 32.02900
O  45.55900 12.49600 32.48700
C  43.47900 11.34600 32.91400
C  44.04500 10.41700 33.90700
O  44.61700 9.42400 33.65000
O  43.59000 10.77400 35.21100
C  43.77100 9.62300 36.11700
H  37.29900 8.26400 31.54400
H  39.06600 7.99800 25.45100
H  44.48000 11.18700 26.59400
H  40.86400 9.77100 34.30600
H  38.18700 9.71600 33.47700
H  39.68000 7.15600 33.13900
H  38.18200 7.56100 34.19000
H  39.92800 7.75000 34.63400
H  39.14700 12.03000 33.38500
H  40.73000 12.37100 33.71500
H  39.63000 10.92300 36.04800
H  38.78000 12.42800 35.54000
H  35.87000 6.74300 30.83800
H  35.54800 6.12500 29.20400
H  34.96700 7.66100 29.71700
H  34.63700 6.58100 25.72200
H  34.54900 7.40000 27.28800
H  35.08100 5.69300 27.18900
H  40.77900 9.42300 24.03400
H  43.61400 9.09800 25.04900
H  41.59700 6.87100 25.05900
H  42.59800 7.42600 23.70600
H  40.86600 7.30400 23.52800
H  42.63700 10.60600 23.08900
H  44.10400 10.95700 23.96400
H  41.90700 12.28400 25.38100
H  41.74900 12.51700 23.56900
H  43.23100 13.02400 24.44400
H  46.11600 12.18000 27.78500
H  46.68800 11.18800 29.16300
H  46.44100 12.92600 29.35700
H  42.99200 12.17800 33.42300
H  43.08700 8.77400 36.10500
H  43.67200 10.01100 37.13100
H  44.78400 9.24800 35.97100
Mg -5.74900 24.67400 25.78600
C  -4.02300 26.22800 28.49700
C  -7.02800 22.46700 28.20100
C  -7.11700 22.99600 23.34300
C  -4.13900 26.82800 23.66800
N  -5.57500 24.46700 28.09200
C  -4.88600 25.18400 28.97900
C  -5.28300 24.98200 30.48700
C  -6.02600 23.59300 30.30400
C  -6.26200 23.48200 28.73400
C  -5.34700 22.36000 30.92300
C  -6.08100 26.22800 31.01000
C  -5.77900 26.78500 32.41100
H  -5.23400 25.78700 33.40600
N  -7.00100 23.04500 25.79300
C  -7.44300 22.26500 26.85700
C  -8.28800 21.20300 26.30200
C  -8.48400 21.42300 24.88300
C  -7.47900 22.52100 24.61600
C  -8.98500 20.10000 27.16600
C  -9.44600 20.77200 23.97200
O  -9.56000 20.95000 22.76900
C  -10.51700 19.82700 24.50900
N  -5.53200 24.77300 23.73200
C  -6.22600 23.95700 22.91300
C  -5.93500 24.28500 21.45000
C  -4.96400 25.59500 21.46600
C  -4.87500 25.73100 23.03100
C  -5.39900 22.97200 20.75500
C  -5.57400 26.71700 20.57800
C  -4.59500 27.30200 19.57200
N  -4.23500 26.13400 26.01900
C  -3.84200 27.02100 25.05100
C  -2.87700 27.94400 25.55700
C  -2.92200 27.68700 26.95200
C  -3.78600 26.58500 27.18600
C  -2.15900 29.11800 24.90700
C  -2.52300 28.24200 28.17800
O  -1.87400 29.21200 28.36100
C  -3.19800 27.26000 29.31900
C  -2.10800 26.59300 30.10800
O  -1.15000 25.94300 29.63700
O  -2.36400 26.92600 31.44000
C  -1.26900 26.57900 32.34400
H  -7.36400 21.70000 28.90200
H  -7.57000 22.39800 22.54900
H  -3.64900 27.48700 22.94900
H  -4.37500 24.99600 31.09000
H  -7.05300 23.55900 30.66800
H  -4.67900 22.73000 31.70100
H  -4.81300 21.74400 30.20000
H  -6.24200 21.81100 31.21500
H  -7.12300 25.91200 31.05900
H  -6.18500 27.05800 30.31100
H  -6.67200 27.28800 32.78400
H  -5.10900 27.61100 32.17400
H  -9.26500 19.14000 26.73100
H  -9.91400 20.46500 27.60400
H  -8.22600 19.88800 27.91800
H  -10.96900 20.15900 25.44400
H  -10.16900 18.80100 24.62500
H  -11.32000 19.66800 23.78900
H  -6.88900 24.54900 20.99400
H  -4.00500 25.29900 21.04200
H  -4.44800 23.26600 20.31000
H  -6.02600 22.76100 19.88900
H  -5.13200 22.12000 21.38000
H  -5.86700 27.53900 21.23100
H  -6.49300 26.46200 20.05000
H  -3.80800 26.61400 19.26300
H  -4.19400 28.20000 20.04200
H  -5.07400 27.52300 18.61800
H  -1.72600 29.89100 25.54200
H  -2.92500 29.53300 24.25100
H  -1.40400 28.65800 24.26900
H  -3.77300 27.86900 30.01700
H  -0.44000 27.20900 32.02300
H  -0.87100 25.58700 32.13200
H  -1.49000 26.73600 33.40000

