158

Mg 24.84900 -5.41400 45.93900
C  26.96300 -3.25500 44.24700
C  22.31600 -4.41400 43.75500
C  23.02400 -8.14400 46.80500
C  27.71900 -6.86000 47.58900
N  24.73200 -4.00200 44.25400
C  25.71300 -3.23000 43.69100
C  25.24500 -2.69100 42.29900
C  23.66600 -2.80300 42.40700
C  23.53300 -3.73900 43.58600
C  22.95500 -1.42000 42.71700
C  25.96800 -3.57300 41.07400
C  26.86700 -2.80200 40.09400
H  26.30500 -2.76500 38.65500
N  22.87800 -6.25600 45.45300
C  21.99100 -5.59600 44.58800
C  20.65400 -6.23600 44.69600
C  20.69500 -7.25400 45.69600
C  22.16300 -7.29400 46.06500
C  19.50700 -5.71500 43.82600
C  19.61000 -8.22800 46.17400
O  18.49700 -8.33500 45.64400
C  19.88000 -9.18600 47.30100
N  25.39300 -7.27900 46.96000
C  24.45500 -8.22700 47.14800
C  24.90000 -9.38900 48.00600
C  26.36700 -8.93800 48.34600
C  26.55600 -7.64100 47.53800
C  24.08300 -9.77800 49.22600
C  27.47900 -9.95700 47.93700
C  28.20400 -10.74600 48.99300
N  26.96600 -5.08900 46.04000
C  27.97000 -5.62500 46.85900
C  29.10200 -4.85800 46.72400
C  28.81900 -3.92700 45.71100
C  27.48800 -4.06900 45.31000
C  30.29400 -5.05600 47.53200
C  29.39700 -2.84800 44.88900
O  30.46400 -2.26200 44.95300
C  28.21400 -2.37800 43.92000
C  28.05700 -0.93700 44.13000
O  27.40400 -0.42400 45.01800
O  28.74800 -0.23100 43.16000
C  28.76500 1.22600 43.29300
H  21.50200 -4.13500 43.08100
H  22.46000 -8.96500 47.25200
H  28.48400 -7.25100 48.26300
H  25.53000 -1.64000 42.34700
H  23.25200 -3.19700 41.47800
H  23.67100 -0.69400 43.10400
H  22.20400 -1.67200 43.46500
H  22.52500 -0.97300 41.82000
H  25.17300 -4.03900 40.49100
H  26.46000 -4.43000 41.53500
H  27.83000 -3.30100 40.19800
H  27.05500 -1.75600 40.33500
H  19.46000 -6.35900 42.94800
H  19.57800 -4.66400 43.54600
H  18.63700 -5.72100 44.48200
H  18.96500 -9.58500 47.73800
H  20.16200 -8.54400 48.13600
H  20.61700 -9.94700 47.04600
H  24.87900 -10.14000 47.21600
H  26.54800 -8.71600 49.39800
H  24.72700 -9.97900 50.08200
H  23.70300 -10.79100 49.09500
H  23.28900 -9.07500 49.47800
H  28.28500 -9.47600 47.38100
H  27.11200 -10.76100 47.29900
H  29.18800 -10.31900 49.18400
H  28.56500 -11.70900 48.63100
H  27.61200 -10.98000 49.87800
H  30.72400 -6.03600 47.32100
H  30.10700 -5.17700 48.59900
H  31.01000 -4.23900 47.45000
H  28.61700 -2.49100 42.91400
H  29.65300 1.54900 43.83600
H  27.87500 1.66300 43.74600
H  28.92400 1.59100 42.27900
Mg 17.53400 -0.96000 28.53700
C  16.79200 1.20300 31.07600
C  19.60000 -2.79000 30.76600
C  19.02000 -2.53600 25.88500
C  16.02300 1.28500 26.27900
N  18.25500 -0.66400 30.64900
C  17.63000 0.11700 31.50700
C  17.82200 -0.31700 32.96500
C  18.95100 -1.36500 32.85600
C  18.88500 -1.68600 31.34600
C  20.41300 -0.93700 33.22200
C  16.35900 -0.77300 33.57600
C  15.89800 -0.34100 34.96600
H  17.07500 -0.00100 35.94500
N  18.96400 -2.46500 28.35200
C  19.63000 -3.11500 29.39100
C  20.36600 -4.27200 28.82000
C  20.27700 -4.15800 27.35300
C  19.43600 -2.96100 27.14600
C  20.96500 -5.40000 29.61300
C  20.93200 -5.02100 26.35400
O  20.96800 -4.75300 25.16000
C  21.62500 -6.29300 26.77000
N  17.66000 -0.62200 26.38100
C  18.26200 -1.46200 25.51100
C  18.00700 -1.08800 24.03700
C  16.94300 0.06900 24.24500
C  16.82800 0.28900 25.70400
C  19.22900 -0.70700 23.13300
C  15.57800 -0.20800 23.53000
C  14.48600 -1.13600 24.20400
N  16.47200 0.81300 28.62300
C  15.82800 1.59300 27.69700
C  15.22500 2.77000 28.31900
C  15.51700 2.55400 29.66500
C  16.28300 1.40100 29.75500
C  14.61300 3.93400 27.76400
C  15.38800 3.15500 31.00600
O  14.83900 4.19000 31.30700
C  16.09700 2.24900 31.94200
C  17.01300 3.07600 32.76000
O  18.02600 3.63300 32.34500
O  16.47800 3.28900 34.00000
C  17.16700 4.33600 34.83700
H  20.09500 -3.41100 31.51500
H  19.37800 -3.05400 24.99300
H  15.42300 1.93700 25.64200
H  18.21100 0.60800 33.38900
H  18.64000 -2.22800 33.44500
H  21.18400 -1.07300 32.46400
H  20.78100 -1.50800 34.07400
H  20.42600 0.13700 33.40300
H  16.45500 -1.85100 33.69900
H  15.61700 -0.60000 32.79600
H  15.36500 -1.11500 35.51700
H  15.35800 0.60500 35.01600
H  20.33300 -6.25700 29.38400
H  20.86500 -5.28400 30.69300
H  22.03900 -5.49300 29.45400
H  22.48900 -6.16500 27.42100
H  21.91300 -6.78000 25.83800
H  20.89900 -6.89900 27.31300
H  17.40100 -1.89100 23.61600
H  17.32100 0.98100 23.78300
H  20.15200 -0.97200 23.64800
H  19.28300 0.36100 22.92200
H  19.27500 -1.23700 22.18200
H  15.80200 -0.66900 22.56800
H  15.02800 0.73200 23.49700
H  13.49500 -0.71600 24.37900
H  14.75800 -1.62300 25.14000
H  14.36400 -2.05000 23.62200
H  14.63000 4.80500 28.42000
H  13.56300 3.72300 27.56100
H  15.13200 4.08100 26.81700
H  15.27700 1.77500 32.48100
H  16.66300 5.25600 34.54300
H  18.24200 4.45600 34.69900
H  16.95400 3.96500 35.83900

