158

Mg 2.13000 -3.43800 45.32700
C  4.72900 -1.61100 44.12800
C  0.06200 -1.70400 43.09100
C  -0.33800 -5.69900 46.00700
C  4.42600 -5.59200 46.92400
N  2.44900 -1.97100 43.57600
C  3.58200 -1.27500 43.42400
C  3.38700 -0.02500 42.46400
C  1.86500 -0.06900 42.19300
C  1.42500 -1.35800 42.95000
C  1.08200 1.21000 42.63800
C  4.28300 -0.14500 41.17500
C  5.49400 0.78200 40.80700
H  5.50400 1.33700 39.37100
N  0.11600 -3.62700 44.77200
C  -0.53800 -2.73700 43.90400
C  -1.94900 -3.04400 43.92700
C  -2.07800 -4.23900 44.73500
C  -0.75500 -4.63800 45.16900
C  -3.01000 -2.27000 43.15600
C  -3.40200 -5.06300 44.95200
O  -4.42700 -4.77100 44.36400
C  -3.42300 -6.28300 45.92300
N  2.08000 -5.45800 46.28000
C  0.94600 -6.09600 46.51000
C  1.18200 -7.49100 47.20500
C  2.65100 -7.41500 47.45000
C  3.06900 -6.10000 46.86700
C  0.39800 -7.86200 48.50400
C  3.56000 -8.61900 47.01700
C  3.62900 -8.96300 45.56100
N  4.18200 -3.60200 45.57100
C  4.95900 -4.50000 46.29900
C  6.22700 -3.95700 46.36600
C  6.26000 -2.85100 45.47300
C  4.93000 -2.69700 45.01200
C  7.53500 -4.51500 46.98600
C  7.12700 -1.86800 44.90700
O  8.28000 -1.62800 44.99600
C  6.11900 -0.93400 44.03700
C  6.10200 0.40700 44.65000
O  5.50400 0.68200 45.65900
O  6.67300 1.37600 43.90600
C  6.43000 2.76500 44.18700
H  -0.62600 -1.07500 42.52100
H  -1.09200 -6.34200 46.46700
H  5.16900 -6.22300 47.41500
H  3.71400 0.88300 42.97000
H  1.62700 -0.20100 41.13700
H  0.72700 1.07200 43.65900
H  0.30300 1.50700 41.93500
H  1.81100 2.02000 42.60800
H  3.57900 -0.05300 40.34800
H  4.64100 -1.17400 41.14600
H  6.39500 0.20100 41.00300
H  5.52600 1.65200 41.46300
H  -2.69500 -1.49000 42.46300
H  -3.66900 -1.85200 43.91700
H  -3.64400 -2.94800 42.58500
H  -2.82200 -7.13000 45.59100
H  -4.44300 -6.64200 46.05800
H  -3.05700 -6.00500 46.91200
H  0.93100 -8.31600 46.53900
H  2.73500 -7.14200 48.50200
H  -0.25800 -7.08000 48.88700
H  1.15600 -8.14900 49.23300
H  -0.38700 -8.61700 48.47000
H  3.14700 -9.58000 47.32300
H  4.61800 -8.50400 47.25200
H  4.70000 -9.03900 45.37400
H  3.06600 -8.23800 44.97400
H  3.11300 -9.85600 45.20900
H  8.09500 -3.72700 47.49100
H  8.02500 -5.13600 46.23600
H  7.26100 -5.25400 47.73900
H  6.46400 -0.86900 43.00500
H  6.96100 3.38500 43.46500
H  6.82400 3.05900 45.16000
H  5.35600 2.90000 44.05700
Mg -2.22700 33.61000 26.57800
C  -4.07400 32.15100 29.38200
C  -0.76200 35.74300 28.73900
C  -1.05000 35.15200 23.91400
C  -4.46500 31.60700 24.44000
N  -2.43300 33.84400 28.83600
C  -3.16200 33.09500 29.80900
C  -2.83500 33.54300 31.24000
C  -1.85600 34.73900 30.92900
C  -1.59000 34.77600 29.35700
C  -2.28500 36.08500 31.56100
C  -2.31800 32.38300 32.14900
C  -2.81800 32.34400 33.55700
H  -1.84000 32.24400 34.78400
N  -1.04900 35.28400 26.32500
C  -0.42500 35.96100 27.35900
C  0.53200 36.96600 26.80700
C  0.56000 36.64400 25.39100
C  -0.57400 35.67700 25.16400
C  1.40400 37.98900 27.51100
C  1.38900 37.35000 24.37900
O  1.22800 37.21800 23.14200
C  2.43900 38.33400 24.84400
N  -2.92300 33.55400 24.36900
C  -2.08300 34.26300 23.51400
C  -2.38400 33.77200 22.06600
C  -3.40300 32.62500 22.24500
C  -3.53400 32.45000 23.77000
C  -2.93600 35.01500 21.29600
C  -3.04000 31.39600 21.43200
C  -2.05500 30.41500 22.05400
N  -3.83600 32.13200 26.79300
C  -4.58700 31.44500 25.86000
C  -5.54100 30.54500 26.47900
C  -5.37500 30.78000 27.86300
C  -4.32900 31.71800 28.02500
C  -6.46800 29.63800 25.73300
C  -5.83500 30.39000 29.15900
O  -6.67800 29.55700 29.45900
C  -5.03100 31.29800 30.14400
C  -6.02500 32.10400 30.85900
O  -6.95900 32.66600 30.28900
O  -5.92300 31.93800 32.22600
C  -7.09900 32.32200 33.00100
H  -0.20200 36.42500 29.38200
H  -0.40200 35.50400 23.10800
H  -5.13000 30.86900 23.98600
H  -3.79200 33.88700 31.63100
H  -0.84300 34.71200 31.33200
H  -3.14100 35.94500 32.22200
H  -2.53200 36.66700 30.67300
H  -1.46800 36.54100 32.11900
H  -1.22900 32.41000 32.11000
H  -2.64000 31.41500 31.76500
H  -3.45600 31.46300 33.62600
H  -3.45500 33.20500 33.75900
H  2.46700 37.74600 27.51200
H  1.09400 37.90700 28.55300
H  1.28400 39.05600 27.32300
H  1.94500 39.22200 25.24000
H  2.97800 38.62000 23.94100
H  3.16800 37.88600 25.51900
H  -1.46200 33.48800 21.55600
H  -4.37000 32.96000 21.87000
H  -2.85800 35.92500 21.89200
H  -3.93000 34.86700 20.87200
H  -2.37300 35.25600 20.39500
H  -2.57400 31.78300 20.52600
H  -3.88400 30.82000 21.05000
H  -1.36100 30.16900 21.25000
H  -2.58400 29.51200 22.36100
H  -1.54300 30.90000 22.88500
H  -6.96700 30.26700 24.99600
H  -7.18800 29.27400 26.46600
H  -5.94000 28.87600 25.16000
H  -4.55500 30.52800 30.75000
H  -7.77300 31.46600 33.02300
H  -7.51700 33.28700 32.71600
H  -6.67800 32.35300 34.00600

