158

Mg 16.58400 -1.61900 27.60900
C  15.55600 0.47500 30.25900
C  18.76900 -3.10800 29.74200
C  17.69800 -3.35300 25.03200
C  14.65300 0.40200 25.45100
N  16.98100 -1.46700 29.85000
C  16.54100 -0.42900 30.63400
C  17.15700 -0.63700 32.05600
C  18.34700 -1.64800 31.86300
C  18.07600 -2.04400 30.37900
C  19.77900 -1.14500 32.14700
C  16.08900 -1.19800 33.02800
C  16.14400 -0.75300 34.48800
H  17.48000 -0.19400 35.03200
N  17.94500 -3.07500 27.43700
C  18.81300 -3.52700 28.41300
C  19.59200 -4.61300 27.93600
C  19.28400 -4.73900 26.51900
C  18.25100 -3.72100 26.34100
C  20.40800 -5.55000 28.80100
C  19.82900 -5.79300 25.48500
O  19.36000 -5.84800 24.33600
C  20.95500 -6.72000 25.86300
N  16.26300 -1.41300 25.53700
C  16.91700 -2.21200 24.66600
C  16.65700 -1.81300 23.20100
C  15.43300 -0.83800 23.36100
C  15.37900 -0.68900 24.89900
C  17.84800 -1.16300 22.50500
C  14.10100 -1.13100 22.65000
C  13.75700 -0.30800 21.45700
N  15.46700 0.10100 27.73400
C  14.69700 0.81100 26.77100
C  13.99900 1.94900 27.45100
C  14.23400 1.77100 28.80400
C  15.18100 0.68200 28.94800
C  13.11100 2.87300 26.77400
C  13.91100 2.31900 30.13500
O  13.29000 3.28200 30.55700
C  14.73300 1.39600 31.16700
C  15.45800 2.25800 32.06800
O  16.46300 2.87600 31.81700
O  14.71500 2.56900 33.18000
C  15.25500 3.68700 34.03800
H  19.40500 -3.66000 30.43800
H  18.19200 -3.94000 24.25500
H  14.18300 1.03200 24.69300
H  17.57200 0.31300 32.39300
H  18.20700 -2.51100 32.51300
H  19.78700 -0.13000 32.54500
H  20.32300 -1.06700 31.20600
H  20.32800 -1.82500 32.79800
H  16.11700 -2.28700 33.06500
H  15.07100 -0.93400 32.74200
H  15.75300 -1.62200 35.01900
H  15.35100 -0.00500 34.48300
H  20.09300 -6.58500 28.67000
H  20.14100 -5.54100 29.85800
H  21.47700 -5.49000 28.60200
H  20.72800 -7.30700 26.75300
H  21.73600 -6.04700 26.21700
H  21.19800 -7.35100 25.00900
H  16.36400 -2.62300 22.53400
H  15.81200 0.13700 23.05300
H  18.77700 -1.19900 23.07400
H  17.70100 -0.17600 22.06600
H  18.10300 -1.86900 21.71500
H  13.38600 -0.94900 23.45300
H  14.06600 -2.15700 22.28300
H  13.72600 -0.86000 20.51800
H  14.46000 0.52000 21.36400
H  12.79500 0.17900 21.61300
H  13.58700 3.23000 25.86100
H  12.69500 3.69200 27.36100
H  12.28500 2.23100 26.47100
H  14.03000 0.77500 31.72200
H  14.66900 3.75600 34.95400
H  15.11400 4.63600 33.52100
H  16.30300 3.56600 34.31200
Mg 35.60300 49.06500 25.28400
C  35.96000 47.08500 28.01500
C  34.29600 51.63000 27.02700
C  34.98400 50.82600 22.28100
C  36.94000 46.52500 23.28600
N  35.01400 49.30800 27.25100
C  35.31000 48.35200 28.26800
C  35.17600 49.07600 29.65300
C  34.48300 50.46500 29.34800
C  34.65700 50.53400 27.81400
C  33.07400 50.65900 29.81000
C  36.59700 49.29500 30.32600
C  36.59800 48.71600 31.76700
H  35.21400 48.53900 32.39000
N  34.81700 50.97100 24.74400
C  34.35000 51.84500 25.63900
C  33.98000 53.09500 25.02100
C  34.03400 52.81400 23.58400
C  34.54900 51.48500 23.46100
C  33.66300 54.35800 25.84400
C  33.64600 53.75200 22.45200
O  33.87500 53.45800 21.31200
C  32.99400 55.06200 22.62900
N  36.06900 48.75500 23.06000
C  35.66400 49.55300 22.14200
C  36.01100 48.91500 20.73000
C  36.82600 47.63400 21.03800
C  36.51500 47.59200 22.57100
C  34.76300 48.77600 19.88100
C  38.34900 47.85100 20.82400
C  39.12600 46.62600 20.33900
N  36.27600 47.16400 25.49400
C  36.76400 46.27800 24.63600
C  37.16800 45.10100 25.34500
C  36.80500 45.29800 26.65800
C  36.34000 46.60700 26.75000
C  37.76200 43.89800 24.68400
C  36.72100 44.66500 27.95300
O  36.98800 43.54800 28.36800
C  36.24200 45.84700 28.92200
C  35.07100 45.40100 29.66400
O  33.90900 45.39500 29.30400
O  35.51800 45.01500 30.89500
C  34.58700 44.18600 31.62800
H  33.98800 52.51800 27.58200
H  34.79800 51.31600 21.32300
H  37.30700 45.73100 22.63200
H  34.53600 48.36900 30.18200
H  35.10800 51.22800 29.81300
H  33.01100 51.63600 30.29000
H  32.69700 49.91200 30.50800
H  32.33500 50.66800 29.00900
H  36.76900 50.36300 30.45600
H  37.32500 48.81900 29.66900
H  37.10400 49.43400 32.41300
H  37.06200 47.73100 31.83700
H  33.60100 55.28500 25.27400
H  34.43400 54.45500 26.60800
H  32.70900 54.15100 26.33000
H  32.36900 55.23500 23.50500
H  32.41700 55.14000 21.70800
H  33.84800 55.72600 22.49500
H  36.51200 49.64800 20.09700
H  36.38900 46.73200 20.60900
H  33.84600 48.54800 20.42600
H  34.94000 47.93400 19.21200
H  34.49700 49.71100 19.38800
H  38.74100 48.18600 21.78400
H  38.47900 48.73500 20.20000
H  38.46900 45.80500 20.05300
H  39.77900 46.31000 21.15200
H  39.68600 46.99600 19.48000
H  37.27900 43.68200 23.73100
H  37.54900 42.97000 25.21400
H  38.83300 44.02400 24.52400
H  37.00600 46.11700 29.65100
H  35.15600 43.66700 32.39900
H  34.15400 43.43400 30.96900
H  33.62300 44.56300 31.97000

