158

Mg 42.86100 41.27700 26.14200
C  42.08400 43.47400 28.66100
C  44.44500 39.26600 28.58500
C  43.85400 39.11300 23.68900
C  42.14500 43.70100 23.74100
N  43.25600 41.40800 28.38900
C  42.63200 42.31000 29.14900
C  42.75500 41.99200 30.65400
C  43.73800 40.72600 30.61800
C  43.79100 40.39700 29.12500
C  45.07900 40.99400 31.21800
C  41.41800 41.87700 31.37000
C  41.54300 42.00500 32.85500
H  40.47500 42.68400 33.62900
N  43.73300 39.32600 26.18200
C  44.38600 38.71600 27.22600
C  44.79500 37.38600 26.79000
C  44.50700 37.30100 25.34400
C  44.06100 38.65700 24.99200
C  45.33800 36.33800 27.74200
C  44.76200 36.18600 24.42500
O  44.48400 36.21200 23.25600
C  45.36600 34.82800 24.97100
N  43.03200 41.43300 23.89700
C  43.37400 40.36800 23.11300
C  43.04400 40.64200 21.67400
C  42.63100 42.16800 21.65800
C  42.60000 42.50200 23.19300
C  44.13800 40.25600 20.64800
C  41.26900 42.49300 20.96900
C  41.35800 43.60600 19.90100
N  42.28900 43.23500 26.08300
C  42.02200 44.08000 25.06900
C  41.49400 45.30900 25.66100
C  41.53800 45.14100 27.04000
C  42.04500 43.88600 27.29200
C  41.08800 46.50600 24.81900
C  41.24100 45.76000 28.35300
O  40.82700 46.86400 28.58500
C  41.63600 44.75500 29.42400
C  42.76800 45.37400 30.28900
O  43.80200 45.95000 29.85400
O  42.29600 45.35600 31.63200
C  43.18000 45.87900 32.62300
H  45.00000 38.57500 29.22300
H  43.89100 38.30900 22.95200
H  41.89600 44.42100 22.95800
H  43.22200 42.84900 31.13900
H  43.17400 39.91100 31.07200
H  45.81800 40.94800 30.41900
H  45.18300 40.20900 31.96700
H  45.14100 41.96600 31.70700
H  41.14600 40.89400 30.98700
H  40.61900 42.56900 31.10100
H  42.50000 42.33300 33.26100
H  41.48500 40.95300 33.13800
H  45.05400 36.58700 28.76500
H  46.42600 36.31200 27.79700
H  44.91700 35.39400 27.39500
H  45.86600 34.28600 24.16800
H  44.55400 34.20600 25.34800
H  46.21500 35.11000 25.59400
H  42.09100 40.14400 21.49300
H  43.40900 42.81700 21.25600
H  44.35100 41.02400 19.90500
H  43.73500 39.51000 19.96300
H  45.02600 39.80800 21.09500
H  40.47300 42.75600 21.66500
H  40.85200 41.57900 20.54500
H  42.04300 43.39100 19.08100
H  41.63600 44.56900 20.33100
H  40.36300 43.75500 19.48400
H  41.96600 46.87800 24.29100
H  40.71100 47.20900 25.56100
H  40.27900 46.30500 24.11600
H  40.77700 44.55300 30.06400
H  44.13000 45.34800 32.68700
H  42.68200 45.78600 33.58800
H  43.53200 46.88900 32.41300
Mg 6.74800 53.04900 41.77100
C  5.48100 49.66800 41.45300
C  9.64600 51.94100 40.28600
C  7.62300 56.26500 41.42000
C  3.40000 54.06800 42.31600
N  7.45200 51.09300 40.83200
C  6.79800 49.88100 40.91100
C  7.71700 48.75300 40.33500
C  9.14800 49.41400 40.32600
C  8.78800 50.91900 40.43000
C  9.98000 49.04300 41.58200
C  7.41400 48.22300 38.92700
C  6.90800 49.25300 37.84900
H  5.59300 49.18400 37.17400
N  8.41800 54.02200 40.92400
C  9.55800 53.36700 40.50300
C  10.54700 54.37700 40.22400
C  10.04700 55.61000 40.63400
C  8.60100 55.37200 41.01500
C  11.91300 53.94900 39.77200
C  10.71600 56.92200 40.61700
O  11.73500 57.02000 40.04500
C  10.19700 58.19300 41.10300
N  5.66300 54.85400 41.86400
C  6.29700 56.04400 41.72400
C  5.35800 57.20700 42.12800
C  3.98300 56.49400 42.24100
C  4.36800 55.02300 42.10500
C  5.77700 57.99600 43.27400
C  2.93300 56.88700 41.14500
C  1.50600 57.07200 41.48800
N  4.81500 52.13200 42.03900
C  3.53000 52.66900 42.24100
C  2.52700 51.64900 42.36900
C  3.28700 50.43900 42.09800
C  4.62500 50.77800 41.83000
C  1.10000 51.94500 42.66500
C  3.16700 48.97900 41.91800
O  2.18200 48.25700 41.83900
C  4.64800 48.40400 41.76100
C  4.59700 47.30100 40.72400
O  4.31500 47.36100 39.56900
O  5.16000 46.19700 41.30200
C  5.43200 45.11900 40.39000
H  10.62800 51.56600 39.99000
H  7.77800 57.34200 41.32500
H  2.36400 54.27100 42.59300
H  7.78400 47.88700 40.99300
H  9.69500 49.14400 39.42300
H  10.97800 48.64500 41.39700
H  9.54900 48.19800 42.11900
H  9.87100 49.85100 42.30400
H  6.71400 47.38800 38.94000
H  8.34700 47.82700 38.52500
H  7.60900 49.18400 37.01800
H  6.81900 50.26000 38.25600
H  12.34400 54.77900 39.21200
H  11.95100 53.03600 39.17800
H  12.49400 53.68100 40.65500
H  10.97100 58.93700 41.29000
H  9.60400 58.05400 42.00600
H  9.55100 58.66200 40.36100
H  5.39900 57.90400 41.29100
H  3.52800 56.38000 43.22500
H  5.92100 59.04200 43.00200
H  6.73400 57.78000 43.75000
H  4.92400 58.00600 43.95300
H  3.03100 56.00500 40.51300
H  3.30600 57.71800 40.54800
H  0.91600 56.53200 40.74800
H  1.20700 58.10800 41.32800
H  1.25000 56.70700 42.48200
H  0.57500 52.37900 41.81300
H  1.08500 52.55000 43.57200
H  0.61600 51.00700 42.93800
H  4.92300 47.88000 42.67700
H  5.64100 45.51300 39.39600
H  4.59800 44.44000 40.21300
H  6.28300 44.51900 40.71100

