158

Mg 2.14300 -1.70100 43.81000
C  5.21700 -0.65800 43.27300
C  0.94300 0.90900 42.01000
C  -1.02800 -3.13200 43.65500
C  3.41700 -4.74400 44.93000
N  2.99200 -0.21600 42.48700
C  4.32200 0.07600 42.48600
C  4.67700 1.39900 41.73700
C  3.27600 2.06300 41.60700
C  2.37700 0.87700 42.00000
C  3.00700 3.39300 42.34200
C  5.37200 0.98800 40.38500
C  6.76400 1.56700 40.10500
H  6.93100 2.30400 38.74300
N  0.12400 -1.01800 43.15800
C  -0.04900 0.00200 42.35500
C  -1.45700 0.17900 42.11000
C  -2.05800 -0.91100 42.83300
C  -0.97200 -1.77300 43.23300
C  -2.10600 1.19500 41.21600
C  -3.53600 -1.09900 42.89400
O  -4.36200 -0.28800 42.51400
C  -4.17200 -2.36900 43.46300
N  1.37300 -3.62300 44.22200
C  -0.00400 -3.91500 44.11800
C  -0.20400 -5.41400 44.61000
C  1.28700 -5.94800 44.89500
C  2.05400 -4.68000 44.79800
C  -1.21600 -5.63100 45.70100
C  1.68600 -7.07900 43.82900
C  1.56500 -8.51200 44.33000
N  3.97400 -2.51600 44.20000
C  4.32000 -3.70900 44.68800
C  5.75600 -3.77300 44.95600
C  6.12800 -2.56400 44.39400
C  4.97700 -1.86200 43.98100
C  6.52000 -4.68000 45.80700
C  7.31400 -1.74100 44.15300
O  8.47500 -1.82800 44.45200
C  6.73800 -0.42100 43.41900
C  7.06300 0.81100 44.17300
O  6.51300 1.11700 45.23200
O  8.16500 1.42300 43.60200
C  8.81200 2.47100 44.41900
H  0.61300 1.84100 41.54600
H  -1.97100 -3.66500 43.51300
H  3.95500 -5.62600 45.28300
H  5.29800 2.09000 42.30700
H  3.06500 2.44300 40.60700
H  3.09400 4.24500 41.66800
H  3.90200 3.48800 42.95700
H  2.07900 3.47100 42.90900
H  4.78600 1.36400 39.54600
H  5.37700 -0.09400 40.25600
H  7.54000 0.82800 40.30200
H  6.89200 2.36400 40.83800
H  -2.74300 1.98000 41.62300
H  -2.64800 0.71900 40.39800
H  -1.43100 1.83000 40.64100
H  -4.10300 -3.29000 42.88500
H  -5.19100 -2.12000 43.75800
H  -3.69100 -2.68100 44.39000
H  -0.54500 -5.85200 43.67100
H  1.58000 -6.46900 45.80600
H  -0.83900 -6.16300 46.57400
H  -2.07500 -6.10400 45.22500
H  -1.59200 -4.65800 46.01700
H  2.67700 -6.79100 43.47900
H  1.14600 -6.98900 42.88600
H  2.52600 -9.00400 44.47400
H  1.07800 -8.98500 43.47700
H  1.01900 -8.55700 45.27200
H  7.53000 -4.27400 45.74800
H  6.64000 -5.67500 45.37800
H  6.02100 -4.61100 46.77400
H  7.25800 -0.27600 42.47300
H  9.84200 2.15400 44.58200
H  8.34300 2.80200 45.34600
H  8.77100 3.39600 43.84300
Mg 1.56900 42.28500 25.23500
C  2.96600 42.19200 28.52400
C  -1.43000 41.07300 26.61200
C  0.37700 41.79600 22.06400
C  4.62000 43.14900 23.96200
N  0.86200 41.69500 27.30000
C  1.53300 41.88100 28.46700
C  0.60900 41.62300 29.71900
C  -0.66500 40.97600 29.02500
C  -0.37500 41.13500 27.53400
C  -1.04300 39.54800 29.52100
C  0.35900 43.02400 30.48800
C  0.27800 42.99200 32.05500
H  0.09200 41.67500 32.80800
N  -0.29900 41.65700 24.44600
C  -1.39500 41.30900 25.18300
C  -2.44900 40.93300 24.28900
C  -2.04700 41.05600 22.97400
C  -0.61000 41.56500 23.06900
C  -3.78400 40.41100 24.80000
C  -2.74000 40.74000 21.68900
O  -2.18300 40.84100 20.55100
C  -4.23400 40.27800 21.77300
N  2.42300 42.53300 23.21200
C  1.74400 42.21500 22.08200
C  2.61100 42.60500 20.86200
C  3.92900 43.22700 21.46000
C  3.68400 42.96800 22.99000
C  2.93200 41.31400 20.08200
C  4.23400 44.66200 20.99300
C  4.42000 44.85300 19.48400
N  3.40600 42.62400 25.99900
C  4.58700 42.87900 25.31300
C  5.68200 42.96000 26.25100
C  5.07100 42.81400 27.52200
C  3.71600 42.49000 27.33100
C  7.16000 43.28100 25.90900
C  5.30300 42.71200 28.95000
O  6.37400 42.68000 29.56500
C  3.97000 42.34800 29.68600
C  4.29800 41.01300 30.35300
O  4.42100 39.92800 29.78500
O  4.28900 41.18800 31.71400
C  4.14600 40.06900 32.63400
H  -2.37300 40.92500 27.14200
H  0.05600 41.55300 21.04900
H  5.61800 43.44300 23.62800
H  0.92200 40.86500 30.43700
H  -1.47900 41.68500 29.17700
H  -0.92000 38.96600 28.60800
H  -2.09900 39.66800 29.76600
H  -0.46900 39.08000 30.32100
H  -0.51300 43.60100 30.17800
H  1.22500 43.63200 30.22600
H  -0.47200 43.70500 32.39900
H  1.19900 43.37600 32.49200
H  -4.69300 40.86900 24.41200
H  -3.85400 40.50300 25.88400
H  -3.82500 39.32700 24.69200
H  -4.26000 39.36500 22.36700
H  -4.43800 40.01900 20.73400
H  -4.91700 41.07500 22.06700
H  1.98700 43.20800 20.20200
H  4.86400 42.76400 21.14400
H  2.79100 40.42100 20.69200
H  3.94900 41.29500 19.69000
H  2.30900 41.08600 19.21800
H  5.16700 45.01100 21.43400
H  3.51800 45.34500 21.45100
H  4.64200 44.00400 18.83800
H  5.36300 45.38700 19.36400
H  3.52300 45.31400 19.07000
H  7.18000 44.32100 25.58400
H  7.24400 42.61000 25.05300
H  7.80900 43.00500 26.74000
H  3.57100 42.93300 30.51400
H  5.13900 39.85200 33.02800
H  3.82100 39.23000 32.01900
H  3.52500 40.33800 33.48800

