158

Mg 1.40800 42.37900 27.03100
C  2.71900 42.28300 30.34500
C  -1.46100 40.79400 28.36400
C  0.26500 41.73100 23.90000
C  4.34900 43.39600 25.83200
N  0.65100 41.82400 29.13900
C  1.36000 41.93900 30.33400
C  0.49900 41.56900 31.51100
C  -0.80700 41.01500 30.90700
C  -0.56800 41.22000 29.33800
C  -1.19300 39.56900 31.36300
C  0.39200 42.74700 32.57500
C  0.98800 42.41300 34.00100
H  0.13800 42.08400 35.20500
N  -0.35000 41.39500 26.25200
C  -1.41600 40.88500 26.93900
C  -2.42700 40.45000 25.97500
C  -1.96600 40.68600 24.71200
C  -0.62000 41.29500 24.87900
C  -3.71200 39.84200 26.47900
C  -2.67400 40.56400 23.41900
O  -2.18700 40.80700 22.30100
C  -4.08100 40.04700 23.48600
N  2.16900 42.53900 25.19400
C  1.51200 42.31100 24.02800
C  2.32400 42.80200 22.81000
C  3.55900 43.52000 23.41500
C  3.33700 43.08600 24.91000
C  2.72900 41.64600 21.83400
C  3.39500 45.01900 23.23900
C  3.77200 45.46300 21.85400
N  3.19200 42.80600 27.88900
C  4.32200 43.20200 27.21300
C  5.38100 43.39500 28.20300
C  4.77900 43.04300 29.40600
C  3.43500 42.69400 29.18000
C  6.77900 43.86300 28.00800
C  4.98500 42.86100 30.82500
O  6.02600 43.02200 31.44000
C  3.68800 42.38500 31.51400
C  3.98000 41.04800 32.17700
O  4.02300 39.96600 31.64700
O  4.42400 41.31800 33.40900
C  4.73700 40.10400 34.19300
H  -2.39400 40.40300 28.77500
H  -0.09500 41.56500 22.88300
H  5.22000 43.87700 25.38400
H  1.04500 40.76400 32.00200
H  -1.56800 41.74400 31.18700
H  -0.58000 39.26700 32.21200
H  -1.16900 38.82600 30.56600
H  -2.20000 39.79400 31.71500
H  -0.62500 43.10000 32.74300
H  0.84200 43.64700 32.15500
H  1.53200 43.34100 34.18000
H  1.81000 41.71000 33.86600
H  -3.80600 39.66700 27.55100
H  -3.74500 38.81500 26.11500
H  -4.59400 40.40500 26.17200
H  -4.46000 39.93700 22.47000
H  -4.64700 40.77100 24.07200
H  -4.03500 39.03500 23.88700
H  1.60300 43.42500 22.28200
H  4.56200 43.31100 23.04200
H  3.44800 41.02300 22.36600
H  3.19100 42.18200 21.00500
H  1.86100 41.02600 21.61300
H  3.86000 45.63400 24.01000
H  2.34100 45.28200 23.32600
H  4.05900 44.62100 21.22400
H  4.64000 46.12200 21.87300
H  2.96500 46.04100 21.40100
H  7.06500 44.68000 28.67000
H  6.84000 44.33400 27.02700
H  7.44200 42.99800 28.02400
H  3.49800 43.16300 32.25300
H  5.77700 40.32200 34.43600
H  4.81400 39.15500 33.66300
H  4.10900 39.95300 35.07100
Mg -0.96600 34.29900 27.92900
C  -2.44200 31.99000 30.12500
C  0.34300 35.85000 30.56700
C  -0.03200 36.50900 25.78200
C  -2.64600 32.49000 25.23900
N  -1.19500 34.07200 30.10100
C  -1.73500 33.01300 30.82000
C  -1.78100 33.35900 32.33300
C  -0.95300 34.71900 32.40000
C  -0.59000 34.88000 30.90300
C  -1.77200 35.95000 33.01800
C  -1.12900 32.20800 33.21600
C  -1.95300 31.77700 34.43500
H  -1.32300 31.72100 35.83100
N  0.10200 35.89000 28.18200
C  0.65900 36.33700 29.29100
C  1.46600 37.47400 29.00200
C  1.42700 37.59700 27.56200
C  0.53500 36.57600 27.08500
C  2.15100 38.21800 30.04400
C  2.20700 38.53800 26.71600
O  2.08300 38.55500 25.53800
C  3.09400 39.52600 27.31600
N  -1.68500 34.68400 25.87300
C  -1.00800 35.63600 25.28500
C  -1.20700 35.53600 23.72900
C  -1.77900 34.15300 23.51800
C  -2.06500 33.73100 24.97700
C  -2.10600 36.67600 23.25800
C  -0.91200 33.22000 22.62600
C  0.16800 32.30000 23.40800
N  -2.28200 32.52600 27.69800
C  -2.81600 31.94900 26.54500
C  -3.64600 30.81300 26.94500
C  -3.61500 30.80500 28.35600
C  -2.80100 31.89200 28.73700
C  -4.42500 29.84100 26.14600
C  -3.95300 30.09200 29.52300
O  -4.65400 29.08400 29.66100
C  -3.30300 30.89900 30.75000
C  -4.45100 31.41400 31.60800
O  -5.24900 32.19800 31.19800
O  -4.54300 30.69600 32.74800
C  -5.52100 31.10000 33.77000
H  0.94000 36.17800 31.42100
H  0.34900 37.25600 25.08300
H  -2.87100 31.85400 24.38000
H  -2.78200 33.58400 32.70300
H  -0.10900 34.70800 33.09000
H  -1.14100 36.51800 33.70200
H  -2.67000 35.60600 33.53300
H  -2.16200 36.72200 32.35400
H  -0.15400 32.50300 33.60600
H  -0.98200 31.26700 32.68600
H  -2.36500 30.77800 34.29600
H  -2.78600 32.47300 34.52600
H  3.21100 38.11000 29.81600
H  1.98000 37.81000 31.04000
H  2.00100 39.29700 29.98700
H  2.70100 40.19100 28.08500
H  3.41000 40.10000 26.44500
H  3.97300 39.04400 27.74300
H  -0.23100 35.64200 23.25600
H  -2.76700 34.20900 23.06100
H  -3.14100 36.37600 23.42600
H  -1.88900 36.94900 22.22500
H  -1.96400 37.44800 24.01400
H  -0.39800 33.70500 21.79600
H  -1.61300 32.61400 22.05000
H  0.19100 32.59300 24.45800
H  1.16100 32.60300 23.07800
H  -0.14900 31.25900 23.34800
H  -3.94100 29.87200 25.17100
H  -5.42200 30.27000 26.04300
H  -4.44900 28.90900 26.71100
H  -2.62600 30.23900 31.29300
H  -5.96000 30.16400 34.11500
H  -6.37100 31.68200 33.41300
H  -4.97900 31.43400 34.65500

