158

Mg 42.87600 41.96300 26.22800
C  41.91500 44.40200 28.81400
C  43.83600 39.87200 28.53200
C  43.74500 40.06800 23.67500
C  41.86800 44.59600 23.92400
N  42.87000 42.24100 28.33000
C  42.51000 43.18300 29.24800
C  42.76100 42.74000 30.69400
C  43.58300 41.34700 30.53200
C  43.44400 41.09600 29.06500
C  45.15400 41.38200 30.92400
C  41.42800 42.49900 31.50300
C  41.34000 43.02700 32.92100
H  42.48500 42.84700 33.85100
N  43.76100 40.25300 26.09400
C  44.08800 39.42400 27.16600
C  44.61400 38.17400 26.62200
C  44.66900 38.28600 25.20500
C  43.99500 39.55600 24.93200
C  45.08000 37.03900 27.48000
C  45.16900 37.25100 24.25000
O  44.84100 37.37600 23.05500
C  45.96100 36.06700 24.59300
N  42.93300 42.39600 24.15400
C  43.26000 41.35400 23.31600
C  43.16100 41.76000 21.82800
C  42.28000 43.02800 21.92400
C  42.38800 43.39300 23.38900
C  44.48900 41.82900 21.02500
C  40.83200 42.93500 21.42800
C  39.81300 42.00600 22.11100
N  41.94100 44.03200 26.30200
C  41.63200 44.91600 25.25500
C  41.09000 46.18600 25.85200
C  41.12900 45.95800 27.21400
C  41.68600 44.67500 27.43600
C  40.77600 47.46800 25.10000
C  40.88700 46.59200 28.50100
O  40.59600 47.74900 28.73700
C  41.28800 45.57800 29.56000
C  42.05000 46.17500 30.68300
O  43.26300 46.44800 30.68700
O  41.26500 46.38000 31.80500
C  41.86800 46.72400 33.13700
H  43.89600 38.99100 29.17300
H  44.04400 39.45800 22.82000
H  41.62900 45.43100 23.26300
H  43.36400 43.45100 31.25900
H  43.22800 40.42000 30.98400
H  45.31600 40.78500 31.82200
H  45.49500 42.40500 31.08000
H  45.73500 41.07100 30.05600
H  41.27200 41.42100 31.52500
H  40.48800 42.83000 31.06100
H  40.48900 42.71000 33.52400
H  41.19600 44.10600 32.86200
H  44.80600 36.01700 27.21700
H  44.62500 37.20300 28.45700
H  46.16700 37.08600 27.55600
H  46.52200 36.17000 25.52200
H  46.76200 35.98800 23.85900
H  45.50900 35.07700 24.52600
H  42.65300 40.86800 21.46100
H  42.70200 43.80100 21.28300
H  44.59800 42.87100 20.72400
H  44.59600 41.19400 20.14600
H  45.37400 41.52400 21.58200
H  40.92600 42.64400 20.38100
H  40.46800 43.95600 21.30800
H  40.40400 41.21700 22.57500
H  39.11500 41.57700 21.39200
H  39.27100 42.60700 22.84100
H  40.39100 47.19100 24.11800
H  41.74100 47.90800 24.84800
H  40.19300 48.23500 25.61000
H  40.37700 45.21300 30.03300
H  41.81000 45.84100 33.77300
H  41.35900 47.55300 33.62800
H  42.94200 46.88400 33.04000
Mg -11.72800 37.29500 42.92100
C  -9.60700 35.04600 41.14600
C  -10.12500 39.96700 41.35900
C  -14.40500 39.27300 43.41800
C  -13.75100 34.46000 43.75100
N  -10.15400 37.41900 41.46700
C  -9.30900 36.40100 40.92800
C  -8.06500 36.98000 40.20700
C  -8.04300 38.39500 40.76300
C  -9.55500 38.66300 41.19000
C  -7.06700 38.54400 42.02600
C  -8.00500 36.95900 38.65900
C  -6.60300 37.19200 37.98600
H  -6.05700 36.14400 37.02600
N  -12.15600 39.39500 42.62000
C  -11.33900 40.25300 41.99100
C  -11.95100 41.54800 41.98800
C  -13.13500 41.45700 42.74600
C  -13.29500 39.95500 42.91300
C  -11.36800 42.89500 41.42100
C  -14.18500 42.54900 43.03500
O  -13.96200 43.70700 42.65700
C  -15.40500 42.21100 43.82100
N  -13.83800 36.94200 43.40600
C  -14.66800 37.91400 43.66000
C  -15.95700 37.44600 44.41400
C  -15.67700 35.91000 44.61200
C  -14.30900 35.68900 43.91900
C  -16.26400 38.26200 45.74600
C  -16.74500 34.99400 44.13200
C  -17.58700 34.31300 45.21300
N  -11.58600 35.15800 42.74400
C  -12.41400 34.15200 43.24500
C  -11.75500 32.86400 43.00500
C  -10.61300 33.19700 42.26700
C  -10.61200 34.56700 42.06200
C  -12.20300 31.58100 43.51000
C  -9.41300 32.61900 41.64600
O  -9.06900 31.42300 41.61400
C  -8.70600 33.78200 40.84300
C  -7.28100 33.87900 41.08300
O  -6.42900 33.44800 40.30900
O  -7.13500 34.32800 42.35500
C  -5.76300 34.13800 42.94000
H  -9.45300 40.72000 40.94100
H  -15.36800 39.72400 43.66400
H  -14.30900 33.60200 44.13000
H  -7.17800 36.52700 40.64900
H  -7.73500 39.06400 39.96000
H  -6.26300 39.22500 41.74700
H  -6.63800 37.60600 42.37800
H  -7.66800 38.99900 42.81400
H  -8.84500 37.50600 38.23100
H  -8.13600 35.88900 38.49500
H  -5.87600 37.06800 38.78900
H  -6.79800 38.14400 37.49400
H  -11.06400 43.56900 42.22100
H  -12.00300 43.44300 40.72500
H  -10.49000 42.61500 40.83800
H  -15.82600 43.13600 44.21400
H  -15.17600 41.64700 44.72500
H  -16.10600 41.73200 43.13700
H  -16.66300 37.69700 43.62300
H  -15.45900 35.78000 45.67200
H  -16.92900 37.61800 46.32200
H  -16.78700 39.17000 45.44600
H  -15.33600 38.50900 46.26200
H  -16.36200 34.28500 43.39800
H  -17.35300 35.63300 43.49200
H  -18.63500 34.61200 45.18100
H  -17.13900 34.34600 46.20600
H  -17.72400 33.24600 45.03600
H  -11.30200 31.05200 43.82200
H  -12.71600 31.07800 42.69100
H  -12.86400 31.70000 44.36900
H  -8.82400 33.64900 39.76700
H  -5.83200 34.67700 43.88600
H  -4.99800 34.61400 42.32700
H  -5.55500 33.12000 43.27000

