158

Mg 1.58900 7.61600 25.43800
C  1.68200 9.21200 28.35300
C  1.53400 4.50600 27.10300
C  1.30300 5.83000 22.41800
C  2.34800 10.33300 23.63400
N  1.52700 6.91700 27.58500
C  1.54300 7.83500 28.61900
C  1.62500 7.04800 29.97600
C  1.79500 5.56400 29.49500
C  1.59600 5.63200 27.97000
C  3.17500 4.92400 29.79800
C  0.44400 7.32200 30.86200
C  0.53300 7.05200 32.35900
H  1.96200 6.72400 33.09700
N  1.33400 5.49600 24.84600
C  1.42700 4.42500 25.70500
C  1.40500 3.21300 24.97800
C  1.27200 3.55300 23.56200
C  1.29600 4.99400 23.54200
C  1.65800 1.83700 25.60300
C  1.07500 2.67800 22.31000
O  1.10000 3.11800 21.18600
C  1.12000 1.13600 22.62500
N  1.43400 8.01200 23.34100
C  1.36000 7.17800 22.30600
C  1.60700 7.90600 20.93700
C  1.69600 9.38900 21.34200
C  1.88500 9.24200 22.85500
C  2.89000 7.36600 20.17800
C  0.52600 10.35200 20.90000
C  -0.82500 10.13700 21.71900
N  1.94400 9.37700 25.87300
C  2.31600 10.43600 25.07000
C  2.42600 11.66600 25.76500
C  2.18300 11.31500 27.13400
C  1.87800 9.87500 27.07200
C  2.73000 13.01400 25.12200
C  2.12700 11.69000 28.46600
O  2.29900 12.85200 28.88700
C  1.78500 10.36900 29.32000
C  2.87600 10.26300 30.31600
O  3.99500 9.74800 30.10500
O  2.49700 10.83400 31.54100
C  3.63900 10.79800 32.47500
H  1.35700 3.66300 27.77400
H  1.28100 5.35600 21.43400
H  2.57900 11.27500 23.13300
H  2.38100 7.53100 30.59500
H  1.08800 5.00600 30.11000
H  3.02000 3.94000 30.24200
H  3.81500 5.53200 30.43700
H  3.65300 4.97900 28.82000
H  -0.42200 6.72500 30.57500
H  0.12000 8.34800 30.69000
H  -0.22200 6.33500 32.68200
H  0.21300 7.97100 32.84900
H  2.48800 1.36500 25.07900
H  0.73200 1.26600 25.66600
H  2.02100 1.80800 26.63100
H  0.35000 0.79400 23.31700
H  2.06100 0.87400 23.10900
H  0.99100 0.66700 21.65000
H  0.72500 7.59200 20.37900
H  2.62200 9.76300 20.90600
H  3.65300 6.88700 20.79200
H  3.37100 8.18100 19.63800
H  2.58300 6.59400 19.47200
H  0.28800 10.04000 19.88400
H  0.90400 11.37000 20.80600
H  -0.68800 9.39300 22.50400
H  -1.69700 9.96300 21.08900
H  -1.02800 11.11300 22.16000
H  3.75600 13.27600 25.38000
H  1.91500 13.57000 25.58500
H  2.50800 13.14700 24.06300
H  0.83000 10.50100 29.82800
H  4.51400 11.27000 32.02700
H  3.93600 9.75900 32.61500
H  3.54200 11.12300 33.51100
Mg 47.99600 34.02400 26.95300
C  46.11400 32.99500 29.62900
C  48.59200 36.99300 28.55900
C  49.56400 35.37500 24.06800
C  47.18900 31.26500 25.13300
N  47.52400 34.78300 28.94700
C  46.75000 34.16800 29.90400
C  46.83800 34.97700 31.19000
C  47.39000 36.36500 30.72600
C  47.82400 36.05700 29.32400
C  46.54700 37.60100 30.92100
C  47.74300 34.28200 32.20800
C  47.63500 34.58200 33.72600
H  47.13200 35.91100 34.15200
N  49.20000 35.81500 26.41900
C  49.20000 36.92500 27.25800
C  50.00700 37.95100 26.62000
C  50.19000 37.62300 25.23500
C  49.67600 36.20100 25.16700
C  50.41300 39.19100 27.33400
C  50.75100 38.37700 24.02900
O  50.93400 37.84900 22.97400
C  51.04300 39.81400 24.08200
N  48.46300 33.40600 25.01300
C  49.08900 34.07900 23.95000
C  49.19000 33.21300 22.68000
C  48.79300 31.84500 23.22300
C  48.11200 32.18700 24.55900
C  48.44600 33.80500 21.49000
C  49.82400 30.71500 23.46200
C  51.13400 30.84100 22.70400
N  46.79200 32.51100 27.19600
C  46.62800 31.42200 26.42600
C  45.73300 30.50500 27.11700
C  45.41600 31.18700 28.32800
C  46.12300 32.37500 28.38300
C  45.21400 29.16300 26.52700
C  44.66500 31.00200 29.52700
O  44.04700 30.03000 29.95300
C  45.01900 32.27100 30.40200
C  45.16300 31.65300 31.76800
O  46.12100 30.95800 32.18400
O  44.20000 32.04700 32.57000
C  44.12000 31.58800 33.96100
H  48.82000 37.94400 29.04500
H  49.95100 35.68700 23.09500
H  46.95900 30.38300 24.53200
H  45.86100 35.02400 31.67100
H  48.30700 36.55500 31.28500
H  47.12500 38.26300 31.56600
H  45.60800 37.29400 31.38100
H  46.29100 38.12000 29.99700
H  48.69800 34.55800 31.76200
H  47.57800 33.20900 32.11000
H  48.57800 34.43100 34.25200
H  47.01600 33.75600 34.07700
H  51.46000 39.36500 27.08700
H  50.34200 39.08500 28.41600
H  49.62500 39.86300 26.99500
H  50.32600 40.41300 24.64400
H  51.27900 40.21900 23.09900
H  51.99800 39.82500 24.60700
H  50.23800 33.22300 22.37900
H  48.04600 31.32100 22.62700
H  48.21200 34.84800 21.70300
H  47.59500 33.13300 21.37500
H  49.05300 33.71700 20.58900
H  49.45800 29.69000 23.41000
H  50.12100 30.80800 24.50700
H  50.97500 31.37000 21.76400
H  51.42700 29.80000 22.56900
H  51.92000 31.30100 23.30200
H  45.52100 29.14200 25.48100
H  44.13600 29.03200 26.43600
H  45.49200 28.25200 27.05800
H  44.16500 32.94900 30.38200
H  43.91500 30.51900 33.90700
H  43.32300 32.15800 34.43800
H  45.05900 31.65100 34.51100

