158

Mg 40.62900 9.20000 30.00400
C  42.49900 10.56700 32.68100
C  38.17200 8.35300 32.10800
C  39.09800 7.73400 27.39900
C  43.30700 9.99700 27.94400
N  40.42400 9.38900 32.23000
C  41.26800 9.99000 33.10200
C  40.81700 9.71800 34.54800
C  39.37000 8.99600 34.32700
C  39.29200 8.86600 32.77800
C  39.26200 7.57100 34.98600
C  40.66700 11.03000 35.42700
C  40.80600 10.94200 36.98300
H  40.67000 12.21800 37.85300
N  38.80100 8.27400 29.73400
C  37.86600 8.16100 30.69000
C  36.70100 7.63600 30.08100
C  36.89500 7.55000 28.68200
C  38.30900 7.89100 28.48800
C  35.45600 7.34100 30.89000
C  35.91400 7.07300 27.55700
O  36.35500 6.88400 26.45700
C  34.46800 6.67700 27.89400
N  41.19400 8.82300 27.92900
C  40.34200 8.21800 27.12300
C  40.92800 8.09100 25.65400
C  42.24400 8.86600 25.90900
C  42.24000 9.32000 27.36400
C  40.87000 6.63100 24.91700
C  42.42200 9.98900 24.83200
C  41.68700 11.30500 24.96300
N  42.52500 10.07700 30.18800
C  43.49300 10.36300 29.26300
C  44.62700 10.97700 29.91200
C  44.26500 11.17900 31.25000
C  42.97500 10.55800 31.37700
C  45.84400 11.48900 29.29500
C  44.63400 11.70700 32.54900
O  45.55400 12.35900 32.88000
C  43.49100 11.34000 33.54200
C  44.09900 10.37300 34.57500
O  44.43800 9.20800 34.37100
O  44.35300 10.97000 35.77800
C  44.92500 10.12400 36.87300
H  37.35500 8.19000 32.81300
H  38.75900 7.28400 26.46300
H  44.13900 10.19500 27.26500
H  41.51100 9.00000 34.98400
H  38.53500 9.60900 34.66700
H  40.20900 7.33900 35.47400
H  39.21400 6.76000 34.26000
H  38.48900 7.55200 35.75400
H  39.61500 11.28700 35.30000
H  41.22500 11.93800 35.19700
H  41.81200 10.53800 37.10400
H  40.18600 10.18500 37.46300
H  35.64000 7.49100 31.95400
H  35.16900 6.29400 30.80000
H  34.58500 7.86600 30.49700
H  33.90600 7.46700 28.39300
H  34.35700 5.70100 28.36600
H  34.06200 6.72600 26.88300
H  40.32300 8.76200 25.04300
H  42.97600 8.06800 25.78300
H  40.57800 5.87900 25.65000
H  41.83400 6.41100 24.45900
H  40.15100 6.64500 24.09800
H  42.16800 9.54200 23.87100
H  43.45500 10.31400 24.95400
H  42.32900 11.92100 25.59200
H  40.77300 11.26300 25.55600
H  41.41300 11.75100 24.00700
H  46.71200 11.54700 29.95200
H  45.61200 12.54300 29.13700
H  46.01800 10.92900 28.37700
H  43.17200 12.21500 34.10900
H  44.33700 9.21000 36.95900
H  44.71100 10.72900 37.75400
H  45.99900 10.01100 36.72800
Mg -0.96600 34.29900 27.92900
C  -2.44200 31.99000 30.12500
C  0.34300 35.85000 30.56700
C  -0.03200 36.50900 25.78200
C  -2.64600 32.49000 25.23900
N  -1.19500 34.07200 30.10100
C  -1.73500 33.01300 30.82000
C  -1.78100 33.35900 32.33300
C  -0.95300 34.71900 32.40000
C  -0.59000 34.88000 30.90300
C  -1.77200 35.95000 33.01800
C  -1.12900 32.20800 33.21600
C  -1.95300 31.77700 34.43500
H  -1.32300 31.72100 35.83100
N  0.10200 35.89000 28.18200
C  0.65900 36.33700 29.29100
C  1.46600 37.47400 29.00200
C  1.42700 37.59700 27.56200
C  0.53500 36.57600 27.08500
C  2.15100 38.21800 30.04400
C  2.20700 38.53800 26.71600
O  2.08300 38.55500 25.53800
C  3.09400 39.52600 27.31600
N  -1.68500 34.68400 25.87300
C  -1.00800 35.63600 25.28500
C  -1.20700 35.53600 23.72900
C  -1.77900 34.15300 23.51800
C  -2.06500 33.73100 24.97700
C  -2.10600 36.67600 23.25800
C  -0.91200 33.22000 22.62600
C  0.16800 32.30000 23.40800
N  -2.28200 32.52600 27.69800
C  -2.81600 31.94900 26.54500
C  -3.64600 30.81300 26.94500
C  -3.61500 30.80500 28.35600
C  -2.80100 31.89200 28.73700
C  -4.42500 29.84100 26.14600
C  -3.95300 30.09200 29.52300
O  -4.65400 29.08400 29.66100
C  -3.30300 30.89900 30.75000
C  -4.45100 31.41400 31.60800
O  -5.24900 32.19800 31.19800
O  -4.54300 30.69600 32.74800
C  -5.52100 31.10000 33.77000
H  0.94000 36.17800 31.42100
H  0.34900 37.25600 25.08300
H  -2.87100 31.85400 24.38000
H  -2.78200 33.58400 32.70300
H  -0.10900 34.70800 33.09000
H  -1.14100 36.51800 33.70200
H  -2.67000 35.60600 33.53300
H  -2.16200 36.72200 32.35400
H  -0.15400 32.50300 33.60600
H  -0.98200 31.26700 32.68600
H  -2.36500 30.77800 34.29600
H  -2.78600 32.47300 34.52600
H  3.21100 38.11000 29.81600
H  1.98000 37.81000 31.04000
H  2.00100 39.29700 29.98700
H  2.70100 40.19100 28.08500
H  3.41000 40.10000 26.44500
H  3.97300 39.04400 27.74300
H  -0.23100 35.64200 23.25600
H  -2.76700 34.20900 23.06100
H  -3.14100 36.37600 23.42600
H  -1.88900 36.94900 22.22500
H  -1.96400 37.44800 24.01400
H  -0.39800 33.70500 21.79600
H  -1.61300 32.61400 22.05000
H  0.19100 32.59300 24.45800
H  1.16100 32.60300 23.07800
H  -0.14900 31.25900 23.34800
H  -3.94100 29.87200 25.17100
H  -5.42200 30.27000 26.04300
H  -4.44900 28.90900 26.71100
H  -2.62600 30.23900 31.29300
H  -5.96000 30.16400 34.11500
H  -6.37100 31.68200 33.41300
H  -4.97900 31.43400 34.65500

