158

Mg 16.68600 -1.12200 27.40600
C  15.26900 0.70300 30.11500
C  18.63600 -2.71800 29.67800
C  18.18200 -2.57300 24.85400
C  15.00800 1.04900 25.17800
N  16.88300 -1.00900 29.70800
C  16.23000 -0.20200 30.56400
C  16.72900 -0.45000 31.98300
C  17.96000 -1.39400 31.80400
C  17.83200 -1.74100 30.35000
C  19.27700 -0.87900 32.27600
C  15.61500 -1.06400 32.79500
C  15.61800 -0.73800 34.29500
H  16.81700 0.13500 34.88900
N  18.05000 -2.56100 27.28800
C  18.66400 -3.19700 28.34300
C  19.40900 -4.33400 27.85400
C  19.31400 -4.33100 26.41400
C  18.49700 -3.10500 26.10000
C  20.13700 -5.18500 28.76400
C  19.97800 -5.23000 25.38900
O  19.78500 -5.15300 24.14100
C  20.87400 -6.41200 25.73800
N  16.87400 -0.52900 25.35800
C  17.52600 -1.45500 24.53400
C  17.30400 -1.14600 23.03000
C  16.27200 0.01400 23.06800
C  15.99900 0.20500 24.59200
C  18.58000 -0.77900 22.19200
C  15.03400 -0.03000 22.19400
C  14.81000 1.19200 21.29800
N  15.38600 0.46000 27.52600
C  14.75700 1.23600 26.54700
C  13.76000 2.11400 27.16900
C  14.00400 1.94300 28.55800
C  14.98700 0.95300 28.71700
C  12.91400 3.05200 26.41000
C  13.54600 2.43100 29.89200
O  12.66900 3.20700 30.18800
C  14.45400 1.66500 30.87700
C  15.15600 2.63900 31.78800
O  16.29300 3.03900 31.77000
O  14.26800 3.00900 32.78200
C  14.70700 4.02300 33.69400
H  19.19900 -3.20000 30.48000
H  18.52300 -3.22300 24.04500
H  14.40600 1.62800 24.47600
H  17.09900 0.49500 32.38100
H  17.88100 -2.23500 32.49400
H  19.70300 -0.31400 31.44800
H  19.91400 -1.69200 32.62700
H  19.20300 -0.23300 33.15100
H  15.49000 -2.13500 32.63700
H  14.63900 -0.65100 32.53700
H  15.86700 -1.65200 34.83400
H  14.62500 -0.35100 34.52500
H  19.71600 -6.18000 28.90300
H  20.35800 -4.70600 29.71800
H  21.11500 -5.47800 28.38400
H  20.63100 -6.98400 26.63300
H  21.78400 -5.85300 25.95900
H  20.86800 -7.03200 24.84200
H  16.76300 -1.98600 22.59300
H  16.90000 0.83800 22.73100
H  18.40500 0.13200 21.62000
H  18.87400 -1.60300 21.54300
H  19.38900 -0.51600 22.87400
H  14.14200 -0.09600 22.81700
H  15.15600 -0.96300 21.64300
H  15.69900 1.75200 21.00500
H  14.23700 1.93600 21.85100
H  14.28100 0.75600 20.45100
H  13.58800 3.84400 26.08300
H  12.20900 3.55100 27.07400
H  12.33100 2.57800 25.61900
H  13.82400 1.11600 31.57600
H  14.80100 4.88600 33.03500
H  15.70800 3.91300 34.11100
H  13.99900 4.25800 34.48900
Mg 37.02700 48.96500 24.97500
C  37.30400 47.04100 27.83900
C  35.18300 51.25800 26.62300
C  36.29000 50.51900 21.97000
C  38.36600 46.27500 23.10600
N  36.19200 48.99300 26.96000
C  36.66900 48.28800 27.97500
C  36.15800 48.84100 29.28100
C  35.24000 50.04900 28.89700
C  35.44700 50.07400 27.39200
C  33.72300 50.02400 29.32400
C  37.39200 49.23200 30.15500
C  37.01500 49.72800 31.52900
H  35.62600 49.64500 32.12300
N  36.08800 50.75700 24.47300
C  35.40800 51.59000 25.30100
C  35.14000 52.80200 24.63300
C  35.21600 52.51500 23.23100
C  35.84200 51.19300 23.17200
C  34.61600 54.05400 25.37200
C  34.92000 53.43900 22.02600
O  34.95500 53.02300 20.89700
C  34.66700 54.87900 22.27500
N  37.09400 48.32800 22.79000
C  36.86400 49.24500 21.80600
C  37.33800 48.65100 20.46300
C  38.20700 47.43900 20.86500
C  37.86100 47.32600 22.38100
C  36.20500 48.30700 19.40800
C  39.71700 47.45700 20.52800
C  40.20400 46.92300 19.19300
N  37.79100 47.12700 25.37300
C  38.24600 46.11400 24.49100
C  38.69600 44.98600 25.33800
C  38.38900 45.33600 26.67700
C  37.70900 46.58900 26.60500
C  39.36200 43.68500 24.82700
C  38.36400 44.82600 28.05800
O  38.70900 43.78200 28.56800
C  37.78400 45.98900 28.87800
C  36.57800 45.50000 29.67000
O  35.41300 45.40600 29.30400
O  36.90000 45.66000 30.97900
C  35.89600 45.08600 31.92800
H  34.64800 52.02700 27.18500
H  36.30500 51.16700 21.09000
H  38.87000 45.60200 22.40800
H  35.64000 47.96500 29.67100
H  35.64500 51.01800 29.19000
H  33.46200 50.90900 29.90400
H  33.67200 49.16900 29.99800
H  33.10600 49.77400 28.46000
H  38.07200 49.97000 29.73000
H  37.95600 48.31600 30.32900
H  37.33500 50.76900 31.47400
H  37.68400 49.14600 32.16300
H  33.77500 54.57300 24.91100
H  35.42700 54.78100 25.39700
H  34.27600 53.80700 26.37800
H  33.70700 55.05200 22.76200
H  34.78600 55.43600 21.34500
H  35.44300 55.14400 22.99400
H  38.02400 49.43100 20.13200
H  37.69000 46.54300 20.52000
H  35.19200 48.28100 19.80800
H  36.63200 47.41300 18.95200
H  36.15100 49.02900 18.59300
H  40.28900 47.02000 21.34600
H  40.19300 48.43600 20.59000
H  39.32500 46.54500 18.67100
H  41.09000 46.29600 19.29500
H  40.47800 47.81600 18.63300
H  39.63600 43.88800 23.79200
H  38.65800 42.85300 24.84300
H  40.33900 43.49000 25.27000
H  38.62100 46.30400 29.50000
H  35.85700 45.56500 32.90700
H  36.24700 44.10100 32.23600
H  34.90400 44.94900 31.49700

