158

Mg 26.02900 50.63500 26.37300
C  24.06000 51.48200 29.15200
C  28.46600 49.57800 28.63200
C  28.07100 50.10700 23.79700
C  23.49200 51.77000 24.25600
N  26.17500 50.59000 28.66700
C  25.22900 50.89700 29.59700
C  25.62700 50.55700 31.06000
C  27.20600 50.31000 30.88200
C  27.36200 50.15200 29.32000
C  28.17200 51.39600 31.43100
C  24.66200 49.47900 31.70300
C  24.02300 49.80000 33.10800
H  24.94200 50.23300 34.24800
N  27.92100 49.84000 26.15300
C  28.75500 49.44900 27.22300
C  29.98000 48.90200 26.69900
C  29.95200 49.17700 25.23600
C  28.61700 49.75600 25.01700
C  30.97000 48.15100 27.57100
C  31.07300 48.85600 24.24600
O  31.11300 49.29800 23.10600
C  32.15200 47.98000 24.59900
N  25.87700 50.91500 24.31600
C  26.83800 50.60500 23.45500
C  26.34800 50.76700 22.03900
C  24.81900 50.98400 22.18700
C  24.69400 51.25800 23.69100
C  27.13000 51.82900 21.24100
C  23.87800 49.86500 21.69600
C  22.70600 50.32500 20.90200
N  24.15400 51.52500 26.64000
C  23.23100 51.97600 25.70300
C  22.04400 52.45200 26.41200
C  22.35700 52.33500 27.78000
C  23.61200 51.80200 27.82300
C  20.78600 52.92200 25.77900
C  21.84800 52.62400 29.10700
O  20.79400 53.19000 29.43600
C  22.92100 52.05400 30.07700
C  23.36300 53.14400 30.99100
O  24.43800 53.67800 30.99700
O  22.50000 53.16700 32.06000
C  22.97000 53.92200 33.18200
H  29.23900 49.25900 29.33500
H  28.60700 49.83700 22.88500
H  22.63500 51.97500 23.61200
H  25.46100 51.50300 31.57500
H  27.43400 49.34900 31.34200
H  27.58100 52.28400 31.65700
H  28.85600 51.66800 30.62700
H  28.71600 51.01400 32.29500
H  25.15000 48.51500 31.84100
H  23.76300 49.32000 31.10800
H  23.48700 48.92000 33.46400
H  23.29500 50.58200 32.89100
H  31.98600 48.38800 27.25400
H  30.88600 47.07000 27.46400
H  30.89800 48.37800 28.63400
H  32.71000 47.88300 23.66800
H  31.69800 47.04200 24.91800
H  32.87200 48.44300 25.27400
H  26.63500 49.81900 21.58400
H  24.56400 51.97400 21.80900
H  28.09700 51.78200 21.74200
H  26.59800 52.76600 21.40800
H  27.16500 51.67100 20.16300
H  23.64900 49.30300 22.60200
H  24.39700 49.29300 20.92700
H  22.62900 49.65000 20.04900
H  22.83800 51.29600 20.42400
H  21.73600 50.19800 21.38300
H  19.98300 52.82100 26.50800
H  20.52200 52.30800 24.91700
H  20.79000 53.99200 25.57500
H  22.51900 51.18200 30.59300
H  23.10900 54.93100 32.79100
H  23.91600 53.57400 33.59700
H  22.23300 53.90000 33.98400
Mg 16.44200 51.51800 25.20300
C  18.02700 50.46300 27.97400
C  13.52800 52.08200 27.18200
C  14.73200 52.52600 22.52100
C  18.80100 50.04000 23.21800
N  15.84700 51.23100 27.30700
C  16.72700 50.94200 28.25900
C  16.31900 51.37900 29.70200
C  14.82300 51.63200 29.37200
C  14.71500 51.71400 27.88200
C  13.85700 50.63300 30.06900
C  17.03500 52.64600 30.24700
C  17.40700 52.70000 31.78700
H  16.55500 51.81200 32.73300
N  14.47100 52.41800 24.94700
C  13.45600 52.58400 25.90700
C  12.38100 53.46300 25.30500
C  12.71300 53.57900 23.90700
C  14.02800 52.87400 23.73600
C  11.23600 54.16500 26.07700
C  11.97600 54.28500 22.74200
O  12.29100 54.20500 21.54900
C  10.78600 55.05200 23.00400
N  16.72200 51.29700 23.14800
C  15.88000 51.80100 22.27600
C  16.37700 51.53600 20.87400
C  17.79700 50.83700 21.07300
C  17.74400 50.73700 22.59200
C  15.43800 50.60800 20.02000
C  18.86200 51.66900 20.40800
C  19.64700 50.94300 19.21600
N  18.10100 50.50000 25.52800
C  19.04200 49.93100 24.61800
C  20.13200 49.34200 25.35700
C  19.75700 49.55400 26.67100
C  18.48200 50.12700 26.69700
C  21.37500 48.70200 24.76700
C  20.23100 49.32200 28.01000
O  21.26600 48.81900 28.42900
C  19.09700 49.91000 28.90900
C  18.54400 48.87300 29.80800
O  17.64900 48.07800 29.63700
O  19.37900 48.83700 30.88700
C  19.01900 47.97200 32.03900
H  12.67800 52.34100 27.81700
H  14.12600 52.87200 21.68100
H  19.49100 49.46800 22.59500
H  16.50000 50.53200 30.36400
H  14.40700 52.55900 29.76700
H  14.38600 50.12100 30.87300
H  13.39100 49.90100 29.40900
H  13.07300 51.17500 30.59800
H  16.27100 53.42300 30.21500
H  17.93700 52.90600 29.69300
H  17.36000 53.71900 32.17000
H  18.37800 52.22100 31.91300
H  10.25300 53.88400 25.70000
H  11.34300 55.22600 25.85000
H  11.29400 53.91900 27.13800
H  11.01900 55.82100 23.74000
H  10.08600 54.41000 23.53800
H  10.30500 55.36700 22.07700
H  16.47600 52.58700 20.60500
H  17.87000 49.81000 20.71600
H  14.66700 50.15400 20.64200
H  15.93100 49.73600 19.58900
H  15.00800 51.14400 19.17400
H  19.58800 52.06700 21.11700
H  18.36200 52.52600 19.95600
H  20.69300 51.23700 19.30000
H  19.09600 51.12000 18.29200
H  19.63800 49.86800 19.39600
H  22.27200 49.02600 25.29600
H  21.52100 49.18400 23.80000
H  21.28200 47.61900 24.68500
H  19.53200 50.62400 29.60900
H  17.97500 47.69900 31.88700
H  19.00700 48.40100 33.04100
H  19.70500 47.12700 31.97400

