158

Mg 24.58000 -4.64900 45.58000
C  26.25100 -1.84400 44.16100
C  21.70400 -3.86900 43.84000
C  23.39700 -7.63700 46.48000
C  27.56600 -5.27100 47.27000
N  24.03700 -3.02000 44.16900
C  24.92600 -2.08000 43.67700
C  24.26300 -1.30900 42.57100
C  22.73300 -1.84300 42.53000
C  22.81300 -2.91500 43.66900
C  21.62300 -0.76800 42.78000
C  24.96000 -1.43400 41.18400
C  25.16300 -0.25700 40.32000
H  24.85700 -0.44900 38.83200
N  22.73800 -5.57200 45.28200
C  21.68800 -5.09700 44.53900
C  20.74000 -6.13600 44.32500
C  21.14300 -7.28200 45.05000
C  22.44800 -6.88500 45.69700
C  19.45800 -5.95900 43.46900
C  20.33000 -8.49000 45.17200
O  19.30800 -8.65800 44.61100
C  20.79500 -9.59100 45.96100
N  25.43900 -6.28700 46.65600
C  24.69700 -7.40400 46.88200
C  25.51300 -8.30900 47.78700
C  26.72500 -7.44400 48.24400
C  26.62200 -6.25500 47.29300
C  24.77900 -8.98600 48.97400
C  28.17500 -8.10300 48.06300
C  29.07800 -7.99100 49.27500
N  26.52700 -3.80200 45.70300
C  27.62800 -4.23600 46.40100
C  28.69300 -3.27300 46.29800
C  28.17900 -2.32200 45.41500
C  26.86900 -2.68000 45.08800
C  29.99900 -3.23000 46.95300
C  28.48100 -1.08700 44.80600
O  29.49200 -0.44200 44.96200
C  27.30800 -0.74200 43.76600
C  26.78800 0.60300 44.03900
O  26.20500 0.94300 45.06300
O  26.98300 1.44500 42.98500
C  26.45500 2.75100 42.98600
H  20.81700 -3.60200 43.26300
H  23.07700 -8.66900 46.64400
H  28.44100 -5.47900 47.88900
H  24.23900 -0.26700 42.89000
H  22.50500 -2.46000 41.66100
H  21.95100 0.26900 42.84900
H  20.99000 -1.03600 43.62600
H  20.96200 -0.93800 41.93000
H  24.57000 -2.27800 40.61700
H  25.93800 -1.88800 41.34200
H  26.22100 -0.07900 40.51400
H  24.70200 0.68400 40.61900
H  19.24400 -6.81300 42.82700
H  19.56700 -5.07600 42.83900
H  18.55800 -5.64400 43.99700
H  21.76500 -9.73400 45.48300
H  20.11500 -10.43100 45.82000
H  21.00800 -9.33300 46.99800
H  25.89600 -9.07200 47.11000
H  26.56000 -7.10700 49.26700
H  24.80200 -10.05700 48.76900
H  23.77500 -8.56100 48.99000
H  25.23200 -8.77600 49.94200
H  28.72000 -7.69600 47.21100
H  28.09800 -9.17300 47.87000
H  29.98200 -7.42700 49.04900
H  29.35500 -9.02200 49.49500
H  28.43800 -7.50600 50.01200
H  30.68100 -2.53200 46.46700
H  30.51900 -4.18800 46.91200
H  29.98800 -3.06800 48.03100
H  27.65100 -0.78000 42.73200
H  25.96000 3.02100 43.91800
H  25.77600 2.61200 42.14400
H  27.24100 3.42800 42.65200
Mg 47.13600 16.43800 28.75000
C  45.23500 16.29000 31.71700
C  49.24900 18.46900 30.27900
C  48.54700 17.01000 25.65800
C  44.34800 15.20800 26.99500
N  47.21000 17.28800 30.79100
C  46.44500 16.95600 31.92800
C  47.05700 17.58300 33.09800
C  48.19400 18.50300 32.59500
C  48.25000 18.03400 31.12700
C  48.17100 20.07900 32.83000
C  47.44700 16.53700 34.20500
C  47.16000 16.92400 35.68500
H  47.21300 18.47000 36.20200
N  48.76700 17.38500 28.09000
C  49.55500 18.16600 28.92400
C  50.71200 18.64900 28.18900
C  50.60000 18.06900 26.87100
C  49.25900 17.41400 26.79100
C  51.79100 19.49900 28.74500
C  51.67800 18.07300 25.71100
O  51.48100 17.60500 24.62400
C  52.97500 18.84800 25.90200
N  46.58900 16.08000 26.58700
C  47.34600 16.43000 25.55300
C  46.55800 16.24900 24.25200
C  45.28500 15.43700 24.66300
C  45.43400 15.61500 26.17100
C  46.31300 17.72300 23.68100
C  45.27600 13.85900 24.22500
C  44.30500 13.53800 23.07900
N  45.26100 15.71700 29.15500
C  44.30200 15.18600 28.41500
C  43.17300 14.73000 29.28600
C  43.53700 15.24300 30.52300
C  44.76800 15.80400 30.48900
C  41.84100 14.05600 28.79800
C  43.02900 15.31200 31.83800
O  41.96900 14.96800 32.29700
C  44.16900 15.87300 32.68500
C  43.53100 16.95400 33.52600
O  42.90100 17.92600 33.13100
O  43.81100 16.69400 34.85600
C  43.26000 17.58500 35.91700
H  49.89200 19.10700 30.88900
H  49.09500 17.13500 24.72200
H  43.52000 14.85100 26.37800
H  46.35100 18.20100 33.65300
H  49.12700 18.10900 32.99800
H  47.91800 20.54500 31.87800
H  49.07700 20.48900 33.27600
H  47.40600 20.24300 33.58900
H  48.52500 16.38300 34.27100
H  47.05500 15.54700 33.97300
H  47.83400 16.35600 36.32500
H  46.16700 16.52800 35.89800
H  51.58100 19.68400 29.79900
H  51.67900 20.39200 28.13000
H  52.76100 19.02700 28.58800
H  52.80200 19.81500 26.37500
H  53.44400 18.96000 24.92500
H  53.52800 18.11600 26.49100
H  47.27800 15.73800 23.61300
H  44.33900 15.92100 24.41900
H  45.28700 17.70700 23.31600
H  47.01200 17.96900 22.88100
H  46.30600 18.42700 24.51300
H  45.16000 13.31300 25.16100
H  46.30000 13.61300 23.94700
H  43.96000 14.43500 22.56500
H  43.37000 13.11100 23.44000
H  44.73300 12.83200 22.36800
H  42.10500 13.00300 28.70000
H  41.34600 14.51700 27.94400
H  41.19600 14.16200 29.67000
H  44.55900 15.15000 33.40200
H  42.17300 17.51800 35.92100
H  43.66800 18.56600 35.67200
H  43.66100 17.37700 36.91000

