158

Mg 24.85900 -7.31100 47.99400
C  27.02800 -4.82000 46.86100
C  22.54200 -6.06900 45.67400
C  22.94700 -9.85200 48.75600
C  27.30400 -8.51600 50.24000
N  24.92100 -5.74500 46.18900
C  25.87000 -4.78900 46.11700
C  25.54900 -3.89300 44.83900
C  23.99000 -4.10100 44.71300
C  23.79000 -5.38000 45.57600
C  23.09700 -2.90500 45.04300
C  26.47300 -4.17000 43.60900
C  27.03000 -2.98900 42.83300
H  27.07600 -3.06500 41.31600
N  23.08200 -7.90500 47.22800
C  22.21000 -7.29700 46.38900
C  20.99500 -8.12800 46.25900
C  21.14100 -9.28600 47.08400
C  22.40700 -9.04900 47.71900
C  19.82800 -7.63500 45.26700
C  20.10300 -10.40000 47.22600
O  18.95300 -10.26800 46.78400
C  20.47000 -11.68000 47.93800
N  25.11000 -8.97000 49.31700
C  24.11600 -9.85800 49.46100
C  24.34500 -10.84900 50.61500
C  25.89400 -10.62500 50.79200
C  26.10800 -9.26000 50.14900
C  23.41700 -10.63400 51.84700
C  26.82200 -11.66900 50.07600
C  27.82100 -12.43900 50.98400
N  26.79800 -6.79000 48.44000
C  27.64400 -7.33400 49.46400
C  28.87500 -6.54500 49.40900
C  28.56000 -5.49900 48.45200
C  27.38000 -5.72400 47.87100
C  30.13100 -6.80900 50.20500
C  29.03800 -4.31900 47.83300
O  30.11100 -3.76700 48.09500
C  28.06100 -3.79400 46.80200
C  27.54200 -2.46100 47.18900
O  27.16900 -2.11600 48.32200
O  27.65000 -1.62500 46.12300
C  27.03800 -0.22900 46.21000
H  21.70500 -5.57200 45.18100
H  22.29300 -10.63800 49.14200
H  28.10700 -8.91600 50.86200
H  25.80800 -2.88500 45.16400
H  23.75700 -4.28000 43.66300
H  23.54900 -1.95400 44.76000
H  22.82600 -2.88900 46.09900
H  22.21800 -3.08400 44.42400
H  25.82100 -4.78200 42.98600
H  27.28100 -4.84300 43.89700
H  28.01300 -2.84200 43.28100
H  26.31200 -2.19200 43.02900
H  19.73900 -6.56300 45.09500
H  18.85400 -8.01600 45.57400
H  20.07700 -7.94500 44.25200
H  21.42800 -12.13500 47.68200
H  19.66400 -12.34700 47.63200
H  20.46300 -11.46300 49.00600
H  24.13600 -11.82200 50.16900
H  26.15500 -10.47000 51.83900
H  22.45200 -10.19400 51.59300
H  23.88800 -10.16400 52.71100
H  23.11200 -11.62500 52.18600
H  27.21400 -11.24400 49.15200
H  26.11300 -12.41900 49.72700
H  28.75200 -12.53900 50.42600
H  27.59000 -13.48900 51.16700
H  28.03700 -11.81800 51.85300
H  29.95200 -7.49600 51.03200
H  30.47700 -5.85300 50.59700
H  30.90100 -7.21100 49.54700
H  28.37700 -3.67100 45.76600
H  26.14700 -0.02900 45.61400
H  27.85300 0.43300 45.91800
H  26.72700 -0.00500 47.23100
Mg 26.06300 51.99500 25.87100
C  23.73500 52.96100 28.48400
C  28.23200 51.15000 28.28700
C  28.19300 51.30800 23.33500
C  23.74200 53.07700 23.41700
N  26.03200 52.30000 28.20800
C  24.98000 52.51700 29.04600
C  25.28300 52.18700 30.51900
C  26.70300 51.49800 30.41200
C  27.05600 51.67300 28.88700
C  27.78600 52.01600 31.36300
C  24.19600 51.16800 31.09600
C  23.18900 51.53900 32.11600
H  23.26900 50.93100 33.50200
N  28.00100 51.52400 25.82000
C  28.71900 51.09400 26.88700
C  30.01700 50.71500 26.46400
C  30.01400 50.68500 25.01300
C  28.69200 51.17600 24.64100
C  31.16600 50.38300 27.42300
C  31.06600 50.38600 23.94300
O  30.92800 50.46800 22.74300
C  32.42600 49.97900 24.44500
N  25.99500 52.30700 23.70800
C  27.03500 51.91300 22.92300
C  26.74900 52.32100 21.45600
C  25.19800 52.60900 21.43800
C  24.99300 52.72300 22.93200
C  27.72100 53.37000 20.83500
C  24.31900 51.51200 20.76700
C  23.18200 52.06800 19.87700
N  24.20300 52.88500 25.87400
C  23.33400 53.16200 24.80000
C  22.05300 53.57900 25.34300
C  22.21100 53.53700 26.73900
C  23.45300 53.08000 27.03400
C  20.90400 54.11000 24.55800
C  21.47600 53.86400 27.99900
O  20.34200 54.33000 28.17500
C  22.48200 53.55400 29.11000
C  22.72900 54.67300 29.96900
O  23.67900 55.42400 29.92900
O  21.76100 54.91700 30.87900
C  21.80700 56.20300 31.56500
H  28.90400 50.77900 29.06300
H  28.85800 51.01400 22.52000
H  22.96700 53.26600 22.67100
H  25.27500 53.08400 31.13800
H  26.68200 50.42200 30.58800
H  28.37700 51.18700 31.75200
H  27.39000 52.68600 32.12600
H  28.43700 52.64300 30.75300
H  24.66500 50.25600 31.46600
H  23.52500 50.85400 30.29700
H  22.16800 51.52100 31.73400
H  23.46900 52.56600 32.35100
H  30.97900 50.57100 28.48000
H  32.04500 50.97200 27.16000
H  31.43700 49.33300 27.31700
H  32.38700 49.30200 25.29800
H  32.93600 50.87400 24.80300
H  32.86800 49.45300 23.59900
H  26.91200 51.40000 20.89500
H  24.96200 53.59600 21.04000
H  28.51500 52.81300 20.33900
H  28.27700 53.90000 21.60900
H  27.31900 54.03400 20.07100
H  23.92400 50.84600 21.53300
H  25.02600 50.89200 20.21500
H  22.28900 51.58700 20.27600
H  23.24700 51.78100 18.82800
H  22.99300 53.13000 20.03100
H  20.80800 55.15200 24.86300
H  19.99800 53.56700 24.82700
H  21.13000 54.18500 23.49400
H  22.00900 52.78600 29.72300
H  22.59700 56.09500 32.30800
H  20.91300 56.52200 32.10100
H  22.28500 56.90300 30.88100

