158

Mg 54.01500 24.21000 45.33600
C  51.36200 26.34300 44.58400
C  51.99600 21.54500 44.38000
C  56.65300 22.06700 45.51300
C  56.03300 26.88800 45.93000
N  51.91100 24.01200 44.52400
C  50.96600 25.00100 44.39900
C  49.68400 24.42100 43.69600
C  49.83600 22.85900 44.12200
C  51.33700 22.79000 44.42400
C  48.81100 22.26000 45.18900
C  49.60900 24.71500 42.15500
C  48.22800 25.14000 41.63700
H  47.94400 24.95400 40.17600
N  54.26600 22.11300 44.96800
C  53.33900 21.19300 44.66500
C  53.87000 19.90100 44.70400
C  55.27100 19.99800 44.83100
C  55.44700 21.48900 45.07700
C  53.15900 18.54100 44.56300
C  56.31000 18.87800 44.79500
O  55.97900 17.72500 44.62600
C  57.80900 19.06700 44.91400
N  56.06100 24.47800 45.55100
C  56.97700 23.43900 45.68000
C  58.38400 23.97400 46.03200
C  58.16800 25.48200 45.85700
C  56.63900 25.66000 45.80100
C  58.99700 23.44100 47.37800
C  58.90700 26.07000 44.72300
C  60.36200 26.42300 44.96600
N  53.80500 26.24700 45.31700
C  54.73300 27.22700 45.69600
C  54.04300 28.56300 45.65800
C  52.71300 28.25900 45.22100
C  52.68200 26.84500 45.00600
C  54.65500 29.87100 46.08600
C  51.48100 28.82300 44.92100
O  51.16000 30.02900 44.85100
C  50.59900 27.64200 44.34800
C  50.39000 27.94900 42.91700
O  51.27800 27.82700 42.06600
O  49.20300 28.47100 42.76000
C  48.86500 29.07000 41.50400
H  51.40900 20.68100 44.06300
H  57.53000 21.41700 45.55500
H  56.66100 27.73200 46.22300
H  48.80700 24.77700 44.23600
H  49.66000 22.18400 43.28400
H  49.33800 22.07000 46.12500
H  48.40400 21.38700 44.68000
H  48.00900 22.98700 45.31100
H  49.86600 23.77900 41.65900
H  50.40700 25.43400 41.97200
H  48.13200 26.18800 41.92100
H  47.37200 24.75700 42.19300
H  53.24500 18.21500 43.52700
H  52.08500 18.54400 44.75100
H  53.52800 17.71300 45.16900
H  58.27300 18.19900 44.44500
H  58.17000 19.25400 45.92500
H  58.13400 19.91700 44.31400
H  59.08200 23.66700 45.25300
H  58.63700 25.89700 46.74900
H  59.71100 24.09600 47.87800
H  59.50900 22.53500 47.05400
H  58.24700 23.15500 48.11500
H  58.42400 26.99900 44.42200
H  58.86200 25.37400 43.88500
H  60.62900 26.37100 46.02200
H  60.54700 27.44600 44.64100
H  60.96900 25.64800 44.49800
H  55.31600 29.75600 46.94500
H  53.84000 30.52200 46.40400
H  55.31200 30.28800 45.32300
H  49.62400 27.60600 44.83600
H  47.85800 29.48000 41.42600
H  48.91800 28.38000 40.66200
H  49.64000 29.81800 41.33900
Mg 26.88300 49.27000 26.33900
C  24.91000 50.62100 28.99300
C  29.20600 48.31200 28.74700
C  29.03900 48.71200 23.91600
C  24.60700 50.82400 24.05000
N  27.04500 49.53800 28.60600
C  26.08100 49.94500 29.47000
C  26.44700 49.62800 30.85900
C  27.94100 49.10500 30.83700
C  28.07900 48.88500 29.27900
C  28.94400 50.16900 31.38300
C  25.42700 48.54900 31.47600
C  24.80800 48.78500 32.86500
H  25.61700 49.54200 33.96700
N  28.88200 48.54800 26.30400
C  29.61400 48.10700 27.36600
C  30.88000 47.53500 26.87300
C  30.85300 47.68100 25.42200
C  29.57400 48.31000 25.11700
C  31.95900 46.96500 27.68400
C  31.89800 47.37400 24.29200
O  31.80300 47.60700 23.11500
C  33.28000 46.92000 24.69100
N  26.86300 49.76600 24.28300
C  27.83800 49.24600 23.51800
C  27.51000 49.35500 22.03100
C  26.02800 50.03300 22.08000
C  25.76400 50.17000 23.54400
C  28.57700 50.17300 21.21600
C  25.02300 49.05400 21.32300
C  24.79400 49.16700 19.75800
N  25.07600 50.39700 26.46900
C  24.33300 51.04800 25.43900
C  23.32700 51.85200 26.09300
C  23.47600 51.66400 27.49800
C  24.61900 50.79300 27.60600
C  22.34600 52.72700 25.40500
C  22.91600 52.02400 28.82500
O  21.98700 52.73300 29.22000
C  23.90100 51.39200 29.81000
C  24.51300 52.48300 30.63800
O  25.27800 53.39900 30.28800
O  23.99700 52.43700 31.92600
C  24.37200 53.52300 32.82800
H  29.98900 47.89300 29.38200
H  29.65900 48.43000 23.06100
H  24.01100 51.40900 23.34700
H  26.44000 50.50600 31.50500
H  28.09200 48.18100 31.39500
H  29.97800 49.86600 31.21900
H  28.84300 50.23600 32.46600
H  28.66000 51.12600 30.94500
H  25.95900 47.60000 31.54700
H  24.63700 48.45400 30.73200
H  24.55400 47.77200 33.17700
H  23.87500 49.30800 32.65100
H  31.90300 47.16200 28.75400
H  32.89900 47.25000 27.21100
H  31.88500 45.90100 27.45900
H  33.11700 46.06000 25.34100
H  33.84100 47.65900 25.26300
H  33.85200 46.67200 23.79600
H  27.43900 48.35600 21.60000
H  25.98300 50.99900 21.57500
H  28.73400 51.03000 21.87100
H  28.11100 50.42500 20.26400
H  29.53100 49.65800 21.10400
H  23.99300 49.13000 21.67000
H  25.33600 48.03500 21.54900
H  24.69800 48.18700 19.29100
H  25.46800 49.80900 19.19100
H  23.82100 49.60400 19.53200
H  21.64000 52.07600 24.88900
H  22.87000 53.27600 24.62200
H  21.78100 53.46100 25.97900
H  23.39600 50.67100 30.45300
H  23.68300 53.67200 33.66000
H  24.46200 54.45100 32.26400
H  25.32700 53.26500 33.28500

