158

Mg 25.50600 1.24300 29.08800
C  27.47400 0.77000 32.00700
C  22.74300 1.74800 31.05700
C  23.70700 1.13100 26.29600
C  28.40500 0.18700 27.25700
N  25.14100 1.18600 31.29700
C  26.18900 1.32700 32.20400
C  25.60800 1.54500 33.60900
C  24.03100 1.46600 33.35800
C  23.94700 1.59000 31.80600
C  23.35400 0.22900 33.84800
C  26.05800 2.86400 34.29500
C  27.09100 2.66300 35.50300
H  26.71300 3.36000 36.85400
N  23.49700 1.42500 28.74100
C  22.53000 1.70400 29.70300
C  21.27300 1.73700 29.01600
C  21.53200 1.56000 27.63400
C  23.03000 1.46200 27.47300
C  19.96000 2.04700 29.70000
C  20.50300 1.51000 26.46100
O  20.83900 1.30400 25.26200
C  19.04300 1.75100 26.69900
N  25.97300 0.66300 27.11400
C  25.02800 0.85700 26.12600
C  25.59400 0.55700 24.75000
C  27.18600 0.49400 25.03900
C  27.17400 0.37200 26.55600
C  25.05400 -0.81400 24.04500
C  28.08600 1.69200 24.37900
C  29.25600 1.28300 23.49100
N  27.51100 0.47100 29.50200
C  28.56500 0.14200 28.63400
C  29.75100 -0.08100 29.40500
C  29.32200 0.05200 30.70700
C  27.94100 0.42500 30.72300
C  31.06700 -0.53800 28.77100
C  29.75500 0.20100 32.05400
O  30.91000 0.13400 32.46200
C  28.56900 0.60800 32.95600
C  28.32800 -0.51300 33.85600
O  27.95300 -1.62300 33.57700
O  28.58000 -0.10700 35.12700
C  28.36200 -1.09000 36.16200
H  21.87500 1.83100 31.71500
H  23.16900 1.12600 25.34600
H  29.26300 -0.14500 26.66800
H  25.95600 0.65800 34.13700
H  23.47900 2.33000 33.72900
H  23.21600 -0.50700 33.05500
H  22.36800 0.44800 34.25700
H  23.95400 -0.28200 34.60100
H  25.17700 3.43400 34.58900
H  26.55600 3.52100 33.58200
H  28.04500 3.05500 35.14900
H  27.31400 1.60900 35.66900
H  19.27800 1.23900 29.43900
H  19.61000 2.98500 29.26900
H  20.02200 2.13900 30.78500
H  18.59000 1.05700 27.40800
H  18.53700 1.72200 25.73400
H  18.92900 2.78600 27.02200
H  25.36100 1.43900 24.15400
H  27.55100 -0.45900 24.65600
H  25.75500 -1.64600 24.11600
H  24.90300 -0.51800 23.00700
H  24.11100 -1.16000 24.46900
H  28.46600 2.19000 25.27100
H  27.53400 2.41600 23.78000
H  29.03400 1.87800 22.60600
H  29.18900 0.22700 23.22700
H  30.27500 1.52800 23.79000
H  31.11100 -0.76600 27.70600
H  31.56200 -1.30100 29.37100
H  31.79300 0.27100 28.85000
H  28.66100 1.55400 33.48900
H  28.41800 -0.60600 37.13600
H  29.05500 -1.92900 36.09900
H  27.40600 -1.60300 36.05600
Mg 42.38200 41.94800 25.23300
C  41.84100 44.40100 27.70200
C  43.95400 39.94300 27.58600
C  42.74400 39.66800 22.84800
C  41.21500 44.30700 22.89300
N  42.75100 42.13900 27.31800
C  42.33400 43.14700 28.16800
C  42.61000 42.84300 29.61700
C  43.27500 41.48800 29.53100
C  43.44500 41.20200 28.03700
C  44.54400 41.37800 30.42500
C  41.34300 42.75200 30.54600
C  41.40800 42.16300 31.96500
H  42.00200 43.06000 33.01900
N  43.30900 40.03800 25.22100
C  43.94300 39.40400 26.28800
C  44.31200 38.10100 25.92000
C  43.85700 37.98000 24.55000
C  43.26300 39.26000 24.12400
C  44.87700 37.02700 26.89600
C  43.89200 36.73300 23.70800
O  43.61600 36.75400 22.53900
C  44.31600 35.41200 24.31300
N  42.19900 42.04600 23.10800
C  42.20600 40.88700 22.39100
C  41.88200 41.19600 20.87500
C  41.24900 42.58500 20.99300
C  41.67600 43.05900 22.41400
C  43.13200 41.04000 19.99200
C  39.73900 42.67200 20.79400
C  38.83500 41.64400 21.59800
N  41.77800 43.97600 25.19100
C  41.35900 44.74400 24.19500
C  41.03200 46.08800 24.66800
C  41.12800 45.96500 26.10100
C  41.63500 44.71200 26.32500
C  40.56300 47.24000 23.94800
C  41.00000 46.71500 27.32900
O  40.64800 47.86700 27.55500
C  41.32600 45.66600 28.42900
C  42.31500 46.34200 29.30800
O  43.47000 46.49600 29.01100
O  41.69600 46.64600 30.54400
C  42.67000 47.29300 31.45600
H  44.45900 39.37400 28.36900
H  42.82300 38.87000 22.10700
H  40.73000 45.04500 22.25100
H  43.32700 43.58800 29.96200
H  42.49500 40.82500 29.90500
H  45.31400 41.35800 29.65300
H  44.48100 40.39000 30.88000
H  44.49100 42.22800 31.10400
H  40.46700 42.31800 30.06500
H  41.03700 43.74500 30.87400
H  41.94200 41.21400 32.01900
H  40.39500 41.96900 32.31900
H  44.86900 37.32600 27.94400
H  45.89100 36.81800 26.55700
H  44.33600 36.08200 26.94400
H  45.27300 35.70500 24.74600
H  44.51600 34.68700 23.52400
H  43.45800 35.11300 24.91500
H  41.13600 40.50400 20.48400
H  41.65400 43.29100 20.26800
H  43.36600 41.98400 19.50000
H  42.99400 40.37600 19.13900
H  44.00300 40.67200 20.53500
H  39.70600 42.53800 19.71300
H  39.35800 43.66800 21.01600
H  38.12400 42.28000 22.12500
H  39.47100 41.23500 22.38300
H  38.46800 40.94200 20.84900
H  39.98600 46.99300 23.05700
H  41.37500 47.89200 23.62500
H  39.91400 47.76800 24.64600
H  40.47700 45.41000 29.06200
H  43.35000 48.01800 31.00700
H  43.32300 46.58900 31.97300
H  42.13400 47.87300 32.20800

