158

Mg 48.97900 35.88300 27.43500
C  47.06100 33.99400 29.99900
C  49.08100 38.41500 29.65200
C  50.22400 37.66400 25.01700
C  48.50500 33.23100 25.24200
N  48.00600 36.18200 29.52700
C  47.44700 35.28800 30.42600
C  47.49900 35.93800 31.83400
C  47.68500 37.45900 31.60300
C  48.29900 37.36200 30.15600
C  46.39600 38.34100 31.54400
C  48.60300 35.23100 32.73100
C  48.25600 34.80100 34.16500
H  46.99400 35.38300 34.82400
N  49.72600 37.69900 27.44600
C  49.79100 38.57500 28.48000
C  50.59600 39.74600 28.11300
C  50.86000 39.56600 26.71800
C  50.21700 38.27800 26.30700
C  51.02000 40.77000 29.09300
C  51.62600 40.48800 25.82400
O  51.69100 40.28300 24.61600
C  52.28500 41.72100 26.46500
N  49.31400 35.47600 25.37300
C  49.92200 36.34000 24.59300
C  50.17200 35.81200 23.17900
C  49.96800 34.27500 23.42800
C  49.26400 34.25900 24.74800
C  49.26100 36.54200 22.15300
C  51.26500 33.39400 23.53800
C  51.20100 32.09100 22.80100
N  48.05800 33.96800 27.56500
C  47.83100 33.09800 26.51100
C  47.03600 31.98900 27.01900
C  46.78600 32.36400 28.30600
C  47.36600 33.53000 28.66700
C  46.54100 30.71700 26.30600
C  45.99700 31.88400 29.47100
O  45.30600 30.95200 29.69100
C  46.08600 33.12000 30.51200
C  46.24400 32.58300 31.88800
O  47.24100 32.05100 32.37400
O  45.06700 32.75600 32.44100
C  44.71200 32.15000 33.70200
H  49.03000 39.21700 30.39100
H  50.65200 38.33900 24.27200
H  48.39500 32.40800 24.53300
H  46.53100 35.84900 32.32500
H  48.36600 37.95200 32.29700
H  46.02400 38.38200 32.56800
H  45.58200 37.91500 30.95700
H  46.56100 39.36700 31.21600
H  49.44600 35.90400 32.88700
H  49.11100 34.41500 32.21700
H  49.01800 35.10800 34.88100
H  48.24700 33.72500 34.34300
H  50.80500 40.45300 30.11300
H  50.66800 41.75800 28.79800
H  52.10900 40.79400 29.12900
H  51.49000 42.42400 26.71100
H  52.78200 42.27600 25.66900
H  53.07600 41.38100 27.13300
H  51.18700 36.11800 22.92500
H  49.20800 33.95000 22.71700
H  49.60500 37.48500 21.72700
H  48.40800 36.81900 22.77300
H  49.05300 35.87600 21.31600
H  51.45600 33.25100 24.60200
H  52.15000 33.86200 23.10500
H  51.10500 31.22900 23.46200
H  52.05200 31.98500 22.12800
H  50.24700 31.98600 22.28600
H  47.31900 30.05800 25.92100
H  46.00800 31.10700 25.43900
H  45.83200 30.11100 26.87000
H  45.13800 33.63500 30.35700
H  45.47600 32.26300 34.47100
H  44.72900 31.07300 33.53700
H  43.77300 32.49900 34.13400
Mg 42.45400 41.48500 26.63400
C  41.43400 43.67200 29.10000
C  43.22300 39.24400 29.21300
C  44.12200 39.62700 24.46800
C  41.97200 43.99400 24.25700
N  42.25200 41.44600 28.92600
C  41.79500 42.48200 29.68100
C  41.78600 42.19700 31.19500
C  42.38500 40.76200 31.23400
C  42.62600 40.40800 29.70800
C  43.63300 40.56400 32.12200
C  40.32500 42.25600 31.74700
C  40.04300 42.96700 33.04600
H  39.31200 42.25900 34.17600
N  43.52300 39.62300 26.83100
C  43.71400 38.83400 27.93100
C  44.36100 37.60200 27.51400
C  44.71200 37.76000 26.19800
C  44.18500 39.06400 25.81700
C  44.46000 36.39700 28.40200
C  45.36100 36.83000 25.16200
O  45.63900 37.02500 24.00300
C  45.67800 35.43000 25.59900
N  42.93900 41.82600 24.60000
C  43.62100 40.84600 23.88000
C  43.55800 41.10000 22.36500
C  42.77100 42.47600 22.29400
C  42.46400 42.76500 23.78800
C  44.91200 40.97700 21.55300
C  41.39100 42.46500 21.55000
C  40.43000 41.37700 22.00700
N  41.77800 43.46200 26.63100
C  41.67500 44.37600 25.58300
C  41.23500 45.61900 26.13700
C  41.10000 45.45800 27.54500
C  41.48600 44.08300 27.71600
C  40.86500 46.85900 25.41500
C  40.81000 46.07500 28.73600
O  40.56900 47.25800 29.00400
C  41.01600 45.01300 29.81100
C  42.03000 45.51500 30.77200
O  43.23200 45.34700 30.59200
O  41.51100 45.98900 31.90600
C  42.44900 46.22600 33.03600
H  43.33600 38.59100 30.08100
H  44.71100 39.08000 23.72900
H  41.84000 44.74200 23.47300
H  42.39000 42.94300 31.71000
H  41.68900 39.99300 31.57000
H  44.52700 40.71200 31.51700
H  43.74900 39.57300 32.56100
H  43.46400 41.32400 32.88500
H  39.91600 41.24700 31.80200
H  39.69800 42.73400 30.99400
H  39.39500 43.82200 32.85500
H  41.02400 43.23200 33.44100
H  43.84200 36.50000 29.29400
H  45.49900 36.15800 28.63100
H  44.07500 35.50100 27.91500
H  46.14700 34.87100 24.78900
H  44.75700 34.87600 25.77900
H  46.32900 35.43500 26.47300
H  42.80000 40.41100 21.99300
H  43.37300 43.35300 22.05400
H  44.91400 41.95400 21.06900
H  44.79000 40.12300 20.88600
H  45.83700 40.89000 22.12400
H  41.51900 42.41000 20.46900
H  40.87700 43.40600 21.74900
H  40.65300 40.79700 22.90200
H  40.25300 40.72500 21.15100
H  39.45100 41.72300 22.34000
H  39.92800 47.12500 25.90500
H  40.84000 46.66000 24.34300
H  41.63100 47.57600 25.71100
H  40.08000 44.91400 30.35900
H  43.06800 45.34500 33.20800
H  41.86000 46.50800 33.90800
H  43.11200 47.06400 32.82000

