158

Mg 2.65600 -1.53100 44.42400
C  6.00200 -0.83300 43.62800
C  1.64900 0.87900 42.33000
C  -0.52500 -2.55100 44.81400
C  3.76200 -4.70000 45.58700
N  3.72700 -0.09100 43.27400
C  5.09000 0.08300 43.06700
C  5.34100 1.12700 42.06400
C  3.90800 1.72700 41.78600
C  3.00900 0.76700 42.55700
C  3.67700 3.22900 42.16900
C  6.06400 0.54700 40.76000
C  6.92100 1.56800 40.10400
H  6.41900 2.07900 38.77000
N  0.83200 -0.83800 43.75200
C  0.61900 0.20400 42.93500
C  -0.73600 0.50000 42.78900
C  -1.47200 -0.59400 43.36700
C  -0.34700 -1.37500 44.06800
C  -1.15000 1.75700 41.98500
C  -2.93600 -0.75300 43.30700
O  -3.66300 0.10400 42.77200
C  -3.62500 -1.98200 43.87000
N  1.77100 -3.43000 45.04400
C  0.42100 -3.48000 45.22000
C  0.04500 -4.91000 45.79400
C  1.41800 -5.48300 46.23200
C  2.38100 -4.50000 45.61700
C  -1.03900 -5.01400 46.83800
C  1.69900 -6.93100 45.87000
C  2.46900 -7.84700 46.87700
N  4.47500 -2.58700 44.68300
C  4.74700 -3.79900 45.17500
C  6.14900 -3.99900 45.27600
C  6.72700 -2.82200 44.72800
C  5.63800 -2.04100 44.29700
C  6.84000 -5.21900 45.85600
C  7.91900 -2.12900 44.42000
O  9.07100 -2.43800 44.58000
C  7.48300 -0.83600 43.64400
C  8.10100 0.31300 44.37900
O  7.88800 0.56700 45.54500
O  8.66700 1.08000 43.40700
C  9.38300 2.34100 43.69500
H  1.43800 1.59700 41.53500
H  -1.54100 -2.94400 44.88900
H  4.09500 -5.70500 45.85600
H  5.97200 1.91300 42.47800
H  3.64200 1.79900 40.73100
H  4.68100 3.64300 42.26600
H  3.23100 3.35900 43.15500
H  3.10400 3.71800 41.38100
H  5.33300 0.12300 40.07100
H  6.65800 -0.33600 40.99000
H  7.90200 1.09800 40.03900
H  7.06100 2.48700 40.67300
H  -2.16300 2.12400 42.14700
H  -1.14600 1.57700 40.91000
H  -0.38500 2.46800 42.29600
H  -4.67800 -1.87100 43.61000
H  -3.38700 -1.85800 44.92600
H  -3.18800 -2.85900 43.39200
H  -0.16900 -5.63600 45.01000
H  1.49000 -5.25400 47.29600
H  -1.63500 -4.12000 46.65900
H  -0.83500 -5.23100 47.88600
H  -1.63800 -5.86800 46.52200
H  2.18600 -6.91100 44.89500
H  0.82000 -7.48400 45.53900
H  3.47400 -8.06300 46.51300
H  1.89800 -8.76700 46.99800
H  2.75900 -7.44600 47.84800
H  6.20200 -6.10200 45.88800
H  7.15400 -4.91700 46.85500
H  7.71000 -5.45200 45.24200
H  7.91800 -0.76900 42.64700
H  8.71800 3.16900 43.44900
H  10.20200 2.41600 42.97900
H  9.82100 2.36700 44.69300
Mg 6.48900 53.22800 42.28400
C  6.37100 49.71800 42.07400
C  9.46600 53.11800 40.71500
C  6.09800 56.47100 41.70200
C  3.09500 53.05100 43.24000
N  7.64300 51.57700 41.30500
C  7.44800 50.21700 41.37900
C  8.59900 49.40500 40.65800
C  9.61800 50.58800 40.55300
C  8.86800 51.84300 40.84000
C  10.91800 50.31100 41.44700
C  8.27600 48.77000 39.25500
C  7.21300 49.45200 38.28500
H  7.62900 49.73800 36.81300
N  7.58800 54.64800 41.38500
C  8.88400 54.39800 40.98900
C  9.52200 55.67500 40.70200
C  8.55700 56.68700 40.94300
C  7.31400 55.96600 41.31500
C  10.98500 55.79800 40.37200
C  8.82900 58.15600 41.02600
O  9.94900 58.55200 40.75300
C  7.83300 59.09700 41.45700
N  4.83100 54.57000 42.56200
C  4.98500 55.90100 42.32100
C  3.64100 56.71900 42.62100
C  2.65800 55.53900 42.92700
C  3.58000 54.29500 43.01400
C  3.80600 57.65500 43.84800
C  1.67700 55.25300 41.76100
C  0.77400 56.38000 41.35400
N  5.05100 51.80500 42.80800
C  3.77400 51.88000 43.24000
C  3.18200 50.58500 43.48100
C  4.18400 49.70400 43.12900
C  5.32400 50.45200 42.70000
C  1.75500 50.14600 43.91800
C  4.49400 48.30800 43.09800
O  3.95900 47.30500 43.51800
C  5.94000 48.22900 42.32400
C  5.64800 47.52800 41.05800
O  4.77600 47.91100 40.21000
O  6.34200 46.36300 40.92700
C  5.89300 45.43900 39.85000
H  10.46400 53.11000 40.27200
H  5.91700 57.54200 41.59100
H  2.06600 52.94500 43.58900
H  8.86800 48.65900 41.40600
H  9.86100 50.71900 39.49800
H  11.17900 51.24900 41.93700
H  11.78500 50.24800 40.78900
H  10.85400 49.44800 42.11000
H  7.95300 47.77800 39.57000
H  9.26700 48.78400 38.80200
H  6.97400 50.41600 38.73500
H  6.29500 48.88200 38.42900
H  11.34000 56.81400 40.53900
H  11.14200 55.49200 39.33800
H  11.50500 55.14000 41.06900
H  7.06100 59.20000 40.69500
H  8.33600 60.06200 41.52500
H  7.49300 58.70700 42.41700
H  3.39200 57.32600 41.75100
H  2.19200 55.59600 43.91100
H  3.59300 58.68600 43.56400
H  4.80200 57.71800 44.28700
H  3.15900 57.36800 44.67700
H  1.01600 54.48900 42.17100
H  2.14500 54.78700 40.89300
H  0.68000 57.14600 42.12300
H  -0.25600 56.08900 41.15000
H  1.13700 56.79400 40.41200
H  1.37900 50.80600 44.70000
H  1.81900 49.11500 44.26700
H  1.04900 50.16400 43.08700
H  6.65000 47.61400 42.87600
H  5.96000 46.00600 38.92100
H  4.86800 45.07400 39.92100
H  6.56600 44.58100 39.83300

