158

Mg 47.69000 25.71100 28.77800
C  48.46800 27.92300 31.35700
C  46.34700 23.49500 31.29800
C  47.32100 23.26200 26.47500
C  49.55200 27.62200 26.48100
N  47.45100 25.72600 31.09300
C  47.78500 26.82900 31.85400
C  47.33400 26.60500 33.27900
C  46.79600 25.16500 33.27200
C  46.89900 24.74500 31.79600
C  47.50800 24.15900 34.22600
C  46.39900 27.55800 34.03900
C  46.80000 27.85100 35.48800
H  45.79000 28.04600 36.54900
N  46.80000 23.78600 28.82300
C  46.31200 23.09600 29.95400
C  45.71300 21.88400 29.41200
C  45.95800 21.82100 27.99700
C  46.69000 23.02100 27.70600
C  44.99200 20.96500 30.32800
C  45.45000 20.82100 27.02000
O  45.67100 20.88300 25.81800
C  44.51700 19.70400 27.46200
N  48.37500 25.46700 26.89700
C  48.03400 24.42600 26.12600
C  48.53400 24.56400 24.66200
C  48.67100 26.12000 24.65200
C  48.86900 26.43200 26.10300
C  49.86800 23.79700 24.57500
C  47.41900 27.00400 24.18100
C  47.75600 28.13700 23.20600
N  48.75900 27.40500 28.79300
C  49.50400 28.09100 27.82600
C  50.04700 29.28000 28.47900
C  49.62400 29.27900 29.80800
C  48.86300 28.13200 29.94900
C  50.86300 30.30900 27.75200
C  49.74600 29.95300 31.10700
O  50.36300 30.96500 31.39900
C  48.83400 29.13700 32.06700
C  49.65300 28.89700 33.29800
O  50.59700 28.11100 33.33900
O  49.44300 29.75500 34.32800
C  50.32300 29.48800 35.54000
H  45.82300 22.90900 32.05500
H  47.19100 22.40700 25.80800
H  50.06300 28.29000 25.78400
H  48.29700 26.58300 33.79000
H  45.72800 25.16600 33.49100
H  48.21100 23.44800 33.79300
H  46.77700 23.58400 34.79500
H  48.10100 24.68600 34.97500
H  45.36300 27.21700 34.03400
H  46.46400 28.44400 33.40700
H  47.37100 28.77900 35.46800
H  47.35700 26.96000 35.77700
H  45.56900 20.04100 30.32100
H  43.94800 20.68700 30.18300
H  44.89700 21.17800 31.39300
H  45.01000 18.96800 28.09600
H  44.31100 19.15300 26.54400
H  43.60000 20.12300 27.87600
H  47.77400 24.11300 24.02500
H  49.51900 26.33200 24.00100
H  50.75900 24.42400 24.53900
H  49.92200 23.20100 23.66400
H  50.00800 23.24300 25.50400
H  46.91100 27.51100 25.00100
H  46.64900 26.37100 23.74100
H  46.96100 28.19700 22.46300
H  48.74700 28.01400 22.76900
H  47.61600 29.04300 23.79500
H  50.45100 30.59600 26.78400
H  51.88300 29.92800 27.79700
H  50.77900 31.26500 28.26900
H  47.95800 29.75000 32.28200
H  50.48200 30.41900 36.08500
H  51.33700 29.29200 35.19000
H  49.90600 28.67700 36.13700
Mg 26.56000 50.29100 26.94000
C  24.56900 51.53500 29.55300
C  29.03300 49.70500 29.17000
C  28.41700 49.10300 24.43900
C  24.11200 51.58700 24.72700
N  26.81400 50.84100 29.09700
C  25.76500 51.01900 29.95500
C  26.14900 50.68800 31.38100
C  27.63300 50.58900 31.21700
C  27.86400 50.30700 29.70200
C  28.52100 51.68200 31.82400
C  25.47200 49.42000 32.03100
C  24.56100 49.69100 33.27000
H  24.82900 48.75800 34.44800
N  28.52700 49.55700 26.85900
C  29.34700 49.42600 27.85200
C  30.57600 48.79500 27.32700
C  30.47500 48.81000 25.96300
C  29.03000 49.14400 25.67000
C  31.75400 48.61800 28.23300
C  31.51000 48.60600 24.91500
O  31.25800 48.65400 23.69700
C  32.90400 48.12000 25.27200
N  26.44300 50.55500 24.85400
C  27.30600 49.87600 24.01900
C  26.79400 49.93100 22.54400
C  25.37500 50.60000 22.72300
C  25.30400 51.02800 24.17100
C  27.76600 50.70000 21.60700
C  24.23900 49.62300 22.27900
C  23.97400 48.45800 23.24600
N  24.73100 51.34800 27.06500
C  23.79500 51.64700 26.12900
C  22.66100 52.19900 26.68100
C  22.88900 52.05100 28.09700
C  24.16800 51.69300 28.21100
C  21.49100 52.77800 25.98000
C  22.28900 52.17400 29.36400
O  21.19300 52.53800 29.77800
C  23.48300 51.90700 30.42200
C  23.66400 53.03600 31.30000
O  24.36600 54.00600 31.04100
O  22.92700 52.86900 32.47100
C  23.13800 53.88900 33.58100
H  29.72600 49.34500 29.93300
H  28.89700 48.70300 23.54400
H  23.33600 51.92100 24.03600
H  25.79700 51.44700 32.08000
H  28.04200 49.67400 31.64600
H  29.13000 51.41900 32.68900
H  27.80500 52.44200 32.13700
H  29.08000 52.15200 31.01500
H  26.22600 48.74000 32.42700
H  24.91300 48.90100 31.25200
H  23.50700 49.51000 33.05700
H  24.73500 50.69800 33.65000
H  31.54300 48.65500 29.30100
H  32.40100 49.45400 27.96500
H  32.24300 47.70200 27.90200
H  33.51600 48.90700 25.71300
H  33.30300 47.89600 24.28300
H  32.80600 47.19000 25.83300
H  26.60800 48.91400 22.19900
H  25.35700 51.49100 22.09600
H  28.60100 51.03400 22.22200
H  27.37000 51.62500 21.18700
H  28.07000 50.03600 20.79700
H  24.41500 49.13700 21.32000
H  23.37900 50.29200 22.23300
H  24.22100 47.56000 22.68000
H  22.89600 48.46200 23.40900
H  24.39200 48.58300 24.24500
H  21.49400 52.13200 25.10200
H  21.67400 53.78300 25.60200
H  20.66500 52.55900 26.65600
H  23.24700 51.00100 30.98000
H  23.60700 54.76900 33.14000
H  23.85900 53.47700 34.28700
H  22.21800 54.28300 34.01300

