158

Mg 49.39000 45.01700 43.50400
C  45.88300 45.33700 42.73000
C  49.28800 41.76800 42.74800
C  52.66200 45.27400 43.24800
C  49.24400 48.71300 43.84800
N  47.76600 43.77500 42.80900
C  46.44100 44.05400 42.61400
C  45.66100 42.73000 42.44600
C  46.73600 41.62100 42.85500
C  48.05900 42.38600 42.76400
C  46.65900 40.86100 44.15500
C  45.03300 42.47900 41.03900
C  45.69600 43.14700 39.83500
H  45.62700 42.55800 38.39900
N  50.83800 43.69600 43.00300
C  50.61300 42.35800 42.87200
C  51.90600 41.70400 42.79700
C  52.90400 42.69500 42.80300
C  52.12900 43.99700 43.04400
C  52.10000 40.23300 42.65000
C  54.36900 42.51400 42.67200
O  54.83000 41.39600 42.60700
C  55.40800 43.66900 42.62300
N  50.77200 46.76400 43.39200
C  52.07700 46.53300 43.35400
C  52.87600 47.84800 43.58700
C  51.80100 48.96300 43.68400
C  50.49500 48.12900 43.64900
C  53.92600 47.80700 44.73300
C  51.83100 50.03600 42.51700
C  52.02500 51.50500 42.86800
N  47.86400 46.67000 43.58100
C  48.01700 48.08000 43.75500
C  46.73500 48.65400 43.70500
C  45.85500 47.67000 43.30100
C  46.64400 46.48300 43.17000
C  46.43700 50.11400 43.92500
C  44.51000 47.38000 42.87000
O  43.58600 48.14100 42.86900
C  44.48800 45.88600 42.36600
C  43.46100 45.09800 43.04600
O  42.72800 44.28200 42.50600
O  43.43100 45.47300 44.37200
C  42.26900 45.02700 45.13200
H  49.29800 40.67800 42.80700
H  53.75100 45.32200 43.31800
H  49.29200 49.78700 44.04000
H  44.98400 42.69200 43.29900
H  46.77800 40.93900 42.00500
H  46.54800 39.81900 43.85700
H  45.76200 41.10600 44.72200
H  47.50900 41.02700 44.81700
H  44.00700 42.84700 41.01500
H  45.00600 41.41000 40.82500
H  46.74600 43.34500 40.04700
H  45.12800 44.07100 39.72600
H  52.69100 39.86900 43.49000
H  52.58400 40.16500 41.67500
H  51.12700 39.74500 42.69800
H  55.22100 44.27900 41.73900
H  56.36800 43.17000 42.49000
H  55.42300 44.18300 43.58400
H  53.37000 48.01200 42.62900
H  51.75000 49.50100 44.63000
H  54.95800 47.83600 44.38100
H  53.95300 46.85400 45.26200
H  53.73000 48.57100 45.48500
H  50.89100 49.98000 41.96600
H  52.70500 49.89400 41.88100
H  51.20900 52.01800 42.36000
H  52.98900 51.90300 42.55300
H  51.98500 51.59100 43.95400
H  45.37700 50.34000 44.04200
H  46.95200 50.80600 43.26000
H  46.92000 50.44100 44.84600
H  44.25800 45.93300 41.30200
H  42.59700 45.04100 46.17200
H  42.07300 43.99900 44.82700
H  41.43400 45.72800 45.16800
Mg -12.43900 38.92800 41.50200
C  -10.71800 35.95900 40.58000
C  -9.71900 40.80400 40.34300
C  -14.23900 41.64300 41.97900
C  -15.14400 36.88700 42.46900
N  -10.46200 38.45000 40.60500
C  -9.93400 37.15000 40.31100
C  -8.67700 37.19400 39.49200
C  -8.27100 38.65700 39.66900
C  -9.56300 39.41000 40.17400
C  -7.01300 38.80000 40.61700
C  -8.82500 36.71900 38.08800
C  -7.90600 35.60000 37.55500
H  -7.01900 36.04900 36.41100
N  -12.02800 41.03600 41.26100
C  -10.87800 41.58900 40.80000
C  -11.06400 43.03300 40.64600
C  -12.34700 43.37400 41.11700
C  -12.91500 41.96800 41.52000
C  -10.06500 43.96500 39.89800
C  -13.04100 44.68900 41.04800
O  -12.48400 45.71700 40.64100
C  -14.37800 44.79100 41.60000
N  -14.42600 39.19800 42.04000
C  -14.84000 40.41800 42.38200
C  -16.18600 40.42500 43.13000
C  -16.51200 38.91800 43.09700
C  -15.28000 38.27300 42.52300
C  -16.24900 41.17900 44.52800
C  -17.79800 38.39100 42.32700
C  -18.72600 37.61400 43.23400
N  -12.83200 36.92000 41.75900
C  -13.98300 36.25100 42.04900
C  -13.78900 34.81500 41.98100
C  -12.53800 34.69900 41.38000
C  -11.93300 36.01200 41.30000
C  -14.78200 33.78400 42.38800
C  -11.58800 33.67700 40.81800
O  -11.59800 32.46900 40.65900
C  -10.31100 34.50900 40.50700
C  -9.35700 34.02800 41.56600
O  -9.63900 33.48800 42.63900
O  -8.12400 34.27500 41.15400
C  -7.11600 34.35900 42.24400
H  -8.83000 41.37100 40.05800
H  -14.96900 42.40100 42.27100
H  -15.91800 36.29500 42.96300
H  -7.97100 36.52800 39.98800
H  -7.98600 39.11900 38.72400
H  -6.67200 37.81000 40.91800
H  -7.34400 39.28900 41.53300
H  -6.28300 39.43100 40.11100
H  -8.58800 37.58100 37.46400
H  -9.84800 36.41200 37.86900
H  -8.63900 34.85500 37.24700
H  -7.21900 35.18200 38.29100
H  -10.30800 44.29300 38.88700
H  -9.08400 43.52500 39.71900
H  -9.87000 44.80100 40.56900
H  -14.72100 45.82500 41.64100
H  -14.23300 44.39900 42.60700
H  -15.12400 44.13500 41.15200
H  -16.85300 40.89300 42.40600
H  -16.52800 38.58300 44.13400
H  -15.53600 40.64700 45.15800
H  -17.22500 41.21600 45.01100
H  -15.82900 42.17500 44.38100
H  -17.50600 37.76500 41.48400
H  -18.16200 39.32800 41.90400
H  -19.06700 36.83600 42.55100
H  -19.59500 38.19900 43.53300
H  -18.22400 37.20900 44.11300
H  -15.80100 34.06800 42.12700
H  -14.77500 33.64200 43.46900
H  -14.54800 32.81300 41.95300
H  -9.96200 34.15500 39.53700
H  -7.14500 33.43100 42.81500
H  -7.32200 35.11400 43.00200
H  -6.09000 34.52700 41.91500

