158

Mg 45.49800 4.61400 47.72100
C  43.26900 7.37700 47.32200
C  42.81200 2.53600 47.15000
C  47.72400 1.98700 47.50300
C  48.28600 6.88500 47.59200
N  43.28500 4.97200 47.31600
C  42.59100 6.17900 47.21700
C  41.10900 5.95800 46.72600
C  41.08700 4.39700 46.91300
C  42.53500 3.92700 47.14900
C  40.16600 3.91400 48.12900
C  40.94000 6.48300 45.28200
C  39.89700 7.50600 44.97000
H  39.16900 7.12900 43.69600
N  45.27000 2.54700 47.46300
C  44.09100 1.95500 47.27800
C  44.39200 0.51600 46.93400
C  45.80200 0.27400 47.02300
C  46.33700 1.62900 47.35400
C  43.31500 -0.48400 46.52000
C  46.47500 -1.01300 46.70300
O  45.73900 -2.01500 46.44800
C  48.04200 -1.16900 46.72100
N  47.69800 4.50900 47.22800
C  48.34900 3.27100 47.50300
C  49.82300 3.47500 47.67600
C  49.97500 5.02500 47.70500
C  48.54000 5.50100 47.59800
C  50.38400 2.81200 48.96800
C  50.92700 5.60900 46.70900
C  50.58800 5.30000 45.25400
N  45.78900 6.65600 47.65800
C  46.96700 7.42600 47.51600
C  46.56300 8.82400 47.48300
C  45.18100 8.83400 47.52700
C  44.71200 7.49200 47.47900
C  47.57500 9.94200 47.38300
C  43.98200 9.68400 47.50000
O  43.91800 10.92600 47.46200
C  42.74000 8.77900 47.23100
C  41.74500 9.08000 48.34200
O  41.55300 8.38900 49.38600
O  40.91600 10.05500 47.95300
C  39.68600 10.23200 48.70200
H  41.89900 1.97100 46.95200
H  48.43800 1.18900 47.71400
H  49.18600 7.50400 47.57600
H  40.28000 6.33600 47.32500
H  40.73300 3.85400 46.03700
H  39.61900 3.03600 47.78700
H  39.44900 4.66300 48.46600
H  40.78900 3.70300 48.99900
H  40.67700 5.60000 44.70000
H  41.92400 6.81500 44.95100
H  40.29500 8.49100 44.72700
H  39.20900 7.62900 45.80700
H  42.35700 -0.03800 46.25100
H  43.27100 -1.04400 47.45400
H  43.65500 -1.16800 45.74300
H  48.31400 -1.00400 47.76400
H  48.31500 -0.41500 45.98300
H  48.44300 -2.15000 46.46700
H  50.36100 3.04000 46.83400
H  50.29100 5.40700 48.67600
H  49.49700 2.38600 49.43600
H  50.70300 3.54300 49.71000
H  51.16100 2.04800 48.91900
H  51.86500 5.10000 46.93200
H  51.21200 6.62400 46.98700
H  49.66900 4.73100 45.11700
H  51.38700 4.71700 44.79600
H  50.52800 6.23300 44.69300
H  48.07500 9.81900 46.42200
H  48.36200 9.83400 48.12900
H  46.94900 10.83400 47.40600
H  42.30500 8.98700 46.25400
H  39.79800 10.09600 49.77800
H  38.97800 9.43500 48.47500
H  39.10000 11.12600 48.48800
Mg 9.22200 48.36300 26.07400
C  7.17900 48.61100 28.94800
C  11.89400 49.51100 28.11200
C  11.23400 48.17000 23.39400
C  6.55600 47.81900 24.18700
N  9.52700 48.87000 28.30600
C  8.54600 48.79500 29.26600
C  9.15600 49.11700 30.66500
C  10.41200 49.88000 30.25200
C  10.65500 49.39900 28.78600
C  10.48700 51.44100 30.42000
C  9.41300 47.88400 31.67800
C  8.92300 48.12400 33.09700
H  8.98000 46.90100 34.09700
N  11.28100 48.83100 25.79200
C  12.16600 49.27500 26.81200
C  13.42000 49.39900 26.14000
C  13.26200 49.03200 24.78500
C  11.86700 48.60400 24.59600
C  14.72800 49.84700 26.91600
C  14.30900 49.05700 23.65100
O  13.95500 48.67400 22.53200
C  15.72100 49.42100 23.95400
N  8.95500 48.08100 24.12300
C  9.91100 47.99200 23.16400
C  9.36700 47.65900 21.76300
C  7.83200 47.62400 22.02500
C  7.79500 47.85100 23.57400
C  9.77800 48.60500 20.58000
C  7.17900 46.22500 21.57500
C  5.74200 46.27500 21.10200
N  7.22100 48.21100 26.44400
C  6.18100 48.03400 25.51700
C  4.93700 48.06400 26.13300
C  5.28500 48.21900 27.52600
C  6.68700 48.33000 27.64200
C  3.57300 47.79800 25.45100
C  4.75900 48.30600 28.82600
O  3.57700 48.26500 29.17300
C  5.92900 48.56500 29.81500
C  5.84600 47.53000 30.80900
O  6.39200 46.42100 30.81400
O  4.97900 47.94200 31.81500
C  4.77900 46.94700 32.86200
H  12.71600 49.83600 28.75400
H  11.82400 48.13900 22.47500
H  5.72700 47.84700 23.47700
H  8.55200 49.84000 31.21300
H  11.26800 49.61900 30.87300
H  10.44800 51.87800 29.42200
H  11.38500 51.75500 30.95100
H  9.70800 51.86000 31.05600
H  10.46600 47.60300 31.67900
H  8.71700 47.10600 31.36500
H  7.88100 48.44200 33.05700
H  9.46700 48.98200 33.49200
H  14.70700 49.76800 28.00300
H  15.04400 50.86600 26.69400
H  15.50000 49.14700 26.59600
H  15.60700 50.28500 24.60800
H  16.30500 49.79800 23.11500
H  16.08900 48.51800 24.44200
H  9.60600 46.63600 21.47400
H  7.28500 48.50200 21.68200
H  9.07800 48.65500 19.74700
H  10.65300 48.04800 20.24600
H  9.95800 49.63800 20.87900
H  7.24800 45.54500 22.42500
H  7.87100 45.89200 20.80200
H  5.16800 45.80700 21.90200
H  5.57800 45.74300 20.16500
H  5.28900 47.26600 21.06400
H  3.42600 48.66600 24.80800
H  2.75500 47.64700 26.15600
H  3.60500 46.90900 24.82100
H  5.67400 49.54100 30.22800
H  3.94400 47.17500 33.52600
H  5.67900 47.08200 33.46300
H  4.59300 45.94000 32.49000

