158

Mg 25.55000 1.41600 28.98200
C  27.50700 1.21700 31.92000
C  22.89300 1.68800 30.77000
C  23.84800 1.26500 26.07700
C  28.49400 0.51100 27.14900
N  25.28900 1.38100 31.06100
C  26.12600 1.54000 32.15600
C  25.45000 1.70500 33.48500
C  23.94500 1.75600 33.10000
C  24.02900 1.54800 31.49600
C  22.99500 0.65300 33.73700
C  25.90700 2.88800 34.39200
C  26.49100 2.58000 35.76500
H  26.35100 3.67300 36.86400
N  23.56800 1.56200 28.46200
C  22.61900 1.76400 29.41400
C  21.36800 1.93800 28.73900
C  21.62900 1.75000 27.31700
C  23.07300 1.53400 27.22900
C  20.01700 2.09100 29.47200
C  20.58700 1.69100 26.16000
O  20.98000 1.33600 25.00800
C  19.17300 1.92900 26.35500
N  26.07900 0.77300 26.94200
C  25.23000 1.12100 25.95600
C  25.79700 1.00600 24.57800
C  27.34100 0.75000 24.92400
C  27.34600 0.70700 26.47100
C  25.28600 -0.18800 23.59300
C  28.28600 1.86200 24.38700
C  29.49300 1.33700 23.63600
N  27.63100 1.04700 29.38500
C  28.70300 0.65200 28.56100
C  29.86100 0.44300 29.36000
C  29.46600 0.73200 30.67900
C  28.08900 0.96500 30.68500
C  31.14000 -0.15800 28.95000
C  29.81500 0.79400 32.10000
O  30.90800 0.66200 32.64000
C  28.60800 1.19200 32.92000
C  28.50800 0.13800 34.00800
O  28.10800 -1.01800 33.85700
O  29.00400 0.58800 35.24700
C  28.89400 -0.25900 36.45700
H  22.02500 2.04700 31.32800
H  23.38000 1.29900 25.09100
H  29.48600 0.45100 26.69600
H  25.59400 0.79700 34.07100
H  23.48100 2.68600 33.42900
H  23.47800 -0.16900 34.26400
H  22.36800 0.18100 32.98000
H  22.32800 1.24200 34.36700
H  25.10200 3.59500 34.59100
H  26.74100 3.40600 33.91800
H  27.57600 2.56800 35.66200
H  26.12000 1.62100 36.12700
H  19.39600 2.82800 28.96100
H  20.12600 2.39300 30.51300
H  19.59500 1.08600 29.48800
H  18.71700 1.26800 27.09200
H  18.70100 1.81600 25.37900
H  18.97000 2.95100 26.67200
H  25.61900 1.98400 24.13100
H  27.73600 -0.17700 24.51000
H  24.62600 -0.78200 24.22500
H  26.03100 -0.82300 23.11200
H  24.76400 0.29700 22.76900
H  28.57300 2.56300 25.17100
H  27.66600 2.50300 23.76000
H  30.24800 2.10300 23.46200
H  29.16300 0.90500 22.69000
H  29.92400 0.51000 24.20000
H  30.86700 -0.96700 28.27300
H  31.66200 -0.51500 29.83800
H  31.78200 0.50400 28.36800
H  28.81300 2.20500 33.26700
H  27.94600 -0.18300 36.99000
H  29.67200 -0.04400 37.18900
H  29.09000 -1.30200 36.20800
Mg 47.10800 24.24200 27.78400
C  47.97700 26.44500 30.34800
C  46.15300 22.06500 30.11600
C  46.56300 22.16200 25.34700
C  48.10000 26.65000 25.46800
N  47.09000 24.28800 29.96600
C  47.42000 25.27800 30.84600
C  47.26900 24.85100 32.35400
C  46.55300 23.45200 32.20900
C  46.58800 23.30600 30.67200
C  47.41100 22.44000 32.99700
C  46.46500 25.87400 33.26300
C  45.89300 25.31000 34.57500
H  46.50600 26.07900 35.78500
N  46.46300 22.35600 27.74700
C  46.09000 21.59500 28.77800
C  45.61400 20.31800 28.36500
C  45.63400 20.35700 26.94800
C  46.30900 21.68300 26.63100
C  45.10500 19.27000 29.26800
C  45.33400 19.20800 25.96800
O  45.50400 19.17300 24.72300
C  44.84400 17.92900 26.61200
N  47.49500 24.32700 25.62300
C  46.99500 23.33100 24.89100
C  46.98800 23.78400 23.38000
C  47.36200 25.27200 23.39200
C  47.70200 25.46900 24.90400
C  47.89000 22.93900 22.44400
C  46.25400 26.24000 22.81500
C  46.73700 27.27400 21.80200
N  47.98100 26.04600 27.85600
C  48.29800 26.98400 26.83000
C  48.94500 28.14900 27.38600
C  48.89700 27.93500 28.77900
C  48.25000 26.70100 29.04200
C  49.56100 29.26600 26.68500
C  49.23900 28.60000 30.03000
O  49.73000 29.67600 30.34200
C  48.55800 27.68900 31.15800
C  49.54800 27.23100 32.12300
O  50.29800 26.27500 31.98600
O  49.49600 27.99800 33.30900
C  50.22000 27.53600 34.50100
H  45.71800 21.36200 30.83100
H  46.38900 21.33900 24.65100
H  48.30100 27.42900 24.72900
H  48.23800 24.69100 32.82700
H  45.55300 23.56900 32.62500
H  47.89000 22.82700 33.89700
H  48.15100 21.87500 32.43100
H  46.78400 21.67800 33.46000
H  45.70400 26.37900 32.66700
H  47.06200 26.74400 33.53700
H  46.04800 24.25000 34.77400
H  44.81200 25.44800 34.53900
H  44.06500 19.01200 29.06700
H  45.18300 19.59800 30.30400
H  45.69500 18.36000 29.15300
H  45.65400 17.53200 27.22300
H  44.54300 17.34300 25.74300
H  43.94600 18.06800 27.21400
H  45.99700 23.61800 22.95800
H  48.27500 25.51400 22.84800
H  48.59900 22.42600 23.09400
H  48.36600 23.62600 21.74400
H  47.32100 22.25600 21.81300
H  45.74600 26.79700 23.60200
H  45.43600 25.72000 22.31700
H  47.49200 26.72400 21.24000
H  47.21700 28.16100 22.21500
H  45.86900 27.62100 21.24100
H  49.90300 28.96800 25.69300
H  50.37300 29.59800 27.33200
H  48.84800 30.08500 26.58800
H  47.91300 28.36200 31.72100
H  51.25800 27.45100 34.18000
H  49.86500 26.57800 34.88100
H  50.10000 28.29400 35.27600

