158

Mg 41.23400 41.16300 26.88000
C  40.27200 43.58400 29.12100
C  42.06300 38.97500 29.36200
C  42.25200 38.75300 24.59100
C  40.71000 43.42900 24.26800
N  41.13700 41.28900 28.94100
C  40.61700 42.34300 29.70200
C  40.66900 41.92700 31.24500
C  41.40100 40.57100 31.30500
C  41.55600 40.25800 29.77200
C  42.65700 40.28800 32.17200
C  39.32000 42.05100 32.01300
C  39.44200 42.66900 33.38900
H  38.65200 42.11900 34.65000
N  41.96800 39.07900 26.95100
C  42.27400 38.45800 28.08900
C  42.66800 37.12000 27.73400
C  42.77600 37.00300 26.32500
C  42.29700 38.27300 25.86900
C  43.14500 36.21800 28.80000
C  43.29300 35.85200 25.48300
O  43.36800 35.91800 24.27700
C  43.75000 34.56400 26.10400
N  41.54100 41.17100 24.76900
C  41.81500 39.98900 24.09000
C  41.78700 40.29700 22.48200
C  41.21300 41.73400 22.46200
C  41.16200 42.16600 23.94600
C  43.17900 40.17700 21.88300
C  39.84900 41.82400 21.68400
C  38.60300 41.39000 22.54100
N  40.69800 43.17700 26.65200
C  40.49300 43.94800 25.54700
C  40.10800 45.30900 25.89200
C  39.97100 45.22000 27.34000
C  40.40700 43.92800 27.74800
C  39.91900 46.47300 24.94400
C  39.59400 45.91000 28.61600
O  39.14200 47.02100 28.85700
C  39.75600 44.87200 29.75500
C  40.78000 45.41200 30.59300
O  41.88200 45.92700 30.27900
O  40.19200 45.50000 31.82500
C  41.01600 46.32700 32.75700
H  42.31100 38.32900 30.20700
H  42.51600 38.13200 23.73200
H  40.23600 44.03500 23.49300
H  41.35700 42.65200 31.68000
H  40.65600 39.84400 31.62900
H  42.64200 40.93100 33.05300
H  43.61800 40.45800 31.68700
H  42.51200 39.32800 32.66700
H  38.94200 41.05100 32.22500
H  38.55600 42.48500 31.36800
H  39.12800 43.71300 33.39000
H  40.48900 42.64200 33.69200
H  43.18800 36.63400 29.80700
H  44.14200 35.85000 28.55900
H  42.41300 35.41100 28.83000
H  43.01400 33.97200 26.65000
H  44.71600 34.75600 26.57200
H  44.17100 34.01000 25.26500
H  41.17900 39.51900 22.02000
H  41.93600 42.40800 22.00100
H  43.38200 40.98900 21.18500
H  43.26700 39.23300 21.34600
H  43.92800 40.06900 22.66900
H  39.81600 41.24000 20.76400
H  39.74100 42.87700 21.42300
H  38.78000 41.19600 23.59900
H  38.20300 40.46200 22.13400
H  37.92100 42.23400 22.43400
H  38.88300 46.62400 24.64300
H  40.50900 46.34200 24.03600
H  40.37900 47.33800 25.42200
H  38.84100 44.71100 30.32500
H  42.08500 46.43700 32.57000
H  40.80200 46.08400 33.79800
H  40.67200 47.36100 32.73200
Mg -5.50000 25.68100 26.03200
C  -4.26500 27.22900 29.05600
C  -7.35300 23.53600 28.10700
C  -6.38800 23.91100 23.40100
C  -3.23400 27.60700 24.21700
N  -5.82700 25.51100 28.31400
C  -5.23200 26.23000 29.27700
C  -5.80400 25.88600 30.67700
C  -6.46900 24.56400 30.36800
C  -6.52700 24.47800 28.80400
C  -5.54000 23.29200 30.83200
C  -6.67800 26.99100 31.35100
C  -6.79200 26.96700 32.86900
H  -6.07500 25.79900 33.63400
N  -6.74300 23.94300 25.74000
C  -7.42400 23.19800 26.75000
C  -8.33600 22.28100 26.05300
C  -8.06000 22.40900 24.65400
C  -7.02200 23.44500 24.56200
C  -9.29900 21.37800 26.78200
C  -8.70100 21.70500 23.48500
O  -8.37200 21.96300 22.31400
C  -9.63500 20.53100 23.74200
N  -4.81100 25.71500 24.10100
C  -5.38300 24.84700 23.14900
C  -4.55500 24.98700 21.90000
C  -3.65500 26.28600 21.98500
C  -3.91100 26.58800 23.53600
C  -3.76500 23.70900 21.59100
C  -4.16400 27.54400 21.10700
C  -3.28700 28.21900 20.04100
N  -4.02600 27.21300 26.53100
C  -3.23900 27.94500 25.67700
C  -2.54000 28.96400 26.45800
C  -2.88300 28.70700 27.78700
C  -3.77400 27.62400 27.82900
C  -1.58100 29.95500 25.95800
C  -2.64700 29.07500 29.14200
O  -1.86800 29.92600 29.57700
C  -3.62200 28.23000 30.04300
C  -2.79400 27.53300 31.06000
O  -1.99400 26.62300 30.79400
O  -3.08000 28.13500 32.31600
C  -2.23600 27.54900 33.36700
H  -7.94300 22.83900 28.70600
H  -6.66100 23.41900 22.46500
H  -2.54100 28.18600 23.60400
H  -4.89200 25.78800 31.26700
H  -7.49200 24.61500 30.74000
H  -4.46900 23.42800 30.98300
H  -5.68400 22.50600 30.09100
H  -5.91800 23.02100 31.81800
H  -7.71800 26.83300 31.06400
H  -6.35900 27.97000 30.99200
H  -7.83500 27.05100 33.17400
H  -6.32400 27.91700 33.12600
H  -10.28400 21.84400 26.80200
H  -8.86500 21.20200 27.76600
H  -9.34100 20.33600 26.46500
H  -9.11800 19.72800 24.26700
H  -10.14200 20.21400 22.83100
H  -10.46100 20.85000 24.37900
H  -5.26900 25.17400 21.09900
H  -2.59100 26.11700 21.82100
H  -4.00400 23.49500 20.54900
H  -4.13600 22.90400 22.22500
H  -2.68900 23.88400 21.57700
H  -4.40000 28.37900 21.76700
H  -5.10700 27.26100 20.63800
H  -3.89200 28.37400 19.14700
H  -2.48700 27.54000 19.74700
H  -2.82600 29.17700 20.28000
H  -0.97600 29.50100 25.17300
H  -1.03200 30.39900 26.78900
H  -2.26800 30.70300 25.56300
H  -4.44500 28.85700 30.38400
H  -2.79100 27.60800 34.30300
H  -1.33300 28.13900 33.52800
H  -1.97600 26.50800 33.17300

