158

Mg 8.99600 3.26200 27.07800
C  10.13100 1.76900 30.00800
C  7.13000 5.47700 29.01500
C  7.34400 4.22000 24.27400
C  10.46700 0.69300 25.21200
N  8.52500 3.46800 29.25300
C  9.22500 2.76500 30.25400
C  8.95500 3.39000 31.62600
C  7.87600 4.38000 31.35700
C  7.81400 4.50300 29.78000
C  6.42500 4.14100 31.90100
C  10.22100 4.09500 32.18400
C  10.76100 3.58000 33.50300
H  10.94900 4.46500 34.71600
N  7.49300 4.64500 26.68400
C  6.93000 5.53800 27.59700
C  6.13300 6.54500 26.91000
C  6.34900 6.30600 25.54800
C  7.06000 5.00100 25.43900
C  5.16000 7.51500 27.53900
C  5.95700 7.19600 24.27200
O  6.20600 6.89200 23.11800
C  5.32400 8.55500 24.48000
N  8.80500 2.47200 25.01200
C  8.12600 3.10600 24.06400
C  8.29000 2.46900 22.70800
C  9.46900 1.50000 23.01000
C  9.58700 1.55000 24.46600
C  6.97200 1.66000 22.32000
C  10.78700 1.77500 22.24300
C  11.25600 0.55700 21.36600
N  10.14000 1.63100 27.47700
C  10.73100 0.72700 26.61700
C  11.48500 -0.24100 27.40600
C  11.33200 0.18700 28.76400
C  10.41300 1.27500 28.65200
C  12.39700 -1.39800 26.93700
C  11.75300 -0.04000 30.11800
O  12.70100 -0.74800 30.53900
C  10.93400 1.02800 31.00800
C  10.18100 0.30300 32.04200
O  9.06500 -0.13200 31.96700
O  10.98500 0.22200 33.15800
C  10.36600 -0.57500 34.24200
H  6.54500 6.17000 29.62300
H  6.82800 4.62600 23.40200
H  11.02400 -0.07300 24.66800
H  8.70600 2.51400 32.22500
H  8.05000 5.39500 31.71300
H  6.48000 3.14500 32.33900
H  5.68400 4.12400 31.10200
H  6.26900 4.97600 32.58400
H  10.07100 5.15000 32.41500
H  11.00200 3.93000 31.44200
H  11.79100 3.37900 33.20600
H  10.31200 2.71000 33.98100
H  4.21100 6.97900 27.53600
H  5.09600 8.47800 27.03300
H  5.42300 7.77900 28.56400
H  5.19000 9.13600 23.56700
H  5.96700 9.18600 25.09400
H  4.37000 8.45300 24.99700
H  8.61700 3.26200 22.03500
H  9.03900 0.50800 22.87300
H  6.71000 2.05900 21.34100
H  6.07200 1.84500 22.90700
H  7.11700 0.58000 22.32400
H  11.53500 1.85500 23.03200
H  10.55900 2.69000 21.69600
H  10.45400 -0.13800 21.11500
H  11.95500 0.01000 22.00000
H  11.72200 0.91800 20.44900
H  13.44000 -1.08100 26.89800
H  12.11300 -1.74900 25.94500
H  12.33600 -2.30500 27.53800
H  11.58600 1.73800 31.51600
H  9.66900 0.09700 34.74300
H  11.16200 -0.69000 34.97700
H  9.89700 -1.54500 34.07500
Mg 17.30500 -1.67200 27.27100
C  16.05400 0.24400 29.89700
C  19.08600 -3.50800 29.47700
C  19.02900 -2.90600 24.63800
C  15.59600 0.57800 25.02300
N  17.77400 -1.41700 29.35300
C  17.01600 -0.69200 30.25600
C  17.38700 -1.02100 31.69500
C  18.66400 -1.91300 31.52300
C  18.48100 -2.34500 30.03900
C  20.02700 -1.20100 31.84600
C  16.14700 -1.72900 32.39500
C  15.77600 -1.29200 33.84500
H  16.91700 -0.70200 34.66200
N  18.64500 -3.21800 27.03800
C  19.19500 -3.93200 28.10000
C  19.91900 -5.04700 27.56000
C  19.82500 -4.91300 26.11800
C  19.18200 -3.61000 25.86100
C  20.60300 -6.11300 28.33300
C  20.43100 -5.73600 25.01600
O  20.40700 -5.35200 23.82900
C  21.04800 -7.09100 25.35000
N  17.42500 -1.09200 25.19800
C  18.28100 -1.75500 24.42000
C  18.02000 -1.43700 22.97100
C  16.81700 -0.45000 22.98200
C  16.55600 -0.31600 24.46000
C  19.27700 -0.97200 22.23800
C  15.62900 -0.99800 22.16800
C  15.05800 -0.04700 21.00300
N  16.00400 0.02700 27.41600
C  15.33700 0.72600 26.44300
C  14.44600 1.67000 27.04100
C  14.75900 1.61500 28.39500
C  15.66200 0.57900 28.58900
C  13.61900 2.64100 26.29600
C  14.36600 2.13100 29.66300
O  13.53700 2.90200 30.06000
C  15.26400 1.30400 30.75200
C  16.13400 2.31300 31.49100
O  17.26000 2.68800 31.18500
O  15.50300 2.48900 32.73000
C  16.28400 3.39900 33.63100
H  19.65800 -4.08700 30.20600
H  19.51400 -3.31000 23.74600
H  14.99700 1.23600 24.38900
H  17.62600 -0.04800 32.12500
H  18.61600 -2.83500 32.10400
H  19.93500 -0.17300 32.19800
H  20.52900 -1.17600 30.87900
H  20.65700 -1.82400 32.48100
H  16.31900 -2.80400 32.44700
H  15.26400 -1.69300 31.75700
H  15.35200 -2.18800 34.29800
H  15.07200 -0.46200 33.78500
H  20.25800 -6.05600 29.36500
H  21.69100 -6.15900 28.38800
H  20.26400 -7.09800 28.01100
H  21.83700 -6.98400 26.09500
H  21.55200 -7.45000 24.45200
H  20.32700 -7.85000 25.65300
H  17.54600 -2.32900 22.56100
H  17.09000 0.52900 22.58800
H  19.95300 -0.41900 22.89100
H  18.94400 -0.35600 21.40300
H  19.87700 -1.81000 21.88400
H  14.82800 -1.20300 22.87900
H  15.80000 -1.93600 21.63900
H  14.02700 0.28700 21.11600
H  15.03000 -0.58900 20.05700
H  15.73300 0.74200 20.67100
H  13.06800 2.12000 25.51300
H  14.23500 3.30900 25.69400
H  12.95900 3.15800 26.99400
H  14.64600 0.83700 31.51800
H  17.35400 3.28900 33.45200
H  16.11800 3.07900 34.66000
H  15.99300 4.41400 33.35900

