158

Mg 26.13800 1.56500 29.92800
C  28.11600 1.48600 32.76000
C  23.39700 2.08800 32.11700
C  24.11200 1.69000 27.18300
C  28.63400 0.41900 28.06600
N  25.75200 1.82400 32.24300
C  26.78800 1.75900 33.16300
C  26.24800 2.10500 34.55800
C  24.68800 1.96100 34.39900
C  24.53800 2.01500 32.84700
C  24.09000 0.63000 35.02100
C  26.77800 3.47700 35.05600
C  27.43700 3.65500 36.49000
H  26.45600 4.33100 37.44700
N  24.04800 1.92100 29.72600
C  23.10900 1.98300 30.72900
C  21.80100 2.11600 30.15600
C  22.00400 2.18700 28.72300
C  23.44000 1.91800 28.44900
C  20.53500 2.29100 30.96100
C  20.95900 2.35600 27.62900
O  21.21900 2.21000 26.42600
C  19.47100 2.52500 27.89900
N  26.35400 1.03300 27.91700
C  25.38800 1.16500 26.95100
C  25.96800 1.03000 25.49200
C  27.51500 0.86700 25.79700
C  27.51300 0.68900 27.34700
C  25.43600 -0.03900 24.66500
C  28.42100 2.06500 25.35700
C  29.82700 1.67800 24.90900
N  28.00400 0.91400 30.32400
C  28.95900 0.49700 29.39900
C  30.24000 0.36700 30.05100
C  29.98200 0.72700 31.38200
C  28.63500 1.10300 31.44900
C  31.43600 -0.15700 29.35000
C  30.54300 0.85000 32.73900
O  31.63900 0.63100 33.23900
C  29.38500 1.39000 33.69700
C  29.27600 0.46200 34.87300
O  28.62700 -0.59200 34.81200
O  29.80100 0.91900 36.03300
C  29.84600 0.03600 37.17100
H  22.54800 2.29000 32.77300
H  23.54200 1.85200 26.26500
H  29.47500 0.11600 27.43900
H  26.61800 1.42000 35.32100
H  24.13600 2.75400 34.90200
H  23.76000 -0.05100 34.23600
H  23.17800 0.84500 35.57800
H  24.73000 0.14600 35.75900
H  25.96800 4.20300 35.00300
H  27.56600 3.85500 34.40400
H  28.33700 4.26900 36.51600
H  27.78500 2.69200 36.86600
H  19.93800 1.38400 30.86200
H  20.00200 3.19300 30.66000
H  20.81100 2.29700 32.01500
H  19.04900 1.72100 28.50200
H  18.89200 2.48900 26.97600
H  19.29000 3.45300 28.44100
H  25.77400 1.98800 25.00900
H  27.85400 -0.04900 25.31200
H  24.64400 0.29600 23.99500
H  25.02600 -0.78300 25.34700
H  26.18400 -0.52300 24.03700
H  28.56100 2.73800 26.20200
H  27.95200 2.55500 24.50400
H  30.53000 2.30800 25.45400
H  29.85700 1.86300 23.83500
H  29.93100 0.61400 25.11900
H  32.12900 0.68400 29.32200
H  31.27300 -0.46000 28.31600
H  31.89100 -0.91100 29.99200
H  29.72800 2.38800 33.97200
H  30.04700 -0.98000 36.83200
H  28.89100 0.13500 37.68700
H  30.58400 0.27300 37.93700
Mg -12.92900 38.38600 42.23300
C  -11.68700 35.41100 40.85300
C  -10.32200 40.15000 40.64900
C  -14.48500 41.47500 42.79000
C  -15.49600 36.73800 43.56900
N  -11.22200 37.80700 40.79500
C  -10.89200 36.52000 40.46200
C  -9.56100 36.50100 39.66500
C  -9.04700 37.99100 39.78100
C  -10.19400 38.71500 40.56000
C  -7.69500 38.07700 40.48400
C  -9.84700 35.96800 38.18400
C  -8.79400 34.94200 37.84600
H  -7.64200 35.53900 36.89700
N  -12.47500 40.53700 41.79500
C  -11.36300 40.99000 41.15300
C  -11.36100 42.38700 41.16700
C  -12.56900 42.80400 41.68200
C  -13.28300 41.59600 42.13500
C  -10.23200 43.25800 40.60900
C  -13.07200 44.30900 41.79100
O  -12.40300 45.22900 41.38700
C  -14.29900 44.67300 42.50800
N  -14.78400 39.02300 42.81200
C  -15.02600 40.27200 43.24800
C  -16.30400 40.30700 44.16700
C  -16.49700 38.80200 44.51000
C  -15.49700 38.10700 43.59500
C  -16.24500 41.29100 45.37700
C  -17.93100 38.26200 44.25000
C  -19.11800 39.04800 44.94300
N  -13.58800 36.43800 42.23300
C  -14.60900 35.88300 42.90500
C  -14.62700 34.40200 42.66600
C  -13.39100 34.24800 41.96300
C  -12.88300 35.47600 41.63200
C  -15.69000 33.40600 42.92700
C  -12.51800 33.25600 41.38200
O  -12.62000 32.05200 41.53900
C  -11.38400 33.95700 40.52000
C  -10.10200 33.43800 41.01200
O  -9.48900 32.51400 40.48500
O  -9.73700 33.98000 42.26300
C  -8.73600 33.13500 42.94400
H  -9.43800 40.59800 40.19100
H  -15.08600 42.29100 43.19600
H  -16.28100 36.15600 44.05600
H  -8.93600 35.82800 40.25100
H  -8.94100 38.40300 38.77700
H  -7.11100 37.16600 40.35300
H  -7.83800 38.16200 41.56100
H  -7.14700 38.93600 40.09600
H  -9.72200 36.76200 37.44800
H  -10.83400 35.50800 38.14000
H  -9.31800 34.18300 37.26500
H  -8.29000 34.53600 38.72300
H  -9.28700 42.72900 40.48700
H  -9.96000 43.95900 41.39800
H  -10.51200 43.86500 39.74700
H  -15.11100 44.05300 42.12800
H  -14.54900 45.72900 42.40200
H  -14.23000 44.46400 43.57600
H  -17.06500 40.80400 43.56500
H  -16.23700 38.65000 45.55700
H  -16.58200 42.29200 45.10600
H  -15.25300 41.25200 45.82700
H  -16.89800 40.99700 46.19900
H  -17.99600 37.26300 44.68100
H  -18.02100 38.14900 43.17000
H  -18.72400 39.78400 45.64500
H  -19.78300 38.43200 45.54800
H  -19.76200 39.45300 44.16200
H  -16.39100 33.52900 42.10200
H  -16.02600 33.67600 43.92800
H  -15.25100 32.41000 42.86600
H  -11.32600 33.64000 39.47800
H  -8.55800 33.75700 43.82000
H  -7.80600 32.96100 42.40300
H  -9.19800 32.17100 43.15900

