158

Mg 0.13200 43.48700 25.21100
C  2.33800 43.14700 27.90800
C  -2.54300 42.55500 27.31900
C  -1.91400 43.56800 22.57900
C  2.91800 44.38900 23.24900
N  -0.02200 42.80900 27.32100
C  0.98800 42.93700 28.26400
C  0.43700 42.82600 29.70200
C  -1.12800 42.52200 29.46600
C  -1.26400 42.65900 27.92000
C  -1.60800 41.17300 30.06200
C  0.73100 44.04900 30.72300
C  1.22300 43.66200 32.11700
H  0.75300 42.33700 32.71400
N  -1.95200 42.96500 24.91100
C  -2.87600 42.68500 25.92500
C  -4.20700 42.71200 25.27900
C  -4.02500 43.20100 23.96800
C  -2.61500 43.24800 23.75900
C  -5.46000 42.26000 26.03400
C  -5.01000 43.46200 22.91000
O  -4.71300 43.99100 21.82200
C  -6.51600 43.30600 23.14300
N  0.48200 43.81700 23.16900
C  -0.56300 43.77900 22.24800
C  0.04100 43.89400 20.83400
C  1.39400 44.60300 21.08200
C  1.71200 44.30000 22.55100
C  0.16200 42.56900 20.10600
C  1.47800 46.19200 20.79000
C  0.55700 47.03200 21.63700
N  2.14700 43.68200 25.47300
C  3.18400 44.11300 24.57300
C  4.47900 43.84900 25.17800
C  4.19200 43.57700 26.47100
C  2.78200 43.45100 26.59900
C  5.81000 43.92500 24.53600
C  4.78100 43.33500 27.77400
O  5.88700 43.34800 28.16000
C  3.57200 43.04000 28.76800
C  3.80100 41.66500 29.24700
O  3.36100 40.61800 28.82300
O  4.64400 41.74800 30.29800
C  4.62400 40.52600 31.14200
H  -3.45900 42.24200 27.82400
H  -2.55200 43.71800 21.70500
H  3.74000 44.62500 22.57100
H  0.75300 41.89300 30.16900
H  -1.74300 43.29900 29.92300
H  -1.95100 41.44700 31.05900
H  -0.83200 40.41600 30.17400
H  -2.37300 40.73800 29.41900
H  -0.16900 44.66400 30.70800
H  1.54100 44.62100 30.27100
H  1.06100 44.48800 32.80900
H  2.31100 43.62700 32.07000
H  -5.73900 43.09800 26.67400
H  -5.15700 41.47400 26.72600
H  -6.24900 41.89000 25.37900
H  -7.02800 43.54900 22.21200
H  -6.94200 44.03700 23.83100
H  -6.72900 42.29500 23.49100
H  -0.59200 44.58800 20.28000
H  2.21500 44.22900 20.47000
H  -0.53300 41.81200 20.46900
H  1.15700 42.17900 20.31600
H  0.11400 42.72200 19.02800
H  1.41700 46.47300 19.73800
H  2.45500 46.53800 21.12700
H  0.99400 47.06900 22.63500
H  -0.44200 46.59500 21.63900
H  0.33800 47.97900 21.14300
H  6.52200 44.11500 25.34000
H  5.99000 44.56500 23.67200
H  5.98100 42.94500 24.08900
H  3.70000 43.69400 29.63000
H  5.59400 40.03100 31.10200
H  3.82700 39.82600 30.89100
H  4.51100 40.82100 32.18500
Mg -11.15000 16.76900 42.67400
C  -7.71500 17.83800 43.19400
C  -12.15300 19.96800 42.37700
C  -14.24000 15.46700 42.34600
C  -9.83100 13.49600 42.67900
N  -9.96300 18.61900 42.51200
C  -8.65000 18.91700 42.90600
C  -8.46600 20.39900 42.63100
C  -9.85900 21.00200 42.90700
C  -10.75300 19.76200 42.59900
C  -9.99600 21.65100 44.31000
C  -7.94400 20.56600 41.14500
C  -6.49700 21.03800 41.01200
H  -5.48900 20.35900 40.06300
N  -12.93300 17.61400 42.26600
C  -13.18600 19.00300 42.13600
C  -14.54400 19.26400 41.90200
C  -15.11500 18.00100 41.86700
C  -14.14200 16.92000 42.26800
C  -15.14700 20.66700 41.89600
C  -16.59600 17.80600 41.70100
O  -17.35000 18.76000 41.57600
C  -17.25800 16.45100 41.76300
N  -11.89500 14.83200 42.50000
C  -13.20900 14.52300 42.42200
C  -13.56000 13.00800 42.47400
C  -12.12100 12.36500 42.66100
C  -11.21700 13.67400 42.54400
C  -14.65100 12.59700 43.50500
C  -11.83600 11.21300 41.62900
C  -12.34500 9.78900 41.87400
N  -9.23800 15.85800 42.94900
C  -8.91800 14.48600 42.88500
C  -7.48900 14.37600 43.07000
C  -7.00600 15.62400 43.35800
C  -8.09900 16.54700 43.11300
C  -6.55100 13.14500 42.86900
C  -5.86700 16.40600 43.65400
O  -4.67000 16.08900 43.87800
C  -6.32300 17.88500 43.59400
C  -6.03200 18.61400 44.86700
O  -6.50600 18.42700 45.99000
O  -4.92900 19.33200 44.64400
C  -4.13000 19.89100 45.73700
H  -12.69200 20.91600 42.43300
H  -15.23500 15.05000 42.17500
H  -9.52200 12.46600 42.48900
H  -7.78000 20.90100 43.31300
H  -10.10500 21.70500 42.11200
H  -10.79900 21.18700 44.88300
H  -10.34800 22.66700 44.13200
H  -9.10000 21.75000 44.92400
H  -8.47700 21.21800 40.45300
H  -7.97200 19.61400 40.61500
H  -6.01200 20.96500 41.98500
H  -6.55000 22.10200 40.77800
H  -15.93000 20.82600 42.63800
H  -15.71600 20.84300 40.98300
H  -14.53700 21.57000 41.90600
H  -18.34600 16.48700 41.80700
H  -17.04700 15.95300 42.70900
H  -16.99900 15.92500 40.84400
H  -14.00300 12.87700 41.48700
H  -12.01100 11.97300 43.67200
H  -15.12400 13.54900 43.74400
H  -14.13600 12.33700 44.43000
H  -15.41600 11.92300 43.11900
H  -10.84200 11.14000 41.18800
H  -12.34300 11.62400 40.75600
H  -12.93700 9.85300 42.78700
H  -11.62300 8.97400 41.92900
H  -13.02800 9.38200 41.12900
H  -5.50100 13.31600 42.63300
H  -6.96600 12.43100 42.15700
H  -6.55000 12.67600 43.85200
H  -5.64100 18.28900 42.84600
H  -3.18800 20.38000 45.48800
H  -3.95000 18.97200 46.29400
H  -4.66600 20.56600 46.40300

