158

Mg -0.98100 7.61800 26.17100
C  -0.30300 9.68400 28.94000
C  -0.53700 4.86300 28.13300
C  -1.36200 5.84800 23.41600
C  -0.46800 10.47500 24.11300
N  -0.58700 7.38100 28.31300
C  -0.50000 8.35300 29.25900
C  -0.43900 7.72200 30.62400
C  -0.28300 6.16000 30.33800
C  -0.48500 6.11000 28.80900
C  1.02400 5.56400 30.84700
C  -1.59600 8.10600 31.53600
C  -1.34700 8.72800 32.96200
H  -0.00900 8.34200 33.76500
N  -1.16300 5.60100 25.90100
C  -1.02300 4.64000 26.77900
C  -1.17200 3.34900 26.13500
C  -1.40400 3.57400 24.70900
C  -1.46100 5.12500 24.63600
C  -1.13200 2.14800 26.99800
C  -1.53100 2.61300 23.57100
O  -1.72400 2.93700 22.43000
C  -1.34000 1.15300 23.85200
N  -0.93600 8.10600 24.01200
C  -1.10900 7.14900 23.19000
C  -1.07600 7.66400 21.68000
C  -0.93600 9.20100 21.87600
C  -0.65500 9.29700 23.39000
C  -0.05700 7.03300 20.76700
C  -2.07400 10.14700 21.47900
C  -3.28800 10.35100 22.39600
N  -0.66600 9.71600 26.41200
C  -0.43300 10.75700 25.49500
C  -0.04200 11.94000 26.19900
C  -0.12000 11.58800 27.48200
C  -0.35500 10.21300 27.66800
C  0.34200 13.25300 25.59600
C  0.15200 12.11800 28.78000
O  0.51300 13.25500 29.11200
C  0.07100 10.92200 29.74900
C  1.38400 10.72400 30.40100
O  2.41300 10.40900 29.87400
O  1.28800 11.20400 31.65800
C  2.44700 11.80900 32.35200
H  -0.55100 3.99700 28.79700
H  -1.49500 5.32800 22.46500
H  -0.23800 11.38400 23.55400
H  0.49500 8.12100 31.02100
H  -1.01300 5.54700 30.86500
H  0.76200 4.95700 31.71400
H  1.65400 6.40000 31.15100
H  1.55800 4.97900 30.09800
H  -2.06500 7.17500 31.85300
H  -2.33200 8.62800 30.92400
H  -2.23000 8.61100 33.59100
H  -1.23500 9.81000 32.89300
H  -1.58100 1.27100 26.53100
H  -1.67500 2.30100 27.93100
H  -0.10600 1.91900 27.28600
H  -1.15000 0.60700 22.92800
H  -2.23300 0.81800 24.38000
H  -0.43200 1.17800 24.45600
H  -2.01800 7.40700 21.19600
H  -0.07700 9.48600 21.26900
H  0.72300 7.77000 20.57900
H  -0.64600 6.67900 19.92100
H  0.22900 6.07800 21.20900
H  -2.44300 9.91000 20.48200
H  -1.56800 11.10700 21.37700
H  -3.00300 11.20000 23.01800
H  -3.59500 9.60900 23.13300
H  -4.11600 10.67900 21.76800
H  0.62500 13.09100 24.55600
H  1.09100 13.67200 26.26900
H  -0.56500 13.85400 25.66100
H  -0.67900 11.15800 30.50400
H  2.62700 11.13800 33.19200
H  2.02200 12.73400 32.74100
H  3.36700 11.93300 31.78100
Mg 23.65200 -5.08200 44.78900
C  25.89400 -2.68300 43.50600
C  21.29200 -3.72500 42.72600
C  21.77500 -7.81700 45.36600
C  26.32200 -6.53300 46.56000
N  23.68400 -3.47900 43.21400
C  24.61500 -2.53700 43.00600
C  24.17300 -1.43400 42.07900
C  22.58100 -1.66000 41.99800
C  22.50900 -3.05800 42.61900
C  21.74100 -0.71400 42.86700
C  24.99900 -1.38800 40.78900
C  24.89400 0.01200 40.10000
H  24.17800 0.03900 38.72800
N  21.78100 -5.70000 44.11600
C  20.96300 -4.94300 43.30700
C  19.73800 -5.62900 43.15700
C  19.77300 -6.87700 43.87400
C  21.15000 -6.86900 44.50400
C  18.55000 -4.98500 42.39300
C  18.71000 -7.96400 44.02000
O  17.54800 -7.67500 43.64700
C  18.94000 -9.40600 44.53900
N  24.05000 -7.00600 45.74000
C  23.05600 -7.97600 45.88900
C  23.50400 -9.06000 46.85400
C  24.94700 -8.62100 47.33600
C  25.12800 -7.33300 46.52700
C  22.63700 -9.39100 48.00700
C  26.11200 -9.69300 47.04100
C  26.13300 -10.83400 47.99600
N  25.67400 -4.70300 45.10600
C  26.64400 -5.34400 45.88800
C  27.89800 -4.69900 45.73000
C  27.68300 -3.65600 44.83700
C  26.36900 -3.71600 44.37900
C  29.14500 -4.94500 46.47400
C  28.25600 -2.52200 44.18100
O  29.42600 -2.10400 44.18000
C  27.18100 -1.84100 43.22700
C  26.94600 -0.44100 43.53500
O  26.47700 -0.09900 44.61100
O  27.28700 0.38800 42.52800
C  27.05600 1.83800 42.78300
H  20.44400 -3.26900 42.21100
H  21.06900 -8.52900 45.79900
H  27.13200 -6.96100 47.15500
H  24.27500 -0.47100 42.58000
H  22.22100 -1.49700 40.98300
H  20.67200 -0.87900 42.72700
H  21.86900 0.32200 42.55200
H  21.98400 -0.82800 43.92300
H  24.57800 -2.10200 40.08100
H  26.02300 -1.74200 40.90700
H  25.92700 0.27500 39.87100
H  24.42100 0.73700 40.76100
H  17.61600 -5.29600 42.86000
H  18.47600 -5.27200 41.34400
H  18.46800 -3.89800 42.39400
H  17.99900 -9.90700 44.31300
H  19.20400 -9.58300 45.58200
H  19.81000 -9.80700 44.02000
H  23.46600 -10.00300 46.30900
H  24.91300 -8.40000 48.40300
H  22.45800 -8.57600 48.70800
H  23.11900 -10.18300 48.58000
H  21.62600 -9.58200 47.64400
H  27.02500 -9.11400 46.89700
H  25.85100 -10.17400 46.09900
H  26.12400 -11.74400 47.39600
H  25.25800 -10.82900 48.64500
H  26.99800 -10.75400 48.65500
H  29.46300 -5.98700 46.44300
H  28.84200 -4.74300 47.50100
H  29.85900 -4.15800 46.23100
H  27.60700 -1.90100 42.22500
H  27.83600 2.24600 43.42500
H  26.01400 1.99200 43.06500
H  27.10500 2.33300 41.81300

