158

Mg 47.39400 24.55800 28.41100
C  48.49900 26.98200 30.89400
C  46.40300 22.47600 31.03800
C  47.02400 22.10400 26.13800
C  49.03100 26.53700 25.97600
N  47.38400 24.76400 30.83400
C  47.81600 25.87200 31.55300
C  47.51700 25.59100 33.01300
C  46.85700 24.11700 33.04600
C  46.82100 23.72700 31.58600
C  47.48200 23.08300 33.99500
C  46.94900 26.72800 33.76700
C  45.90100 26.57300 34.88900
H  46.15700 27.24500 36.24000
N  46.55800 22.63200 28.54400
C  46.26100 22.01000 29.70200
C  45.62700 20.72200 29.29600
C  45.80600 20.60400 27.84100
C  46.52100 21.85400 27.46100
C  44.97400 19.77400 30.28800
C  45.30200 19.50400 26.87400
O  45.51100 19.46300 25.66100
C  44.41600 18.41000 27.48800
N  47.64800 24.46400 26.38900
C  47.58500 23.23500 25.69600
C  48.04600 23.32300 24.24400
C  48.34900 24.91700 24.10800
C  48.39100 25.34700 25.59400
C  49.30000 22.46500 23.86700
C  47.50200 25.80300 23.11500
C  46.34000 26.67400 23.65200
N  48.47900 26.42300 28.32100
C  49.12500 27.05000 27.25500
C  49.70800 28.28900 27.72100
C  49.48300 28.29500 29.13000
C  48.74600 27.13800 29.42800
C  50.58300 29.17600 26.93200
C  49.76900 29.09200 30.23700
O  50.41600 30.12700 30.34600
C  49.01700 28.26500 31.44000
C  50.02000 28.17700 32.55200
O  50.58100 27.14300 32.86200
O  49.99500 29.33400 33.29700
C  50.67800 29.35800 34.60200
H  46.01500 21.80900 31.81000
H  47.00400 21.33900 25.35800
H  49.30800 27.21800 25.16900
H  48.45100 25.43500 33.55300
H  45.83800 24.20200 33.42400
H  48.06700 23.62500 34.73800
H  48.14100 22.40800 33.44700
H  46.62000 22.64500 34.49800
H  46.59700 27.43300 33.01300
H  47.76800 27.24900 34.26300
H  45.78100 25.50300 35.06100
H  44.89200 26.75400 34.51900
H  45.50600 18.82300 30.26500
H  43.96500 19.56500 29.93300
H  44.66700 20.18200 31.25100
H  44.85000 17.95500 28.37800
H  44.37700 17.63000 26.72900
H  43.47900 18.92400 27.70100
H  47.29700 23.02100 23.51200
H  49.33800 25.07800 23.67900
H  48.97800 21.54300 23.38300
H  49.96700 22.09200 24.64500
H  49.90000 22.99500 23.12800
H  47.02200 25.05500 22.48500
H  48.18500 26.44200 22.55600
H  46.18300 26.64500 24.73000
H  45.41400 26.24300 23.27100
H  46.39700 27.70600 23.30800
H  50.19600 29.45400 25.95200
H  51.54700 28.73500 26.68100
H  50.78700 30.07300 27.51800
H  48.18800 28.87800 31.79300
H  51.65300 28.87300 34.64800
H  50.04800 28.90800 35.36900
H  50.95300 30.36500 34.91600
Mg 30.77700 58.75800 40.91700
C  27.92400 56.91500 39.92900
C  32.73300 56.26400 39.53000
C  33.51900 60.74500 41.34700
C  28.68600 61.43100 41.70300
N  30.34300 56.91000 39.72700
C  29.13600 56.32400 39.57600
C  29.22700 54.80100 39.05200
C  30.79800 54.65500 39.10400
C  31.30800 56.03500 39.45200
C  31.39300 53.37800 39.96600
C  28.60100 54.68900 37.67500
C  28.40700 55.90800 36.80800
H  28.09600 55.68400 35.36400
N  32.80700 58.51700 40.61000
C  33.38400 57.37300 40.03400
C  34.78700 57.60700 40.05400
C  35.07200 58.79700 40.71700
C  33.80000 59.40700 41.02700
C  35.76000 56.60100 39.34900
C  36.49700 59.39000 40.93600
O  37.51100 58.84200 40.49400
C  36.70300 60.55100 41.88300
N  31.05700 60.84500 41.37300
C  32.27200 61.39300 41.44300
C  32.12900 62.92100 41.60300
C  30.60500 63.10200 41.92300
C  30.05200 61.69300 41.68500
C  33.12900 63.62000 42.57600
C  30.05200 64.21400 41.02000
C  28.87600 65.06400 41.52500
N  28.70000 59.20300 40.85100
C  27.99400 60.27300 41.24400
C  26.58000 59.98900 41.12100
C  26.53200 58.66900 40.59000
C  27.82600 58.23200 40.49500
C  25.54900 61.01900 41.42200
C  25.60900 57.54400 40.24800
O  24.37900 57.46000 40.24100
C  26.52100 56.35500 39.80000
C  26.34300 55.20800 40.71800
O  26.86900 55.10700 41.79900
O  25.41400 54.44800 40.07300
C  24.88500 53.31900 40.88500
H  33.30400 55.41300 39.15300
H  34.36900 61.40400 41.15900
H  28.17700 62.38300 41.86600
H  28.72300 54.08800 39.70500
H  31.22300 54.45900 38.12000
H  30.61700 52.66400 40.24100
H  31.96300 53.53300 40.88100
H  32.19700 52.95100 39.36700
H  27.55400 54.39400 37.75300
H  29.12000 53.94200 37.07500
H  29.34100 56.46800 36.76100
H  27.54500 56.51300 37.09000
H  36.18000 57.22500 38.56000
H  35.27500 55.69400 38.98800
H  36.52200 56.20700 40.02100
H  36.87100 61.53200 41.43800
H  37.57000 60.38900 42.52200
H  35.91000 60.73900 42.60600
H  32.53900 63.31900 40.67500
H  30.46600 63.30100 42.98500
H  33.61800 64.44600 42.06000
H  33.89300 62.92300 42.92300
H  32.65300 63.95000 43.49900
H  29.71400 63.90700 40.03000
H  30.89900 64.89000 40.91000
H  28.11700 65.15000 40.74700
H  29.34100 66.04400 41.63500
H  28.49300 64.76800 42.50100
H  25.88100 62.05600 41.37400
H  25.10000 60.69800 42.36200
H  24.79200 60.89200 40.64800
H  26.45900 55.95700 38.78700
H  24.27300 53.55200 41.75700
H  25.68800 52.60400 41.06600
H  24.21700 52.76400 40.22800

