158

Mg 43.96800 42.36800 26.36700
C  42.93200 44.74500 28.82300
C  44.72800 40.20400 28.81600
C  45.02500 40.42400 24.04000
C  43.48000 44.98000 23.88800
N  43.62800 42.48200 28.65800
C  43.36500 43.54700 29.39200
C  43.28800 43.11300 30.87600
C  44.14700 41.76200 30.80500
C  44.17400 41.42400 29.30200
C  45.63400 41.81700 31.35100
C  41.80400 42.93900 31.31500
C  41.23400 43.83800 32.48100
H  42.08400 44.24300 33.69100
N  44.69400 40.50900 26.43000
C  44.99000 39.79300 27.51900
C  45.52200 38.52200 27.17300
C  45.62700 38.54600 25.76900
C  45.11600 39.89200 25.34100
C  45.93000 37.54800 28.23000
C  46.07300 37.45000 24.79200
O  46.13400 37.61700 23.58400
C  46.41500 36.15600 25.29900
N  44.28100 42.68000 24.25900
C  44.66100 41.66800 23.47500
C  44.68100 41.99500 21.98100
C  43.99200 43.38800 21.99200
C  43.92500 43.76600 23.48200
C  46.03800 41.80700 21.37200
C  42.59800 43.47800 21.22600
C  41.43200 42.75300 21.78800
N  43.29400 44.37500 26.31500
C  43.18800 45.30400 25.24700
C  42.74200 46.53500 25.77700
C  42.60900 46.35900 27.12000
C  42.91300 45.04200 27.43900
C  42.61400 47.81700 25.07400
C  42.37300 47.00600 28.34200
O  41.95800 48.14300 28.46900
C  42.49900 46.01000 29.47900
C  43.53600 46.66600 30.43800
O  44.70000 46.88600 30.29300
O  43.03900 46.87600 31.69800
C  43.97700 47.41900 32.73900
H  44.87600 39.58800 29.70500
H  45.34700 39.71600 23.27400
H  43.42200 45.81700 23.18900
H  43.94200 43.82200 31.38200
H  43.59300 41.04800 31.41500
H  46.34800 41.61900 30.55000
H  45.78000 41.09400 32.15300
H  45.83900 42.83400 31.68500
H  41.70600 41.91800 31.68500
H  41.08800 43.10500 30.51000
H  40.32800 43.27300 32.70100
H  40.84900 44.77100 32.07000
H  46.61300 36.78600 27.85400
H  45.14100 36.95300 28.69100
H  46.23000 38.10100 29.12000
H  45.81000 35.89700 26.16800
H  47.42800 36.29200 25.67800
H  46.26300 35.36200 24.56700
H  44.13800 41.20800 21.45800
H  44.65800 44.12000 21.53500
H  46.47500 42.80600 21.36200
H  45.94100 41.48100 20.33600
H  46.73700 41.27600 22.01800
H  42.81500 43.18500 20.19800
H  42.36700 44.54300 21.22000
H  40.55400 43.39600 21.74300
H  41.63100 42.47400 22.82300
H  40.93400 41.91100 21.30700
H  43.48100 48.02000 24.44500
H  42.52300 48.59200 25.83500
H  41.69900 47.81400 24.48100
H  41.58700 45.90600 30.06700
H  44.87700 46.84300 32.95300
H  43.51400 47.36700 33.72400
H  44.28800 48.44600 32.54500
Mg 7.49300 52.95800 40.90700
C  6.95300 49.43500 40.87200
C  10.67100 52.22400 39.66500
C  7.98400 56.21300 40.51300
C  4.14900 53.48800 41.49700
N  8.63000 51.05800 40.32800
C  8.20700 49.74800 40.41200
C  9.29000 48.79400 39.88500
C  10.54500 49.68800 39.92600
C  9.88000 51.11600 39.85800
C  11.38400 49.44100 41.17700
C  9.05400 48.24500 38.48600
C  8.54200 49.20900 37.41800
H  8.03200 48.53200 36.14900
N  9.10700 54.10000 40.15000
C  10.32100 53.53200 39.84100
C  11.19600 54.68700 39.50700
C  10.47200 55.91300 39.82100
C  9.11800 55.41200 40.11700
C  12.60800 54.54100 38.90400
C  11.04800 57.29000 39.72000
O  12.06400 57.53200 39.04400
C  10.42600 58.43400 40.38700
N  6.17600 54.71000 40.76100
C  6.66100 55.93400 40.86700
C  5.65800 56.91400 41.47500
C  4.41800 56.00300 41.47400
C  4.89400 54.65400 41.28600
C  6.07500 57.48700 42.80400
C  3.32800 56.34000 40.34700
C  2.33900 57.38700 40.71100
N  5.86200 51.79300 41.15900
C  4.57800 52.12900 41.53500
C  3.82100 50.93000 41.82800
C  4.71800 49.83600 41.54900
C  5.95200 50.40800 41.17100
C  2.31300 50.84400 42.14300
C  4.82900 48.40600 41.54600
O  3.91400 47.66600 41.85600
C  6.35500 48.06000 41.12800
C  6.16400 47.19200 39.92800
O  5.83600 47.55400 38.86800
O  6.67400 45.88900 40.15400
C  6.56500 44.89600 39.08100
H  11.69500 52.02400 39.34400
H  8.06700 57.29400 40.64100
H  3.12300 53.60700 41.85300
H  9.32300 47.96600 40.59300
H  11.23900 49.64000 39.08700
H  12.39500 49.26200 40.81200
H  11.26200 48.45600 41.62600
H  11.35000 50.27300 41.88000
H  8.56400 47.27600 38.39300
H  10.08900 48.05300 38.20100
H  9.30400 49.94200 37.15100
H  7.75200 49.84300 37.82200
H  12.82400 55.02700 37.95300
H  12.93600 53.50200 38.88500
H  13.32300 55.02900 39.56600
H  9.68500 58.97500 39.79800
H  11.23800 59.12300 40.61800
H  9.94900 58.11700 41.31500
H  5.61400 57.74700 40.77400
H  3.97500 56.03300 42.47000
H  6.95800 56.94700 43.14800
H  5.30800 57.46900 43.57700
H  6.29000 58.55100 42.70600
H  2.82700 55.48800 39.88700
H  3.96300 56.84800 39.62100
H  2.20400 57.38100 41.79300
H  1.41200 57.33200 40.14000
H  2.64900 58.37300 40.36500
H  2.32700 50.57700 43.20000
H  1.84600 50.07000 41.53400
H  1.93400 51.86400 42.08700
H  6.85000 47.48900 41.91300
H  7.23000 45.08700 38.23800
H  5.52400 44.74900 38.79200
H  6.89400 43.95300 39.51800

