158

Mg 49.19200 45.33200 42.71200
C  45.94400 45.86200 41.57600
C  49.07100 42.04300 41.28300
C  52.51600 45.27000 42.89300
C  49.27900 48.86200 43.66500
N  47.76800 44.19800 41.33000
C  46.49700 44.66200 41.10500
C  45.72900 43.53600 40.38000
C  46.55500 42.25900 40.65400
C  47.90400 42.84300 41.06000
C  46.00700 41.35100 41.81100
C  45.54600 43.78200 38.89500
C  44.15100 43.47900 38.39000
H  44.08000 42.29100 37.36900
N  50.54800 43.81200 42.23800
C  50.34100 42.49400 41.74300
C  51.60400 41.80700 41.77500
C  52.61600 42.71600 42.23800
C  51.90100 44.02700 42.49500
C  51.69200 40.39400 41.29100
C  54.02000 42.38200 42.41600
O  54.47700 41.23700 42.18700
C  54.99100 43.38800 42.91500
N  50.64400 46.88200 43.26500
C  51.98800 46.50800 43.28600
C  52.87100 47.71300 43.66000
C  51.75100 48.72300 44.19300
C  50.47300 48.12600 43.71200
C  53.97600 47.47900 44.73200
C  52.00400 50.23900 44.01600
C  53.54700 50.73000 43.91400
N  47.86100 47.03700 42.72900
C  48.02600 48.36700 43.14200
C  46.82500 49.11100 42.95500
C  45.90500 48.14100 42.36800
C  46.59700 46.92200 42.19800
C  46.53400 50.49500 43.50900
C  44.54300 47.85200 41.90400
O  43.55200 48.54000 42.00800
C  44.54700 46.36400 41.27700
C  43.45100 45.64100 41.90900
O  43.32600 45.48000 43.08700
O  42.46200 45.38500 40.96400
C  41.18900 44.87900 41.46800
H  49.02000 40.95900 41.15900
H  53.60700 45.30800 42.87400
H  49.39600 49.82200 44.17000
H  44.76200 43.30900 40.82700
H  46.71700 41.60600 39.79700
H  46.72200 41.26300 42.62900
H  45.64200 40.38000 41.47600
H  45.10300 41.86700 42.13300
H  46.35500 43.14600 38.53600
H  45.84000 44.80800 38.67300
H  43.85500 44.38900 37.86700
H  43.53900 43.29200 39.27200
H  51.86400 40.35300 40.21600
H  50.74900 39.95200 41.61300
H  52.45600 39.81700 41.81200
H  54.63400 43.84200 43.84000
H  55.16000 44.10600 42.11300
H  55.94800 42.96300 43.21700
H  53.30200 48.00600 42.70300
H  51.60600 48.44300 45.23600
H  54.88500 48.07500 44.81200
H  54.27700 46.44200 44.58300
H  53.53400 47.66800 45.71100
H  51.61400 50.72500 44.91000
H  51.38500 50.58400 43.18800
H  53.73400 51.34200 44.79600
H  53.69500 51.45000 43.10900
H  54.25900 49.92400 43.73400
H  47.20100 51.29500 43.18600
H  46.41400 50.31700 44.57700
H  45.58900 50.88400 43.13100
H  44.32500 46.46000 40.21400
H  41.24100 43.87500 41.88700
H  40.47800 44.80800 40.64500
H  40.67200 45.60600 42.09500
Mg 1.00000 44.02800 25.09400
C  2.89400 43.57600 27.97600
C  -1.70900 43.20900 26.98300
C  -0.74600 43.87600 22.26500
C  3.96700 44.10200 23.16300
N  0.66000 43.66000 27.31000
C  1.59900 43.52300 28.31100
C  0.84600 43.28700 29.64800
C  -0.63300 43.16100 29.26000
C  -0.54500 43.32300 27.76000
C  -1.36200 41.87100 29.73100
C  1.16100 44.50300 30.55800
C  1.54900 44.16700 32.03100
H  0.90100 42.90000 32.72400
N  -1.03700 43.83200 24.68100
C  -1.94900 43.40200 25.55900
C  -3.20700 43.14200 24.84100
C  -3.02200 43.64700 23.53400
C  -1.58400 43.84600 23.42900
C  -4.37600 42.53700 25.48300
C  -3.94900 43.76700 22.28900
O  -3.54500 44.14500 21.19000
C  -5.30600 43.20300 22.43200
N  1.54400 43.95100 23.02100
C  0.63200 43.93800 22.04300
C  1.28200 43.62500 20.63900
C  2.69300 44.19500 20.90000
C  2.77800 44.08500 22.41700
C  1.12600 42.08900 20.22300
C  2.86400 45.63100 20.39200
C  4.24500 46.06700 20.05300
N  2.93800 43.88500 25.44600
C  4.03100 43.92200 24.57400
C  5.20900 43.93600 25.39500
C  4.87600 43.78800 26.72200
C  3.44100 43.78800 26.68200
C  6.53500 44.02000 24.77100
C  5.41300 43.47600 28.05400
O  6.55400 43.26000 28.40900
C  4.08200 43.43200 28.93400
C  4.07300 42.24800 29.87500
O  3.69000 41.13000 29.64000
O  4.75600 42.69800 30.99000
C  5.11000 41.54600 31.89700
H  -2.62000 42.88500 27.49200
H  -1.29400 43.65000 21.34800
H  4.84800 44.09300 22.51800
H  1.28000 42.41700 30.14000
H  -1.14400 44.04500 29.64400
H  -2.06600 42.20800 30.49200
H  -0.79800 41.13400 30.30200
H  -1.82100 41.32600 28.90600
H  0.25200 45.10300 30.60300
H  2.00300 45.11800 30.23900
H  1.28600 45.10100 32.52700
H  2.63000 44.12800 32.16400
H  -5.08300 43.36700 25.51000
H  -4.23400 42.17600 26.50100
H  -4.71900 41.67600 24.90900
H  -5.93400 43.38000 21.55900
H  -5.71600 43.80500 23.24300
H  -5.29900 42.12700 22.60500
H  0.75200 44.23300 19.90600
H  3.45800 43.67100 20.32700
H  0.71200 41.56200 21.08200
H  2.10200 41.61200 20.14000
H  0.62600 42.02300 19.25700
H  2.41300 46.24800 21.16800
H  2.32900 45.81900 19.46100
H  5.02500 45.43600 20.47900
H  4.54400 46.91700 20.66600
H  4.36000 46.53200 19.07400
H  7.20000 43.72300 25.58100
H  6.94500 44.98100 24.46000
H  6.56200 43.16400 24.09700
H  4.15000 44.30500 29.58400
H  6.04600 41.13900 31.51500
H  4.40800 40.71400 31.95100
H  5.28200 41.96800 32.88700

