158

Mg 43.38200 3.31400 47.20000
C  41.31800 5.97600 46.59900
C  40.60600 1.29100 47.35900
C  45.48300 0.73800 47.52400
C  46.20600 5.55400 46.86600
N  41.22100 3.57700 46.85700
C  40.63000 4.74700 46.59400
C  39.15200 4.61400 46.63100
C  38.91000 3.16700 47.20900
C  40.29800 2.64700 47.17300
C  38.38800 3.15800 48.71600
C  38.53900 4.85300 45.22100
C  37.26200 5.79400 45.06900
H  36.76800 6.12000 43.70500
N  43.03000 1.24600 47.14100
C  41.84900 0.63600 47.26800
C  42.03900 -0.79200 47.25200
C  43.48600 -0.94300 47.27300
C  44.10800 0.41800 47.30500
C  40.98900 -1.94100 47.26000
C  44.24100 -2.29200 47.14200
O  43.56000 -3.35500 46.91700
C  45.76900 -2.41900 47.18100
N  45.52200 3.11400 47.09400
C  46.14800 1.92300 47.42500
C  47.68200 2.07700 47.56100
C  47.91900 3.64500 47.29400
C  46.48900 4.18500 47.06700
C  48.26200 1.68000 48.98600
C  48.92200 3.95500 46.15000
C  50.35300 4.50500 46.41900
N  43.71700 5.36300 46.92800
C  44.88500 6.13000 46.80300
C  44.47100 7.54900 46.66200
C  43.08000 7.49200 46.58700
C  42.67900 6.14600 46.72700
C  45.38800 8.70600 46.40100
C  41.84400 8.33300 46.40000
O  41.70800 9.50200 45.97500
C  40.65600 7.33500 46.53800
C  39.86200 7.85900 47.74100
O  39.93400 7.39400 48.87500
O  39.08000 8.93300 47.42700
C  38.19900 9.54000 48.45200
H  39.85400 0.56700 47.68200
H  46.22200 0.01500 47.87500
H  47.11500 6.15900 46.84200
H  38.62500 5.36000 47.22600
H  38.26100 2.54500 46.59200
H  38.04400 4.14600 49.02500
H  39.09600 2.68200 49.39400
H  37.52700 2.49000 48.73900
H  38.21100 3.86600 44.89400
H  39.28100 5.05600 44.44800
H  37.53100 6.67100 45.65800
H  36.49400 5.32900 45.68700
H  40.92100 -2.36200 46.25600
H  39.99900 -1.50600 47.39100
H  41.17500 -2.76600 47.94800
H  46.19200 -1.77300 46.41100
H  46.14300 -3.43700 47.08200
H  46.10900 -2.28200 48.20800
H  48.23600 1.53800 46.79300
H  48.30200 4.23100 48.13000
H  47.68700 0.89400 49.47500
H  48.25900 2.47600 49.73100
H  49.31000 1.38000 48.96200
H  48.58400 4.69700 45.42800
H  49.15100 3.06800 45.56000
H  50.46700 4.64500 47.49400
H  50.44300 5.43000 45.84900
H  51.14000 3.89600 45.97600
H  44.80500 9.61600 46.54000
H  45.74500 8.56100 45.38100
H  46.27000 8.63000 47.03700
H  40.03100 7.50200 45.66000
H  38.56900 9.27800 49.44300
H  37.21900 9.14000 48.19000
H  38.16900 10.62700 48.37700
Mg 46.61800 25.02200 28.10600
C  47.30500 27.03100 30.89000
C  45.39400 22.61800 30.46300
C  46.49900 22.84800 25.58500
C  48.33000 27.32900 26.03800
N  46.51000 24.85800 30.41500
C  46.86000 25.77500 31.31600
C  46.63300 25.29200 32.75100
C  46.34400 23.77200 32.55100
C  46.00900 23.75800 31.04400
C  47.54500 22.89900 32.85000
C  45.52800 26.09200 33.51000
C  45.95000 27.01300 34.59400
H  44.90100 27.23000 35.63900
N  45.98300 23.08500 28.01000
C  45.35700 22.33000 29.00300
C  44.96300 21.06200 28.48300
C  45.42400 21.01000 27.11800
C  45.93700 22.36600 26.77900
C  44.24700 20.02400 29.37400
C  45.37000 19.88500 26.15100
O  45.63600 19.94200 24.94800
C  45.03200 18.42200 26.62000
N  47.39800 25.01600 26.12000
C  47.05700 24.08700 25.23900
C  47.69200 24.38600 23.83900
C  48.09300 25.90200 23.93700
C  47.97700 26.11300 25.46400
C  48.95700 23.49100 23.57700
C  47.13300 26.74800 23.02600
C  47.85400 27.23100 21.71800
N  47.41300 26.89200 28.36100
C  48.06700 27.67600 27.41700
C  48.36800 28.96600 28.13900
C  48.20800 28.68000 29.48800
C  47.59800 27.41300 29.56800
C  49.05900 30.21500 27.50000
C  48.51000 29.19900 30.81500
O  49.12600 30.19600 31.15800
C  47.89600 28.19600 31.78200
C  49.01200 27.77800 32.68900
O  49.94800 27.07500 32.39900
O  48.89700 28.33200 33.89800
C  49.78300 27.78800 34.90500
H  44.98300 21.93400 31.20800
H  46.64300 22.15300 24.75400
H  48.80300 28.02500 25.34200
H  47.62800 25.42900 33.17300
H  45.49500 23.36400 33.09900
H  48.00400 23.15900 33.80400
H  48.30900 23.08800 32.09600
H  47.31300 21.83700 32.77900
H  44.84700 25.37700 33.96900
H  44.98500 26.53400 32.67500
H  46.11300 27.96400 34.08600
H  46.91200 26.70600 35.00600
H  43.92600 20.29100 30.38100
H  44.88400 19.15900 29.55600
H  43.39900 19.61700 28.82300
H  45.32000 17.73200 25.82700
H  43.97000 18.29900 26.83200
H  45.54900 18.35100 27.57700
H  46.87900 24.08400 23.18000
H  49.12700 26.03000 23.61400
H  48.57100 22.47400 23.50300
H  49.39100 23.34000 24.56500
H  49.51200 23.82700 22.70100
H  46.79300 27.57700 23.64700
H  46.29000 26.15300 22.67500
H  48.84400 26.83300 21.49100
H  47.89000 28.32000 21.74800
H  47.21000 27.04200 20.85900
H  48.66900 30.45500 26.51000
H  50.03100 29.75500 27.32000
H  49.11700 31.06200 28.18400
H  47.07200 28.62400 32.35200
H  49.22500 27.26700 35.68300
H  50.45600 28.55100 35.29800
H  50.59700 27.16400 34.53600

