158

Mg 41.94400 40.31800 27.58500
C  40.94900 42.76700 29.87300
C  43.20300 38.42600 30.02400
C  42.60600 38.13100 25.15900
C  41.09100 42.77700 24.97500
N  42.01100 40.57200 29.74900
C  41.47700 41.58000 30.51600
C  41.80800 41.37300 32.01200
C  42.52400 39.99600 31.95500
C  42.70300 39.67100 30.42900
C  43.96700 40.06800 32.53500
C  40.57800 41.48900 32.93200
C  40.72000 42.10800 34.30100
H  40.26000 41.34500 35.58500
N  42.84400 38.47400 27.58800
C  43.23700 37.81600 28.70700
C  43.64800 36.44100 28.29700
C  43.47400 36.35200 26.90800
C  42.93500 37.67800 26.50700
C  44.10600 35.45900 29.25200
C  43.62500 35.16300 25.97600
O  43.33500 35.22400 24.77500
C  44.06400 33.89300 26.51100
N  41.92900 40.48900 25.36700
C  42.18600 39.34900 24.72000
C  42.03100 39.57600 23.24100
C  41.57000 41.06200 23.10400
C  41.48800 41.53100 24.56600
C  43.09400 39.23800 22.24400
C  40.22900 41.29700 22.35300
C  38.80600 41.07200 22.94400
N  41.18900 42.32800 27.44100
C  40.99100 43.17200 26.30600
C  40.51400 44.46900 26.68100
C  40.51200 44.43300 28.05700
C  40.90700 43.04300 28.50300
C  40.12100 45.57100 25.70500
C  40.19400 45.05200 29.34200
O  39.72000 46.21000 29.61700
C  40.66400 44.09000 30.51600
C  41.85600 44.59600 31.26800
O  42.95600 44.98800 30.79500
O  41.51600 44.60800 32.61600
C  42.54600 45.05000 33.57200
H  43.40700 37.68000 30.79500
H  42.59600 37.35300 24.39300
H  40.74000 43.35100 24.11500
H  42.61700 42.06900 32.23300
H  41.99300 39.18800 32.45900
H  44.16300 40.90400 33.20700
H  44.71900 39.92000 31.76000
H  44.07700 39.25200 33.24800
H  40.27200 40.45700 33.10200
H  39.76700 42.01600 32.42900
H  40.32500 43.12400 34.30600
H  41.80100 42.12300 34.44700
H  45.00700 35.00800 28.83500
H  43.30100 34.74900 29.44300
H  44.41000 35.98800 30.15500
H  43.46200 33.52900 27.34400
H  45.11100 34.01200 26.79200
H  43.98300 33.14400 25.72400
H  41.17800 38.97700 22.92100
H  42.47100 41.57700 22.77100
H  43.03600 39.62000 21.22500
H  43.17300 38.15300 22.18200
H  44.03000 39.69100 22.57000
H  40.21500 40.55500 21.55400
H  40.34700 42.24500 21.82900
H  38.88300 40.78700 23.99300
H  38.21000 40.27000 22.51100
H  38.28200 42.02800 22.92700
H  39.89500 45.16600 24.71800
H  40.79600 46.42700 25.72500
H  39.20900 45.98300 26.13800
H  39.82200 43.92400 31.18800
H  43.47100 44.53900 33.30700
H  42.08800 44.86800 34.54400
H  42.59500 46.13100 33.44200
Mg -2.09300 35.07500 26.52900
C  -3.41700 33.66500 29.39300
C  -0.73400 37.58200 28.53700
C  -1.16200 36.79200 23.79600
C  -3.71600 32.80100 24.57900
N  -2.20200 35.66800 28.68100
C  -2.66400 34.75100 29.70800
C  -2.27400 35.39500 31.01500
C  -1.51700 36.66900 30.76900
C  -1.44400 36.62700 29.25300
C  -2.25700 37.97000 31.31100
C  -1.56000 34.35200 31.95900
C  -1.67600 34.61600 33.49900
H  -2.51600 33.70000 34.41700
N  -1.04500 36.97500 26.18800
C  -0.58300 37.84200 27.13600
C  0.19700 38.86800 26.45300
C  -0.02300 38.75900 25.06800
C  -0.70900 37.45600 24.93400
C  0.96400 39.85900 27.30500
C  0.48600 39.61700 23.96000
O  0.39800 39.18400 22.77800
C  1.20900 40.91200 24.24000
N  -2.31300 34.76300 24.48400
C  -1.83400 35.62300 23.53400
C  -2.01900 35.01300 22.11200
C  -2.53800 33.57800 22.40400
C  -2.94300 33.72500 23.84500
C  -2.70200 35.82600 21.06300
C  -1.58600 32.37400 22.16600
C  -0.14500 32.30800 22.77000
N  -3.34100 33.54600 26.85400
C  -3.91800 32.70200 25.94300
C  -4.71500 31.74000 26.72000
C  -4.56200 32.12400 28.03100
C  -3.74800 33.23100 28.05800
C  -5.37100 30.56600 26.23200
C  -4.92600 31.71700 29.36000
O  -5.60200 30.79300 29.78200
C  -4.41000 32.83700 30.26000
C  -5.52900 33.61800 30.78200
O  -5.97000 34.65300 30.30600
O  -5.99500 33.00600 31.85900
C  -7.25300 33.40800 32.44700
H  -0.28100 38.32300 29.19900
H  -0.90200 37.33100 22.88300
H  -4.10700 31.95700 24.00600
H  -3.16900 35.61400 31.59800
H  -0.53600 36.67500 31.24400
H  -2.55300 38.65600 30.51700
H  -1.56400 38.44000 32.00900
H  -3.15400 37.75800 31.89200
H  -0.50900 34.28600 31.67600
H  -1.83900 33.31100 31.79900
H  -2.18000 35.58000 33.57000
H  -0.63700 34.66500 33.82200
H  0.98500 39.78700 28.39200
H  0.55200 40.86200 27.19100
H  1.99300 39.80200 26.95100
H  0.53200 41.68400 24.60500
H  1.75800 41.31300 23.38800
H  1.94800 40.59400 24.97600
H  -0.97400 34.95700 21.80600
H  -3.42000 33.39600 21.78900
H  -2.85300 36.83100 21.45800
H  -3.59300 35.37100 20.62900
H  -1.98300 35.92100 20.25000
H  -1.55400 32.22900 21.08600
H  -2.02600 31.42100 22.46000
H  -0.17700 31.77800 23.72200
H  0.17700 33.33700 22.93100
H  0.49700 31.86900 22.00600
H  -6.39500 30.58300 26.60500
H  -4.83600 29.69300 26.60600
H  -5.28900 30.58100 25.14500
H  -4.00000 32.21900 31.05800
H  -7.13700 34.26700 33.10700
H  -7.65700 32.54900 32.98200
H  -8.06600 33.55000 31.73400

