158

Mg 45.51700 3.68700 47.48800
C  43.21800 6.16600 46.88200
C  43.02700 1.32900 47.01900
C  47.92100 1.32400 46.98000
C  48.05200 6.04900 47.19700
N  43.43400 3.76500 46.83700
C  42.62300 4.92100 46.67300
C  41.17600 4.64000 46.53500
C  41.12400 3.04500 46.81000
C  42.60100 2.65000 46.94900
C  40.14800 2.58000 47.96700
C  40.60700 5.01300 45.15100
C  39.54900 6.10100 45.13400
H  39.67000 7.18800 44.05500
N  45.53200 1.71300 47.22900
C  44.35100 0.93100 47.06500
C  44.80800 -0.46100 47.10900
C  46.19500 -0.48300 47.00700
C  46.60200 0.89200 47.09700
C  43.85500 -1.61600 47.03700
C  46.97300 -1.80000 46.73200
O  46.38500 -2.86600 46.74100
C  48.47700 -1.86100 46.36300
N  47.74200 3.69300 47.10500
C  48.47200 2.58600 46.91100
C  49.93500 2.88300 46.58900
C  50.06400 4.39800 46.85000
C  48.54500 4.74700 47.03600
C  51.05900 1.98800 47.27900
C  50.80000 5.15500 45.74500
C  52.33400 5.22500 45.79300
N  45.67800 5.71000 47.31300
C  46.77700 6.53900 47.40800
C  46.35400 7.94600 47.36200
C  44.89500 7.81700 47.12800
C  44.60100 6.46800 47.15000
C  47.18900 9.08600 47.49000
C  43.65000 8.56500 47.01100
O  43.49400 9.77400 47.13500
C  42.54600 7.53800 46.73200
C  41.56400 7.76100 47.74400
O  41.64100 7.39800 48.94800
O  40.47900 8.36900 47.20000
C  39.34800 8.63500 48.10200
H  42.30900 0.50700 46.99500
H  48.58300 0.47100 47.14300
H  48.90100 6.73100 47.12500
H  40.68000 5.27600 47.26800
H  40.87700 2.57200 45.85900
H  39.62200 1.73000 47.53200
H  39.47400 3.43000 48.06200
H  40.65600 2.29600 48.88900
H  40.15500 4.11500 44.73100
H  41.44700 5.32300 44.53000
H  39.40100 6.50800 46.13400
H  38.64900 5.51000 44.96300
H  42.80900 -1.31200 47.07000
H  44.09900 -2.36100 47.79500
H  44.00300 -2.07200 46.05800
H  48.69700 -2.78600 45.82900
H  48.98200 -1.76600 47.32400
H  48.72800 -1.03100 45.70200
H  50.02100 2.75800 45.51000
H  50.47600 4.52800 47.85100
H  51.67700 1.40500 46.59700
H  50.67900 1.28900 48.02300
H  51.79500 2.60900 47.78800
H  50.54700 6.21500 45.76000
H  50.50700 4.78000 44.76500
H  52.80400 4.51800 45.11000
H  52.73100 4.96400 46.77400
H  52.68300 6.21000 45.48300
H  46.68900 9.90400 46.97300
H  48.14300 8.87700 47.00500
H  47.36300 9.37800 48.52500
H  42.20500 7.77300 45.72300
H  38.78000 9.43700 47.63000
H  39.59500 8.85800 49.14000
H  38.69900 7.76200 48.02800
Mg 35.13600 48.50500 25.08700
C  35.45300 46.39900 28.03400
C  34.18300 51.04800 27.31400
C  34.30900 50.20800 22.53500
C  35.65200 45.59500 23.14200
N  34.80200 48.69600 27.45500
C  35.01800 47.66500 28.39300
C  34.97300 48.27200 29.75500
C  34.12700 49.59200 29.50300
C  34.34900 49.84000 27.99500
C  32.64600 49.35600 29.99300
C  36.47100 48.48700 30.30300
C  36.72700 48.39700 31.78600
H  36.60400 49.65700 32.60900
N  34.42000 50.39100 24.91900
C  34.26900 51.30600 25.93100
C  33.85900 52.58300 25.40900
C  33.79600 52.36500 23.98000
C  34.20100 50.98300 23.76200
C  33.72600 53.85700 26.24100
C  33.55000 53.40700 22.94600
O  33.78000 53.13600 21.77600
C  33.10600 54.90900 23.23500
N  34.93900 47.94500 23.09800
C  34.68600 48.92600 22.19400
C  34.80800 48.33800 20.75500
C  35.17200 46.87700 20.94500
C  35.29600 46.81600 22.51400
C  33.54500 48.61800 19.82300
C  36.58300 46.52600 20.30700
C  37.80600 47.04400 21.14000
N  35.53000 46.38600 25.43800
C  35.74800 45.35900 24.54800
C  36.00500 44.15500 25.27900
C  36.03800 44.51900 26.65000
C  35.68300 45.89900 26.70200
C  36.10100 42.70700 24.82000
C  36.12600 44.02300 28.04000
O  36.33000 42.92700 28.49500
C  35.92900 45.27500 28.95700
C  35.08100 44.76900 30.16700
O  33.91500 44.32500 30.05100
O  35.75800 44.95900 31.29900
C  35.06300 44.58300 32.49500
H  33.88100 51.81600 28.02800
H  33.91100 50.84800 21.74500
H  35.95800 44.73700 22.54000
H  34.49200 47.60800 30.47400
H  34.39800 50.45500 30.11000
H  31.91500 49.85000 29.35300
H  32.40300 49.80900 30.95400
H  32.44300 48.29100 30.10300
H  36.90200 49.42800 29.96300
H  37.14200 47.76900 29.83000
H  37.71900 47.98600 31.97700
H  35.95500 47.74700 32.19700
H  34.64200 53.98400 26.81800
H  32.87400 53.63200 26.88200
H  33.51500 54.83800 25.81400
H  33.20600 55.45500 22.29700
H  33.65700 55.41100 24.03100
H  32.09600 54.82900 23.63700
H  35.62100 48.98700 20.43100
H  34.39300 46.18800 20.61800
H  33.43000 47.99300 18.93800
H  33.56300 49.66700 19.52800
H  32.61300 48.52400 20.38100
H  36.58000 46.70100 19.23100
H  36.66500 45.44400 20.41500
H  38.40700 46.22800 21.54000
H  37.73900 47.71500 21.99600
H  38.42700 47.50600 20.37200
H  35.63000 42.73500 23.83800
H  35.40500 42.08700 25.38500
H  37.13200 42.36200 24.89600
H  36.96900 45.39700 29.25700
H  34.29400 45.32600 32.70500
H  35.88000 44.67300 33.21100
H  34.75300 43.54000 32.44100

