158

Mg 8.12400 2.48900 28.40100
C  9.55800 1.03900 31.25900
C  6.48100 4.72700 30.36500
C  6.16100 3.32100 25.77000
C  9.35200 -0.31100 26.46000
N  7.93000 2.73900 30.62100
C  8.68700 2.09900 31.59200
C  8.54500 2.79300 32.93600
C  7.35200 3.83500 32.58800
C  7.24800 3.82700 31.09700
C  6.00400 3.53100 33.27600
C  9.79300 3.44000 33.56700
C  10.39800 2.76300 34.82100
H  10.79100 3.72800 35.89800
N  6.76700 4.04900 27.99400
C  6.21600 4.90900 28.93800
C  5.27100 5.78800 28.24300
C  5.23800 5.42800 26.85600
C  6.11500 4.28500 26.83500
C  4.47200 6.97200 28.93300
C  4.44600 6.04700 25.63000
O  4.47900 5.68300 24.46900
C  3.51100 7.26400 25.84800
N  7.85200 1.61900 26.38800
C  6.92500 2.17400 25.58400
C  7.13000 1.59300 24.12100
C  8.00500 0.35500 24.37900
C  8.39400 0.55700 25.84800
C  5.87700 1.12400 23.37500
C  9.07700 0.08900 23.26200
C  9.02800 -1.18400 22.37800
N  9.23900 0.77100 28.73600
C  9.65700 -0.23600 27.83600
C  10.48600 -1.20800 28.60600
C  10.48800 -0.70300 29.89300
C  9.70900 0.45900 29.94900
C  11.29800 -2.33400 28.02500
C  10.93400 -0.95900 31.31200
O  11.74200 -1.75300 31.80100
C  10.32400 0.15200 32.17600
C  9.43800 -0.58800 33.16100
O  8.31600 -1.00100 32.97800
O  10.12300 -0.63600 34.34600
C  9.38500 -1.41400 35.41200
H  6.09400 5.54000 30.98200
H  5.60800 3.63200 24.88100
H  9.73600 -1.05700 25.76000
H  8.20800 2.16400 33.76000
H  7.63700 4.79500 33.01800
H  6.09000 2.47300 33.52200
H  5.21800 3.47200 32.52300
H  5.78500 4.36700 33.94000
H  9.71100 4.51600 33.71900
H  10.57700 3.36400 32.81300
H  11.29100 2.25500 34.45500
H  9.75500 1.96800 35.19700
H  4.81800 7.94200 28.57600
H  4.85400 7.05400 29.95000
H  3.43100 6.89300 28.62000
H  2.75100 7.06100 26.60300
H  2.93900 7.55800 24.96800
H  4.10300 8.08900 26.24500
H  7.68300 2.23900 23.43900
H  7.34300 -0.50700 24.45800
H  5.07800 1.33800 24.08600
H  5.77300 0.10700 22.99900
H  5.72100 1.93500 22.66300
H  10.09300 0.20600 23.63800
H  9.03000 0.83500 22.46800
H  8.95300 -0.98700 21.30800
H  8.15900 -1.80400 22.59800
H  9.92800 -1.78900 22.48400
H  12.02400 -2.03600 27.26900
H  10.75200 -3.17600 27.59800
H  11.80800 -2.67400 28.92600
H  11.23200 0.62200 32.55300
H  8.88500 -2.27300 34.96500
H  8.60300 -0.83400 35.90000
H  9.98200 -1.85600 36.21000
Mg 44.14100 42.69100 25.71400
C  43.35500 45.11000 28.24000
C  45.12600 40.60900 28.26300
C  45.17000 40.71900 23.37200
C  43.29900 45.17300 23.25400
N  44.27300 42.89700 27.99200
C  43.70000 43.85200 28.78100
C  43.73300 43.54300 30.32700
C  44.45500 42.14300 30.33100
C  44.59100 41.84200 28.75800
C  45.78400 42.05400 31.16600
C  42.38400 43.47700 30.98600
C  42.24000 42.86700 32.40700
H  42.15400 43.74900 33.64000
N  45.09600 40.92600 25.78400
C  45.34800 40.16100 26.90400
C  45.86300 38.87500 26.55900
C  45.79100 38.85000 25.10700
C  45.34200 40.16800 24.67600
C  46.13900 37.81100 27.57500
C  46.08800 37.70300 24.13100
O  46.00500 37.76800 22.88600
C  46.67100 36.50500 24.70200
N  44.41100 42.98200 23.64300
C  44.79900 41.94500 22.87800
C  44.61100 42.20400 21.36900
C  43.80900 43.56100 21.39400
C  43.80000 43.92800 22.83200
C  45.85100 42.16400 20.54000
C  42.40000 43.44800 20.80300
C  41.24300 42.78800 21.55500
N  43.50800 44.75500 25.70200
C  43.16800 45.55200 24.63200
C  42.76200 46.81200 25.17300
C  42.81100 46.66500 26.57600
C  43.29400 45.42000 26.86400
C  42.60200 48.08600 24.44600
C  42.58000 47.32800 27.84400
O  42.08200 48.38700 28.09000
C  43.02500 46.36100 28.98000
C  44.19100 47.12000 29.59900
O  45.17500 47.50500 28.99000
O  43.89800 47.24900 30.96300
C  44.65200 48.29700 31.79000
H  45.44200 40.06000 29.15200
H  45.38300 40.07300 22.51700
H  43.10700 45.98300 22.54700
H  44.38100 44.28300 30.79600
H  43.77200 41.36300 30.66800
H  46.67800 41.91700 30.55700
H  45.66300 41.29900 31.94200
H  45.89600 43.00800 31.68100
H  41.68100 42.98700 30.31300
H  42.01300 44.48800 31.15100
H  43.12800 42.29500 32.67900
H  41.32200 42.28000 32.40100
H  45.67900 36.83600 27.41800
H  45.86800 38.16700 28.56900
H  47.21500 37.63400 27.57100
H  45.96500 36.08400 25.41700
H  47.64200 36.68400 25.16500
H  46.91000 35.78300 23.92100
H  44.06800 41.34900 20.96800
H  44.29800 44.39000 20.88200
H  45.48500 42.46600 19.55900
H  46.23700 41.14700 20.47100
H  46.55400 42.98600 20.67700
H  42.57200 43.02100 19.81500
H  42.02600 44.46800 20.72300
H  40.31400 43.31900 21.34900
H  41.40300 42.55900 22.60800
H  41.19200 41.76300 21.18700
H  43.01200 48.22600 23.44600
H  43.10100 48.85600 25.03500
H  41.53900 48.32000 24.39700
H  42.30200 46.20200 29.77900
H  45.65400 47.97000 32.06600
H  44.11800 48.64500 32.67400
H  44.85000 49.21400 31.23500

