158

Mg 47.66600 35.08800 27.53500
C  45.67200 33.51200 30.09900
C  48.24000 37.63700 29.88200
C  49.09400 36.75900 25.06400
C  46.84500 32.47000 25.32600
N  47.20700 35.37000 29.80300
C  46.39200 34.59500 30.58800
C  46.64900 34.98700 32.08100
C  47.03800 36.48900 31.86800
C  47.50600 36.56000 30.41500
C  45.91100 37.43000 32.28500
C  47.75900 33.98000 32.63200
C  47.80800 33.79900 34.18600
H  47.11000 34.82700 35.03300
N  48.70100 36.74400 27.54100
C  48.87300 37.66000 28.56000
C  49.65300 38.79200 28.05900
C  49.89500 38.58300 26.71300
C  49.15000 37.30400 26.41100
C  49.98200 40.00100 29.01100
C  50.51700 39.54300 25.66200
O  50.57400 39.33800 24.49600
C  51.07600 40.81900 26.01800
N  47.69700 34.72500 25.46400
C  48.47400 35.53100 24.64300
C  48.48800 35.03100 23.20500
C  47.90000 33.57500 23.36100
C  47.47400 33.54200 24.78300
C  47.71200 35.85100 22.17200
C  48.85000 32.44100 22.86800
C  50.06700 32.10500 23.75400
N  46.59300 33.29800 27.62500
C  46.23700 32.39800 26.62000
C  45.47700 31.28200 27.18300
C  45.19000 31.73400 28.47600
C  45.87900 32.97100 28.78000
C  45.07500 30.02000 26.47000
C  44.44400 31.41400 29.67200
O  43.80400 30.43800 29.90600
C  44.62100 32.56500 30.75700
C  44.85000 32.01200 32.11700
O  45.66800 31.16000 32.40500
O  43.94400 32.54300 33.08000
C  43.91600 31.91500 34.43400
H  48.36900 38.46300 30.58500
H  49.55700 37.31100 24.24400
H  46.60300 31.60800 24.70000
H  45.72400 34.93700 32.65500
H  47.90100 36.83400 32.43700
H  46.32700 38.43300 32.37800
H  45.48500 37.03500 33.20700
H  45.20200 37.58500 31.47200
H  48.78000 34.28500 32.40100
H  47.59300 33.02300 32.13600
H  48.85600 33.74500 34.48100
H  47.37200 32.83900 34.46100
H  49.09000 40.60200 29.19000
H  50.74200 40.72600 28.71900
H  50.30000 39.65700 29.99500
H  50.34400 41.48500 26.47500
H  51.53400 41.25500 25.13000
H  51.92100 40.64500 26.68400
H  49.52800 34.89400 22.91000
H  46.96500 33.28400 22.88100
H  46.81900 35.29800 21.88300
H  48.28500 36.08800 21.27500
H  47.37800 36.77900 22.63700
H  49.15400 32.82300 21.89400
H  48.17400 31.60900 22.67000
H  51.03900 32.49200 23.44600
H  50.11100 31.01500 23.74300
H  49.96800 32.40900 24.79600
H  45.95200 29.37900 26.38500
H  44.63500 30.30000 25.51300
H  44.34300 29.44100 27.03300
H  43.63300 33.01600 30.65900
H  44.33000 32.70100 35.06600
H  44.58400 31.05700 34.49700
H  42.86700 31.69600 34.63600
Mg -12.19000 38.60300 41.55000
C  -10.02500 36.13800 40.43900
C  -10.09700 40.97100 40.33400
C  -14.65300 40.72500 42.05900
C  -14.41000 35.89800 42.48500
N  -10.33000 38.50900 40.38100
C  -9.65000 37.40400 40.06200
C  -8.37400 37.76800 39.18900
C  -8.33300 39.40700 39.31600
C  -9.65900 39.64500 40.01000
C  -7.27400 39.97400 40.27300
C  -8.49200 37.15300 37.67700
C  -7.45500 36.02900 37.34700
H  -6.28800 36.27100 36.36300
N  -12.27500 40.59200 41.41600
C  -11.32700 41.40000 40.94500
C  -11.85200 42.75500 40.91000
C  -13.15100 42.75600 41.49000
C  -13.40000 41.28500 41.64900
C  -10.97500 43.98000 40.50700
C  -14.01200 43.94700 41.81700
O  -13.67900 45.14500 41.57500
C  -15.37600 43.78100 42.45200
N  -14.28800 38.33900 42.43300
C  -15.06300 39.40500 42.37600
C  -16.56800 39.06700 42.56000
C  -16.47100 37.51900 42.65200
C  -15.00000 37.21300 42.44900
C  -17.25500 39.63200 43.75600
C  -17.48100 36.72300 41.67200
C  -18.41900 35.57200 42.21300
N  -12.26100 36.46800 41.50800
C  -13.14500 35.55200 42.03900
C  -12.55200 34.24600 42.01000
C  -11.30100 34.41700 41.42200
C  -11.23800 35.80500 41.03400
C  -13.13800 33.04300 42.70400
C  -10.08600 33.73300 40.88400
O  -9.82200 32.55100 40.91500
C  -9.18800 34.83700 40.34700
C  -8.01300 34.84900 41.26400
O  -7.96300 35.33500 42.33400
O  -6.99400 34.14700 40.65000
C  -5.83600 33.85700 41.43900
H  -9.41500 41.68500 39.86700
H  -15.57100 41.31400 42.00500
H  -15.13800 35.10900 42.68100
H  -7.52800 37.34800 39.73300
H  -8.28100 39.75300 38.28300
H  -7.78900 40.41100 41.12900
H  -6.71800 40.72400 39.71100
H  -6.52400 39.22200 40.52000
H  -8.23900 37.92700 36.95200
H  -9.51600 36.80000 37.55600
H  -8.01600 35.14400 37.04500
H  -7.09600 35.76700 38.34200
H  -10.95900 44.65500 41.36200
H  -11.47100 44.51400 39.69600
H  -9.92100 43.79500 40.30200
H  -16.04400 43.30100 41.73700
H  -15.73900 44.79400 42.62900
H  -15.36900 43.33400 43.44600
H  -17.12100 39.24300 41.63800
H  -16.69200 37.10300 43.63500
H  -16.54900 40.33500 44.19700
H  -17.57900 38.88400 44.47900
H  -18.06900 40.26700 43.40300
H  -16.82400 36.41200 40.85900
H  -18.12300 37.44600 41.16800
H  -18.02300 35.08100 43.10200
H  -18.54500 34.85300 41.40300
H  -19.48300 35.79600 42.29500
H  -12.72900 33.05900 43.71400
H  -12.80100 32.16500 42.15300
H  -14.22300 33.14800 42.71900
H  -8.83600 34.55000 39.35700
H  -5.75500 34.44200 42.35500
H  -4.99900 33.93900 40.74500
H  -5.80300 32.79200 41.66900

