158

Mg -2.44200 17.20100 25.89100
C  -2.66600 14.86200 28.53900
C  -3.45700 19.59400 28.17200
C  -2.70300 19.46800 23.43000
C  -1.75800 14.78600 23.74900
N  -2.77300 17.17800 28.28600
C  -2.89200 16.10500 29.11000
C  -3.35300 16.51700 30.49100
C  -3.65700 18.08300 30.26300
C  -3.28200 18.30500 28.80300
C  -5.10300 18.44800 30.68100
C  -2.48200 16.07100 31.65700
C  -2.44400 16.99300 32.81700
H  -2.09600 16.30100 34.09900
N  -2.66500 19.28000 25.87900
C  -3.10300 20.09800 26.93400
C  -3.17000 21.54400 26.48500
C  -2.85200 21.48600 25.09700
C  -2.75000 20.09400 24.76600
C  -3.54700 22.73500 27.36400
C  -2.67200 22.62200 24.05700
O  -2.42000 22.44000 22.86100
C  -2.65900 23.97600 24.56100
N  -2.33300 17.16000 23.90500
C  -2.57100 18.16500 23.03200
C  -2.52900 17.73800 21.59400
C  -1.94100 16.26700 21.76800
C  -1.99600 16.01700 23.24500
C  -3.87900 17.72800 20.77000
C  -0.54800 16.09100 21.02500
C  0.75200 16.15400 21.91700
N  -2.36500 15.20800 25.99800
C  -1.88900 14.38200 25.06400
C  -1.84900 13.02900 25.56300
C  -2.10800 13.19500 26.92900
C  -2.37400 14.55300 27.19300
C  -1.59800 11.74100 24.75500
C  -2.16000 12.45800 28.16400
O  -1.98000 11.30600 28.41800
C  -2.47500 13.55200 29.27700
C  -1.27700 13.57300 30.13300
O  -0.17600 13.99800 29.89800
O  -1.63900 13.06200 31.33800
C  -0.58300 12.88900 32.35400
H  -3.81400 20.31800 28.90700
H  -2.90100 20.15200 22.60200
H  -1.47900 14.07500 22.96800
H  -4.33400 16.04700 30.57100
H  -2.87700 18.69100 30.72200
H  -5.55200 17.85800 31.48000
H  -5.76400 18.40600 29.81500
H  -5.05100 19.49000 30.99900
H  -1.45000 15.93100 31.33700
H  -2.92100 15.10700 31.91700
H  -3.34900 17.60100 32.84500
H  -1.62000 17.68200 32.63100
H  -2.63400 23.32900 27.36900
H  -3.80900 22.43900 28.38000
H  -4.33900 23.31800 26.89400
H  -3.64900 24.26800 24.90800
H  -2.40400 24.69100 23.77900
H  -1.97500 23.98400 25.41000
H  -1.81600 18.37200 21.06700
H  -2.62200 15.58500 21.26000
H  -4.53900 18.32800 21.39600
H  -4.42400 16.80500 20.57300
H  -3.84300 18.42000 19.92800
H  -0.48400 16.99300 20.41500
H  -0.51700 15.22200 20.36800
H  1.48600 16.80100 21.43600
H  1.13500 15.18300 22.23200
H  0.63300 16.76400 22.81200
H  -1.00600 11.14900 25.45300
H  -1.09800 11.78000 23.78700
H  -2.57000 11.32900 24.48500
H  -3.34900 13.21200 29.83100
H  -0.78600 12.28500 33.23800
H  -0.33000 13.84100 32.82000
H  0.29900 12.48000 31.86200
Mg 1.65700 8.18400 25.97000
C  2.15200 10.26900 28.81400
C  2.09500 5.44800 28.23300
C  1.64400 6.09000 23.32200
C  1.52600 10.92000 23.97600
N  2.12700 7.90200 28.42400
C  2.21000 8.97200 29.28000
C  2.04200 8.38900 30.69200
C  2.24600 6.83800 30.47700
C  2.06300 6.66200 28.94100
C  3.70000 6.31600 30.92100
C  0.62500 8.66600 31.36900
C  0.62200 9.01900 32.85800
H  1.63000 8.53400 33.82100
N  1.81400 6.10900 25.80600
C  1.96500 5.18600 26.83000
C  2.13800 3.88600 26.25900
C  1.98700 4.00500 24.86800
C  1.80000 5.46600 24.60100
C  2.44500 2.64100 27.13900
C  2.01900 2.78700 23.89100
O  1.93800 3.02200 22.68800
C  2.07500 1.32900 24.22600
N  1.66400 8.49100 23.93800
C  1.54000 7.46200 23.02400
C  1.17500 7.99600 21.62700
C  1.18500 9.52800 21.78800
C  1.38700 9.71800 23.34500
C  2.05200 7.46400 20.45200
C  -0.07800 10.25400 21.28000
C  0.18000 11.45400 20.33500
N  1.84100 10.19900 26.28800
C  1.78000 11.21300 25.36200
C  2.01300 12.53600 26.01400
C  2.13400 12.16300 27.33500
C  2.11700 10.72900 27.47900
C  1.88200 13.93800 25.40600
C  2.32800 12.76300 28.70600
O  2.56000 13.92200 28.98100
C  2.13000 11.51200 29.67300
C  3.30900 11.62700 30.67200
O  4.49400 11.32300 30.44100
O  2.87900 12.03400 31.86900
C  3.99900 12.14900 32.86000
H  2.17800 4.63800 28.96100
H  1.44100 5.49200 22.43200
H  1.50400 11.82800 23.37000
H  2.83300 8.80000 31.31900
H  1.54200 6.30200 31.11400
H  4.47200 7.07900 31.02600
H  4.14000 5.74000 30.10700
H  3.84100 5.60300 31.73400
H  -0.01800 7.78800 31.31100
H  0.14000 9.41000 30.73700
H  -0.24000 8.53400 33.31700
H  0.45200 10.07800 33.05400
H  3.00000 1.88900 26.57800
H  1.47000 2.26500 27.45000
H  3.12700 2.98900 27.91400
H  3.09000 1.28700 24.62000
H  2.02800 0.67400 23.35600
H  1.34000 0.88900 24.90000
H  0.18000 7.58200 21.46300
H  2.08200 9.98200 21.36700
H  1.66400 6.49200 20.14600
H  3.08100 7.38000 20.80000
H  2.09400 8.12000 19.58300
H  -0.78700 10.52800 22.06100
H  -0.58500 9.52800 20.64400
H  0.00700 11.01900 19.35000
H  1.19200 11.85000 20.42000
H  -0.56200 12.22700 20.53200
H  1.01300 14.42400 25.84900
H  1.67700 13.74200 24.35300
H  2.81500 14.48000 25.55500
H  1.11700 11.53200 30.07400
H  4.79200 12.82600 32.54400
H  4.39700 11.14700 33.02400
H  3.72800 12.49500 33.85800

