158

Mg -2.13800 18.18900 27.39400
C  -2.58100 15.81900 30.09400
C  -2.99400 20.63300 29.63800
C  -2.06600 20.16400 24.83100
C  -2.22100 15.46100 25.17900
N  -2.68600 18.24600 29.66600
C  -2.73200 17.20000 30.57700
C  -2.98600 17.64800 32.06900
C  -3.32200 19.15500 31.79800
C  -2.98600 19.40800 30.27400
C  -4.78300 19.53100 32.22800
C  -1.75200 17.37400 32.94500
C  -1.56200 18.28100 34.18800
H  -1.12700 17.65300 35.51900
N  -2.39100 20.08700 27.29900
C  -2.66600 21.01700 28.34400
C  -2.71600 22.39100 27.80300
C  -2.41500 22.20600 26.39100
C  -2.28700 20.81200 26.11600
C  -2.91900 23.62800 28.64400
C  -2.26200 23.30400 25.38400
O  -1.91900 23.09800 24.20300
C  -2.35000 24.69700 25.88200
N  -2.36700 17.91700 25.24000
C  -2.00500 18.90900 24.39400
C  -1.95700 18.38700 22.84900
C  -1.62900 16.85900 23.19200
C  -2.10100 16.72600 24.59800
C  -3.30100 18.55100 22.07400
C  -0.10600 16.43300 23.01700
C  0.96400 16.89100 24.12600
N  -2.27300 16.07400 27.52500
C  -2.32000 15.15500 26.56400
C  -2.43600 13.86000 27.17000
C  -2.36000 14.10100 28.58000
C  -2.40900 15.44000 28.70500
C  -2.64300 12.58600 26.46400
C  -2.45800 13.38800 29.86200
O  -2.36200 12.23500 30.16800
C  -2.64800 14.48300 30.90100
C  -1.52600 14.29300 31.82600
O  -0.35800 14.64700 31.60400
O  -2.03500 13.79800 33.00800
C  -1.04100 13.45200 33.91100
H  -3.27200 21.43400 30.32700
H  -1.74700 20.80100 24.00400
H  -2.13700 14.63400 24.47000
H  -3.89200 17.15200 32.41700
H  -2.69300 19.90300 32.28100
H  -5.20500 18.68400 32.76800
H  -5.27600 19.77500 31.28700
H  -4.57500 20.40400 32.84700
H  -0.76400 17.41500 32.48800
H  -1.88000 16.36800 33.34400
H  -2.52200 18.77200 34.34700
H  -0.80200 19.01800 33.92700
H  -3.99600 23.77900 28.57400
H  -2.30700 24.49800 28.40300
H  -2.83600 23.42400 29.71100
H  -2.20700 25.41300 25.07300
H  -1.55200 25.05600 26.53100
H  -3.34400 24.75600 26.32600
H  -1.08000 18.78100 22.33300
H  -2.23500 16.08900 22.71400
H  -3.92900 19.25200 22.62400
H  -3.86200 17.62600 21.94000
H  -3.16800 19.08400 21.13300
H  0.12500 16.62600 21.96900
H  -0.05900 15.34400 22.99900
H  1.77100 16.17800 24.29600
H  0.43900 17.16000 25.04300
H  1.41700 17.81000 23.75400
H  -3.53700 12.02600 26.73900
H  -1.72300 12.01900 26.60600
H  -2.70800 12.67100 25.37900
H  -3.60800 14.46100 31.41700
H  -0.55500 12.58900 33.45500
H  -1.61200 13.23100 34.81300
H  -0.41900 14.33200 34.07700
Mg 26.84000 49.15700 26.31500
C  25.08000 50.98600 28.82400
C  28.88400 47.96300 28.74700
C  28.91500 48.28700 23.90000
C  24.97300 50.87600 24.06400
N  26.85100 49.28700 28.60600
C  25.98700 50.05800 29.35500
C  26.21600 49.78200 30.89500
C  27.64200 49.00100 30.81600
C  27.80600 48.71900 29.34400
C  28.86500 49.84500 31.37900
C  25.01600 49.03000 31.40800
C  24.54100 49.52500 32.83700
H  24.21600 48.52100 33.96000
N  28.57500 48.15500 26.38500
C  29.22600 47.64400 27.45100
C  30.44100 46.95800 27.01500
C  30.49900 47.18000 25.58100
C  29.28600 47.92900 25.21700
C  31.38900 46.27900 27.91400
C  31.64400 46.72700 24.68900
O  31.60500 47.02100 23.49500
C  32.87100 45.93900 25.26600
N  26.98600 49.69900 24.24100
C  27.82100 48.97300 23.41500
C  27.46900 49.15300 21.89500
C  26.03700 49.92000 22.02000
C  25.92800 50.07800 23.52900
C  28.46600 49.78300 20.90300
C  24.79400 49.16200 21.45900
C  24.33500 47.88600 22.23800
N  25.25000 50.64900 26.36600
C  24.64000 51.25200 25.33900
C  23.55500 52.13500 25.86700
C  23.70300 52.00000 27.22800
C  24.81100 51.17500 27.43900
C  22.64800 52.93000 24.95600
C  23.15200 52.46400 28.55600
O  22.14400 53.16600 28.92800
C  24.03500 51.83800 29.62100
C  24.56600 52.89400 30.55300
O  25.24100 53.86800 30.27900
O  23.83600 52.79100 31.74000
C  23.70500 53.87000 32.74700
H  29.54400 47.50300 29.48600
H  29.61200 47.82300 23.19900
H  24.39900 51.36000 23.27000
H  26.36700 50.64800 31.54000
H  27.74500 48.06100 31.35900
H  28.55200 50.81300 31.77000
H  29.58300 50.04200 30.58400
H  29.31200 49.19500 32.13200
H  25.31100 47.99200 31.55900
H  24.21300 49.06800 30.67200
H  23.53700 49.90700 32.65100
H  25.22300 50.27600 33.23400
H  31.46300 45.25500 27.55000
H  30.95300 46.28900 28.91300
H  32.31300 46.82700 28.10300
H  33.43000 46.53000 25.99000
H  33.52100 45.72200 24.41800
H  32.40900 45.06800 25.73000
H  27.39500 48.13500 21.51300
H  26.20200 50.89700 21.56700
H  29.26700 50.30000 21.43100
H  27.86400 50.57200 20.45400
H  28.83800 49.08500 20.15200
H  24.99700 48.85400 20.43300
H  23.90200 49.78000 21.35100
H  24.56100 47.08400 21.53600
H  23.25100 47.98700 22.28500
H  24.96000 47.68500 23.10900
H  21.98600 53.46500 25.63700
H  22.00000 52.25800 24.39300
H  23.24100 53.57500 24.30700
H  23.54300 51.04900 30.19000
H  24.19600 53.44100 33.62000
H  22.68700 54.08200 33.07600
H  24.22900 54.74200 32.35600

