158

Mg 47.57000 34.20100 27.08800
C  45.68300 32.54700 29.63000
C  48.04700 36.77500 29.16600
C  48.97000 35.83900 24.50600
C  46.98000 31.44200 25.10100
N  46.97000 34.55900 29.17500
C  46.25200 33.76900 30.05400
C  46.27800 34.38500 31.49500
C  46.70300 35.87300 31.21800
C  47.32400 35.69500 29.75800
C  45.42500 36.76600 31.37600
C  47.26700 33.71000 32.52300
C  46.84900 33.48800 33.93300
H  46.39900 34.69900 34.81500
N  48.33100 36.03600 26.85700
C  48.55600 36.98500 27.87000
C  49.10400 38.18500 27.29900
C  49.40600 38.00500 25.88700
C  48.89200 36.58800 25.65100
C  49.34300 39.48300 28.12300
C  50.18500 38.81900 24.89300
O  50.35700 38.52200 23.74200
C  50.71700 40.18300 25.34000
N  47.94900 33.69900 25.11800
C  48.51600 34.54000 24.25200
C  48.75400 33.80800 22.82000
C  48.23800 32.37900 23.14400
C  47.71800 32.48700 24.58000
C  48.10400 34.43500 21.55600
C  49.40200 31.27800 22.99000
C  49.05000 30.07500 22.13200
N  46.41700 32.47300 27.16100
C  46.21200 31.45000 26.28500
C  45.28400 30.48200 26.72600
C  45.04600 30.84300 28.11100
C  45.86600 32.04000 28.35900
C  44.77200 29.28600 25.91100
C  44.36500 30.47500 29.30300
O  43.54300 29.54400 29.52800
C  44.66600 31.65100 30.34500
C  45.28500 30.98700 31.53200
O  46.32700 30.36900 31.52300
O  44.41000 31.02500 32.52900
C  44.80200 30.17700 33.63100
H  48.08900 37.65500 29.81100
H  49.44800 36.24500 23.61200
H  46.80700 30.69100 24.32800
H  45.26800 34.36800 31.90400
H  47.45700 36.30500 31.87700
H  45.64700 37.54100 32.10900
H  44.65000 36.16100 31.84700
H  45.05200 37.14300 30.42300
H  48.23300 34.18300 32.70100
H  47.63800 32.77800 32.09700
H  47.79500 33.12600 34.33500
H  46.03200 32.79500 34.13600
H  48.80000 40.26200 27.58800
H  50.41700 39.60800 28.26600
H  48.68300 39.42700 28.98700
H  51.37200 40.06500 26.20300
H  49.76800 40.67500 25.55200
H  51.28200 40.62400 24.51900
H  49.83100 33.80000 22.65000
H  47.42400 32.20900 22.43900
H  48.83900 35.11000 21.11800
H  47.29200 35.05300 21.93900
H  47.63100 33.74400 20.85800
H  49.49400 30.89700 24.00700
H  50.37400 31.66200 22.68000
H  48.13200 30.34000 21.60600
H  48.78300 29.17200 22.68100
H  49.73000 29.81900 21.31900
H  44.07100 29.70300 25.18800
H  44.26500 28.51600 26.49200
H  45.61000 28.78600 25.42400
H  43.75000 32.12300 30.70000
H  44.92900 29.12600 33.37300
H  43.91000 30.21600 34.25600
H  45.58300 30.43400 34.34700
Mg -5.23100 25.48000 25.10600
C  -3.66500 26.91100 28.02700
C  -6.66600 23.27000 27.14400
C  -6.49600 24.31700 22.30900
C  -3.02300 27.65600 23.23100
N  -5.05900 25.08500 27.28900
C  -4.41900 25.78400 28.31600
C  -4.95100 25.34000 29.68600
C  -5.87400 24.15300 29.36000
C  -5.74400 24.05900 27.84400
C  -5.47300 22.76900 29.95100
C  -5.68900 26.55700 30.33200
C  -5.73500 26.53500 31.87100
H  -5.17000 25.30600 32.56500
N  -6.46800 24.05300 24.79500
C  -7.04000 23.25700 25.73900
C  -8.05200 22.53100 25.17500
C  -8.09300 22.81800 23.77200
C  -6.98700 23.76300 23.58900
C  -8.87900 21.60700 25.95900
C  -9.09400 22.37300 22.71400
O  -8.96300 22.61700 21.53800
C  -10.41500 21.73400 23.10000
N  -4.79100 25.94400 23.16400
C  -5.41100 25.24800 22.17600
C  -4.83000 25.58800 20.75700
C  -4.17300 26.95700 21.10600
C  -3.86300 26.80100 22.59000
C  -3.83000 24.46100 20.21500
C  -4.96900 28.22000 20.92600
C  -4.18500 29.42600 20.39900
N  -3.73700 27.06900 25.51300
C  -2.84900 27.74000 24.62100
C  -1.93300 28.66300 25.37500
C  -2.17900 28.28900 26.72100
C  -3.35900 27.41400 26.76900
C  -0.97400 29.63200 24.72600
C  -1.85300 28.49800 28.10100
O  -0.97200 29.26200 28.56000
C  -2.73600 27.68100 29.02000
C  -1.96000 26.77600 29.91000
O  -1.52800 25.64100 29.61300
O  -1.81300 27.45400 31.12200
C  -0.81900 26.91000 31.99800
H  -7.11800 22.57500 27.85500
H  -6.93700 23.75700 21.48200
H  -2.39300 28.35600 22.67800
H  -4.05800 25.00900 30.21700
H  -6.83600 24.48900 29.74700
H  -4.59800 22.85100 30.59500
H  -5.31500 22.00400 29.19100
H  -6.34900 22.45700 30.52100
H  -6.68600 26.63000 29.89600
H  -5.26200 27.51500 30.03400
H  -6.78100 26.60600 32.16800
H  -5.39600 27.49200 32.26700
H  -8.82600 20.59900 25.54700
H  -9.83100 22.13300 25.89500
H  -8.59100 21.60600 27.01000
H  -10.20600 20.68900 23.32600
H  -11.05400 21.76700 22.21700
H  -10.88600 22.23000 23.94900
H  -5.66100 25.71100 20.06300
H  -3.23300 27.11900 20.57800
H  -3.32600 24.00300 21.06600
H  -3.03300 24.96300 19.66700
H  -4.45200 23.77800 19.63700
H  -5.26000 28.59000 21.90900
H  -5.94200 28.17400 20.43700
H  -3.35100 29.13000 19.76200
H  -3.89500 30.06300 21.23400
H  -4.91600 30.05700 19.89300
H  -1.42800 30.61600 24.84300
H  -0.84200 29.49400 23.65300
H  0.01200 29.65400 25.19100
H  -3.24900 28.39100 29.66900
H  -1.31400 26.35000 32.79100
H  -0.11500 27.65300 32.37500
H  -0.20900 26.17600 31.47200

