158

Mg 7.76200 52.99600 41.60600
C  6.94800 49.59200 41.35800
C  10.70000 52.21400 40.01100
C  8.25100 56.17100 41.15800
C  4.60000 53.54400 42.92900
N  8.68000 51.14500 40.75600
C  8.13600 49.88100 40.78400
C  9.06900 48.86600 40.12600
C  10.38500 49.68600 40.18400
C  9.93600 51.10700 40.30300
C  11.42200 49.15800 41.13900
C  8.59700 48.48200 38.68100
C  9.13700 49.32200 37.44200
H  8.14200 49.68800 36.41800
N  9.26100 54.11200 40.63400
C  10.38800 53.61900 40.00500
C  11.21100 54.71800 39.61800
C  10.48400 55.87800 39.83200
C  9.28300 55.40800 40.56800
C  12.50400 54.60000 39.03000
C  10.87400 57.22700 39.33600
O  11.95600 57.33100 38.71400
C  9.94800 58.39500 39.36800
N  6.59200 54.62900 42.05700
C  7.01800 55.84500 41.78500
C  6.14000 56.92400 42.47100
C  4.90800 56.06100 42.93700
C  5.39500 54.64000 42.65500
C  6.75900 57.82500 43.55600
C  3.62800 56.25300 42.19400
C  3.56600 56.02500 40.62300
N  6.09400 51.80100 42.31500
C  4.84900 52.16200 42.81900
C  3.98200 50.98200 43.02300
C  4.81200 49.99500 42.45300
C  6.05400 50.52400 42.03000
C  2.49900 50.96300 43.31300
C  4.95500 48.51500 42.24600
O  4.29000 47.54600 42.57300
C  6.24700 48.21900 41.49300
C  5.84900 47.49600 40.21400
O  4.96600 47.97900 39.47800
O  6.41100 46.29000 40.01100
C  6.10900 45.61400 38.79000
H  11.67000 52.01600 39.55000
H  8.45200 57.24500 41.13500
H  3.62300 53.80100 43.34200
H  9.12200 48.10500 40.90400
H  10.85700 49.42800 39.23600
H  12.34000 48.96900 40.58200
H  11.05800 48.33900 41.75900
H  11.72500 49.90900 41.86900
H  7.53100 48.67000 38.54800
H  8.70500 47.41300 38.49800
H  9.66600 48.48500 36.98600
H  9.74900 50.17700 37.72900
H  12.91000 53.60300 39.20200
H  13.27100 55.17900 39.54400
H  12.48900 54.72800 37.94800
H  9.84100 58.80700 40.37100
H  8.96800 58.08200 39.00900
H  10.17600 59.22500 38.69900
H  5.92400 57.48400 41.56100
H  4.84900 56.26500 44.00600
H  6.76300 58.87200 43.25200
H  7.78200 57.59200 43.85000
H  6.18700 57.84000 44.48400
H  3.43700 57.32500 42.25100
H  2.81100 55.69000 42.64700
H  4.30200 55.32300 40.23100
H  3.43500 56.97000 40.09600
H  2.65100 55.51800 40.31800
H  2.08400 51.97000 43.34400
H  2.32600 50.39100 44.22400
H  2.08700 50.36100 42.50200
H  6.84100 47.48300 42.03400
H  6.83100 44.82900 38.56800
H  6.19400 46.28800 37.93700
H  5.14500 45.10900 38.72800
Mg 17.34500 51.14700 26.56600
C  19.42800 49.83600 29.13000
C  15.12100 52.13100 29.00800
C  15.47100 52.37600 24.18600
C  19.61300 49.92100 24.20600
N  17.27600 51.00900 28.85400
C  18.24800 50.44000 29.62100
C  17.74900 50.53000 31.10400
C  16.23100 50.90300 30.97300
C  16.19100 51.41500 29.53600
C  15.17800 49.80400 31.28200
C  18.63000 51.39900 32.02900
C  18.68900 50.95300 33.51500
H  17.82100 51.50700 34.61500
N  15.58000 52.14400 26.59000
C  14.79300 52.51900 27.67000
C  13.73700 53.48500 27.20600
C  13.73800 53.31600 25.78000
C  14.92300 52.57300 25.44200
C  12.79500 54.07700 28.16500
C  12.78300 53.91600 24.76900
O  12.85100 53.68500 23.58400
C  11.66800 54.68200 25.30100
N  17.47100 51.03800 24.48400
C  16.63800 51.73100 23.74600
C  16.94900 51.74400 22.26300
C  18.46300 51.25500 22.34100
C  18.53300 50.71800 23.71100
C  15.93900 50.90100 21.39000
C  19.46900 52.32400 21.95000
C  20.29300 51.93600 20.70200
N  19.04100 49.94700 26.58100
C  19.88100 49.57200 25.51900
C  21.02400 48.90800 26.06200
C  20.89900 49.00800 27.47500
C  19.66900 49.68000 27.76000
C  22.19200 48.37500 25.17900
C  21.51600 48.63300 28.73800
O  22.59300 48.14700 29.02000
C  20.50900 49.11300 29.82500
C  20.07500 47.86100 30.58200
O  19.16600 47.10300 30.21900
O  20.74500 47.77800 31.74100
C  20.07800 46.91000 32.76700
H  14.48200 52.53000 29.79800
H  14.86200 52.71600 23.34600
H  20.31700 49.63000 23.42300
H  17.74800 49.50100 31.46300
H  16.08000 51.77200 31.61400
H  14.68900 50.08900 32.21300
H  15.64900 48.83200 31.13600
H  14.44600 49.66900 30.48500
H  18.15700 52.38000 32.07200
H  19.65600 51.57000 31.70300
H  19.72200 51.16700 33.78700
H  18.60900 49.86600 33.53600
H  13.23800 54.06500 29.16100
H  11.87000 53.50100 28.19900
H  12.59600 55.14600 28.09600
H  12.00700 55.55900 25.85300
H  11.09300 54.00400 25.93300
H  11.09700 55.04600 24.44700
H  16.94100 52.78400 21.93600
H  18.55400 50.36800 21.71500
H  15.64900 51.48400 20.51600
H  15.09900 50.47700 21.94100
H  16.46700 50.08800 20.89200
H  20.20100 52.44500 22.74800
H  18.99600 53.30500 21.89100
H  20.29200 52.75300 19.98100
H  19.89300 51.13300 20.08300
H  21.35500 51.80000 20.90700
H  21.74700 47.67400 24.47300
H  22.96500 47.92200 25.80000
H  22.58100 49.25000 24.65900
H  21.01300 49.64300 30.63300
H  20.78700 46.23000 33.24000
H  19.22600 46.29500 32.47600
H  19.75200 47.47000 33.64400

