158

Mg 7.35900 1.77700 27.75300
C  9.28200 0.60900 30.58200
C  5.81300 4.06000 29.75600
C  5.82800 2.90300 25.04700
C  8.84000 -0.77700 25.95800
N  7.40200 2.04500 30.05800
C  8.32400 1.57900 30.96600
C  8.21200 2.46400 32.25700
C  6.92200 3.35200 32.00800
C  6.65600 3.10000 30.51600
C  5.76800 2.98700 33.01100
C  9.54200 3.25600 32.48000
C  9.53800 4.17000 33.73800
H  10.42000 3.75800 34.90400
N  6.04700 3.27000 27.40400
C  5.50800 4.13200 28.33000
C  4.61300 5.10000 27.65700
C  4.73700 4.87700 26.31400
C  5.57400 3.62700 26.19100
C  3.72300 6.11700 28.40300
C  4.16900 5.71000 25.16500
O  4.46800 5.45300 23.98100
C  3.23300 6.77800 25.34400
N  7.48900 1.25700 25.67200
C  6.60100 1.74900 24.83300
C  6.66900 1.05000 23.49700
C  7.67300 -0.05200 23.77200
C  8.08300 0.14300 25.20100
C  5.35300 0.56200 23.00900
C  8.76200 -0.25500 22.76900
C  8.62100 -1.59000 22.11100
N  8.84200 0.24900 28.05500
C  9.37400 -0.71300 27.24300
C  10.42500 -1.48700 27.93300
C  10.47000 -0.90400 29.20800
C  9.42300 0.05000 29.29400
C  11.27200 -2.58300 27.29700
C  11.05100 -1.06200 30.50800
O  11.94700 -1.79500 30.92000
C  10.36600 -0.07200 31.38600
C  9.83600 -0.62600 32.63800
O  8.97400 -1.46700 32.78300
O  10.50800 -0.00900 33.67600
C  10.14800 -0.54000 35.05400
H  5.31600 4.84500 30.33000
H  5.36800 3.33600 24.15600
H  9.34500 -1.55300 25.38000
H  8.12600 1.78600 33.10600
H  7.18800 4.39500 32.17900
H  6.05400 2.11000 33.59100
H  4.97400 2.78700 32.29100
H  5.59100 3.85400 33.64800
H  9.95800 3.64100 31.54800
H  10.28300 2.50500 32.75500
H  8.52200 4.04300 34.11200
H  9.71700 5.22100 33.50800
H  3.82300 7.16800 28.13200
H  3.84600 5.96900 29.47600
H  2.81100 5.65800 28.02000
H  2.43300 6.24200 25.85500
H  2.78200 6.93300 24.36400
H  3.61500 7.70300 25.77600
H  7.00100 1.73400 22.71700
H  7.14800 -1.00500 23.83500
H  4.42000 0.72400 23.54900
H  5.40800 -0.52600 23.04400
H  5.32500 0.81000 21.94800
H  9.79700 -0.13000 23.08600
H  8.64300 0.57400 22.07100
H  7.76400 -1.77400 21.46300
H  8.74000 -2.32800 22.90400
H  9.47800 -1.74100 21.45500
H  11.84100 -2.09000 26.50900
H  10.75000 -3.36400 26.74400
H  11.94100 -3.05900 28.01300
H  11.12900 0.69400 31.52400
H  10.45500 -1.57900 35.17400
H  9.11800 -0.50400 35.40900
H  10.79700 0.04300 35.70800
Mg 25.08500 1.02700 29.18300
C  27.32100 0.41400 31.79700
C  22.55400 1.50100 31.53700
C  22.90100 0.92000 26.73600
C  27.63700 0.04300 26.92400
N  25.02800 1.19900 31.43000
C  26.07000 0.87500 32.30700
C  25.64300 1.21800 33.75400
C  24.08600 1.37500 33.67200
C  23.85100 1.41600 32.09000
C  23.30000 0.22100 34.29300
C  26.36400 2.46200 34.15200
C  27.28600 2.40100 35.35100
H  26.99900 3.47000 36.57100
N  23.04000 1.33500 29.13200
C  22.18700 1.53900 30.17500
C  20.86200 1.63000 29.62100
C  20.91200 1.35800 28.19600
C  22.29900 1.21400 27.94600
C  19.63800 1.72400 30.50200
C  19.73900 1.15600 27.20500
O  19.95800 0.78700 26.01300
C  18.32100 1.43000 27.62600
N  25.23400 0.56900 27.10900
C  24.20500 0.77800 26.29400
C  24.52700 0.52100 24.73000
C  26.08300 0.34000 24.83900
C  26.33800 0.37400 26.37200
C  23.74200 -0.61000 24.00400
C  26.92400 1.44700 24.11300
C  27.80900 1.00500 22.93300
N  27.08300 0.39500 29.31100
C  27.99000 0.02100 28.30500
C  29.27200 -0.42800 28.89500
C  29.07700 -0.16400 30.29800
C  27.75000 0.28900 30.45300
C  30.47700 -0.91800 28.23500
C  29.70000 -0.20700 31.56400
O  30.82800 -0.44400 31.90900
C  28.64100 0.27800 32.57900
C  28.49800 -0.75900 33.60600
O  28.03000 -1.88800 33.41000
O  29.00700 -0.31000 34.83900
C  29.03500 -1.38300 35.76800
H  21.74800 1.69200 32.24800
H  22.22600 1.01100 25.88200
H  28.49900 -0.10500 26.27100
H  25.86400 0.54600 34.58400
H  23.69200 2.27300 34.14700
H  22.65300 -0.30000 33.58800
H  22.76500 0.57500 35.17500
H  23.97800 -0.58400 34.57500
H  25.61400 3.23800 34.30500
H  26.94100 2.82200 33.30100
H  28.33800 2.54400 35.10100
H  27.16700 1.54200 36.01100
H  19.88800 1.56500 31.55100
H  18.88200 0.99900 30.20100
H  19.25800 2.74600 30.49400
H  17.73800 1.53700 26.71100
H  18.34700 2.39800 28.12700
H  18.04500 0.58600 28.25800
H  24.29200 1.48600 24.28200
H  26.47500 -0.60700 24.46600
H  23.01300 -1.04000 24.69100
H  24.43400 -1.34300 23.58900
H  23.14900 -0.22300 23.17600
H  27.53600 2.06900 24.76600
H  26.35800 2.17100 23.52700
H  27.54100 1.35000 21.93400
H  27.81000 -0.08200 22.84100
H  28.85500 1.26500 23.09500
H  30.58000 -0.63700 27.18700
H  30.49500 -2.00400 28.33200
H  31.32700 -0.50700 28.78000
H  28.91100 1.22000 33.05600
H  28.01500 -1.33500 36.15000
H  29.67300 -1.12700 36.61400
H  29.36300 -2.30300 35.28400

