158

Mg 7.34700 1.62300 27.49600
C  8.75800 0.16300 30.59600
C  5.51200 3.54300 29.56100
C  5.72700 2.42100 24.91400
C  9.08300 -1.02500 25.90800
N  7.25600 1.77400 29.83500
C  7.92600 1.24800 30.86500
C  7.58600 1.86400 32.22900
C  6.47400 2.88000 31.79600
C  6.35700 2.72900 30.30800
C  5.11100 2.65500 32.45700
C  8.82100 2.60000 32.94300
C  8.48900 3.03400 34.42100
H  9.45300 2.54800 35.50200
N  5.89500 2.96800 27.20400
C  5.23200 3.67000 28.18100
C  4.24700 4.53700 27.51000
C  4.34800 4.26500 26.12700
C  5.29200 3.13900 26.02000
C  3.31200 5.58100 28.21500
C  3.57700 4.86600 24.99200
O  3.73200 4.45300 23.82400
C  2.57200 5.93100 25.28100
N  7.17600 0.62200 25.70700
C  6.57800 1.35700 24.72800
C  6.94100 0.65200 23.37400
C  8.09200 -0.31700 23.69200
C  8.20200 -0.21200 25.19500
C  5.74900 -0.10600 22.76600
C  9.48100 -0.05100 23.02900
C  10.43000 0.99500 23.71000
N  8.70700 -0.10100 28.01500
C  9.28800 -1.05800 27.25400
C  10.09300 -1.96900 28.10200
C  9.90700 -1.47700 29.43800
C  9.00600 -0.39500 29.27400
C  10.92900 -3.13600 27.53800
C  10.29000 -1.65100 30.80600
O  11.07800 -2.43100 31.32100
C  9.54700 -0.59100 31.58500
C  8.77100 -1.25700 32.69300
O  7.68700 -1.87200 32.63000
O  9.44500 -1.08900 33.91300
C  9.13800 -1.75900 35.15000
H  4.89800 4.23100 30.14600
H  5.21900 2.75900 24.00900
H  9.46600 -1.80100 25.24200
H  7.16500 1.07300 32.84900
H  6.81600 3.90900 31.90300
H  5.38200 2.20100 33.41000
H  4.51300 2.00600 31.81600
H  4.44600 3.51600 32.52700
H  9.02000 3.46600 32.31200
H  9.76700 2.06300 32.87400
H  7.47400 2.64400 34.48400
H  8.39800 4.12000 34.38000
H  3.66800 5.60500 29.24500
H  2.27100 5.25900 28.22900
H  3.63100 6.55900 27.85500
H  3.06700 6.78800 25.73800
H  1.82500 5.47800 25.93200
H  2.15600 6.19800 24.30900
H  7.32200 1.36000 22.63800
H  7.75100 -1.30000 23.36800
H  4.93800 -0.09300 23.49400
H  5.93100 -1.10900 22.38000
H  5.40800 0.40900 21.86700
H  9.34400 0.27300 21.99800
H  9.98000 -1.01600 22.93700
H  9.90500 1.50700 24.51600
H  10.70900 1.79800 23.02800
H  11.37000 0.50600 23.96900
H  11.27200 -2.93500 26.52400
H  10.49900 -4.13700 27.54200
H  11.81600 -3.16000 28.17000
H  10.29400 -0.01800 32.13300
H  8.43600 -2.56200 34.92400
H  8.70700 -1.03600 35.84300
H  10.00800 -2.14400 35.68200
Mg 24.51300 0.98200 29.78500
C  26.40500 0.87100 32.72300
C  21.75700 0.88800 31.77200
C  22.69400 0.77400 26.91300
C  27.50400 0.66500 27.88300
N  24.13900 1.09000 32.07400
C  25.03800 0.99800 33.02700
C  24.42000 1.14900 34.35500
C  22.89000 0.86900 34.05900
C  22.90800 1.00100 32.54500
C  22.27400 -0.50200 34.45400
C  24.81400 2.50600 35.16200
C  25.37200 2.40900 36.52700
H  25.00700 3.45100 37.63700
N  22.51000 0.91100 29.42900
C  21.56800 0.81700 30.37600
C  20.28100 0.77200 29.72600
C  20.52000 0.64100 28.29800
C  21.97200 0.76700 28.17300
C  18.98400 0.71100 30.49500
C  19.55500 0.37100 27.23000
O  19.83200 0.31000 26.03900
C  18.06800 0.29700 27.51100
N  25.03900 0.58600 27.76200
C  24.05900 0.74500 26.74500
C  24.68700 0.91100 25.35700
C  26.22300 0.87700 25.54600
C  26.28800 0.76100 27.15400
C  24.11500 -0.18200 24.40300
C  26.86100 2.12900 24.87900
C  26.74000 3.48800 25.63700
N  26.48600 0.70600 30.11700
C  27.55100 0.57100 29.27700
C  28.79000 0.50400 30.09400
C  28.35900 0.63200 31.38200
C  26.95400 0.73700 31.38400
C  30.19100 0.30600 29.57500
C  28.81600 0.78200 32.82300
O  29.93900 0.73300 33.22400
C  27.53200 0.81000 33.75200
C  27.57800 -0.32800 34.66400
O  26.95500 -1.37300 34.54700
O  28.36700 0.07100 35.77900
C  28.32600 -0.84000 36.93400
H  20.90600 1.03000 32.44200
H  22.09000 0.78000 26.00300
H  28.48400 0.70800 27.40200
H  24.72800 0.36200 35.04300
H  22.30700 1.70200 34.45200
H  23.00600 -1.24600 34.76700
H  21.77800 -0.95600 33.59600
H  21.56800 -0.42800 35.28200
H  23.85000 3.01300 35.20000
H  25.40100 3.19700 34.55700
H  26.44600 2.30400 36.37600
H  25.20800 1.43000 36.97800
H  18.99200 0.97900 31.55200
H  18.50800 -0.27000 30.48300
H  18.25000 1.34000 29.99200
H  17.79600 -0.50700 28.19400
H  17.66800 0.00500 26.54000
H  17.76100 1.27800 27.87300
H  24.40800 1.90300 25.00300
H  26.51600 -0.03100 25.01900
H  23.84600 0.45900 23.56300
H  23.23200 -0.64000 24.84900
H  24.81600 -0.97400 24.14200
H  26.20700 2.24900 24.01500
H  27.86000 1.81800 24.57300
H  27.59300 4.05700 25.26800
H  26.87600 3.28900 26.70000
H  25.81500 4.00700 25.38700
H  30.33500 0.46500 28.50600
H  30.45600 -0.72400 29.81000
H  30.80000 1.07400 30.05400
H  27.53800 1.75400 34.29700
H  28.25300 -1.83800 36.50400
H  27.46200 -0.57600 37.54500
H  29.19100 -0.84400 37.59800

