158

Mg 42.32500 41.02700 26.07500
C  41.43500 43.47700 28.54300
C  43.53900 39.05000 28.54100
C  43.22500 39.05600 23.66900
C  41.44300 43.50200 23.74300
N  42.43600 41.20900 28.25500
C  41.99800 42.29400 29.05600
C  42.09500 41.92000 30.53300
C  42.81900 40.48000 30.55000
C  42.94700 40.21500 29.02200
C  44.17300 40.49200 31.34900
C  40.71200 41.78400 31.27900
C  40.81400 41.69900 32.84400
H  40.19200 42.88700 33.63900
N  43.14800 39.14700 26.11400
C  43.59700 38.47000 27.26700
C  44.10100 37.22100 26.78400
C  43.93100 37.17600 25.33700
C  43.39200 38.45700 24.94300
C  44.80100 36.26700 27.70000
C  44.20800 35.97100 24.36800
O  44.01500 36.07600 23.18600
C  44.69100 34.56500 24.88900
N  42.33600 41.34000 24.03900
C  42.70000 40.25500 23.28700
C  42.35500 40.47300 21.76800
C  41.55400 41.86200 21.85300
C  41.78800 42.28800 23.29000
C  43.61000 40.53400 20.79700
C  40.02900 41.66100 21.49200
C  39.15400 40.99500 22.51200
N  41.65100 43.11500 26.08400
C  41.38100 43.99900 25.03000
C  41.00400 45.28800 25.53000
C  40.94000 45.11300 26.93600
C  41.30700 43.75400 27.19200
C  40.67100 46.47300 24.77200
C  40.61300 45.78400 28.19400
O  40.15500 46.87800 28.41300
C  40.81900 44.70300 29.25100
C  41.69500 45.26900 30.35600
O  42.89600 45.27200 30.29500
O  41.09300 45.78600 31.42000
C  41.84700 46.36200 32.45500
H  43.86100 38.44000 29.38800
H  43.54700 38.43300 22.83200
H  41.25500 44.27900 22.99900
H  42.63500 42.69400 31.07900
H  42.13600 39.77000 31.01700
H  44.38800 39.71900 32.08700
H  44.16600 41.46000 31.85000
H  45.03500 40.43200 30.68500
H  40.22800 40.90900 30.84500
H  40.16300 42.67100 30.96400
H  41.86100 41.59500 33.12700
H  40.33300 40.76500 33.13500
H  44.65600 35.23900 27.36700
H  44.28300 36.36500 28.65400
H  45.84100 36.45900 27.96300
H  44.08500 34.18300 25.71000
H  45.75200 34.70600 25.09800
H  44.69700 33.91800 24.01200
H  41.74600 39.67300 21.34600
H  42.00400 42.55100 21.13700
H  44.46600 40.37700 21.45400
H  43.71600 41.49200 20.28900
H  43.52800 39.70700 20.09200
H  40.01900 41.12300 20.54400
H  39.54800 42.60900 21.25000
H  38.99900 39.97700 22.15600
H  38.18500 41.49200 22.56100
H  39.58300 40.92400 23.51100
H  40.07800 46.38100 23.86200
H  41.62800 46.91000 24.48500
H  40.19400 47.20600 25.42300
H  39.87200 44.41900 29.71000
H  42.72400 46.86000 32.04100
H  42.18400 45.57700 33.13200
H  41.17300 46.98900 33.04000
Mg 6.22500 54.00100 42.10000
C  5.29600 50.57100 41.68800
C  9.31200 53.27400 40.60600
C  6.78800 57.28500 41.75300
C  2.81800 54.63700 42.71200
N  7.08400 52.20800 41.22400
C  6.56500 50.92600 41.14600
C  7.58300 49.95900 40.45500
C  8.90800 50.73700 40.46100
C  8.42900 52.18600 40.78200
C  9.98400 50.17900 41.45200
C  7.21800 49.34300 39.04900
C  6.20800 50.21000 38.22200
H  6.48100 50.36400 36.70400
N  7.87400 55.15300 41.42100
C  9.09600 54.65000 40.92400
C  10.01900 55.73400 40.67900
C  9.32500 56.94100 41.13300
C  7.92900 56.54200 41.46800
C  11.36600 55.63500 40.06700
C  9.88700 58.34200 41.13300
O  11.11300 58.51600 40.95300
C  9.04100 59.52500 41.44900
N  4.96500 55.67700 41.94900
C  5.47900 56.93800 42.03500
C  4.39500 57.90700 42.52400
C  3.07300 57.08300 42.43800
C  3.65800 55.72600 42.40100
C  4.65500 58.43100 43.92900
C  2.21600 57.43200 41.19400
C  0.73100 57.81800 41.53200
N  4.39000 52.87100 42.34600
C  3.15100 53.28100 42.78000
C  2.30700 52.12000 42.99300
C  3.20300 51.04100 42.66600
C  4.35700 51.56800 42.17200
C  0.98700 52.06300 43.54600
C  3.33900 49.59900 42.66200
O  2.62700 48.73300 43.09500
C  4.71800 49.24900 42.00200
C  4.33600 48.42700 40.81200
O  3.67700 48.79800 39.85100
O  4.74900 47.16400 41.03200
C  4.30900 46.14200 40.06500
H  10.30000 53.04100 40.20300
H  6.95800 58.35400 41.89300
H  1.74900 54.77500 42.88700
H  7.69500 49.15700 41.18500
H  9.33000 50.84500 39.46200
H  9.57700 50.04300 42.45400
H  10.81100 50.88300 41.54600
H  10.30300 49.23100 41.01900
H  6.77300 48.35600 39.17700
H  8.11700 49.19600 38.45000
H  6.34100 51.25600 38.49800
H  5.22600 49.77900 38.41700
H  11.28500 55.28600 39.03700
H  11.91700 54.83500 40.56100
H  12.10300 56.43800 40.07800
H  8.26700 59.56600 40.68200
H  9.66400 60.40600 41.29700
H  8.61500 59.55700 42.45100
H  4.31800 58.79900 41.90200
H  2.55700 57.17800 43.39300
H  3.99200 57.99900 44.67900
H  4.52700 59.51000 44.01800
H  5.65700 58.10700 44.20900
H  2.05200 56.58600 40.52600
H  2.71100 58.16900 40.56200
H  0.47500 57.80800 42.59100
H  0.12700 57.09800 40.98100
H  0.47900 58.78100 41.08700
H  0.42200 51.20400 43.18400
H  0.44300 52.96800 43.27500
H  1.12700 52.00400 44.62500
H  5.27300 48.60700 42.68600
H  4.58300 45.21800 40.57300
H  4.89900 46.21400 39.15200
H  3.27200 46.21600 39.73700

