158

Mg 23.82200 -5.61900 44.96100
C  26.11900 -3.26200 43.28400
C  21.44700 -4.78400 42.55400
C  21.96600 -8.15200 45.96600
C  26.60700 -6.81200 46.67200
N  23.79700 -4.13900 43.13600
C  24.82700 -3.18800 42.76100
C  24.29400 -2.26800 41.66300
C  22.73500 -2.64400 41.67900
C  22.64400 -4.01800 42.36700
C  21.88900 -1.52300 42.27400
C  25.05200 -2.42200 40.34400
C  25.72500 -1.15600 39.76400
H  25.33000 -0.77400 38.35700
N  21.96800 -6.28400 44.47600
C  21.13800 -5.73500 43.51900
C  19.83500 -6.33300 43.64400
C  19.90400 -7.29900 44.68600
C  21.30800 -7.29200 45.07800
C  18.67100 -5.79600 42.83200
C  18.72600 -8.06100 45.24100
O  17.70700 -7.90100 44.60300
C  18.73900 -9.00300 46.36300
N  24.24300 -7.14700 46.27600
C  23.21700 -8.09700 46.49400
C  23.87100 -9.27200 47.25800
C  25.19200 -8.64100 47.82700
C  25.39900 -7.51700 46.84000
C  22.94900 -9.88000 48.34300
C  26.33100 -9.69000 47.82500
C  26.89900 -9.86100 49.26800
N  25.86200 -5.08900 45.10600
C  26.90100 -5.67700 45.85000
C  28.11800 -5.01000 45.62800
C  27.83100 -4.00100 44.65200
C  26.49400 -4.18700 44.24500
C  29.38300 -5.30700 46.38900
C  28.46200 -2.92500 43.98200
O  29.56600 -2.37300 44.06000
C  27.33600 -2.35600 43.08100
C  27.07800 -0.97000 43.50400
O  26.65700 -0.65500 44.57700
O  27.22900 -0.07500 42.42100
C  26.84200 1.27800 42.78100
H  20.62100 -4.47500 41.91000
H  21.35100 -9.03500 46.15300
H  27.51900 -7.11600 47.18900
H  24.50700 -1.26800 42.04000
H  22.27700 -2.92200 40.73000
H  22.32200 -0.52900 42.16600
H  21.62300 -1.69000 43.31800
H  20.99000 -1.61100 41.66500
H  24.35300 -2.71200 39.56000
H  25.71900 -3.28400 40.33300
H  26.80800 -1.15500 39.88500
H  25.38600 -0.24700 40.26100
H  18.99800 -5.85100 41.79400
H  18.39600 -4.75400 42.99400
H  17.75500 -6.38600 42.84400
H  19.28600 -8.53300 47.18000
H  19.22700 -9.93700 46.08300
H  17.71700 -9.18300 46.69600
H  24.09300 -10.10800 46.59500
H  24.94700 -8.10000 48.74200
H  22.88100 -10.84900 47.84800
H  21.93500 -9.49000 48.43800
H  23.47800 -9.94100 49.29400
H  27.26500 -9.56300 47.27800
H  25.89500 -10.64900 47.54400
H  27.98700 -9.83500 49.32000
H  26.56900 -10.83900 49.61900
H  26.41300 -9.08000 49.85300
H  29.98600 -5.98900 45.79000
H  29.07300 -5.76800 47.32700
H  29.96100 -4.39500 46.53600
H  27.77100 -2.29200 42.08400
H  25.80800 1.24500 43.12500
H  26.92300 1.90500 41.89300
H  27.40400 1.75400 43.58400
Mg -10.65300 16.92400 40.29100
C  -7.26800 16.67900 40.30300
C  -10.40100 20.40800 40.16100
C  -13.97300 17.14200 39.45200
C  -10.96200 13.43800 39.81500
N  -9.01500 18.35700 40.23400
C  -7.66800 18.03500 40.20600
C  -6.81900 19.27100 39.88500
C  -7.83800 20.40200 40.28100
C  -9.15400 19.71600 40.24800
C  -7.57100 21.15900 41.56800
C  -6.34700 19.35500 38.37600
C  -4.87400 19.19600 38.11900
H  -4.26500 18.11100 37.21300
N  -12.05500 18.62800 39.87800
C  -11.68400 19.93600 39.94500
C  -12.95800 20.71100 39.78900
C  -14.06900 19.77200 39.68100
C  -13.41100 18.46100 39.68700
C  -13.15400 22.17100 39.83700
C  -15.57800 20.12900 39.54500
O  -16.00700 21.25900 39.58500
C  -16.61500 19.04600 39.30500
N  -12.20500 15.48800 39.81000
C  -13.47100 15.86600 39.61500
C  -14.46900 14.68700 39.32400
C  -13.37600 13.53900 39.13200
C  -12.10600 14.15800 39.77000
C  -15.50400 14.43800 40.36500
C  -13.22200 13.16700 37.63800
C  -13.40800 11.74200 37.20000
N  -9.45500 15.36400 40.12400
C  -9.69500 13.99600 40.00400
C  -8.39200 13.29200 39.96300
C  -7.41900 14.32400 40.08300
C  -8.09700 15.56000 40.25200
C  -8.20700 11.86500 39.80200
C  -6.01400 14.61700 40.10900
O  -5.08000 13.79100 39.87900
C  -5.81000 16.15100 40.31600
C  -5.03300 16.35100 41.58200
O  -5.05600 15.65700 42.61900
O  -4.28500 17.51500 41.52700
C  -3.33800 17.79800 42.65800
H  -10.34900 21.49800 40.10600
H  -15.03200 17.14800 39.18500
H  -10.91000 12.34900 39.75300
H  -5.89000 19.40600 40.43900
H  -7.94700 21.15900 39.50500
H  -6.78100 20.72600 42.18200
H  -8.46000 21.05100 42.19000
H  -7.30500 22.16900 41.25800
H  -6.79300 20.17500 37.81400
H  -6.82600 18.50800 37.88500
H  -4.40200 19.14400 39.09900
H  -4.50600 20.16800 37.79100
H  -13.85800 22.60600 39.12700
H  -12.19500 22.67500 39.95800
H  -13.57600 22.31300 40.83200
H  -17.62900 19.43300 39.41300
H  -16.57900 18.30100 40.10000
H  -16.34300 18.51400 38.39400
H  -14.91300 15.00800 38.38200
H  -13.67100 12.68300 39.73900
H  -15.18500 14.58700 41.39700
H  -16.00300 13.48500 40.19100
H  -16.23300 15.23200 40.20300
H  -12.30800 13.59600 37.22800
H  -13.99300 13.68600 37.06900
H  -14.48100 11.60300 37.06400
H  -13.13100 11.08300 38.02300
H  -12.79300 11.48800 36.33700
H  -7.14200 11.64000 39.86400
H  -8.69400 11.67300 38.84600
H  -8.63400 11.30100 40.63100
H  -5.23200 16.53000 39.47400
H  -3.85200 17.82500 43.61900
H  -2.73400 18.69200 42.50400
H  -2.63500 16.96700 42.71200

