158

Mg 2.03300 -1.73300 44.23400
C  5.32400 -1.11000 43.38900
C  1.20200 1.03800 42.30900
C  -1.08300 -2.87100 43.92000
C  3.08300 -4.56700 45.92600
N  3.20900 -0.28100 42.82300
C  4.54400 -0.14500 42.79000
C  5.01800 1.03000 41.92000
C  3.67900 1.84100 41.77400
C  2.59800 0.85000 42.30500
C  3.69600 3.11000 42.66700
C  5.71800 0.60900 40.60700
C  6.81800 1.57600 40.06600
H  6.28900 2.50800 38.92200
N  0.24700 -0.90600 43.37500
C  0.14200 0.25900 42.72600
C  -1.28000 0.57800 42.49900
C  -1.98500 -0.65300 42.87800
C  -0.93900 -1.57900 43.34600
C  -1.73600 1.89200 42.10800
C  -3.52100 -0.75100 42.94100
O  -4.19800 0.18000 42.58500
C  -4.27700 -1.90200 43.56200
N  1.07500 -3.36500 44.93400
C  -0.19600 -3.71500 44.58200
C  -0.50600 -5.16300 44.98700
C  0.88700 -5.75400 45.37600
C  1.73000 -4.43500 45.52400
C  -1.59600 -5.29400 46.02800
C  1.27200 -6.98400 44.54100
C  1.53100 -8.22800 45.42400
N  3.76700 -2.59600 44.69000
C  4.08300 -3.70700 45.42900
C  5.53100 -3.90300 45.53900
C  6.02600 -2.85600 44.81100
C  4.91900 -2.15500 44.20900
C  6.22100 -5.02700 46.34200
C  7.26200 -2.17900 44.40200
O  8.41400 -2.42600 44.69800
C  6.86200 -1.00000 43.51100
C  7.37700 0.22000 44.11900
O  6.97500 0.61700 45.23100
O  8.25400 0.90600 43.28300
C  8.37000 2.32600 43.46200
H  0.83700 1.94900 41.82900
H  -2.03400 -3.36200 43.70500
H  3.31400 -5.56500 46.30300
H  5.73200 1.66300 42.44600
H  3.34300 1.95900 40.74400
H  3.02900 3.05800 43.52700
H  3.28700 3.86500 41.99600
H  4.64200 3.39700 43.12700
H  4.98000 0.54400 39.80800
H  6.19500 -0.36600 40.71200
H  7.69100 1.05700 39.67100
H  7.25800 2.30600 40.74600
H  -1.12300 2.21600 41.26700
H  -1.55200 2.55300 42.95500
H  -2.79600 1.92700 41.85400
H  -5.25400 -1.64800 43.97200
H  -3.79200 -2.26400 44.46900
H  -4.36400 -2.69400 42.81800
H  -0.86300 -5.63000 44.06900
H  0.73900 -6.05400 46.41300
H  -2.15100 -4.35500 46.04000
H  -1.10400 -5.39000 46.99600
H  -2.31800 -6.11000 46.00900
H  2.15800 -6.64700 44.00400
H  0.52300 -7.36700 43.84800
H  2.55200 -8.57800 45.26900
H  0.83500 -9.01900 45.14200
H  1.50700 -8.09100 46.50500
H  5.56400 -5.68500 46.91000
H  6.88100 -4.43400 46.97500
H  6.74700 -5.65400 45.62100
H  7.33600 -1.12700 42.53800
H  7.71400 2.85200 42.76800
H  9.37800 2.68200 43.24700
H  8.12000 2.57900 44.49300
Mg 17.28500 -1.18000 28.61100
C  15.78400 0.87200 31.06300
C  19.06900 -2.78300 31.07500
C  18.78300 -2.88100 26.22700
C  15.83300 0.90800 26.17300
N  17.28700 -1.05400 30.88000
C  16.61800 -0.10300 31.67800
C  16.92100 -0.29800 33.15700
C  18.29300 -1.18100 33.01900
C  18.27100 -1.75900 31.54800
C  19.55800 -0.27600 33.36900
C  15.80000 -0.98300 33.97500
C  15.81500 -0.70500 35.49500
H  16.99700 -0.09600 36.24300
N  18.66400 -2.70500 28.63900
C  19.23600 -3.26000 29.73900
C  20.08700 -4.28500 29.32900
C  19.98100 -4.38300 27.92500
C  19.10700 -3.24300 27.50300
C  20.89200 -5.07300 30.40000
C  20.75100 -5.28600 26.96000
O  20.70500 -5.17300 25.76100
C  21.54500 -6.51600 27.45700
N  17.46800 -0.83400 26.52100
C  17.98100 -1.85100 25.78500
C  17.83900 -1.54200 24.29800
C  16.95000 -0.30400 24.22600
C  16.68400 -0.03400 25.71000
C  19.21500 -1.57100 23.49400
C  15.68000 -0.38200 23.25800
C  14.27000 -0.91900 23.64600
N  16.01300 0.48000 28.60800
C  15.52300 1.22200 27.49700
C  14.67400 2.27700 27.98200
C  14.81700 2.21000 29.37100
C  15.56300 1.09100 29.70300
C  13.97700 3.34500 27.14700
C  14.51000 2.89300 30.59000
O  13.96500 3.98400 30.81300
C  15.10800 2.05800 31.80200
C  16.01400 2.75600 32.67500
O  17.12500 3.07800 32.38100
O  15.33100 3.15400 33.88000
C  16.12900 3.87200 34.85600
H  19.63200 -3.31600 31.84400
H  19.18000 -3.57500 25.48400
H  15.30000 1.52400 25.44600
H  17.19500 0.62600 33.66400
H  18.38800 -2.02600 33.70100
H  20.36000 -0.82900 32.87900
H  19.69700 -0.24200 34.44900
H  19.47200 0.77500 33.09100
H  15.88600 -2.06000 33.82600
H  14.89000 -0.76500 33.41700
H  15.64300 -1.72500 35.83900
H  14.96000 -0.15400 35.88500
H  20.29000 -5.82600 30.90900
H  21.27400 -4.38900 31.15800
H  21.77300 -5.50100 29.92100
H  21.91200 -7.14000 26.64200
H  20.94700 -7.14200 28.11900
H  22.34000 -6.09000 28.07000
H  17.23400 -2.35000 23.88700
H  17.59300 0.51700 23.91100
H  20.08900 -1.50100 24.14200
H  19.37100 -0.66700 22.90500
H  19.19500 -2.47400 22.88300
H  15.97800 -0.91800 22.35700
H  15.48800 0.61400 22.85700
H  13.59000 -0.10100 23.88500
H  14.47700 -1.64500 24.43100
H  14.00300 -1.45600 22.73600
H  14.64400 3.42600 26.28900
H  13.79000 4.35800 27.50300
H  13.00800 2.92400 26.87900
H  14.24600 1.64800 32.32700
H  17.14100 4.08200 34.50900
H  16.12000 3.25500 35.75400
H  15.64500 4.80400 35.14800

