158

Mg 40.20400 9.31100 28.75700
C  42.13300 10.66800 31.37300
C  37.89100 8.35300 31.28200
C  38.49300 7.96700 26.38500
C  42.76400 10.19700 26.52800
N  39.99700 9.71900 31.10100
C  40.91600 10.31100 31.91000
C  40.55600 10.14400 33.38800
C  39.30800 9.18100 33.30500
C  39.02200 9.14000 31.76300
C  39.58800 7.78100 33.97600
C  40.25600 11.53100 34.11200
C  39.81500 11.30300 35.57000
H  40.80100 11.56300 36.66400
N  38.43700 8.30900 28.80600
C  37.67600 8.01300 29.88800
C  36.57900 7.13400 29.50300
C  36.70000 6.99200 28.07800
C  37.91300 7.76600 27.67300
C  35.65700 6.46200 30.46700
C  35.86200 6.15700 27.07400
O  36.07900 6.04700 25.89100
C  34.64300 5.47200 27.50300
N  40.63300 8.94500 26.72100
C  39.74000 8.47800 25.93500
C  40.01100 8.69600 24.43800
C  41.35500 9.47400 24.55500
C  41.61300 9.52700 26.01200
C  40.03200 7.48200 23.54500
C  41.40800 10.83200 23.80400
C  41.02200 12.16700 24.49800
N  42.09300 10.12000 28.84500
C  42.97800 10.47600 27.90700
C  44.16600 11.12300 28.49300
C  43.90400 11.20100 29.87200
C  42.59900 10.68100 29.99400
C  45.38700 11.46800 27.75200
C  44.42800 11.57800 31.08100
O  45.50600 12.00500 31.42200
C  43.35600 11.21500 32.11600
C  43.91400 10.29000 33.23100
O  43.97800 9.04600 33.15700
O  44.17900 10.94400 34.40100
C  44.58700 10.19300 35.54700
H  37.27700 7.84200 32.02700
H  37.83100 7.65800 25.57500
H  43.53000 10.57900 25.85000
H  41.48800 9.78400 33.82400
H  38.39800 9.60700 33.72900
H  38.99100 7.76000 34.88800
H  40.65300 7.72900 34.19900
H  39.29500 6.94500 33.34100
H  39.47400 12.06600 33.57300
H  41.15200 12.15100 34.07800
H  39.57300 10.24400 35.65500
H  38.95700 11.90100 35.87900
H  36.15300 5.61200 30.93500
H  34.77000 5.95700 30.08500
H  35.27700 7.14400 31.22700
H  34.03800 5.09100 26.68000
H  34.05500 6.08500 28.18500
H  34.88000 4.57500 28.07500
H  39.21800 9.39600 24.17700
H  42.22500 9.00700 24.09500
H  40.68200 7.60600 22.67900
H  39.03200 7.44700 23.11200
H  40.18900 6.56600 24.11500
H  41.01200 10.69900 22.79800
H  42.48300 10.89900 23.63600
H  40.90000 11.92400 25.55300
H  40.21400 12.60000 23.90700
H  41.87000 12.85200 24.50100
H  45.59800 12.53600 27.81100
H  45.33900 11.19500 26.69700
H  46.08600 10.87400 28.33900
H  43.15400 12.11700 32.69400
H  45.43100 10.72200 35.98800
H  44.78800 9.14200 35.33800
H  43.83000 10.18200 36.33100
Mg 16.70800 53.12600 26.70800
C  18.36100 51.64400 29.22800
C  13.97600 53.82700 28.89600
C  14.98800 54.49900 24.18600
C  18.90300 51.69200 24.38500
N  16.21300 52.71300 28.79300
C  17.15800 52.30600 29.63100
C  16.75800 52.52000 31.11400
C  15.27500 52.97300 31.04100
C  15.10900 53.20600 29.51100
C  14.13900 51.99200 31.53900
C  17.72400 53.47200 31.91200
C  18.20000 53.11300 33.33400
H  17.24400 52.49700 34.34700
N  14.83900 54.06700 26.62600
C  13.88400 54.29000 27.61500
C  12.82500 55.12400 27.10400
C  13.20200 55.46900 25.78300
C  14.42800 54.67000 25.52700
C  11.51200 55.34800 27.78000
C  12.49300 56.38300 24.74300
O  12.93800 56.67700 23.58400
C  11.15400 56.99600 25.05200
N  16.76100 52.88000 24.50600
C  15.99700 53.68200 23.75000
C  16.26200 53.42300 22.26100
C  17.59900 52.56700 22.30600
C  17.85000 52.43800 23.80600
C  15.11800 52.63100 21.62400
C  18.83800 53.17700 21.56100
C  19.37800 54.42500 22.27000
N  18.27400 51.84200 26.67800
C  19.17300 51.46400 25.68600
C  20.23000 50.71100 26.36100
C  19.97600 50.76900 27.76700
C  18.81700 51.46700 27.89900
C  21.34700 50.17300 25.54700
C  20.44400 50.35500 29.04500
O  21.53200 49.82700 29.35200
C  19.40400 50.94800 30.04600
C  18.83900 49.78300 30.75200
O  18.23000 48.87400 30.27100
O  19.20400 49.81600 32.07100
C  18.78700 48.69000 32.96300
H  13.18600 54.13900 29.58200
H  14.56600 55.04300 23.33800
H  19.54900 51.17400 23.67200
H  16.82400 51.52600 31.55700
H  15.20600 53.93600 31.54700
H  13.68900 52.33700 32.47000
H  14.55000 51.01400 31.79000
H  13.43700 51.89600 30.71000
H  17.15600 54.40000 31.98100
H  18.55000 53.61400 31.21500
H  18.64900 54.02200 33.73300
H  19.01500 52.39000 33.35500
H  10.71300 55.17800 27.05900
H  11.39500 56.36500 28.15400
H  11.42200 54.68200 28.63900
H  10.98300 57.40500 26.04800
H  10.42500 56.22300 24.81000
H  11.00600 57.79300 24.32300
H  16.52700 54.32300 21.70700
H  17.30200 51.58500 21.93800
H  14.32800 52.33700 22.31400
H  15.41800 51.78300 21.00900
H  14.63900 53.32000 20.92900
H  18.51800 53.38100 20.54000
H  19.58200 52.38300 21.48500
H  19.57600 55.09600 21.43400
H  20.13700 54.24300 23.03100
H  18.56000 54.86400 22.84000
H  22.09000 49.75800 26.22800
H  21.89100 50.88600 24.92700
H  21.01700 49.42400 24.82800
H  19.83900 51.55000 30.84400
H  19.00500 49.11400 33.94300
H  19.36300 47.78500 32.77100
H  17.71900 48.46900 32.94100

