158

Mg 24.23600 1.89700 29.72900
C  26.59500 1.51600 32.20700
C  21.77800 2.24600 32.09900
C  22.02700 2.10400 27.22700
C  26.75300 1.01800 27.26500
N  24.22200 1.86200 31.81500
C  25.26000 1.74400 32.69800
C  24.83200 1.95800 34.06800
C  23.30400 2.02900 34.00900
C  23.08400 1.92100 32.54800
C  22.56900 1.03200 34.96600
C  25.52300 3.19100 34.73500
C  25.74900 3.12000 36.22000
H  25.07200 4.19900 37.13800
N  22.18300 2.02500 29.71100
C  21.29600 2.30400 30.80300
C  20.00400 2.57000 30.28400
C  19.99200 2.39100 28.82600
C  21.45000 2.19100 28.47000
C  18.87400 3.10500 31.08300
C  18.87000 2.30300 27.81100
O  19.01600 2.28600 26.61700
C  17.52900 2.46300 28.21900
N  24.34000 1.49500 27.52900
C  23.31100 1.84800 26.74500
C  23.66400 1.90500 25.26200
C  25.19500 1.63100 25.31200
C  25.47900 1.30100 26.82500
C  22.77600 1.03400 24.28600
C  26.07100 2.75300 24.71100
C  26.31800 4.06000 25.52200
N  26.25700 1.31800 29.70700
C  27.09800 0.96000 28.68400
C  28.40800 0.83200 29.21700
C  28.20700 0.90400 30.63700
C  26.91000 1.25000 30.85100
C  29.65800 0.68800 28.38400
C  28.83200 0.89700 31.90800
O  29.99000 0.56500 32.10800
C  27.85800 1.35900 32.99600
C  27.77000 0.22900 33.94900
O  27.46000 -0.89300 33.62000
O  28.14200 0.60900 35.21700
C  28.22200 -0.41900 36.24900
H  21.17600 2.53700 32.96200
H  21.32200 2.48600 26.48600
H  27.58700 0.98300 26.56100
H  25.07500 0.98700 34.49900
H  22.98200 3.01800 34.33400
H  22.19100 0.16500 34.42500
H  21.82200 1.56500 35.55500
H  23.37100 0.74400 35.64600
H  24.98200 4.08600 34.42700
H  26.46600 3.39900 34.23100
H  26.81000 3.08100 36.46800
H  25.33500 2.15300 36.50400
H  19.09500 2.97100 32.14200
H  17.95000 2.57800 30.84600
H  18.82800 4.17600 30.88300
H  17.37600 3.38800 28.77500
H  17.38500 1.57300 28.83200
H  16.87600 2.35600 27.35300
H  23.53000 2.94000 24.94800
H  25.50300 0.72400 24.79300
H  21.91500 0.58800 24.78500
H  23.30800 0.27900 23.70800
H  22.39500 1.80200 23.61200
H  25.61800 2.99200 23.74900
H  27.06100 2.34500 24.50500
H  26.16900 3.85600 26.58200
H  25.74500 4.91200 25.15600
H  27.37400 4.32600 25.48300
H  29.61500 -0.27000 27.86600
H  30.50500 0.79100 29.06200
H  29.70300 1.51100 27.67100
H  28.17600 2.23800 33.55500
H  28.42800 -1.40600 35.83300
H  27.37300 -0.38100 36.93200
H  29.13100 -0.26200 36.83000
Mg 40.35000 10.29700 29.75700
C  42.52100 10.82600 32.44900
C  38.24600 8.63200 31.98600
C  38.43200 9.35100 27.21300
C  42.95200 10.98300 27.52900
N  40.40400 9.75200 31.90500
C  41.33100 10.21900 32.86800
C  40.95600 9.97600 34.29400
C  39.67400 9.08400 34.05500
C  39.41000 9.10100 32.51700
C  39.88500 7.67200 34.58900
C  40.63200 11.35100 34.97200
C  40.04400 11.16900 36.35100
H  40.83500 11.82500 37.57200
N  38.56800 9.23500 29.60500
C  37.78700 8.65400 30.61700
C  36.49300 8.27000 30.11100
C  36.52500 8.58600 28.74200
C  37.88400 9.06400 28.44500
C  35.34400 7.69600 31.04100
C  35.35100 8.45600 27.67100
O  35.48600 8.75900 26.48300
C  34.01900 7.98200 28.22600
N  40.76100 9.90100 27.66000
C  39.73900 9.65500 26.86000
C  39.94600 9.99800 25.35600
C  41.47500 10.53900 25.45100
C  41.80000 10.45800 26.96200
C  39.71200 8.97200 24.24800
C  41.58400 12.06400 24.98700
C  41.05300 13.20200 25.78100
N  42.28300 10.88200 29.86100
C  43.21800 11.21500 28.90300
C  44.53600 11.62700 29.54700
C  44.20300 11.54800 30.94900
C  42.89400 11.06300 31.11300
C  45.82400 11.99500 28.78900
C  44.70300 11.87500 32.25000
O  45.81600 12.31500 32.58500
C  43.64400 11.45000 33.33100
C  44.32500 10.54700 34.25400
O  44.99000 9.49900 34.02500
O  44.05700 11.00200 35.49000
C  44.64000 10.29700 36.66600
H  37.52300 8.25500 32.71200
H  37.77400 9.34900 26.34200
H  43.69300 11.31900 26.80100
H  41.84100 9.49300 34.70800
H  38.86700 9.51700 34.64600
H  39.17000 7.43300 35.37600
H  40.89200 7.63000 35.00400
H  39.61200 6.84100 33.93900
H  39.96200 11.97700 34.38400
H  41.63500 11.77200 35.05000
H  40.05900 10.10100 36.56900
H  39.05200 11.60600 36.23600
H  35.61900 7.96900 32.05900
H  35.09000 6.65500 30.83700
H  34.41300 8.25000 30.92600
H  33.80000 8.76400 28.95400
H  34.10800 7.00700 28.70500
H  33.23100 8.01600 27.47400
H  39.37800 10.90900 25.17000
H  42.19300 9.92000 24.91300
H  38.85200 9.16400 23.60600
H  39.59000 7.96100 24.63800
H  40.59100 8.88700 23.60800
H  41.24200 12.23800 23.96700
H  42.65100 12.17900 24.79600
H  40.85500 12.93000 26.81700
H  40.23200 13.68700 25.25300
H  41.87800 13.91400 25.75200
H  46.50000 12.41900 29.53100
H  45.60300 12.46300 27.83000
H  46.33900 11.10500 28.42800
H  43.26100 12.29300 33.90600
H  43.89400 10.25400 37.46000
H  45.54600 10.86700 36.87100
H  44.77500 9.23600 36.45600

