158

Mg 48.64700 35.85200 27.85800
C  46.92400 34.14600 30.41400
C  49.03900 38.47000 29.98900
C  49.89700 37.66000 25.27800
C  47.65900 33.29300 25.66800
N  48.10800 36.15200 29.95800
C  47.60700 35.31800 30.88100
C  47.77400 35.89800 32.31400
C  48.03700 37.44000 32.06000
C  48.38700 37.35600 30.54700
C  46.90200 38.41100 32.43100
C  48.95200 35.22700 33.12500
C  48.68000 34.85200 34.54200
H  49.29100 35.94900 35.48400
N  49.40400 37.84000 27.72500
C  49.55400 38.75100 28.69100
C  50.31200 39.92900 28.27900
C  50.47900 39.71600 26.89600
C  49.86000 38.38600 26.51700
C  50.75900 41.06700 29.16100
C  51.29600 40.51500 25.81300
O  51.46700 40.10900 24.64800
C  51.87600 41.75700 26.22500
N  48.84000 35.38000 25.71500
C  49.46000 36.32600 24.88900
C  49.47700 35.69300 23.48000
C  48.95000 34.23100 23.65000
C  48.48100 34.30600 25.06000
C  48.63300 36.54000 22.39500
C  50.02100 33.10900 23.40500
C  49.46400 31.92500 22.57600
N  47.59500 34.05300 28.00400
C  47.25400 33.09100 27.00100
C  46.48400 32.06000 27.54100
C  46.46300 32.36200 28.92200
C  47.05500 33.60700 29.13100
C  45.84400 30.97500 26.80400
C  45.95000 31.89100 30.27700
O  45.40400 30.82600 30.64400
C  46.13500 33.16400 31.20400
C  46.62100 32.87100 32.60700
O  47.62500 32.32400 32.95200
O  45.60700 33.04300 33.41200
C  45.54700 32.30100 34.66900
H  49.43900 39.13000 30.76100
H  50.46800 38.07200 24.44300
H  47.22800 32.48400 25.07500
H  46.83600 35.80000 32.86000
H  48.98200 37.62400 32.57200
H  47.16400 39.18800 33.14800
H  46.00300 37.93900 32.82700
H  46.51900 38.87100 31.52000
H  49.76100 35.94900 33.01400
H  49.32000 34.30300 32.67800
H  49.15100 33.90600 34.80900
H  47.61200 34.93100 34.74500
H  50.43900 42.04500 28.80200
H  51.83500 41.05900 29.33800
H  50.33600 40.87200 30.14600
H  51.00300 42.35200 26.49200
H  52.38300 42.31400 25.43800
H  52.53800 41.56600 27.07000
H  50.52200 35.68000 23.16800
H  48.03700 34.04100 23.08600
H  48.05100 35.77400 21.88300
H  49.26500 37.02500 21.65100
H  48.07100 37.31100 22.92100
H  50.42900 32.66500 24.31200
H  50.85400 33.61900 22.92100
H  48.73500 32.25800 21.83700
H  48.86900 31.29500 23.23900
H  50.20700 31.26200 22.13400
H  46.53100 30.15200 26.60600
H  45.47900 31.43400 25.88500
H  44.88300 30.68300 27.22900
H  45.13900 33.57700 31.36400
H  46.08000 32.64500 35.55500
H  45.87200 31.27600 34.49000
H  44.48300 32.35900 34.89900
Mg 10.76500 47.46900 25.58700
C  8.06400 48.04200 27.97800
C  12.91800 48.64700 27.95700
C  12.96200 47.30800 23.31300
C  8.15800 47.12500 23.02100
N  10.44600 48.27600 27.75300
C  9.34500 48.25800 28.51800
C  9.70900 48.34500 29.98600
C  11.14100 49.05400 29.87300
C  11.56900 48.62500 28.44500
C  11.06400 50.59200 29.95200
C  9.78700 46.97800 30.74100
C  10.17300 47.23800 32.24400
H  9.33600 46.44200 33.34400
N  12.70200 47.85600 25.66000
C  13.46300 48.29600 26.70700
C  14.80500 48.44000 26.27200
C  14.89100 48.06700 24.93200
C  13.50200 47.73200 24.54100
C  15.84200 49.02600 27.11400
C  16.01200 47.97600 23.99800
O  15.88900 47.86300 22.79100
C  17.37500 48.01200 24.48600
N  10.50800 47.31700 23.45800
C  11.64900 47.21600 22.81700
C  11.43000 46.60300 21.41400
C  9.93900 46.64500 21.19000
C  9.50400 46.90400 22.67000
C  12.31400 47.26100 20.31700
C  9.29100 45.36100 20.59700
C  9.07500 45.38500 19.05500
N  8.53000 47.50000 25.50900
C  7.66500 47.36700 24.37500
C  6.29600 47.45400 24.91300
C  6.41400 47.69900 26.28000
C  7.76800 47.78300 26.58700
C  5.14500 47.19300 24.08400
C  5.65900 47.87200 27.44000
O  4.48200 48.02000 27.58300
C  6.69300 48.10000 28.61300
C  6.41400 46.98900 29.58100
O  6.75000 45.75100 29.50000
O  5.52600 47.44800 30.51300
C  5.05300 46.59800 31.61200
H  13.66900 48.96900 28.68100
H  13.68800 46.76600 22.70300
H  7.32500 47.15300 22.31600
H  9.01500 49.04600 30.44800
H  11.83700 48.60200 30.57900
H  10.04300 50.94400 30.09900
H  11.38300 51.11600 29.05100
H  11.70100 50.93200 30.76800
H  10.56400 46.35300 30.30000
H  8.80000 46.51900 30.68200
H  10.30400 48.28200 32.52800
H  11.17200 46.83700 32.41900
H  16.63300 48.31800 27.36100
H  15.48700 49.34200 28.09500
H  16.16500 49.94300 26.62200
H  17.56000 47.33900 25.32400
H  17.73700 48.99900 24.77300
H  17.95900 47.69600 23.62200
H  11.73800 45.55800 21.45400
H  9.52200 47.57400 20.80300
H  12.68900 48.20200 20.72000
H  11.62900 47.43500 19.48700
H  13.07600 46.56200 19.97300
H  8.35000 45.16900 21.11300
H  9.95200 44.51200 20.77100
H  9.60600 46.22300 18.60300
H  7.99500 45.50900 18.98200
H  9.34100 44.41200 18.64200
H  5.03100 47.89500 23.25700
H  4.20000 47.25300 24.62200
H  5.26500 46.18600 23.68400
H  6.46500 49.07600 29.04200
H  5.11700 45.53100 31.39700
H  3.99400 46.81400 31.75700
H  5.55100 46.77000 32.56600

