158

Mg 48.94100 45.36800 42.86900
C  45.46600 45.71800 41.95000
C  48.85900 42.28900 41.42100
C  52.28900 45.50400 42.79700
C  48.78200 48.61500 43.94100
N  47.33200 44.26000 41.66000
C  46.01700 44.51200 41.48600
C  45.38500 43.36800 40.65500
C  46.34200 42.21300 40.92000
C  47.58400 42.97000 41.38600
C  45.96200 41.07600 41.92400
C  45.24100 43.89900 39.12900
C  43.99400 43.29900 38.39600
H  43.87800 43.43000 36.86000
N  50.38400 43.93900 42.36200
C  50.11200 42.78700 41.74800
C  51.37000 42.11900 41.47400
C  52.37100 43.10200 41.71400
C  51.69700 44.28300 42.33400
C  51.49700 40.65200 41.07100
C  53.87600 42.90100 41.42800
O  54.26700 41.87700 40.91000
C  54.91600 43.92500 41.80600
N  50.34400 46.82800 43.15700
C  51.67200 46.64000 43.26900
C  52.44000 47.93000 43.74600
C  51.29000 48.85500 44.28600
C  50.03600 48.07300 43.75600
C  53.65000 47.68200 44.73600
C  51.43300 50.42000 43.88900
C  51.64300 51.34700 45.02900
N  47.38400 46.88700 43.00200
C  47.54200 48.19000 43.46100
C  46.30000 48.83600 43.35700
C  45.40400 47.90700 42.81200
C  46.15200 46.75400 42.51600
C  46.14300 50.28000 43.92000
C  44.03300 47.66800 42.42500
O  43.06600 48.42000 42.52200
C  44.03600 46.13800 41.79800
C  43.01600 45.29700 42.53000
O  42.42800 44.33500 42.04900
O  42.78800 45.82900 43.77000
C  41.67400 45.10300 44.48100
H  48.87100 41.29300 40.97600
H  53.37600 45.59500 42.75600
H  48.90000 49.64600 44.28000
H  44.37000 43.12200 40.96500
H  46.65700 41.71400 40.00400
H  45.62300 40.16200 41.43700
H  45.12700 41.32200 42.58100
H  46.80700 40.83300 42.56700
H  46.14000 43.86400 38.51400
H  45.07100 44.97500 39.09300
H  43.09200 43.74300 38.81700
H  43.92300 42.23900 38.64100
H  51.76300 40.45400 40.03300
H  50.53800 40.19500 41.31700
H  52.25800 40.34200 41.78700
H  54.61800 44.72300 41.12600
H  55.88600 43.50900 41.53400
H  54.96400 44.13300 42.87500
H  52.86600 48.44300 42.88300
H  51.23400 48.83500 45.37400
H  54.60500 47.83300 44.23200
H  53.62000 46.66100 45.11500
H  53.59200 48.34800 45.59700
H  50.56600 50.67600 43.27900
H  52.27100 50.57000 43.20900
H  50.77300 52.00300 45.02700
H  52.42700 52.04100 44.72600
H  51.81600 50.91400 46.01400
H  46.85700 50.85500 43.33000
H  46.50100 50.37700 44.94500
H  45.13700 50.68300 43.80000
H  43.63400 46.18000 40.78600
H  40.74300 45.66700 44.44000
H  41.96000 45.00000 45.52800
H  41.40700 44.09200 44.17200
Mg -6.27700 25.88900 26.25000
C  -5.00200 27.36100 29.08700
C  -8.08900 23.61900 28.35800
C  -7.29700 23.97300 23.58200
C  -4.41100 27.88100 24.29900
N  -6.45100 25.47000 28.46000
C  -5.98700 26.32900 29.43100
C  -6.51300 26.01600 30.77900
C  -7.28600 24.63400 30.47700
C  -7.23700 24.55200 28.98000
C  -6.89800 23.39100 31.22200
C  -7.44600 27.22100 31.41500
C  -7.15000 27.48400 32.87200
H  -6.87200 26.36100 33.91400
N  -7.52800 24.08400 25.99600
C  -8.09800 23.33100 26.96500
C  -8.72600 22.18500 26.44500
C  -8.52800 22.22800 25.01000
C  -7.77500 23.43100 24.80500
C  -9.38100 21.15600 27.34500
C  -9.02200 21.35800 23.83400
O  -8.74100 21.41700 22.66000
C  -10.12700 20.39000 24.18800
N  -5.91300 25.92900 24.19800
C  -6.49200 25.08700 23.20400
C  -5.95700 25.46800 21.82000
C  -5.18900 26.82300 22.09300
C  -5.14600 26.88800 23.61900
C  -5.15200 24.30500 21.10100
C  -5.75600 28.12500 21.52100
C  -4.87000 28.71800 20.49300
N  -4.85500 27.24900 26.56100
C  -4.21000 28.05100 25.70500
C  -3.44500 29.07300 26.42700
C  -3.73300 28.77900 27.74500
C  -4.57300 27.68200 27.75800
C  -2.65800 30.19800 25.83800
C  -3.46800 29.26600 29.08200
O  -2.79200 30.22100 29.45100
C  -4.31200 28.38000 29.98600
C  -3.30900 27.77300 30.85500
O  -2.57400 26.85500 30.44900
O  -3.37700 28.37900 32.03700
C  -2.42200 27.83300 33.00400
H  -8.72900 23.01800 29.00700
H  -7.59600 23.43700 22.67800
H  -3.94800 28.72800 23.78800
H  -5.72600 25.70000 31.46400
H  -8.35500 24.75300 30.65200
H  -6.70200 23.72800 32.24000
H  -6.08200 22.77400 30.84500
H  -7.75600 22.72000 31.21300
H  -8.50000 26.95500 31.32700
H  -7.28200 28.09500 30.78500
H  -8.08000 27.86100 33.29700
H  -6.29600 28.14700 33.00600
H  -10.14400 20.60700 26.79200
H  -9.93500 21.59300 28.17600
H  -8.69000 20.37900 27.67100
H  -10.51300 19.85800 23.31900
H  -10.91000 20.85300 24.79000
H  -9.63400 19.69000 24.86200
H  -6.85400 25.74300 21.26600
H  -4.12700 26.79600 21.85100
H  -4.18000 24.73700 20.86500
H  -5.84200 23.93000 20.34600
H  -5.02700 23.44600 21.76000
H  -5.82400 28.84000 22.34100
H  -6.74500 27.81800 21.18100
H  -4.31100 27.99300 19.90200
H  -4.15900 29.36100 21.01100
H  -5.52800 29.30000 19.84700
H  -1.67100 29.94500 26.22400
H  -3.14600 31.16100 25.99100
H  -2.49700 30.13600 24.76200
H  -4.95000 28.91500 30.68900
H  -1.91800 28.68400 33.46200
H  -1.67100 27.15100 32.60500
H  -2.93300 27.21300 33.74100

