158

Mg 1.14000 7.78900 28.16800
C  1.66500 9.93100 30.91300
C  1.52000 5.19000 30.36900
C  1.30100 5.76200 25.54000
C  1.30300 10.54900 26.00100
N  1.54400 7.58400 30.41700
C  1.54400 8.59500 31.28400
C  1.24200 8.06800 32.69600
C  1.54500 6.51600 32.56500
C  1.53800 6.43500 31.02900
C  2.89700 6.07400 33.09100
C  -0.21800 8.25000 33.17400
C  -0.57100 8.84100 34.62500
H  0.47400 8.59000 35.74000
N  1.12200 5.80000 27.95200
C  1.29100 4.85500 29.02000
C  1.18900 3.51500 28.47300
C  1.05100 3.65000 27.04400
C  1.19300 5.07300 26.80800
C  1.27300 2.39500 29.34900
C  0.84500 2.57200 25.97200
O  0.83200 2.85200 24.76300
C  0.58800 1.17100 26.42800
N  1.24000 8.12400 26.05900
C  1.30400 7.13000 25.19200
C  1.28000 7.62900 23.69000
C  0.99000 9.18400 23.87300
C  1.14100 9.26900 25.39000
C  2.59400 7.36200 22.95100
C  -0.30600 9.83000 23.20200
C  -1.41700 10.46600 24.00300
N  1.44700 9.82300 28.30300
C  1.44300 10.83700 27.41000
C  1.69300 12.12300 28.10300
C  1.74300 11.75700 29.41200
C  1.62900 10.41000 29.54200
C  1.79800 13.35800 27.43100
C  1.95000 12.29500 30.70200
O  2.20400 13.45200 31.03600
C  1.79200 11.16300 31.71400
C  2.81600 11.23100 32.74100
O  3.96700 10.85100 32.52300
O  2.39800 11.85800 33.84600
C  3.51800 12.14800 34.86100
H  1.79600 4.36900 31.03500
H  1.23800 5.12100 24.65900
H  1.33700 11.35500 25.26500
H  2.04300 8.48800 33.30400
H  0.77700 5.87900 33.00400
H  3.60600 5.87800 32.28700
H  2.58300 5.15000 33.57700
H  3.40700 6.74900 33.77800
H  -0.78100 7.32200 33.27200
H  -0.73800 8.83600 32.41600
H  -1.53500 8.45100 34.95300
H  -0.78400 9.88900 34.41600
H  1.80700 1.63800 28.77500
H  0.28600 2.02800 29.63100
H  1.92100 2.50400 30.21800
H  1.40800 0.63300 26.90300
H  0.26700 0.46200 25.66500
H  -0.29300 1.23900 27.06700
H  0.50200 7.09700 23.14200
H  1.86400 9.75900 23.56800
H  3.28200 6.90900 23.66400
H  3.00800 8.27100 22.51400
H  2.43600 6.60300 22.18500
H  -0.67800 9.02400 22.57000
H  -0.01700 10.65800 22.55500
H  -1.09900 10.31500 25.03400
H  -2.33400 9.88000 23.94700
H  -1.59800 11.51300 23.76000
H  0.78700 13.76100 27.36400
H  2.24800 13.18900 26.45400
H  2.39700 14.00100 28.07600
H  0.86800 11.41500 32.23400
H  4.43100 12.56000 34.43300
H  3.79400 11.23200 35.38300
H  3.26800 12.82000 35.68100
Mg -10.60900 17.38400 41.90600
C  -7.10400 17.37600 42.14500
C  -10.54600 20.67700 40.96400
C  -14.01700 17.25300 41.36100
C  -10.57100 13.95100 42.14300
N  -8.97600 18.88800 41.63300
C  -7.68600 18.62000 41.72800
C  -6.84300 19.84100 41.14400
C  -7.93100 20.99400 41.21400
C  -9.28800 20.15900 41.22600
C  -7.70600 21.91000 42.57400
C  -6.35600 19.50200 39.64800
C  -4.81800 19.50900 39.40600
H  -4.37500 18.32500 38.52300
N  -12.09000 18.84100 41.34200
C  -11.82400 20.12800 41.11100
C  -13.08800 20.92100 41.07800
C  -14.13200 19.95500 41.23000
C  -13.53900 18.60000 41.28300
C  -13.19900 22.40100 40.67200
C  -15.65000 20.22500 41.29100
O  -16.01800 21.39500 41.19900
C  -16.59500 19.17900 41.48300
N  -11.94400 15.76800 41.51200
C  -13.34200 16.01400 41.38800
C  -14.12000 14.71400 41.44900
C  -12.96400 13.62400 41.34600
C  -11.76500 14.50500 41.78100
C  -15.04100 14.64800 42.73400
C  -12.83300 12.96000 39.87000
C  -12.66300 11.42300 39.75200
N  -9.15300 15.96700 42.28000
C  -9.37200 14.57900 42.36800
C  -8.09500 13.95300 42.68200
C  -7.15400 15.02000 42.53100
C  -7.90500 16.22300 42.29200
C  -7.76400 12.51600 42.93000
C  -5.75000 15.43600 42.54900
O  -4.79500 14.70200 42.72700
C  -5.67500 16.91500 42.28000
C  -4.88500 17.60800 43.40800
O  -4.93600 17.30800 44.60800
O  -4.13700 18.65600 42.89400
C  -3.57300 19.55800 43.87900
H  -10.59500 21.73700 40.70600
H  -15.09100 17.07700 41.26500
H  -10.50400 12.86100 42.13700
H  -6.05500 20.00500 41.87800
H  -7.90700 21.65000 40.34400
H  -8.61800 21.68000 43.12400
H  -7.60700 22.94100 42.23400
H  -6.81300 21.63500 43.13700
H  -6.79100 20.28300 39.02500
H  -6.75500 18.57300 39.24100
H  -4.27500 19.51400 40.35100
H  -4.63600 20.37600 38.77100
H  -14.00500 22.93600 41.17600
H  -13.37700 22.42500 39.59700
H  -12.33300 23.00800 40.93600
H  -16.71300 18.61300 40.55900
H  -17.53600 19.72500 41.55000
H  -16.38700 18.49500 42.30600
H  -14.74200 14.70200 40.55400
H  -13.05200 12.91200 42.16700
H  -14.68300 13.93900 43.48000
H  -16.05900 14.40600 42.42800
H  -15.15400 15.64500 43.15800
H  -12.03500 13.39000 39.26500
H  -13.75300 13.17000 39.32500
H  -12.20800 11.14900 40.70400
H  -11.79700 11.23500 39.11700
H  -13.58200 10.87900 39.53600
H  -7.76600 12.33000 44.00400
H  -6.77000 12.37400 42.50500
H  -8.51100 11.87000 42.46800
H  -5.16000 17.08900 41.33600
H  -2.59900 19.19400 44.20700
H  -4.20900 19.58100 44.76400
H  -3.38700 20.48900 43.34500

