158

Mg 47.62800 34.84100 28.33100
C  46.15000 33.02500 30.85900
C  47.70500 37.64900 30.60700
C  48.54600 36.87800 25.79000
C  46.80100 32.37400 26.01300
N  46.86100 35.30200 30.51000
C  46.51600 34.31600 31.36400
C  46.40500 34.87200 32.77100
C  46.61800 36.38700 32.62400
C  47.14200 36.49200 31.16800
C  45.28200 37.19800 32.79100
C  47.51000 34.25100 33.72800
C  47.11300 34.05900 35.25400
H  48.00400 34.83800 36.18100
N  48.17200 36.86100 28.28400
C  48.21600 37.82900 29.32600
C  48.76000 39.07700 28.79700
C  49.07800 38.77800 27.41400
C  48.56000 37.41200 27.10300
C  48.85500 40.33600 29.67700
C  49.67300 39.71300 26.36300
O  49.97700 39.39800 25.25300
C  50.06000 41.19800 26.73800
N  47.69100 34.64700 26.17800
C  48.10900 35.62300 25.37300
C  48.10200 35.18000 23.86900
C  47.54600 33.71500 23.94300
C  47.41200 33.49100 25.51400
C  47.12600 36.12800 23.00400
C  48.39800 32.59100 23.18700
C  49.64300 32.04500 23.91000
N  46.85600 32.98200 28.43200
C  46.49800 32.14800 27.39600
C  45.77100 30.97500 27.94500
C  45.70900 31.28400 29.35300
C  46.28500 32.55600 29.51600
C  45.24400 29.77300 27.19800
C  45.12800 30.79400 30.54700
O  44.60500 29.71000 30.81200
C  45.23300 32.04100 31.56300
C  45.77500 31.62800 32.87200
O  46.82700 31.03500 33.05300
O  44.68700 31.77100 33.76400
C  44.97800 31.25600 35.16300
H  47.82400 38.46100 31.32700
H  48.86000 37.44600 24.91200
H  46.42800 31.62100 25.31600
H  45.38500 34.66900 33.09600
H  47.23100 36.64700 33.48600
H  45.01300 37.34000 33.83800
H  44.43400 36.66100 32.36600
H  45.42300 38.20500 32.39800
H  48.40600 34.87100 33.70600
H  47.85700 33.34200 33.23700
H  47.12900 32.99200 35.47700
H  46.09100 34.27100 35.56900
H  49.59200 40.33100 30.47900
H  47.89500 40.44200 30.18100
H  49.09900 41.30000 29.23000
H  50.56000 41.69600 25.90700
H  50.90200 41.08300 27.42000
H  49.25300 41.77700 27.18700
H  49.10800 35.33300 23.47900
H  46.58700 33.61500 23.43500
H  47.10900 37.00200 23.65600
H  46.14900 35.67100 22.84600
H  47.70800 36.23400 22.08900
H  48.72900 33.00200 22.23300
H  47.76200 31.71000 23.09700
H  49.58000 31.08400 24.42000
H  49.81800 32.76600 24.70800
H  50.53800 31.98700 23.29000
H  44.80700 30.06200 26.24200
H  44.46500 29.42200 27.87600
H  45.97700 28.97100 27.10700
H  44.20000 32.37700 31.65500
H  44.70600 30.21100 35.31400
H  44.56400 31.98200 35.86300
H  46.03600 31.24000 35.42700
Mg 30.73100 59.43000 38.86200
C  27.74600 57.94500 37.64700
C  32.52500 56.69600 37.84700
C  33.52100 61.25600 39.14700
C  28.77500 62.34400 39.40700
N  30.23100 57.66200 37.75600
C  28.96700 57.10700 37.48200
C  28.98000 55.69500 36.83100
C  30.46500 55.27200 37.19900
C  31.12100 56.61000 37.65400
C  30.62200 54.31000 38.43900
C  28.56300 55.64800 35.31500
C  27.72900 54.50500 34.74000
H  26.53200 54.97800 33.83100
N  32.79000 58.96400 38.58700
C  33.26700 57.80200 38.26000
C  34.68100 57.93600 38.21300
C  35.06500 59.20700 38.75900
C  33.78200 59.85100 38.85800
C  35.54800 56.71400 37.86500
C  36.48500 59.64100 38.94600
O  37.34300 58.84400 38.70000
C  36.92000 61.00300 39.43800
N  31.09800 61.51000 39.21300
C  32.35300 62.02900 39.32500
C  32.41700 63.51600 39.63000
C  30.91000 63.82700 39.69200
C  30.15400 62.49600 39.41800
C  33.33300 63.88500 40.77600
C  30.39300 65.01600 38.90500
C  29.71600 66.10200 39.73700
N  28.68200 60.04100 38.75000
C  28.09500 61.18000 39.04900
C  26.66200 61.14800 38.81600
C  26.46000 59.84700 38.29900
C  27.75200 59.23100 38.22200
C  25.56700 62.24300 38.78700
C  25.48200 58.84800 37.77400
O  24.31500 58.91600 37.45800
C  26.26700 57.60800 37.47900
C  25.81300 56.63400 38.52900
O  25.60400 56.98600 39.67300
O  25.60100 55.32300 38.04200
C  25.21100 54.30100 39.03900
H  32.99600 55.76400 37.52900
H  34.44800 61.73300 39.47200
H  28.10400 63.15500 39.69600
H  28.23700 55.20800 37.46200
H  31.04800 54.84800 36.38100
H  29.66500 53.78700 38.45800
H  30.72800 54.88100 39.36200
H  31.37400 53.52500 38.36800
H  29.45200 55.52200 34.69800
H  28.06800 56.58500 35.06000
H  27.27000 53.86400 35.49300
H  28.43100 53.83800 34.24000
H  34.97700 55.94800 37.33900
H  35.98500 56.33900 38.79000
H  36.28800 56.95400 37.10200
H  37.98200 61.24100 39.36500
H  36.45000 61.17000 40.40700
H  36.50400 61.65300 38.66900
H  32.65700 63.98600 38.67700
H  30.74700 64.04000 40.74800
H  34.15000 64.57300 40.55900
H  33.92000 63.04100 41.13800
H  32.79100 64.28800 41.63100
H  29.64200 64.51400 38.29500
H  31.14500 65.41100 38.22200
H  29.44900 65.66800 40.70100
H  28.79100 66.41700 39.25500
H  30.33400 66.98000 39.92300
H  24.70000 61.70900 39.17600
H  25.32000 62.38400 37.73500
H  25.83200 63.12700 39.36700
H  25.96800 57.13200 36.54500
H  25.98700 54.31700 39.80400
H  25.21100 53.29200 38.62800
H  24.22600 54.45400 39.48000

