158

Mg 29.35200 57.84200 38.84100
C  26.34300 56.09900 38.06900
C  31.21300 55.07700 37.89700
C  32.11200 59.68300 38.68200
C  27.36600 60.75500 39.01300
N  28.79800 55.83500 38.09200
C  27.54300 55.34900 37.84800
C  27.63400 53.94300 37.25900
C  29.07500 53.47800 37.75200
C  29.78900 54.89300 37.92000
C  29.00200 52.54300 39.04000
C  27.48700 53.99900 35.73900
C  26.24500 53.47600 34.99000
H  25.51800 54.37900 33.97100
N  31.45000 57.39800 38.36900
C  31.98900 56.24900 37.99200
C  33.43200 56.45900 37.82900
C  33.76600 57.77000 38.20800
C  32.45700 58.36200 38.41300
C  34.45500 55.36800 37.55900
C  35.11500 58.37200 38.55900
O  36.12000 57.62600 38.46300
C  35.34300 59.81900 39.08700
N  29.66600 59.89500 38.86200
C  30.91400 60.37700 38.92400
C  30.90100 61.96000 38.97500
C  29.43100 62.27600 39.22100
C  28.76400 60.89600 39.00500
C  31.86600 62.68300 40.05100
C  28.96300 63.48200 38.36500
C  28.21100 64.64600 39.06800
N  27.25300 58.36600 38.80700
C  26.65700 59.56600 38.92500
C  25.21200 59.35600 38.96800
C  25.00800 57.97200 38.57100
C  26.33200 57.44100 38.48600
C  24.14300 60.42000 39.05200
C  24.07500 56.93700 38.10100
O  22.87100 57.03000 37.82500
C  24.89500 55.67600 37.81500
C  24.42000 54.73100 38.85200
O  24.46900 54.93000 40.06500
O  23.95100 53.62100 38.28900
C  23.38400 52.65900 39.25300
H  31.81800 54.21300 37.61700
H  32.92100 60.41600 38.67400
H  26.84700 61.71600 39.00300
H  26.87200 53.26300 37.64000
H  29.58700 52.87100 37.00600
H  27.99100 52.24900 39.32200
H  29.30200 53.19000 39.86500
H  29.69500 51.70200 39.03300
H  28.24700 53.39400 35.24500
H  27.46900 55.00700 35.32300
H  25.54500 53.22400 35.78600
H  26.57200 52.55700 34.50200
H  34.10500 54.49000 37.01500
H  34.84600 55.08300 38.53500
H  35.24100 55.66500 36.86500
H  36.30700 59.73700 39.58900
H  34.64100 59.87300 39.92000
H  35.26800 60.69400 38.44200
H  31.22500 62.33800 38.00500
H  29.19800 62.57000 40.24400
H  32.23600 61.83700 40.63100
H  31.35800 63.42900 40.66200
H  32.77600 63.05500 39.58000
H  28.30600 63.14900 37.56200
H  29.76500 64.00900 37.85000
H  27.54500 65.22800 38.43100
H  28.88600 65.42600 39.41900
H  27.45900 64.24500 39.74800
H  23.19700 59.88200 38.99000
H  24.11800 61.15600 38.24800
H  24.20800 61.02300 39.95700
H  24.55700 55.26200 36.86500
H  23.60300 51.66800 38.85700
H  22.35800 52.84300 39.57200
H  24.05500 52.49900 40.09700
Mg 9.04300 47.23000 26.61500
C  7.13700 47.26600 29.61000
C  11.86900 47.89500 28.53500
C  10.69200 48.04800 23.85900
C  5.98400 47.14300 24.82100
N  9.42300 47.57300 28.84300
C  8.49200 47.41100 29.85900
C  9.22900 47.49400 31.24300
C  10.76000 47.84500 30.81800
C  10.70500 47.74200 29.28800
C  11.20700 49.20200 31.36000
C  9.08200 46.27400 32.22600
C  10.15000 46.11500 33.27300
H  9.50400 45.58800 34.60600
N  11.00700 47.71200 26.21300
C  12.00300 47.90900 27.13800
C  13.27900 47.98200 26.40800
C  12.93300 47.88500 24.98900
C  11.48000 47.85500 25.00900
C  14.65800 48.01100 27.06500
C  13.82800 47.98200 23.77000
O  13.50500 47.75700 22.58600
C  15.20600 48.38600 24.02400
N  8.40800 47.63100 24.61500
C  9.33700 48.08700 23.69700
C  8.66000 48.40400 22.38100
C  7.21800 47.79300 22.57200
C  7.20800 47.51900 24.11500
C  8.59900 49.91500 22.02400
C  6.99400 46.48500 21.74000
C  6.22500 46.55200 20.36600
N  6.99400 47.14800 27.08700
C  5.88200 47.14900 26.20900
C  4.73100 47.12000 27.06700
C  5.13400 47.11000 28.41100
C  6.54500 47.08700 28.37000
C  3.27900 47.02700 26.63400
C  4.71100 47.13600 29.76400
O  3.59400 47.03400 30.30000
C  6.02300 47.14100 30.63200
C  6.11900 45.81900 31.34100
O  6.64000 44.81200 30.88000
O  5.44300 45.89700 32.55200
C  5.65600 44.78600 33.49200
H  12.71200 47.86900 29.22800
H  11.18400 48.52300 23.00800
H  5.12400 47.10900 24.14800
H  8.65200 48.32400 31.65200
H  11.51600 47.11900 31.11900
H  10.62900 49.44900 32.25000
H  10.92600 50.03600 30.71700
H  12.25600 49.18100 31.65500
H  8.99600 45.31600 31.71400
H  8.17300 46.57500 32.74700
H  10.53200 47.09700 33.55400
H  10.93800 45.43900 32.94200
H  15.06300 48.97600 26.76100
H  15.25000 47.12900 26.81700
H  14.50700 48.01900 28.14400
H  15.79500 48.45300 23.10900
H  15.70800 47.64300 24.64300
H  15.32000 49.32600 24.56500
H  9.31600 47.95800 21.63400
H  6.44400 48.50300 22.28000
H  7.60500 50.34400 22.14900
H  8.94500 50.03300 20.99700
H  9.38900 50.42400 22.57500
H  6.56800 45.72700 22.39800
H  7.96600 46.06600 21.48100
H  7.00600 46.57900 19.60600
H  5.55900 47.41200 20.43600
H  5.58400 45.68600 20.19800
H  3.30000 47.34500 25.59200
H  2.71000 47.80600 27.14300
H  2.79100 46.06400 26.78400
H  6.00900 47.94200 31.37000
H  4.66100 44.55600 33.87500
H  6.11100 45.15800 34.41000
H  6.10200 43.87600 33.09100

