158

Mg 44.13800 4.24900 47.76200
C  42.12300 7.10400 47.53900
C  41.23100 2.38800 48.04000
C  45.88500 1.44600 47.16000
C  46.95600 6.22900 47.20500
N  41.86600 4.69800 47.79400
C  41.34200 5.96400 47.64500
C  39.81200 5.91300 47.50200
C  39.52800 4.36300 47.77800
C  40.94900 3.75000 47.85100
C  38.65100 4.00300 48.97500
C  39.14800 6.44800 46.16900
C  39.84300 6.23900 44.77500
H  39.77800 7.42000 43.75800
N  43.66000 2.23300 47.51200
C  42.42900 1.62700 47.77800
C  42.50400 0.25300 47.47000
C  43.89200 -0.04400 47.21800
C  44.52600 1.21500 47.27000
C  41.24900 -0.70000 47.45900
C  44.46700 -1.31300 46.75800
O  43.71900 -2.27400 46.63000
C  45.94100 -1.62400 46.31100
N  46.13000 3.92000 47.23400
C  46.65000 2.62500 47.23200
C  48.16700 2.64200 47.14900
C  48.57800 4.13500 47.07000
C  47.18500 4.82000 47.21600
C  48.83900 2.00100 48.43600
C  49.18500 4.49900 45.68900
C  50.63300 4.97100 45.73000
N  44.49300 6.23100 47.57700
C  45.69900 6.96500 47.33400
C  45.45600 8.39500 47.17900
C  44.05300 8.45000 47.31200
C  43.51900 7.20900 47.54200
C  46.44900 9.47700 46.94900
C  42.93500 9.38000 47.32200
O  43.00500 10.60000 47.15400
C  41.61500 8.52900 47.49500
C  40.97700 8.94200 48.81600
O  40.96700 8.31500 49.85600
O  40.18500 10.11700 48.58600
C  39.25300 10.46600 49.67900
H  40.30300 1.84100 48.22100
H  46.58800 0.61200 47.20600
H  47.84400 6.83800 47.02200
H  39.43600 6.44600 48.37500
H  39.10100 3.96300 46.85800
H  39.09300 3.09300 49.38000
H  37.57100 3.88900 48.88000
H  38.73100 4.67500 49.82900
H  38.79300 7.44500 46.42800
H  38.22500 5.88200 46.04100
H  39.41000 5.38100 44.26000
H  40.89400 5.98300 44.90500
H  40.99000 -0.85300 46.41200
H  40.44100 -0.22100 48.01300
H  41.51100 -1.66300 47.89800
H  46.55200 -1.67300 47.21200
H  46.26800 -0.76000 45.73300
H  46.01300 -2.58200 45.79500
H  48.43800 2.04800 46.27700
H  49.20400 4.39000 47.92500
H  49.12100 0.95100 48.35200
H  48.12500 1.88000 49.25000
H  49.71600 2.46500 48.88800
H  48.65300 5.37200 45.31200
H  49.03200 3.70400 44.95800
H  50.81100 5.42600 44.75500
H  51.34200 4.15300 45.85900
H  50.78500 5.69600 46.52900
H  46.67700 9.98200 47.88700
H  46.08700 10.20800 46.22500
H  47.45900 9.11900 46.74800
H  40.92300 8.64800 46.66200
H  39.62900 11.24300 50.34500
H  39.09200 9.58500 50.30100
H  38.34900 10.86000 49.21500
Mg 30.71500 58.71200 40.23400
C  28.00900 56.86800 39.18500
C  32.92600 56.22800 39.10700
C  33.22500 60.77700 40.70100
C  28.31600 61.32400 41.13500
N  30.51000 56.88900 39.23000
C  29.29200 56.31800 38.98300
C  29.46600 54.94600 38.31000
C  30.95100 54.58100 38.58300
C  31.51200 55.98100 38.90500
C  31.21400 53.56700 39.74200
C  29.22500 55.00700 36.73200
C  28.12600 54.13200 36.23400
H  27.69600 54.30000 34.77200
N  32.87700 58.50200 39.89600
C  33.54400 57.47700 39.36600
C  34.97500 57.73500 39.48600
C  35.09600 59.02200 40.06700
C  33.68400 59.52200 40.20800
C  36.02300 56.67000 39.18000
C  36.37700 59.62900 40.62500
O  37.47000 59.10900 40.37900
C  36.57100 61.00000 41.48400
N  30.71500 60.82000 40.73800
C  31.95900 61.35000 40.97900
C  31.82300 62.82100 41.42500
C  30.26900 62.93600 41.82500
C  29.67100 61.64400 41.12700
C  32.80100 63.29900 42.57000
C  29.50900 64.17400 41.39700
C  28.52700 64.58400 42.51300
N  28.53500 59.07800 40.23200
C  27.76300 60.09700 40.69000
C  26.36100 59.77700 40.57800
C  26.35500 58.49700 39.95500
C  27.72800 58.13700 39.81500
C  25.21400 60.65000 40.82300
C  25.52200 57.39400 39.43100
O  24.34600 57.14900 39.27000
C  26.65600 56.31300 38.95000
C  26.40200 55.00100 39.71400
O  26.90800 54.62800 40.76800
O  25.39800 54.37300 39.13500
C  25.19400 52.98400 39.61000
H  33.47800 55.29300 38.98700
H  34.08300 61.44500 40.80100
H  27.69400 62.10600 41.57400
H  28.76400 54.22300 38.72400
H  31.48800 54.16100 37.73200
H  30.40600 52.90200 40.04700
H  31.54900 54.17200 40.58500
H  31.96200 52.85700 39.39100
H  30.07900 54.77100 36.09600
H  28.96600 56.04000 36.49900
H  27.17600 54.28200 36.74600
H  28.38500 53.08800 36.41300
H  37.00300 57.14200 39.10400
H  35.83500 56.12000 38.25700
H  36.12200 56.02400 40.05200
H  35.63600 61.01000 42.04400
H  36.71000 61.89900 40.88400
H  37.33100 60.89000 42.25800
H  31.89600 63.35400 40.47700
H  30.38400 62.81100 42.90200
H  33.68500 63.73800 42.10800
H  33.01600 62.42100 43.17900
H  32.16600 64.03300 43.06800
H  28.89000 64.08400 40.50400
H  30.23000 64.98900 41.34700
H  28.71900 65.60500 42.84300
H  28.43700 63.89500 43.35300
H  27.55600 64.62500 42.02000
H  25.45200 61.61800 41.26400
H  24.49100 60.19400 41.50000
H  24.66700 60.84900 39.90200
H  26.42700 56.15800 37.89600
H  24.35800 52.64900 38.99700
H  24.80800 52.93000 40.62800
H  25.99800 52.28000 39.39400

