158

Mg -2.32000 17.01800 25.71000
C  -2.62700 14.64100 28.27300
C  -3.18500 19.51900 27.84900
C  -2.49700 19.19700 23.13600
C  -2.11200 14.41300 23.35800
N  -3.04000 17.03300 27.81100
C  -2.95800 16.00500 28.74100
C  -3.40300 16.53300 30.19700
C  -3.72300 18.06100 29.97000
C  -3.34800 18.26000 28.41000
C  -5.23800 18.33000 30.18600
C  -2.35400 16.14600 31.26500
C  -2.68700 16.79300 32.63300
H  -2.63000 16.08000 33.91900
N  -2.55900 19.07600 25.53800
C  -2.83400 19.86100 26.52900
C  -2.74700 21.28800 26.03200
C  -2.44300 21.25300 24.65900
C  -2.54500 19.80600 24.40300
C  -2.90300 22.51900 26.94000
C  -2.17900 22.36900 23.67700
O  -1.72900 22.14700 22.58500
C  -2.00600 23.78400 24.06300
N  -2.30100 16.86400 23.62100
C  -2.40700 17.86600 22.79100
C  -2.22300 17.55200 21.28200
C  -1.98600 16.06700 21.43300
C  -2.13900 15.70900 22.90600
C  -3.26900 18.04300 20.28800
C  -0.60000 15.58600 20.86900
C  0.64600 15.65800 21.76100
N  -2.35500 15.00000 25.75700
C  -2.32600 14.07200 24.73500
C  -2.29000 12.71400 25.36600
C  -2.32000 12.94900 26.71000
C  -2.35800 14.28200 26.93500
C  -2.21900 11.41900 24.51600
C  -2.40000 12.23400 27.96200
O  -2.29200 11.01700 28.25700
C  -2.65900 13.33800 29.04900
C  -1.42200 13.20300 29.94800
O  -0.36000 13.80600 29.84300
O  -1.63100 12.37700 30.97200
C  -0.64200 12.10400 31.98300
H  -3.56600 20.36900 28.42000
H  -2.48100 19.92500 22.32200
H  -2.04300 13.56800 22.67000
H  -4.29700 15.98400 30.49400
H  -3.02900 18.52700 30.66900
H  -5.47400 19.34200 29.85600
H  -5.45500 18.30900 31.25400
H  -5.82500 17.64200 29.57800
H  -1.36500 16.46400 30.93600
H  -2.36800 15.08800 31.52700
H  -3.69100 17.21500 32.60700
H  -1.98500 17.62600 32.58400
H  -3.71700 23.09000 26.49300
H  -2.01400 23.13500 26.80600
H  -3.07900 22.31400 27.99600
H  -1.89400 24.33700 23.13000
H  -1.11000 23.91000 24.67000
H  -2.82300 24.23200 24.62900
H  -1.30600 18.10100 21.06800
H  -2.82500 15.54800 20.96800
H  -3.98900 18.68700 20.79300
H  -3.84300 17.21100 19.87900
H  -2.80600 18.68200 19.53600
H  -0.51100 16.28200 20.03500
H  -0.66600 14.57900 20.45700
H  1.28400 16.49400 21.47500
H  1.24900 14.76000 21.62800
H  0.21400 15.87400 22.73900
H  -1.40500 11.49400 23.79500
H  -3.16600 11.28500 23.99400
H  -2.05900 10.67300 25.29400
H  -3.60400 13.13000 29.55300
H  -0.03100 11.23600 31.73500
H  -1.21500 11.91400 32.89100
H  0.04500 12.92700 32.18100
Mg 30.59000 59.67400 39.24500
C  27.76000 58.07000 38.20700
C  32.38500 56.91500 37.85000
C  33.35200 61.57800 39.15900
C  28.68800 62.44500 40.08400
N  30.14600 57.75300 37.93700
C  28.87000 57.31800 37.82900
C  28.85700 55.85100 37.19700
C  30.34300 55.38300 37.59600
C  30.99800 56.77800 37.81600
C  30.35200 54.52500 38.92700
C  28.50500 55.89100 35.62900
C  27.30200 55.08200 35.18000
H  26.37900 55.63800 34.03700
N  32.55800 59.29000 38.67100
C  33.10100 58.09000 38.17000
C  34.54700 58.27100 38.17700
C  34.91500 59.65700 38.39600
C  33.58400 60.22700 38.78000
C  35.46900 57.15000 37.89400
C  36.31700 60.33200 38.18300
O  37.32200 59.71200 37.82600
C  36.46300 61.83800 38.18100
N  30.97200 61.77100 39.42100
C  32.18700 62.31700 39.41700
C  32.18700 63.84100 39.83100
C  30.74700 64.05500 40.30400
C  30.11100 62.65000 39.98000
C  33.28400 64.15500 40.90700
C  30.14300 65.19800 39.50100
C  29.05300 65.92100 40.24200
N  28.60100 60.12700 39.30300
C  27.98500 61.27800 39.70500
C  26.52900 61.03000 39.58300
C  26.43300 59.77200 38.92800
C  27.69300 59.28900 38.82700
C  25.41600 61.89200 40.01500
C  25.46500 58.83100 38.48800
O  24.29700 58.92600 38.41600
C  26.29800 57.64300 37.98600
C  25.81400 56.47700 38.71300
O  26.13000 56.14800 39.85600
O  24.83600 55.86800 38.00300
C  24.00900 54.79300 38.71500
H  33.03000 56.08900 37.54500
H  34.24500 62.20500 39.21600
H  28.09200 63.30300 40.40100
H  28.10400 55.25100 37.70700
H  30.76000 54.89200 36.71700
H  31.22000 53.86800 38.98000
H  29.37400 54.04600 38.98300
H  30.36500 55.20500 39.77900
H  29.33700 55.46100 35.07200
H  28.30700 56.90100 35.26800
H  26.58000 55.01700 35.99400
H  27.71400 54.08600 35.02000
H  35.11700 56.15700 38.17600
H  36.44800 57.32500 38.34000
H  35.65400 57.20600 36.82200
H  37.45500 62.14400 37.84800
H  36.36900 62.36100 39.13300
H  35.81700 62.40900 37.51500
H  32.45100 64.52900 39.02900
H  30.74700 64.26600 41.37400
H  33.70400 63.23400 41.31200
H  32.83500 64.48200 41.84400
H  34.08600 64.81400 40.57200
H  29.73100 64.85400 38.55200
H  30.94000 65.90800 39.27900
H  28.16000 65.75200 39.64100
H  29.31300 66.98000 40.25700
H  28.82500 65.63900 41.27000
H  24.66100 61.38700 40.61700
H  24.82900 62.14000 39.13100
H  25.77300 62.75900 40.57100
H  26.04700 57.60800 36.92600
H  23.75800 55.23900 39.67800
H  24.47300 53.81500 38.84300
H  23.08400 54.66900 38.15100

