158

Mg 24.17300 -5.98800 45.20700
C  26.72300 -3.83000 43.91800
C  21.98900 -4.68200 42.97800
C  22.34400 -8.78700 45.58000
C  26.89500 -7.71200 46.89500
N  24.41000 -4.43700 43.65600
C  25.51400 -3.65200 43.29300
C  25.19900 -2.76500 42.06000
C  23.65200 -2.91500 42.01300
C  23.30200 -4.08000 42.98200
C  22.79300 -1.61800 42.21700
C  25.96600 -3.22400 40.81200
C  26.81200 -2.17900 40.13500
H  26.52100 -1.89500 38.68900
N  22.41200 -6.57500 44.54800
C  21.61200 -5.83700 43.67600
C  20.31500 -6.55600 43.44800
C  20.41100 -7.76000 44.30300
C  21.77700 -7.74600 44.88900
C  19.21000 -6.12500 42.57400
C  19.37800 -8.90700 44.42700
O  18.28900 -8.78300 43.84100
C  19.52100 -10.00600 45.44000
N  24.52400 -7.90400 46.16400
C  23.59000 -8.87400 46.18200
C  24.04200 -10.11200 47.03900
C  25.42400 -9.66300 47.59000
C  25.66300 -8.33200 46.89600
C  23.06900 -10.45700 48.21300
C  26.52200 -10.74700 47.29800
C  27.50800 -11.08400 48.44800
N  26.32000 -5.70200 45.62500
C  27.21100 -6.54800 46.23700
C  28.54800 -5.97200 46.19300
C  28.41700 -4.80100 45.40600
C  26.99600 -4.74700 44.97700
C  29.80500 -6.51800 46.70400
C  29.14500 -3.76700 44.69300
O  30.35600 -3.51000 44.63800
C  28.09000 -3.04100 43.76700
C  28.00600 -1.54400 44.00300
O  27.01600 -0.91900 44.32300
O  29.27800 -0.97200 43.82600
C  29.25800 0.49200 43.96600
H  21.29500 -4.18300 42.29800
H  21.87700 -9.71900 45.90500
H  27.70300 -8.24100 47.40500
H  25.52100 -1.76000 42.33300
H  23.45000 -3.46700 41.09500
H  22.16700 -1.56800 41.32600
H  23.39700 -0.71200 42.17100
H  22.05300 -1.68900 43.01400
H  25.19800 -3.45400 40.07300
H  26.52900 -4.14100 40.98600
H  27.85700 -2.49100 40.11700
H  26.85400 -1.23700 40.68200
H  19.61700 -6.31200 41.58100
H  19.21100 -5.03600 42.61800
H  18.27400 -6.59600 42.87500
H  18.57400 -10.50500 45.64500
H  19.80600 -9.48900 46.35600
H  20.28800 -10.61900 44.96600
H  24.16100 -10.84800 46.24400
H  25.46600 -9.37800 48.64200
H  23.46800 -10.20900 49.19600
H  22.97300 -11.54300 48.22200
H  22.07300 -10.03700 48.07400
H  27.07900 -10.46900 46.40400
H  26.16000 -11.71100 46.94200
H  27.45800 -12.17100 48.50600
H  27.02300 -10.81200 49.38500
H  28.50700 -10.65100 48.40100
H  30.66600 -5.95200 46.34700
H  29.90600 -7.51800 46.28100
H  29.75100 -6.49600 47.79200
H  28.52500 -3.18200 42.77800
H  30.29900 0.69500 43.71400
H  28.99500 0.88100 44.94900
H  28.68000 1.02400 43.21100
Mg 35.01300 48.66700 26.17200
C  35.37800 46.64700 28.99500
C  33.53600 51.12700 28.23200
C  34.02100 50.45400 23.44200
C  35.74300 45.92100 24.28800
N  34.67100 48.95300 28.38400
C  34.94000 47.97200 29.34600
C  34.66100 48.46700 30.78300
C  34.03300 49.87800 30.51200
C  34.12800 50.05000 28.95600
C  32.62000 50.12800 31.08000
C  35.85900 48.55900 31.74700
C  35.73900 48.19900 33.23900
H  36.04200 49.26700 34.31300
N  33.99100 50.53800 25.89000
C  33.49000 51.36200 26.89600
C  32.87300 52.46200 26.21200
C  32.99500 52.35100 24.79400
C  33.64900 51.06600 24.62900
C  32.33500 53.66700 26.96500
C  32.58300 53.20400 23.64700
O  32.72500 52.95300 22.50000
C  31.93300 54.62800 23.83400
N  35.00000 48.28400 24.13700
C  34.65100 49.21200 23.18100
C  34.73800 48.58300 21.79000
C  35.20600 47.19100 22.06400
C  35.42500 47.11400 23.58200
C  33.41300 48.68100 20.92800
C  36.43900 46.60000 21.24600
C  36.14900 45.43700 20.28700
N  35.84200 46.72300 26.49200
C  35.92300 45.62800 25.63000
C  36.16500 44.39200 26.37900
C  36.08000 44.78900 27.71600
C  35.77300 46.15900 27.73600
C  36.40300 43.01400 25.76700
C  36.19600 44.26400 29.09600
O  36.53800 43.12700 29.46700
C  35.73000 45.51800 30.01200
C  34.66700 45.04000 30.86400
O  33.54600 44.78400 30.49200
O  35.01900 44.89600 32.19200
C  33.99000 44.79200 33.19300
H  33.21600 52.02400 28.76600
H  33.50200 51.04500 22.68500
H  35.89700 45.05600 23.63900
H  33.89900 47.82200 31.22000
H  34.67000 50.60400 31.01800
H  32.13100 49.27200 31.54500
H  31.98300 50.50400 30.27900
H  32.54700 50.86900 31.87700
H  36.37400 49.51900 31.74600
H  36.58400 47.88100 31.29700
H  36.33500 47.31700 33.47100
H  34.73300 47.82500 33.43200
H  32.18300 54.60900 26.43800
H  33.02100 53.84700 27.79200
H  31.36100 53.31600 27.30300
H  31.68200 54.98500 22.83500
H  32.75900 55.16000 24.30700
H  31.07600 54.66100 24.50600
H  35.51800 49.13500 21.26500
H  34.36700 46.51900 21.88300
H  32.55100 48.81800 21.58100
H  33.27300 47.71500 20.44400
H  33.50000 49.47100 20.18100
H  37.20900 46.22800 21.92100
H  36.85100 47.41800 20.65600
H  36.25400 44.43600 20.70800
H  36.76400 45.50900 19.39000
H  35.14600 45.54300 19.87400
H  37.48900 42.93700 25.72600
H  36.04900 42.89200 24.74400
H  35.81500 42.26400 26.29700
H  36.55400 45.89300 30.61900
H  33.00200 45.05900 32.81900
H  34.23400 45.56000 33.92800
H  33.96700 43.91200 33.83500

