158

Mg 44.25500 5.01800 47.63300
C  42.25100 7.64100 46.78100
C  41.42100 2.88700 47.29200
C  46.31800 2.30500 47.40900
C  47.08100 7.15400 47.30600
N  42.07600 5.29900 47.16800
C  41.52600 6.48000 46.80000
C  40.03100 6.36600 46.51700
C  39.72300 4.90400 46.92700
C  41.20900 4.31000 47.07600
C  38.77600 4.67600 48.12100
C  39.62300 6.54800 44.98100
C  38.78100 7.84900 44.70800
H  38.70000 8.47400 43.29900
N  43.93100 2.97000 47.44100
C  42.75600 2.29000 47.39500
C  43.03300 0.85300 47.17500
C  44.40700 0.70100 47.16900
C  44.93000 1.99900 47.37300
C  41.99100 -0.17100 46.93800
C  45.17100 -0.69100 46.95400
O  44.49600 -1.72100 46.63800
C  46.64300 -0.85500 47.09600
N  46.38400 4.76700 47.38600
C  46.97500 3.54600 47.46000
C  48.51900 3.69100 47.63500
C  48.63200 5.20500 47.95800
C  47.29500 5.78700 47.58400
C  49.29700 2.81700 48.65200
C  49.88600 5.86100 47.30700
C  50.67000 7.03300 47.99600
N  44.65000 6.96200 47.29200
C  45.82300 7.72800 47.18300
C  45.51900 9.08700 46.88700
C  44.11900 9.10800 46.70700
C  43.67600 7.80400 46.92500
C  46.48800 10.21900 46.84700
C  43.03800 9.99600 46.53400
O  42.85400 11.17200 46.36600
C  41.74100 9.09000 46.62700
C  40.81000 9.54500 47.71800
O  40.63700 9.01600 48.83200
O  40.01000 10.58700 47.23100
C  39.06400 11.05900 48.27000
H  40.56900 2.26000 47.02300
H  47.07500 1.51900 47.42500
H  47.93300 7.83800 47.32100
H  39.53300 7.17500 47.05100
H  39.27100 4.27900 46.15700
H  38.27800 5.55700 48.52800
H  39.43300 4.28700 48.89800
H  38.05500 3.89700 47.87600
H  39.12800 5.69300 44.51900
H  40.54000 6.61500 44.39500
H  39.29400 8.62700 45.27200
H  37.81100 7.73900 45.19300
H  42.00200 -0.88100 47.76500
H  42.21000 -0.81000 46.08100
H  41.01500 0.27700 46.75200
H  47.28900 -0.45400 46.31600
H  46.81700 -1.92700 47.18700
H  46.98200 -0.37100 48.01200
H  48.83300 3.52100 46.60500
H  48.78000 5.26900 49.03600
H  49.69800 1.97300 48.09000
H  48.58500 2.38900 49.35800
H  50.08500 3.36300 49.17000
H  49.68600 6.07000 46.25600
H  50.54500 4.99300 47.29600
H  50.99400 7.74500 47.23700
H  51.55800 6.62900 48.48200
H  50.00600 7.54100 48.69600
H  46.95900 10.31200 45.86800
H  47.36800 10.05800 47.47000
H  46.05800 11.09400 47.33500
H  41.29700 9.15700 45.63300
H  38.72100 12.05300 47.98200
H  39.49000 11.19400 49.26400
H  38.22900 10.36200 48.34300
Mg 1.96500 42.03200 24.29900
C  3.52900 42.07000 27.68900
C  -0.89300 41.16200 25.81200
C  0.81400 41.83000 21.33700
C  5.19600 42.67900 23.04000
N  1.41100 41.51400 26.49500
C  2.16500 41.69600 27.69000
C  1.27600 41.45500 28.95200
C  -0.11100 41.18500 28.34100
C  0.11300 41.24200 26.78700
C  -0.75600 39.90300 28.77900
C  1.32400 42.69000 29.87800
C  1.24000 42.41600 31.43300
H  -0.16400 42.10000 31.96000
N  0.28100 41.36000 23.67400
C  -0.86200 41.16500 24.45800
C  -2.04400 41.14300 23.57700
C  -1.55500 41.21100 22.21200
C  -0.09300 41.50300 22.38400
C  -3.46700 41.06100 24.13200
C  -2.28900 41.12400 20.91100
O  -1.76600 41.13600 19.77700
C  -3.76300 40.86100 21.01600
N  2.86700 42.04200 22.50000
C  2.15600 42.07100 21.36700
C  2.99200 42.33900 20.13200
C  4.38400 42.66800 20.77000
C  4.12100 42.47100 22.23200
C  2.97500 41.11500 19.10700
C  4.98900 44.06300 20.45100
C  4.37200 45.21900 21.16600
N  3.92300 42.39800 25.16000
C  5.12200 42.63800 24.47400
C  6.23100 42.69300 25.42800
C  5.60300 42.55900 26.70600
C  4.20600 42.35000 26.51400
C  7.71000 42.72700 25.15100
C  5.86800 42.47500 28.12400
O  6.94100 42.50700 28.64100
C  4.52000 42.15700 28.86100
C  4.68300 40.89900 29.64400
O  4.44600 39.74300 29.24700
O  5.31400 41.18100 30.82800
C  5.80800 39.98400 31.61300
H  -1.86300 41.04700 26.30000
H  0.37900 41.79600 20.33600
H  6.20600 42.97200 22.74600
H  1.61400 40.60700 29.54800
H  -0.81800 41.99000 28.54500
H  -0.18600 39.38200 29.54800
H  -0.80700 39.28300 27.88400
H  -1.73700 40.22400 29.12800
H  0.40500 43.25400 29.71500
H  2.10200 43.35700 29.50600
H  1.61200 43.27800 31.98700
H  1.88800 41.55700 31.60600
H  -3.44500 40.89800 25.21000
H  -4.02200 40.19000 23.78300
H  -4.06400 41.94100 23.89300
H  -4.28200 41.74100 21.39400
H  -3.94600 39.95300 21.59100
H  -4.16000 40.68600 20.01600
H  2.64600 43.19000 19.54600
H  5.02800 41.83100 20.49900
H  3.94700 40.68400 18.86600
H  2.71700 41.50600 18.12300
H  2.30200 40.36100 19.51300
H  4.85600 44.27400 19.39000
H  6.05200 44.07300 20.69100
H  3.49500 44.87900 21.71700
H  3.90600 45.86900 20.42500
H  5.09000 45.68100 21.84300
H  8.09500 41.86000 24.61400
H  8.23800 42.84700 26.09700
H  7.84100 43.58400 24.49100
H  4.10900 42.94200 29.49500
H  6.66000 39.48300 31.15500
H  4.98900 39.26400 31.60900
H  6.13200 40.33500 32.59200

