158

Mg 43.74200 3.18100 47.44300
C  41.23300 5.37400 46.56800
C  41.31700 0.57700 47.44900
C  46.27700 0.91100 47.62500
C  46.01300 5.68300 47.38500
N  41.48400 2.98500 46.85400
C  40.65900 4.08000 46.66400
C  39.17700 3.67100 46.53300
C  39.28200 2.16900 47.07500
C  40.76900 1.90500 47.19600
C  38.52200 1.89800 48.46400
C  38.67500 3.67900 45.03400
C  37.56600 4.71400 44.60900
H  37.87100 5.63100 43.43900
N  43.75400 1.00100 47.51400
C  42.69000 0.12300 47.45400
C  43.17200 -1.27200 47.57100
C  44.56500 -1.21400 47.81600
C  44.96000 0.29400 47.66900
C  42.25800 -2.43400 47.46900
C  45.46400 -2.40100 48.02100
O  44.95000 -3.51900 47.95700
C  46.98600 -2.25300 48.20200
N  45.90000 3.29200 47.41800
C  46.69100 2.19100 47.45600
C  48.16400 2.60000 47.46100
C  48.10100 4.17200 47.47800
C  46.60500 4.42100 47.45700
C  49.06900 1.98100 48.55400
C  49.01800 4.94200 46.49700
C  50.45800 4.91900 46.89300
N  43.69600 5.24700 47.14100
C  44.68000 6.16300 47.16000
C  44.15800 7.47800 46.84200
C  42.78700 7.23600 46.69200
C  42.55400 5.86600 46.80500
C  44.92100 8.73000 46.69500
C  41.44900 7.81700 46.47200
O  41.12000 8.95400 46.45900
C  40.38800 6.62000 46.33900
C  39.53700 6.81700 47.53700
O  39.86000 6.87000 48.68600
O  38.25800 6.93700 47.11100
C  37.22300 7.13100 48.15800
H  40.53600 -0.18300 47.38800
H  47.17900 0.30300 47.72400
H  46.74700 6.49200 47.39200
H  38.57600 4.28100 47.20900
H  38.92400 1.48200 46.30800
H  37.94700 2.76000 48.80400
H  39.31600 1.76100 49.19800
H  37.84100 1.05400 48.35600
H  38.28200 2.69100 44.79200
H  39.47300 3.99200 44.36200
H  37.26000 5.38400 45.41200
H  36.66300 4.16200 44.34800
H  42.58900 -2.96800 46.57900
H  41.19800 -2.23600 47.31100
H  42.35300 -3.14500 48.28900
H  47.40300 -1.89700 47.26000
H  47.30800 -3.24200 48.52800
H  47.15400 -1.49500 48.96800
H  48.51700 2.30900 46.47200
H  48.51100 4.49100 48.43600
H  49.91200 1.50000 48.05800
H  48.55000 1.28200 49.21100
H  49.41800 2.71500 49.28000
H  48.71100 5.96800 46.29600
H  48.79100 4.46800 45.54200
H  50.63700 4.45900 47.86500
H  50.86400 5.92800 46.96200
H  51.08700 4.46200 46.12900
H  44.37000 9.57000 47.11800
H  45.19500 8.81200 45.64400
H  45.80800 8.69800 47.32800
H  39.87000 6.72300 45.38500
H  37.12800 6.36400 48.92700
H  36.26100 7.22500 47.65300
H  37.40200 8.10000 48.62400
Mg 47.57900 44.94700 42.93300
C  44.13300 44.96900 42.28100
C  47.56800 41.57000 42.30700
C  51.06300 45.00000 42.61100
C  47.50000 48.42900 43.06400
N  46.00200 43.51500 42.28400
C  44.66400 43.70200 42.20000
C  43.96000 42.36200 41.90200
C  45.02400 41.24000 41.97300
C  46.31700 42.15600 42.25200
C  44.96100 40.16300 43.09400
C  43.11400 42.41900 40.64100
C  43.79800 42.92100 39.36400
H  43.58000 42.12500 38.09500
N  49.12600 43.45900 42.74600
C  48.88900 42.12200 42.53500
C  50.15600 41.43700 42.62800
C  51.17500 42.40100 42.81400
C  50.47500 43.72000 42.79100
C  50.30900 39.88300 42.44000
C  52.68100 42.10000 42.86200
O  53.16400 40.98300 42.61500
C  53.59700 43.26400 43.29500
N  49.06400 46.46700 42.89600
C  50.44200 46.23700 42.66800
C  51.22700 47.61500 42.52500
C  50.11900 48.66700 42.88200
C  48.79400 47.86200 42.98700
C  52.50900 47.65200 43.42100
C  50.04100 49.91200 41.92500
C  49.74000 51.22000 42.56400
N  46.18200 46.41500 42.78900
C  46.27800 47.78700 42.83600
C  44.97000 48.42100 42.68900
C  44.11000 47.30500 42.47900
C  44.91100 46.15600 42.48800
C  44.60400 49.89300 42.61000
C  42.72300 46.97800 42.25100
O  41.74500 47.68700 42.12600
C  42.70400 45.43700 42.14400
C  41.78000 44.92700 43.20200
O  40.59400 45.03000 43.12400
O  42.43600 44.57600 44.39900
C  41.58600 44.26200 45.47800
H  47.52700 40.50200 42.08000
H  52.13100 45.03600 42.38700
H  47.37500 49.50300 43.21600
H  43.22800 42.25100 42.70200
H  45.14700 40.74600 41.01000
H  43.94100 40.02300 43.45200
H  45.70700 40.30400 43.87600
H  45.30000 39.25300 42.59800
H  42.15600 42.89900 40.84000
H  42.92800 41.34900 40.56000
H  44.85100 43.20100 39.39800
H  43.35800 43.89200 39.13700
H  51.03100 39.71000 41.64200
H  49.39700 39.35300 42.16500
H  50.67900 39.40800 43.34900
H  54.05400 43.66500 42.39100
H  54.35700 42.85300 43.95900
H  53.15100 44.00400 43.96000
H  51.61600 47.76700 41.51900
H  50.24000 49.02500 43.90400
H  52.78900 48.60100 43.87900
H  53.41000 47.35700 42.88300
H  52.35900 46.91400 44.20900
H  49.34400 49.63000 41.13600
H  50.99000 50.04900 41.40500
H  50.71100 51.70100 42.67900
H  49.20100 51.18000 43.51000
H  49.26400 51.79300 41.76800
H  44.99000 50.13500 41.62000
H  45.19900 50.59700 43.19200
H  43.54300 50.06300 42.79200
H  42.40700 45.12400 41.14300
H  42.21000 44.41400 46.35900
H  41.27800 43.21700 45.49600
H  40.81300 45.02500 45.56600

