158

Mg 26.06200 51.97000 26.39000
C  23.91900 52.93000 28.94200
C  28.33000 51.13500 28.77500
C  28.28800 51.61100 23.86700
C  23.79400 53.48900 24.05800
N  26.02700 51.80500 28.57200
C  25.05700 52.25400 29.38600
C  25.39000 52.03100 30.88000
C  26.93700 51.66300 30.82900
C  27.12400 51.55200 29.31400
C  27.84500 52.76100 31.45400
C  24.45300 50.94900 31.62000
C  23.72500 51.57000 32.86900
H  23.54400 50.54400 34.03100
N  28.07400 51.47600 26.32300
C  28.80600 50.99700 27.44400
C  30.12700 50.58500 26.95200
C  30.14600 50.88000 25.58300
C  28.84100 51.34800 25.18000
C  31.26800 50.05500 27.85000
C  31.33000 50.79600 24.62300
O  31.20900 51.17400 23.41200
C  32.69600 50.47100 25.04400
N  26.05200 52.47300 24.32600
C  27.07100 52.15100 23.50900
C  26.77500 52.54500 22.02900
C  25.25200 52.88100 22.04200
C  25.03300 52.96900 23.54300
C  27.65600 53.71400 21.47100
C  24.42000 51.74200 21.31600
C  23.79700 52.25600 20.02900
N  24.13400 52.75900 26.45900
C  23.42700 53.39400 25.42100
C  22.10900 53.87100 25.97400
C  22.30200 53.66200 27.33800
C  23.54600 53.05600 27.59500
C  20.99300 54.60800 25.20000
C  21.64300 53.79800 28.59700
O  20.49000 54.16000 28.81500
C  22.67000 53.34500 29.67800
C  22.90300 54.48200 30.60800
O  23.80400 55.24000 30.44200
O  21.95800 54.45100 31.58000
C  22.02400 55.54100 32.63000
H  29.09800 50.92600 29.52200
H  28.97200 51.41800 23.03800
H  23.07000 53.69400 23.26700
H  25.18000 53.00600 31.32000
H  27.18800 50.67900 31.22400
H  27.45100 53.77600 31.48500
H  28.82100 52.78000 30.96800
H  28.19900 52.51200 32.45400
H  24.91400 49.99500 31.87200
H  23.68900 50.70700 30.88100
H  22.75100 51.83800 32.46000
H  24.28100 52.45500 33.17600
H  32.20300 50.52200 27.53900
H  31.27000 48.96900 27.75800
H  30.99300 50.37800 28.85400
H  32.70500 49.39400 25.21300
H  33.17200 51.09500 25.80100
H  33.29500 50.63600 24.14900
H  26.91500 51.60300 21.49900
H  25.08100 53.87600 21.63100
H  27.95100 54.42900 22.24000
H  27.01100 54.15900 20.71400
H  28.54600 53.32400 20.97800
H  23.66200 51.26800 21.94100
H  25.05800 50.96300 20.89800
H  24.42800 52.02700 19.17000
H  23.63400 53.33100 20.11000
H  22.73100 52.13600 19.83600
H  20.05800 54.10200 25.43800
H  21.05200 54.53600 24.11400
H  21.07000 55.65800 25.48300
H  22.18200 52.53700 30.22400
H  22.96100 55.58600 33.18600
H  21.27500 55.36300 33.40200
H  21.93500 56.50100 32.12200
Mg -10.46600 39.93900 42.15800
C  -9.16700 36.65400 41.22200
C  -7.64100 41.28800 40.47500
C  -11.86500 42.88100 42.22200
C  -13.50100 38.34300 42.78900
N  -8.77900 39.07100 40.85700
C  -8.39700 37.75500 40.79400
C  -6.97800 37.64800 40.20900
C  -6.39700 39.09000 40.34800
C  -7.71100 39.90600 40.56000
C  -5.22300 39.39000 41.41900
C  -6.99600 37.08600 38.72300
C  -5.90600 36.00200 38.39500
H  -4.78400 36.23400 37.36200
N  -9.76300 41.84700 41.58600
C  -8.62400 42.21900 40.96400
C  -8.53300 43.69600 40.96300
C  -9.73200 44.13700 41.67400
C  -10.52900 42.92800 41.82400
C  -7.43800 44.44800 40.28500
C  -10.16300 45.55700 41.96000
O  -9.37800 46.47400 41.63200
C  -11.40100 46.07600 42.66500
N  -12.45000 40.57400 42.39200
C  -12.80500 41.87600 42.40100
C  -14.30400 41.99200 42.72500
C  -14.80500 40.53900 42.93200
C  -13.51800 39.72500 42.68400
C  -14.53200 42.89100 43.93300
C  -16.06900 40.17800 42.10600
C  -17.17800 39.39500 42.84400
N  -11.17700 37.89400 42.21300
C  -12.47000 37.41100 42.49600
C  -12.43800 35.93400 42.46900
C  -11.15900 35.62400 41.99900
C  -10.47600 36.77800 41.76900
C  -13.62800 35.06900 42.63600
C  -10.26900 34.55300 41.67000
O  -10.35800 33.33700 41.67000
C  -9.02000 35.21100 41.07200
C  -7.81700 34.72000 41.78000
O  -7.35000 35.22000 42.82100
O  -7.15700 33.75900 40.97100
C  -5.87400 33.17800 41.34800
H  -6.76200 41.72300 39.99400
H  -12.34800 43.85500 42.32400
H  -14.40900 37.76300 42.96800
H  -6.47900 36.98100 40.91300
H  -5.95200 39.23500 39.36300
H  -5.65700 40.01200 42.20100
H  -4.43700 40.00200 40.97700
H  -4.98100 38.36900 41.71400
H  -6.85800 37.88500 37.99400
H  -7.94000 36.61200 38.45400
H  -6.47400 35.10000 38.16600
H  -5.30300 35.78700 39.27600
H  -7.88900 44.80900 39.36100
H  -6.55400 43.83000 40.12600
H  -7.09300 45.39000 40.71100
H  -12.14100 46.09000 41.86500
H  -11.21300 47.02600 43.16500
H  -11.72300 45.43500 43.48700
H  -14.77100 42.45400 41.85600
H  -14.94200 40.34500 43.99600
H  -14.93000 43.86700 43.65600
H  -13.58000 43.03000 44.44600
H  -15.26800 42.50300 44.63800
H  -15.73700 39.70500 41.18300
H  -16.54100 41.10900 41.79100
H  -16.79200 38.81300 43.68100
H  -17.54400 38.68200 42.10500
H  -17.92900 40.11100 43.17400
H  -14.49300 35.56900 43.07000
H  -13.37500 34.20600 43.25200
H  -13.86000 34.66000 41.65200
H  -8.91200 34.94600 40.02000
H  -5.93700 32.39200 42.10100
H  -5.19800 33.88200 41.83300
H  -5.40400 32.83500 40.42600

