158

Mg 8.60200 2.98800 27.35400
C  9.66200 1.12200 30.18500
C  6.60400 4.92700 29.40200
C  7.43900 4.37600 24.55000
C  10.29300 0.47900 25.31500
N  8.17100 2.85900 29.49400
C  8.80800 2.16600 30.53100
C  8.45700 2.71500 31.92300
C  7.45400 3.92200 31.52700
C  7.36900 3.89100 30.03100
C  5.98300 3.66800 32.02900
C  9.82300 3.11000 32.70200
C  9.63400 4.04100 33.87600
H  10.45200 3.72700 35.21100
N  7.16900 4.40100 27.06700
C  6.50500 5.13800 28.01400
C  5.69200 6.12900 27.31000
C  5.93900 5.94700 25.86000
C  6.90800 4.85700 25.79300
C  4.76000 7.08500 28.05900
C  5.34800 6.67000 24.72000
O  5.50500 6.44000 23.51300
C  4.38100 7.85900 25.07200
N  8.84900 2.53000 25.23800
C  8.27600 3.29400 24.26700
C  8.64500 2.78000 22.79300
C  9.41200 1.44800 23.09300
C  9.50500 1.43000 24.64400
C  7.41800 2.63300 21.85200
C  10.81900 1.26500 22.32300
C  10.96600 -0.01000 21.46600
N  9.87200 1.22400 27.61000
C  10.46700 0.31000 26.73600
C  11.18600 -0.74300 27.47500
C  10.92900 -0.40900 28.83400
C  10.13200 0.76700 28.88300
C  11.97400 -1.90000 26.84200
C  11.18200 -0.88900 30.20500
O  11.77300 -1.82700 30.71600
C  10.41000 0.17100 31.09900
C  9.44600 -0.56000 31.99600
O  8.59500 -1.33200 31.60800
O  9.67700 -0.24500 33.35000
C  8.67400 -0.69300 34.31200
H  6.04900 5.57200 30.08600
H  7.32400 4.98100 23.64800
H  10.81900 -0.31100 24.77600
H  8.00700 1.95400 32.56000
H  7.85000 4.90100 31.80000
H  6.01100 2.95700 32.85500
H  5.34800 3.46600 31.16700
H  5.91500 4.68600 32.41400
H  10.38800 3.59300 31.90500
H  10.34600 2.29300 33.20000
H  8.56200 4.19100 34.00600
H  9.98400 5.03500 33.59700
H  4.83500 6.92900 29.13500
H  3.85500 6.70500 27.58400
H  4.91600 8.11200 27.72800
H  3.41700 7.58100 25.49800
H  4.19000 8.30900 24.09800
H  4.89500 8.56400 25.72500
H  9.31500 3.46600 22.27400
H  8.71400 0.63200 22.90700
H  6.48500 2.79200 22.39200
H  7.45400 1.61800 21.45800
H  7.41600 3.32700 21.01100
H  11.70600 1.13300 22.94400
H  11.05800 2.13600 21.71300
H  10.74500 0.35700 20.46400
H  10.19500 -0.74700 21.69100
H  11.98000 -0.39600 21.35700
H  12.53600 -1.59200 25.96000
H  11.39900 -2.77500 26.54000
H  12.76200 -2.14400 27.55500
H  11.16300 0.71100 31.67200
H  8.18700 -1.66700 34.25300
H  7.96500 0.09300 34.57300
H  9.24500 -0.89500 35.21800
Mg 9.70200 47.77700 28.14700
C  7.91000 47.37800 31.20400
C  12.46700 48.42500 29.99400
C  11.21800 48.96900 25.34500
C  6.55900 48.02900 26.45100
N  10.14800 47.70600 30.38200
C  9.28600 47.55500 31.44100
C  10.04500 47.60400 32.76900
C  11.46500 48.06200 32.39800
C  11.38400 48.03000 30.81700
C  11.94400 49.42200 32.97900
C  9.86800 46.28100 33.59900
C  11.01600 45.92000 34.57200
H  10.69900 45.16900 35.91400
N  11.63000 48.24600 27.66000
C  12.61200 48.46000 28.57200
C  13.82400 48.68400 27.81100
C  13.52400 48.82000 26.45400
C  12.03200 48.70400 26.43100
C  15.16400 49.01100 28.51900
C  14.43700 49.21000 25.20200
O  14.08200 49.50700 24.05400
C  15.89000 49.21000 25.48000
N  8.99300 48.39200 26.08400
C  9.80400 48.75300 25.07400
C  9.03800 49.10200 23.75800
C  7.64000 48.75000 24.22600
C  7.66700 48.30900 25.66300
C  9.09300 50.52800 23.31800
C  6.87600 47.73700 23.32800
C  6.33200 48.32500 21.99100
N  7.63700 47.55100 28.62400
C  6.45800 47.68400 27.84700
C  5.30300 47.59100 28.68600
C  5.86000 47.35300 29.94900
C  7.23800 47.48500 29.93600
C  3.91600 47.78400 28.31300
C  5.51900 47.20500 31.37200
O  4.43900 47.13100 31.85200
C  6.80600 47.07100 32.16900
C  6.81900 45.65400 32.54200
O  7.18300 44.73200 31.88100
O  6.31700 45.58000 33.79800
C  6.23600 44.27700 34.40700
H  13.33700 48.51300 30.64800
H  11.62300 49.35000 24.40500
H  5.54900 48.16700 26.05900
H  9.49900 48.32600 33.37600
H  12.20700 47.30400 32.65200
H  11.23100 49.87500 33.66800
H  12.01800 50.23400 32.25600
H  12.86800 49.23100 33.52400
H  9.72700 45.51900 32.83300
H  8.95600 46.27900 34.19600
H  11.40500 46.89500 34.86500
H  11.70300 45.31200 33.98400
H  15.45500 50.01700 28.21700
H  15.96100 48.27900 28.39000
H  14.92800 49.06400 29.58200
H  16.26400 49.10500 24.46200
H  16.20600 48.33000 26.04100
H  15.95100 50.14300 26.04000
H  9.50100 48.44600 23.02100
H  7.00300 49.63500 24.23500
H  8.18600 50.89900 22.84000
H  9.87200 50.35800 22.57400
H  9.49400 51.18700 24.08800
H  5.98900 47.37000 23.84300
H  7.55800 46.93900 23.03200
H  6.83300 47.65200 21.29600
H  6.67900 49.35700 21.94500
H  5.25600 48.16300 21.91800
H  3.23600 47.50600 29.11800
H  3.77100 47.29600 27.34900
H  3.71100 48.83600 28.11400
H  6.78500 47.70900 33.05200
H  5.51000 43.75100 33.78700
H  5.79900 44.33100 35.40400
H  7.20300 43.77900 34.47000

