158

Mg 41.30300 8.82700 30.51900
C  43.11700 10.31000 33.07100
C  38.87600 8.11800 32.80300
C  39.63200 7.49800 28.02800
C  43.80400 9.75900 28.34200
N  41.17000 9.12500 32.76300
C  41.98600 9.72600 33.65000
C  41.37800 9.87200 35.05700
C  40.07100 9.03900 34.97300
C  40.04300 8.66600 33.40600
C  40.00400 7.70800 35.86300
C  41.08800 11.37800 35.47500
C  40.07200 11.59000 36.65400
H  40.60900 12.50300 37.82000
N  39.52800 7.81700 30.51500
C  38.57100 7.73600 31.50500
C  37.38900 7.09600 31.01200
C  37.57600 6.97300 29.59800
C  38.98500 7.39400 29.31600
C  36.22800 6.68800 31.95500
C  36.64400 6.42700 28.56600
O  36.98900 6.16000 27.45600
C  35.14600 6.34800 28.86800
N  41.77100 8.41500 28.45800
C  40.89800 7.91000 27.62100
C  41.31500 7.92500 26.13000
C  42.71800 8.72800 26.26100
C  42.76300 9.01100 27.76300
C  41.29600 6.48900 25.43700
C  42.89300 10.04000 25.37600
C  41.85600 11.12700 25.54500
N  43.08000 9.76600 30.64300
C  44.01100 10.07900 29.68300
C  45.06800 10.90300 30.17600
C  44.74100 10.98900 31.58200
C  43.50400 10.27500 31.77400
C  46.26600 11.56900 29.49300
C  45.16900 11.63400 32.71400
O  46.14800 12.35000 32.98300
C  44.11300 11.26900 33.78900
C  44.84800 10.78300 34.99000
O  45.59000 9.80600 34.95500
O  44.38200 11.35800 36.09100
C  45.09200 10.93100 37.32500
H  38.04300 7.99500 33.49900
H  39.12300 7.24700 27.09500
H  44.56400 10.17400 27.67700
H  42.00400 9.53200 35.88200
H  39.20200 9.67300 35.15400
H  39.13800 7.68800 36.52500
H  40.90600 7.67400 36.47300
H  39.92100 6.75300 35.34400
H  40.52600 11.72300 34.60800
H  42.00000 11.96300 35.59100
H  39.83000 10.65400 37.15800
H  39.14800 12.01600 36.26100
H  35.33900 7.31900 31.93400
H  36.51800 6.56500 32.99900
H  35.81300 5.71600 31.68800
H  34.95800 7.25600 29.44100
H  34.81200 5.43100 29.35400
H  34.57500 6.37700 27.93900
H  40.61600 8.55200 25.57700
H  43.58800 8.16300 25.92500
H  40.47200 5.91700 25.86500
H  42.26200 6.01500 25.60800
H  41.15500 6.61700 24.36400
H  42.87500 9.68800 24.34500
H  43.91000 10.42700 25.43000
H  42.43400 11.99100 25.87300
H  41.07800 10.82200 26.24400
H  41.40000 11.50100 24.62800
H  46.98000 10.75500 29.36200
H  46.62200 12.34700 30.16800
H  46.09200 12.05100 28.53100
H  43.61900 12.19000 34.09800
H  44.36500 10.37700 37.91800
H  45.22400 11.81000 37.95600
H  46.07100 10.46500 37.21800
Mg -10.65200 40.24600 39.53900
C  -9.21300 36.98900 38.86800
C  -7.82400 41.60600 38.28200
C  -12.25200 43.10500 39.36300
C  -13.56300 38.56500 40.55700
N  -8.82000 39.39700 38.68200
C  -8.41000 38.06900 38.44800
C  -6.95800 37.99400 37.92100
C  -6.53100 39.40700 38.52100
C  -7.76600 40.23400 38.39000
C  -5.97000 39.34700 40.00200
C  -6.88500 37.88200 36.35900
C  -6.16600 36.66000 35.82700
H  -6.85800 35.91300 34.72500
N  -10.08300 42.12600 38.93800
C  -8.83600 42.54600 38.49700
C  -8.83200 43.94800 38.37900
C  -10.08300 44.42000 38.69300
C  -10.86600 43.22300 39.03700
C  -7.53600 44.73000 37.93000
C  -10.57400 45.81700 38.52400
O  -9.78300 46.61100 38.13200
C  -11.95700 46.35700 38.81500
N  -12.63000 40.76100 39.83900
C  -13.08500 42.04500 39.69300
C  -14.49700 42.21100 40.17700
C  -14.90200 40.73500 40.46400
C  -13.64600 39.97700 40.30800
C  -14.56500 43.00000 41.41600
C  -15.95500 40.22500 39.47300
C  -17.37400 40.15600 40.00900
N  -11.25200 38.16900 39.88500
C  -12.45600 37.69200 40.30000
C  -12.32100 36.23500 40.60300
C  -11.13500 35.93800 39.95300
C  -10.51600 37.15000 39.52400
C  -13.26800 35.30000 41.26900
C  -10.21800 34.83400 39.53800
O  -10.36700 33.64800 39.70900
C  -8.99400 35.48200 38.79800
C  -7.77500 35.00800 39.45700
O  -7.35700 35.51300 40.53900
O  -7.12300 34.00700 38.69800
C  -5.77800 33.68900 39.21100
H  -6.88900 41.93200 37.82100
H  -12.78400 44.05500 39.44100
H  -14.51200 38.09900 40.82900
H  -6.41800 37.16200 38.37300
H  -5.86100 39.97800 37.87900
H  -6.76500 39.67500 40.67100
H  -5.14900 40.05400 40.12300
H  -5.75400 38.31300 40.27100
H  -6.29600 38.73100 36.01200
H  -7.87900 37.82700 35.91500
H  -6.01200 35.87800 36.57100
H  -5.21100 36.90800 35.36400
H  -7.52000 44.91200 36.85600
H  -6.67400 44.12000 38.20100
H  -7.39400 45.66200 38.47800
H  -12.60600 46.08500 37.98300
H  -11.76200 47.42500 38.72000
H  -12.26700 45.96900 39.78600
H  -15.09900 42.71000 39.41800
H  -15.26600 40.62800 41.48600
H  -13.84300 42.53700 42.08800
H  -15.57600 43.08700 41.81400
H  -14.47900 44.08500 41.35200
H  -15.79700 39.22100 39.08000
H  -15.94000 40.96900 38.67700
H  -17.85600 39.28800 39.55900
H  -17.99000 41.03800 39.83400
H  -17.41300 40.02600 41.09000
H  -13.29200 35.52500 42.33500
H  -12.93700 34.30500 40.97100
H  -14.22700 35.35800 40.75500
H  -8.90300 35.18800 37.75200
H  -5.73000 33.71600 40.29900
H  -4.97400 34.38900 38.98000
H  -5.51400 32.66100 38.96300

