158

Mg -0.85100 17.77400 27.77800
C  -1.72600 15.63800 30.43700
C  -1.67500 20.31000 29.77800
C  -0.77900 19.67800 25.05700
C  -0.63400 14.99900 25.68400
N  -1.66200 17.99400 29.93400
C  -1.91100 16.98600 30.79100
C  -2.09400 17.54600 32.19400
C  -2.18900 19.05300 31.91500
C  -1.87100 19.10400 30.44200
C  -3.61600 19.61600 32.32100
C  -0.96200 17.12100 33.17300
C  -0.51900 18.22000 34.29500
H  0.45100 17.70200 35.30400
N  -1.04100 19.76100 27.55700
C  -1.31700 20.69400 28.49300
C  -1.17700 21.98300 27.90600
C  -0.99300 21.86600 26.50300
C  -0.93700 20.38400 26.34000
C  -1.45400 23.26200 28.65800
C  -0.72500 22.87600 25.37900
O  -0.67100 22.49900 24.21900
C  -0.71700 24.33200 25.70800
N  -0.69600 17.40900 25.71100
C  -0.61400 18.39900 24.77200
C  -0.50400 17.86900 23.32400
C  -0.08600 16.42400 23.63800
C  -0.50900 16.24900 25.10300
C  -1.77400 18.16300 22.52200
C  1.34700 16.21500 23.36800
C  2.40500 16.62200 24.38900
N  -1.13700 15.78300 27.99400
C  -0.95200 14.77200 27.02400
C  -1.25800 13.40700 27.60000
C  -1.53200 13.67800 28.97900
C  -1.42700 15.15900 29.13000
C  -1.36600 12.18200 26.82600
C  -1.82800 13.09900 30.25400
O  -1.89200 11.91500 30.53500
C  -1.91900 14.34400 31.32400
C  -0.68500 14.12200 32.21100
O  0.38800 14.64000 32.03600
O  -1.10600 13.43200 33.34500
C  -0.15300 13.46100 34.43700
H  -1.91300 21.09800 30.49500
H  -0.95100 20.23300 24.13300
H  -0.52700 14.15000 25.00500
H  -3.07700 17.16300 32.46800
H  -1.44300 19.59100 32.50100
H  -4.28000 19.39300 31.48600
H  -3.46100 20.67900 32.50900
H  -4.05300 19.19000 33.22400
H  -0.05100 16.93200 32.60400
H  -1.26200 16.28000 33.79800
H  -1.39600 18.75800 34.65500
H  0.18200 18.93400 33.86200
H  -2.10800 23.84500 28.00900
H  -0.47800 23.72100 28.81400
H  -1.98700 23.00100 29.57200
H  -0.22400 24.94400 24.95300
H  -0.15900 24.53300 26.62200
H  -1.74000 24.68700 25.82800
H  0.34800 18.41500 22.92100
H  -0.70100 15.64300 23.19100
H  -2.24100 17.21000 22.27500
H  -1.46300 18.80200 21.69500
H  -2.51300 18.78000 23.03300
H  1.62400 16.69600 22.43100
H  1.45200 15.15300 23.14300
H  2.89300 17.50500 23.97600
H  2.92500 15.67100 24.50700
H  2.02800 16.97500 25.34800
H  -0.52300 12.02400 26.15300
H  -2.31400 12.15700 26.28700
H  -1.33900 11.34600 27.52500
H  -2.89900 14.37500 31.79900
H  0.11900 12.51300 34.90100
H  -0.70500 14.01100 35.20000
H  0.80200 13.94400 34.23000
Mg 40.75900 40.14600 27.45100
C  40.16900 42.66300 29.84500
C  41.93900 38.10500 30.01700
C  41.39000 37.85000 25.08800
C  40.04200 42.55400 24.92400
N  41.01200 40.39200 29.71300
C  40.61300 41.47100 30.45600
C  40.65100 41.14800 31.98100
C  41.35000 39.70700 31.94800
C  41.44500 39.36000 30.44400
C  42.68600 39.72100 32.70900
C  39.23800 41.23300 32.74000
C  39.23100 42.07700 33.97700
H  38.67100 41.40200 35.26200
N  41.51400 38.21300 27.61800
C  41.96800 37.56000 28.71400
C  42.40400 36.21500 28.31400
C  42.27700 36.08700 26.95000
C  41.69900 37.39300 26.46700
C  42.96800 35.25000 29.30200
C  42.78800 35.05000 26.01200
O  42.76200 35.18700 24.81300
C  43.46600 33.78000 26.52300
N  40.93000 40.32600 25.31400
C  41.06100 39.17000 24.54500
C  40.73400 39.39700 23.02200
C  39.98500 40.80400 23.07700
C  40.27100 41.26000 24.53500
C  41.90000 39.36400 22.12800
C  38.51100 40.64500 22.70400
C  37.69700 39.81100 23.65400
N  40.22500 42.19400 27.36000
C  40.00200 43.06400 26.27100
C  39.52500 44.29300 26.75300
C  39.66400 44.24900 28.14400
C  40.10000 42.93600 28.47400
C  39.04400 45.45700 25.93200
C  39.54200 44.98900 29.30300
O  39.24000 46.21600 29.32600
C  39.78200 43.92700 30.54900
C  40.86100 44.44900 31.38000
O  41.94300 44.69000 30.89700
O  40.43500 44.76800 32.69100
C  41.28800 45.61700 33.49400
H  42.22400 37.59500 30.93900
H  41.36300 37.09000 24.30400
H  39.65500 43.18800 24.12300
H  41.34600 41.88600 32.38200
H  40.76300 38.85600 32.29400
H  42.87700 38.67500 32.95000
H  42.43600 40.23600 33.63700
H  43.49700 40.27100 32.23200
H  39.06400 40.18700 32.99400
H  38.42800 41.52400 32.07100
H  38.49300 42.86300 33.81700
H  40.18800 42.55500 34.18500
H  44.02800 35.03000 29.17600
H  42.42700 34.31300 29.16900
H  42.82300 35.52000 30.34800
H  44.46500 34.08900 26.83100
H  43.65800 33.08700 25.70400
H  42.86900 33.31000 27.30400
H  39.97500 38.67600 22.71800
H  40.55700 41.44900 22.40900
H  42.66400 38.70100 22.53500
H  42.21500 40.32600 21.72500
H  41.55000 38.84700 21.23400
H  38.52700 40.23900 21.69200
H  38.17700 41.68200 22.72500
H  38.20300 39.37300 24.51500
H  37.29000 39.04900 22.99000
H  36.77600 40.25800 24.02700
H  38.84500 45.11700 24.91600
H  39.92000 46.08600 25.77200
H  38.24400 45.94900 26.48600
H  38.87200 43.79200 31.13300
H  41.50600 45.03800 34.39100
H  40.71700 46.48400 33.82700
H  42.16800 45.82700 32.88600

