158

Mg 9.04300 47.55900 26.85200
C  7.08800 47.14200 29.63300
C  11.70500 47.95700 28.99900
C  10.84800 48.65400 24.17000
C  6.13600 47.65000 24.84200
N  9.38100 47.62100 29.14300
C  8.41700 47.35000 30.06000
C  9.01600 47.38700 31.49200
C  10.53000 47.70700 31.25100
C  10.53100 47.77500 29.72100
C  11.21800 48.89100 31.98500
C  8.67700 46.25200 32.55400
C  9.79400 45.90200 33.53000
H  9.43700 45.15500 34.80800
N  11.04500 48.08100 26.60100
C  11.99700 48.13600 27.58900
C  13.24900 48.39400 26.97400
C  13.02100 48.54600 25.58500
C  11.59000 48.48000 25.39500
C  14.55900 48.30900 27.81700
C  14.02000 48.80400 24.50000
O  13.77300 49.01200 23.30500
C  15.46000 49.01900 24.92000
N  8.55100 48.17900 24.80500
C  9.47400 48.66100 23.92400
C  8.86200 48.94000 22.60400
C  7.38200 48.39800 22.75900
C  7.34400 48.00500 24.24100
C  8.87300 50.45600 22.24600
C  7.01200 47.12500 21.77900
C  6.20700 47.45400 20.45000
N  7.01800 47.41700 27.11300
C  5.94600 47.31200 26.18400
C  4.68500 47.10600 26.89000
C  5.06300 47.06900 28.25000
C  6.50100 47.22100 28.33100
C  3.34600 47.07600 26.19600
C  4.59300 46.82900 29.62000
O  3.46100 46.69600 30.06300
C  5.92900 46.73100 30.52600
C  6.01000 45.34700 31.12000
O  6.63700 44.42300 30.63000
O  5.44300 45.35800 32.39300
C  5.70300 44.28600 33.28600
H  12.56200 48.03500 29.67100
H  11.42700 48.85000 23.26500
H  5.27800 47.64800 24.16700
H  8.62700 48.23400 32.05600
H  11.11500 46.81600 31.47800
H  11.74300 49.52900 31.27300
H  12.02600 48.41700 32.54300
H  10.52300 49.47000 32.59400
H  8.56300 45.28200 32.07000
H  7.81300 46.58200 33.13100
H  10.15300 46.88300 33.84000
H  10.61100 45.36100 33.05300
H  14.95600 49.32200 27.74800
H  15.35500 47.65100 27.46900
H  14.37400 48.13100 28.87600
H  15.67400 49.69400 25.74900
H  15.91600 49.33600 23.98200
H  15.85400 48.00800 25.02800
H  9.44900 48.37800 21.87800
H  6.58900 49.14200 22.67900
H  9.41200 50.57400 21.30600
H  9.51300 50.87900 23.02100
H  7.86800 50.87600 22.27300
H  6.50300 46.36400 22.37000
H  8.02500 46.88500 21.45700
H  5.30600 46.84100 20.46700
H  6.72300 47.23100 19.51500
H  5.77700 48.45400 20.39600
H  3.15700 46.32500 25.42800
H  3.19200 48.06600 25.76800
H  2.46200 46.94100 26.81900
H  5.86500 47.51800 31.27700
H  6.41200 43.58200 32.85000
H  4.76700 43.82500 33.60000
H  6.26100 44.61300 34.16400
Mg -0.25000 43.36200 25.98200
C  2.01800 42.67700 28.73200
C  -2.73100 41.88600 27.90200
C  -2.18700 43.11300 23.30800
C  2.55800 43.81100 23.92400
N  -0.32100 42.28900 28.06100
C  0.64300 42.46000 29.06600
C  0.03900 42.08100 30.39400
C  -1.44800 41.67200 30.04200
C  -1.54900 41.98100 28.59200
C  -1.90500 40.19700 30.46200
C  0.20400 43.22900 31.42500
C  0.44200 43.03400 32.93600
H  0.40800 41.54800 33.45000
N  -2.35300 42.86600 25.70100
C  -3.13500 42.24900 26.59000
C  -4.51100 42.11900 26.05200
C  -4.33200 42.35500 24.63700
C  -2.95900 42.79100 24.49100
C  -5.56600 41.55000 26.86400
C  -5.28900 42.24500 23.41500
O  -4.92400 42.58300 22.32100
C  -6.64400 41.67500 23.65300
N  0.15800 43.46500 23.90500
C  -0.85100 43.41100 23.00300
C  -0.36300 43.89200 21.61000
C  1.14000 43.93800 21.76800
C  1.32900 43.80600 23.29400
C  -0.90500 43.00200 20.46900
C  1.75500 45.16300 21.03200
C  2.10900 46.43200 21.91900
N  1.85000 43.25300 26.21700
C  2.83400 43.51700 25.24400
C  4.16300 43.47400 25.90600
C  3.84800 43.06700 27.21200
C  2.46500 42.92800 27.36900
C  5.50500 43.76500 25.33200
C  4.49900 42.72600 28.52300
O  5.66300 42.53900 28.85900
C  3.29100 42.60400 29.58300
C  3.55600 41.42500 30.33900
O  3.38800 40.23900 30.04000
O  4.10600 41.87300 31.48700
C  4.60600 40.78400 32.30600
H  -3.49200 41.46800 28.56400
H  -2.85400 43.28900 22.46200
H  3.41500 44.05800 23.29400
H  0.55600 41.19100 30.75200
H  -2.27200 42.26100 30.44500
H  -2.34100 40.28700 31.45700
H  -1.03500 39.54000 30.46800
H  -2.58900 39.88600 29.67300
H  -0.71100 43.82200 31.41100
H  0.98400 43.91600 31.09600
H  -0.35300 43.52100 33.50200
H  1.42800 43.35100 33.27600
H  -6.39900 42.24500 26.75500
H  -5.30500 41.67900 27.91500
H  -5.92700 40.56100 26.58400
H  -6.54000 40.77900 24.26500
H  -7.00900 41.49400 22.64200
H  -7.33200 42.43400 24.02500
H  -0.79200 44.88800 21.49500
H  1.47500 42.99100 21.34500
H  -1.48300 42.24000 20.99100
H  -0.08500 42.53100 19.92700
H  -1.50400 43.39000 19.64500
H  1.10600 45.50300 20.22500
H  2.68700 44.75200 20.64600
H  1.84100 46.34000 22.97100
H  1.93300 47.42200 21.49700
H  3.19900 46.40900 21.94100
H  5.58200 44.83900 25.16300
H  5.53000 43.26100 24.36600
H  6.26500 43.50400 26.06900
H  3.14800 43.50800 30.17600
H  4.21200 40.99600 33.29900
H  5.68900 40.81700 32.42300
H  4.31200 39.77100 32.02900

