158

Mg 53.66400 23.83400 44.41900
C  50.87600 25.86000 43.86400
C  51.54000 21.11300 44.52200
C  56.28500 21.78300 44.00400
C  55.72000 26.59000 43.71600
N  51.52100 23.55900 44.07900
C  50.53800 24.45900 43.94400
C  49.16500 23.85600 43.92200
C  49.36900 22.43600 44.29900
C  50.90600 22.37100 44.35200
C  48.71000 22.01400 45.68700
C  48.47800 23.98500 42.57500
C  49.32200 23.71200 41.35100
H  49.13400 24.61200 40.12900
N  53.85000 21.71500 44.24800
C  52.87800 20.80100 44.43100
C  53.43400 19.46400 44.44600
C  54.81400 19.67900 44.35800
C  55.04700 21.12500 44.18800
C  52.71300 18.19000 44.81700
C  55.86000 18.52400 44.54700
O  55.44800 17.37100 44.65100
C  57.34300 18.77900 44.59100
N  55.71100 24.22900 43.72100
C  56.61200 23.17100 43.82600
C  57.98900 23.71400 43.55400
C  57.83800 25.25300 43.43700
C  56.32800 25.35500 43.58800
C  59.12500 23.29200 44.55800
C  58.45500 25.96100 42.14100
C  59.40700 27.18600 42.24000
N  53.40900 25.88400 44.05200
C  54.31900 26.85800 43.79300
C  53.62700 28.15500 43.89100
C  52.30100 27.79000 43.95700
C  52.20500 26.39000 43.95000
C  54.28700 29.54100 43.84800
C  50.98700 28.31100 43.92900
O  50.57200 29.49500 44.00600
C  49.99500 27.13600 43.87100
C  49.25000 27.41800 42.67400
O  49.79500 27.51900 41.58600
O  47.90500 27.64500 42.91900
C  47.13200 28.24700 41.83400
H  50.85200 20.30200 44.77000
H  57.24000 21.26800 43.87300
H  56.37000 27.44700 43.52500
H  48.53200 24.39000 44.63000
H  49.02800 21.72700 43.54400
H  48.52700 22.88300 46.31800
H  49.39600 21.43500 46.30500
H  47.70700 21.61500 45.53800
H  48.14100 25.02100 42.53500
H  47.57900 23.36900 42.54600
H  49.07800 22.69100 41.06000
H  50.38700 23.65700 41.57600
H  53.05400 17.51100 44.03600
H  51.65200 18.42200 44.73200
H  52.95200 17.83100 45.81800
H  57.78600 17.91300 45.08200
H  57.56700 19.66700 45.18300
H  57.76700 18.81500 43.58700
H  58.15200 23.26600 42.57400
H  58.38400 25.63500 44.30000
H  59.42900 24.04300 45.28700
H  60.03600 22.89200 44.11200
H  58.67800 22.45800 45.09800
H  57.65500 26.39900 41.54500
H  58.96400 25.37100 41.37800
H  60.38600 26.82600 41.92400
H  59.59500 27.44100 43.28300
H  59.09400 28.05000 41.65300
H  53.94200 30.12800 42.99700
H  55.37200 29.57400 43.74300
H  53.96300 30.01000 44.77700
H  49.31700 27.10300 44.72400
H  46.98800 27.49800 41.05600
H  47.76600 28.97700 41.33000
H  46.15100 28.63900 42.10000
Mg 25.93800 49.63100 26.26100
C  23.76300 50.47700 28.82100
C  28.21100 48.57100 28.50900
C  28.15000 49.10900 23.68500
C  23.68000 50.92500 23.91200
N  26.02500 49.75800 28.52100
C  24.93000 49.92900 29.31200
C  25.28100 49.55000 30.75400
C  26.76200 49.02600 30.66400
C  27.05100 49.12500 29.10700
C  27.88500 49.72200 31.55200
C  24.21800 48.56600 31.43700
C  23.75200 49.02300 32.85600
H  24.70400 49.66500 33.96300
N  27.87900 48.95700 26.13900
C  28.58600 48.41400 27.16700
C  29.81000 47.79900 26.72000
C  29.84100 48.00700 25.23900
C  28.59200 48.70500 24.97200
C  30.81000 46.99900 27.61700
C  30.94000 47.54700 24.28600
O  30.83700 47.74300 23.10000
C  32.01500 46.66800 24.78900
N  25.95000 49.97500 24.06100
C  26.97500 49.72700 23.26700
C  26.68900 50.03000 21.82900
C  25.15800 50.30500 21.84800
C  24.82600 50.36700 23.31700
C  27.57200 51.18400 21.28300
C  24.36200 49.20600 21.05800
C  24.06300 47.86500 21.76100
N  24.14200 50.53500 26.32300
C  23.34800 51.01800 25.27200
C  22.08400 51.54700 25.84000
C  22.18500 51.33100 27.21500
C  23.50800 50.79300 27.45600
C  20.91600 52.06700 25.08400
C  21.49800 51.58000 28.46400
O  20.43100 52.13500 28.66100
C  22.50200 51.00200 29.57300
C  22.83800 52.08700 30.63200
O  23.62100 53.05600 30.51300
O  22.04200 51.90200 31.79200
C  22.26800 52.88300 32.83800
H  28.81300 47.92500 29.15200
H  28.82700 48.81300 22.88100
H  22.89700 51.28400 23.24100
H  25.29500 50.52600 31.23800
H  26.87200 47.97700 30.93600
H  28.56500 48.98200 31.97200
H  27.47700 50.32900 32.36000
H  28.60300 50.20600 30.89000
H  24.69500 47.58700 31.47100
H  23.27200 48.37800 30.93000
H  23.39800 48.03800 33.15900
H  22.78600 49.52600 32.81500
H  31.79300 47.44400 27.46100
H  30.74900 45.93900 27.37300
H  30.69700 47.00400 28.70100
H  32.69500 47.21200 25.44500
H  32.69300 46.36400 23.99100
H  31.56200 45.77700 25.22300
H  26.95000 49.25200 21.11100
H  24.90100 51.29000 21.45800
H  28.48700 51.17200 21.87500
H  27.06700 52.13300 21.46300
H  27.79700 50.98400 20.23600
H  24.87900 48.89300 20.15100
H  23.39300 49.63000 20.79700
H  24.01800 46.95000 21.17100
H  23.07600 47.99200 22.20700
H  24.73300 47.67600 22.60000
H  21.00100 53.15100 25.15800
H  20.06400 51.77000 25.69500
H  20.71400 51.71000 24.07400
H  21.96400 50.25700 30.15900
H  23.00400 52.48500 33.53700
H  21.39100 52.97600 33.47900
H  22.62900 53.86300 32.52700

