158

Mg 53.09000 25.02100 43.28100
C  50.77600 27.52600 42.71300
C  50.88700 22.68100 41.99800
C  55.64300 22.74600 42.81300
C  55.54200 27.43600 44.09500
N  51.09800 25.10300 42.45900
C  50.24700 26.20500 42.43700
C  48.87600 25.89800 41.93000
C  48.85900 24.25000 41.91000
C  50.33500 23.97800 42.21200
C  47.97100 23.65700 43.11900
C  48.45800 26.38000 40.48100
C  49.54700 26.29300 39.36400
H  49.33700 25.55200 38.08400
N  53.23200 22.95800 42.59000
C  52.19900 22.13500 42.27500
C  52.64300 20.82800 41.95200
C  54.01200 20.81700 42.05300
C  54.35100 22.21000 42.58800
C  51.72500 19.66900 41.52600
C  54.94800 19.65400 41.88200
O  54.54200 18.58700 41.49200
C  56.46400 19.73200 42.14800
N  55.23700 25.15600 43.49600
C  56.06600 24.03200 43.23500
C  57.64000 24.41200 43.55200
C  57.43500 25.86900 44.10800
C  55.96200 26.21800 43.83300
C  58.37300 23.43900 44.53100
C  58.54100 26.78200 43.50400
C  59.39700 27.55500 44.60000
N  53.16600 27.07100 43.45600
C  54.20000 27.92100 43.83200
C  53.58700 29.19800 44.14300
C  52.33900 29.10300 43.56200
C  52.08000 27.79100 43.25400
C  54.29300 30.43900 44.65900
C  51.05400 29.78400 43.37100
O  50.73200 30.93800 43.56800
C  50.04500 28.76700 42.76300
C  49.57500 29.38500 41.44800
O  50.31000 29.55100 40.41300
O  48.20400 29.66400 41.51800
C  47.56300 30.16000 40.33300
H  50.10100 21.99700 41.67200
H  56.52900 22.11400 42.71800
H  56.27700 28.11800 44.52800
H  48.20700 26.21100 42.73100
H  48.47000 23.79800 40.99800
H  47.62700 24.48600 43.73700
H  48.55600 22.93000 43.68300
H  47.12400 23.15300 42.65500
H  48.05900 27.39400 40.44400
H  47.59300 25.78100 40.19600
H  50.40500 25.78800 39.80800
H  49.87200 27.25400 38.96600
H  52.00500 19.27400 40.54900
H  50.71500 20.01000 41.29800
H  51.70900 18.79400 42.17600
H  56.95500 18.79900 41.87400
H  56.61600 20.12700 43.15200
H  56.79600 20.49600 41.44400
H  58.18700 24.33900 42.61200
H  57.58600 25.95700 45.18400
H  57.78000 22.54300 44.71800
H  58.50600 23.97300 45.47200
H  59.33600 23.18400 44.09000
H  58.07800 27.54000 42.87100
H  59.20400 26.24600 42.82500
H  59.08600 28.59900 44.55000
H  60.46900 27.41600 44.46000
H  59.17400 27.37700 45.65200
H  55.08600 30.69800 43.95800
H  54.74000 30.18100 45.62000
H  53.55100 31.23100 44.75300
H  49.15000 28.65200 43.37400
H  47.52900 29.41200 39.54000
H  48.16100 31.01900 40.02800
H  46.56500 30.52100 40.58300
Mg 47.43500 25.45900 28.07400
C  48.53300 27.81200 30.53900
C  46.07300 23.63800 30.48500
C  47.07300 22.96300 25.77600
C  49.35100 27.29700 25.71500
N  47.48400 25.70800 30.31100
C  47.73000 26.79800 31.06400
C  47.16600 26.58700 32.52200
C  46.40800 25.27100 32.41200
C  46.65000 24.83400 30.99100
C  46.86000 24.15800 33.46500
C  46.36700 27.79900 33.05300
C  47.00500 28.38900 34.41900
H  45.88200 28.72000 35.43800
N  46.56900 23.62700 28.06900
C  46.06600 23.05800 29.20300
C  45.48000 21.77900 28.84000
C  45.62900 21.64200 27.45200
C  46.44400 22.77200 27.02500
C  44.84800 20.83000 29.81900
C  45.02700 20.61100 26.42700
O  45.32100 20.57300 25.23700
C  44.02800 19.72200 27.00700
N  47.93000 25.31200 25.95300
C  47.74600 24.11700 25.32300
C  48.28500 24.21400 23.88100
C  48.88600 25.68800 23.79700
C  48.68300 26.16300 25.25300
C  49.46300 23.17900 23.55600
C  48.04800 26.56700 22.73800
C  48.70300 26.98800 21.37200
N  48.58100 27.18200 28.03600
C  49.29600 27.79200 27.02800
C  49.91000 29.02900 27.51600
C  49.53800 29.10900 28.83700
C  48.84400 27.90300 29.16900
C  50.80800 29.94800 26.78700
C  49.73600 29.83800 30.04300
O  50.46800 30.81600 30.15000
C  49.04400 29.09500 31.17200
C  49.96600 28.85600 32.33800
O  50.76200 27.98900 32.30000
O  49.87800 29.84400 33.36500
C  50.67600 29.80800 34.62900
H  45.42100 23.10500 31.18000
H  47.03700 22.21700 24.97900
H  50.03600 27.90700 25.12200
H  48.06200 26.44500 33.12700
H  45.33800 25.34400 32.60900
H  47.17300 24.60800 34.40800
H  47.65300 23.50300 33.10400
H  45.97200 23.57500 33.70700
H  45.37100 27.42400 33.28700
H  46.36300 28.60300 32.31700
H  47.46000 29.35100 34.18500
H  47.68900 27.74000 34.96600
H  45.30100 20.94900 30.80300
H  45.07200 19.80900 29.51000
H  43.76200 20.91300 29.77600
H  44.54900 18.96500 27.59300
H  43.54900 19.15000 26.21300
H  43.29100 20.26500 27.59900
H  47.41900 24.01100 23.25200
H  49.94600 25.80100 23.57000
H  50.31100 23.59700 23.01400
H  49.05500 22.37400 22.94500
H  49.82600 22.63300 24.42600
H  47.73300 27.54800 23.09500
H  47.14400 25.99900 22.52200
H  49.77500 26.78900 21.38300
H  48.65000 28.03500 21.07400
H  48.29000 26.35700 20.58500
H  51.74500 29.40300 26.67400
H  50.95200 30.90400 27.29100
H  50.28500 30.03800 25.83500
H  48.22500 29.65600 31.62300
H  51.69800 29.62600 34.29500
H  50.30600 28.95400 35.19600
H  50.58200 30.76800 35.13500

