158

Mg 17.76300 -1.93700 28.31700
C  16.61800 0.01100 31.18400
C  19.46000 -3.77400 30.44500
C  19.24800 -3.16200 25.51500
C  16.20900 0.59200 26.36200
N  18.13000 -1.77300 30.64700
C  17.48700 -1.03700 31.53200
C  17.82900 -1.42600 32.91000
C  18.95100 -2.61700 32.69200
C  18.84300 -2.76800 31.14300
C  20.49300 -2.30600 33.04300
C  16.64400 -1.68500 33.88100
C  16.46000 -0.72800 35.15000
H  17.69600 -0.09900 35.74000
N  19.14100 -3.39500 28.02200
C  19.63700 -4.12200 29.06600
C  20.46100 -5.22800 28.51800
C  20.47700 -4.97000 27.05400
C  19.59800 -3.78100 26.73500
C  21.02100 -6.32300 29.35400
C  21.28100 -5.70300 26.01700
O  21.24300 -5.35000 24.79600
C  22.00300 -6.89600 26.42100
N  17.90600 -1.29200 26.22000
C  18.54400 -2.03000 25.27900
C  18.33200 -1.37700 23.91300
C  17.32200 -0.24400 24.20800
C  17.06900 -0.33100 25.67900
C  19.59300 -1.10200 23.09100
C  16.11100 0.01200 23.38900
C  16.20900 1.04200 22.29000
N  16.51400 -0.18500 28.62100
C  15.82800 0.65500 27.75900
C  14.99100 1.63900 28.38700
C  15.31600 1.45000 29.73200
C  16.24600 0.35700 29.82300
C  14.10200 2.67700 27.67000
C  15.03400 1.81100 31.06300
O  14.15200 2.57100 31.41100
C  15.80600 0.99400 32.06000
C  16.63300 1.90100 32.84100
O  17.79400 2.25000 32.64800
O  15.86800 2.46200 33.81900
C  16.37600 3.53200 34.63400
H  19.92300 -4.44300 31.17400
H  19.55700 -3.57900 24.55400
H  15.58700 1.32600 25.84600
H  18.42400 -0.66800 33.41900
H  18.60000 -3.55200 33.12900
H  21.11100 -1.98700 32.20400
H  20.92500 -3.23000 33.42600
H  20.56800 -1.58900 33.86100
H  16.88100 -2.68800 34.23600
H  15.73800 -1.64400 33.27600
H  16.14100 -1.55200 35.78900
H  15.67400 -0.01300 34.90800
H  20.56300 -7.29700 29.18300
H  20.86500 -6.19500 30.42500
H  22.11100 -6.30500 29.38200
H  21.42800 -7.69400 26.89000
H  22.67300 -6.50700 27.18800
H  22.40800 -7.33100 25.50700
H  17.98400 -2.18400 23.26900
H  17.80000 0.73200 24.13300
H  19.55900 -0.07700 22.72100
H  19.67400 -1.69900 22.18300
H  20.47600 -1.33300 23.68700
H  15.26100 0.22500 24.03700
H  15.91400 -0.95800 22.93300
H  17.13900 1.60200 22.18900
H  15.43400 1.77400 22.51300
H  16.01700 0.52000 21.35200
H  13.98600 2.44400 26.61100
H  14.43600 3.70200 27.82900
H  13.15200 2.61300 28.20100
H  15.10600 0.41300 32.66000
H  16.31800 4.52100 34.18000
H  17.43700 3.42100 34.85800
H  15.79200 3.56700 35.55300
Mg 41.03700 40.70400 26.64800
C  40.77000 43.13100 29.18700
C  42.59200 38.67200 28.82700
C  41.32400 38.62200 24.07700
C  40.32500 43.31300 24.32900
N  41.55500 40.80600 28.80400
C  41.17000 41.81600 29.68600
C  41.33200 41.48300 31.09700
C  41.97700 40.04700 30.96700
C  42.02100 39.76500 29.43400
C  43.16100 39.85300 31.90300
C  39.97300 41.53900 31.82300
C  39.86100 42.49100 32.98400
H  39.23300 41.96700 34.23600
N  42.02400 38.95800 26.44400
C  42.59000 38.23400 27.45100
C  42.90400 36.91800 26.99400
C  42.45100 36.86100 25.59800
C  41.94400 38.19200 25.28300
C  43.42100 35.89200 27.98600
C  42.53900 35.64200 24.54700
O  42.33400 35.77300 23.31300
C  42.91500 34.28000 25.06400
N  40.74400 40.98700 24.54200
C  40.88100 39.87900 23.68500
C  40.56600 40.19800 22.27900
C  40.64500 41.79700 22.33300
C  40.55300 42.07100 23.79800
C  41.38500 39.56600 21.16500
C  39.51600 42.58000 21.60700
C  39.84900 43.72100 20.64000
N  40.47900 42.75400 26.68700
C  40.25100 43.70700 25.65600
C  40.07300 45.02600 26.16800
C  40.18200 44.79000 27.62400
C  40.58400 43.42700 27.81000
C  39.70600 46.27200 25.47400
C  39.92000 45.40500 28.88900
O  39.61000 46.57300 29.12300
C  40.36000 44.38400 29.94400
C  41.36800 44.90900 30.78000
O  42.50400 45.05300 30.34200
O  40.87500 45.33700 31.99100
C  41.76300 46.01800 32.95300
H  42.95100 37.93000 29.54300
H  41.27100 37.88700 23.27100
H  40.22700 44.11500 23.59500
H  42.07300 42.12400 31.57300
H  41.30500 39.23700 31.25100
H  44.14000 39.87300 31.42400
H  42.95100 38.89500 32.38000
H  43.17200 40.48300 32.79200
H  39.76900 40.56200 32.26300
H  39.17800 41.89600 31.16900
H  39.22200 43.34400 32.75200
H  40.89200 42.77100 33.19800
H  44.31500 36.40500 28.33900
H  43.86800 35.05300 27.45200
H  42.78500 35.70200 28.85100
H  42.55100 33.41100 24.51500
H  42.37400 34.15400 26.00200
H  43.98800 34.17200 25.21900
H  39.53800 39.87700 22.10800
H  41.64700 42.12600 22.05900
H  42.13700 38.92100 21.62100
H  42.02100 40.28500 20.64800
H  40.81800 39.07200 20.37700
H  38.70900 42.83100 22.29500
H  39.03600 41.83700 20.97000
H  39.36000 43.57600 19.67700
H  40.88600 43.65100 20.31200
H  39.40400 44.59700 21.11100
H  40.51600 46.77800 24.94800
H  39.30300 46.95100 26.22400
H  38.91000 46.02600 24.77200
H  39.44100 44.26100 30.51700
H  41.35200 47.01500 33.11500
H  42.77300 45.98500 32.54300
H  41.81600 45.58300 33.95100

