158

Mg 26.63200 49.87700 26.58800
C  24.39100 50.93800 29.03500
C  28.84400 49.01200 29.00700
C  28.70400 48.84600 24.19000
C  24.41600 51.00100 24.22500
N  26.54400 50.08300 28.75500
C  25.50300 50.31200 29.58600
C  25.81600 49.87900 31.02400
C  27.32100 49.43400 30.93300
C  27.57900 49.48400 29.41400
C  28.27100 50.37300 31.70900
C  24.78900 48.84500 31.60200
C  23.80500 49.44900 32.61400
H  23.74100 48.77300 34.03900
N  28.51000 49.06300 26.56200
C  29.26200 48.79800 27.70300
C  30.48600 48.17900 27.28500
C  30.51200 48.27800 25.84800
C  29.21200 48.74600 25.47200
C  31.57000 47.69100 28.17600
C  31.64300 48.06700 24.82700
O  31.56800 48.38800 23.62400
C  32.96200 47.59300 25.41200
N  26.68200 50.05200 24.47000
C  27.57000 49.46600 23.66600
C  27.07500 49.41900 22.20900
C  25.60900 49.95600 22.36700
C  25.58200 50.34700 23.77500
C  27.96500 50.27100 21.19800
C  24.53200 48.88500 21.95900
C  24.34400 47.75200 22.94500
N  24.84300 50.74900 26.52100
C  24.08300 51.28100 25.53600
C  22.89900 51.92300 26.03200
C  22.99700 51.84000 27.41900
C  24.15700 51.12700 27.66600
C  21.84700 52.67600 25.27100
C  22.33300 52.23900 28.63000
O  21.34200 52.92900 28.82400
C  23.13800 51.47800 29.78600
C  23.49800 52.56800 30.81000
O  24.47000 53.30400 30.77400
O  22.53200 52.56200 31.73900
C  22.69000 53.66300 32.73700
H  29.42400 48.46600 29.75400
H  29.36900 48.63300 23.35000
H  23.60500 51.16600 23.51200
H  25.81700 50.76500 31.66000
H  27.34900 48.45200 31.40600
H  29.05300 50.79600 31.07900
H  28.85500 49.91100 32.50500
H  27.74800 51.24000 32.11200
H  25.38700 48.11200 32.14400
H  24.23100 48.40700 30.77400
H  22.79900 49.47200 32.19500
H  23.98600 50.50100 32.83400
H  31.80000 46.63700 28.02500
H  31.48000 47.84700 29.25100
H  32.39100 48.37100 27.94900
H  33.38100 48.24000 26.18300
H  33.55800 47.42500 24.51500
H  32.71600 46.65200 25.90400
H  27.03300 48.35200 21.99200
H  25.46900 50.78200 21.67000
H  28.95500 50.48200 21.60200
H  27.50500 51.19900 20.86000
H  28.16600 49.69000 20.29800
H  24.71300 48.68200 20.90400
H  23.59800 49.44300 22.01400
H  25.07300 47.90000 23.74200
H  24.44300 46.84800 22.34400
H  23.35900 47.72400 23.41100
H  20.92600 52.81100 25.83800
H  21.63900 52.09400 24.37300
H  22.29200 53.58600 24.87000
H  22.49100 50.70300 30.19800
H  23.47600 53.27900 33.38800
H  21.79100 53.76100 33.34500
H  22.89100 54.57800 32.17900
Mg -11.83900 37.84800 42.03400
C  -9.57800 35.51900 41.05100
C  -9.94800 40.27600 40.55100
C  -14.36300 39.96000 42.60500
C  -14.09900 35.22700 42.79000
N  -10.10400 37.83300 40.75500
C  -9.26800 36.79200 40.55400
C  -7.88800 37.19000 39.94900
C  -7.98200 38.74500 40.05600
C  -9.47500 38.97900 40.50700
C  -6.90600 39.35900 40.95700
C  -7.79000 36.57900 38.50700
C  -6.53800 35.80500 38.04800
H  -5.62000 36.44100 36.94600
N  -12.09400 39.87200 41.74400
C  -11.21200 40.66400 41.09100
C  -11.72800 42.03000 41.21300
C  -12.94700 42.02200 41.82800
C  -13.21400 40.61100 42.07100
C  -10.87100 43.15000 40.88800
C  -13.84800 43.21800 42.27100
O  -13.50000 44.34900 41.99000
C  -15.12700 43.01800 43.05100
N  -13.93600 37.58300 42.47100
C  -14.72400 38.63700 42.74000
C  -16.17900 38.26000 43.14000
C  -16.12800 36.69300 43.15000
C  -14.67900 36.50500 42.68100
C  -16.59300 38.86400 44.52500
C  -17.06400 36.12500 42.09200
C  -16.78200 36.52200 40.52800
N  -11.83000 35.78500 42.00000
C  -12.76100 34.84600 42.49900
C  -12.08100 33.57900 42.64800
C  -10.86100 33.71900 41.99600
C  -10.76800 35.10600 41.69500
C  -12.71000 32.30200 43.13300
C  -9.72600 33.09000 41.37400
O  -9.53800 31.90600 41.23700
C  -8.77300 34.29400 40.90700
C  -7.57300 34.24200 41.81600
O  -7.45900 35.00300 42.74400
O  -6.74200 33.27400 41.38600
C  -5.46800 33.05900 42.21900
H  -9.16000 40.98300 40.28300
H  -15.16400 40.63900 42.90200
H  -14.87100 34.58000 43.21100
H  -7.09400 36.77900 40.57300
H  -7.83000 39.13900 39.05100
H  -6.40900 38.63400 41.60200
H  -7.40700 40.02900 41.65500
H  -6.25300 39.96100 40.32600
H  -8.02800 37.40100 37.83300
H  -8.60800 35.86100 38.45300
H  -6.77000 34.77100 37.79200
H  -5.88400 35.73400 38.91700
H  -10.87600 43.15000 39.79800
H  -9.89200 42.98600 41.33800
H  -11.16400 44.10500 41.32500
H  -15.85700 42.51900 42.41500
H  -15.63100 43.90800 43.42800
H  -14.84700 42.47900 43.95700
H  -16.88200 38.72000 42.44600
H  -16.36400 36.29700 44.13800
H  -15.85700 39.43000 45.09500
H  -16.79200 38.04000 45.21000
H  -17.46700 39.50600 44.41100
H  -18.09600 36.35100 42.36200
H  -16.91800 35.04700 42.17100
H  -16.11000 37.37600 40.44900
H  -17.73900 36.66300 40.02600
H  -16.31900 35.72800 39.94200
H  -12.56200 31.59500 42.31800
H  -13.77700 32.37400 43.34400
H  -12.03200 32.00200 43.93200
H  -8.48100 34.20700 39.86000
H  -5.55300 32.09500 42.72000
H  -5.22400 33.82200 42.95800
H  -4.63100 32.91600 41.53600

