158

Mg 49.56300 45.01800 42.39400
C  45.94900 45.10300 42.17200
C  49.47400 41.65700 41.62800
C  52.87100 45.02700 42.20700
C  49.59400 48.45700 42.61300
N  47.79900 43.55000 41.82600
C  46.49600 43.80700 41.86600
C  45.68400 42.55700 41.66700
C  46.80900 41.48400 41.35700
C  48.13600 42.25200 41.58800
C  46.76500 40.08700 41.97400
C  44.50300 42.58100 40.59000
C  44.72500 43.40600 39.29000
H  44.83100 42.67400 37.96100
N  50.92000 43.54400 41.99000
C  50.68700 42.19700 41.75000
C  51.94600 41.56100 41.50000
C  52.99400 42.53400 41.67300
C  52.24600 43.79300 42.03400
C  52.06300 40.12000 41.21400
C  54.46100 42.26800 41.40500
O  54.83700 41.13600 41.12200
C  55.44200 43.41100 41.22600
N  51.03600 46.58900 42.17100
C  52.35200 46.33300 42.28700
C  53.21400 47.59500 42.67800
C  52.10600 48.70500 42.40800
C  50.82400 47.92600 42.44700
C  53.76200 47.60600 44.17100
C  52.24800 49.47900 41.02700
C  52.21500 50.99300 41.09600
N  48.07100 46.53200 42.44300
C  48.27300 47.89500 42.48000
C  46.97400 48.56300 42.52100
C  46.03900 47.46300 42.49300
C  46.74800 46.26300 42.40300
C  46.84200 49.99700 42.64600
C  44.61500 47.19800 42.55300
O  43.64100 48.00500 42.58200
C  44.54200 45.58800 42.45400
C  43.86100 44.78300 43.51800
O  42.76600 44.24900 43.45800
O  44.66400 44.79100 44.59000
C  44.41200 43.99000 45.80300
H  49.31900 40.59700 41.41600
H  53.90400 44.85500 42.51800
H  49.52400 49.52500 42.83000
H  45.27600 42.35700 42.65800
H  46.66000 41.34700 40.28600
H  47.18900 39.34200 41.30200
H  45.76200 39.79000 42.28100
H  47.43300 40.18200 42.83000
H  43.66500 42.94100 41.18700
H  44.31500 41.55500 40.27400
H  45.65500 43.96800 39.37800
H  43.94400 44.16500 39.24100
H  52.38000 40.01100 40.17700
H  51.11600 39.59000 41.31500
H  52.76100 39.62800 41.89100
H  55.77500 43.76800 42.20100
H  55.03700 44.26700 40.68500
H  56.38200 43.09200 40.77800
H  54.12400 47.67800 42.08300
H  52.12800 49.45000 43.20400
H  54.83000 47.80000 44.26900
H  53.69200 46.61900 44.62800
H  53.28300 48.37000 44.78300
H  51.36700 49.25200 40.42700
H  53.18100 49.22500 40.52400
H  52.46300 51.38900 40.11200
H  52.90900 51.33100 41.86600
H  51.23900 51.30400 41.46800
H  45.94800 50.33100 42.12100
H  47.69900 50.34700 42.07100
H  46.98200 50.29700 43.68500
H  44.02700 45.33300 41.52800
H  45.24700 43.30700 45.95700
H  43.53300 43.35400 45.69100
H  44.16400 44.66400 46.62400
Mg 48.76600 35.85300 28.22400
C  46.59600 34.33900 30.30000
C  48.77300 38.69800 30.26500
C  50.61800 37.54200 25.89100
C  48.48400 33.15400 26.01100
N  47.83800 36.37800 30.02100
C  47.19800 35.50500 30.79800
C  47.13800 35.91000 32.27400
C  47.24900 37.47900 32.12000
C  47.97700 37.57700 30.68700
C  46.04200 38.38500 32.17100
C  48.16300 35.15200 33.11800
C  49.49000 35.85200 33.63600
H  49.79200 35.86400 35.16200
N  49.64000 37.87700 28.12800
C  49.44900 38.89400 29.02800
C  50.22300 40.07900 28.63900
C  50.81600 39.72100 27.39500
C  50.39300 38.32200 27.12600
C  50.21500 41.33700 29.41200
C  51.65200 40.60200 26.37100
O  52.07200 40.19000 25.34200
C  51.82900 42.03800 26.71400
N  49.46000 35.44300 26.24100
C  50.20200 36.30100 25.51000
C  50.55200 35.69600 24.07500
C  49.97000 34.20100 24.17200
C  49.26400 34.27000 25.55300
C  50.28300 36.61600 22.81600
C  50.96500 32.97400 23.92900
C  50.52400 31.80500 23.12400
N  47.70900 34.13200 28.10500
C  47.71200 33.10800 27.18300
C  46.79400 32.03500 27.60000
C  46.25800 32.52100 28.78700
C  46.86500 33.78100 29.02400
C  46.46500 30.66200 26.98300
C  45.32800 32.24000 29.91000
O  44.56600 31.30600 30.12200
C  45.59000 33.43700 30.95500
C  45.80100 32.82500 32.31100
O  46.66400 31.94000 32.50800
O  44.87100 33.27300 33.27200
C  44.94200 32.74100 34.60000
H  48.87700 39.47300 31.02700
H  51.25400 37.96400 25.11000
H  48.48600 32.26200 25.38000
H  46.20500 35.55500 32.71200
H  47.91100 37.96500 32.83700
H  45.93800 38.72200 33.20300
H  45.19300 37.75300 31.91300
H  46.13500 39.23200 31.49100
H  48.51700 34.26100 32.59900
H  47.57100 34.88400 33.99400
H  49.68100 36.86400 33.27900
H  50.22300 35.14200 33.25300
H  51.11500 41.50600 30.00200
H  49.44300 41.21500 30.17200
H  50.03000 42.22300 28.80400
H  52.40100 42.58500 25.96400
H  52.38000 42.09900 27.65200
H  50.85700 42.47500 26.94500
H  51.63000 35.55100 24.14100
H  49.10100 34.00200 23.54400
H  49.77000 37.51800 23.15000
H  49.65900 36.10400 22.08300
H  51.25600 36.95900 22.46600
H  51.08700 32.53300 24.91800
H  51.89900 33.39600 23.55600
H  49.49600 31.98900 22.81000
H  50.56000 30.90200 23.73400
H  51.25600 31.86900 22.32000
H  47.33800 30.34500 26.41300
H  45.52500 30.69800 26.43400
H  46.42900 29.95300 27.81000
H  44.61000 33.90700 31.03500
H  45.92100 33.05100 34.96700
H  45.11800 31.66900 34.69400
H  44.02400 33.04200 35.10400

