158

Mg 24.65400 -7.91000 48.04800
C  27.19600 -6.01500 46.98600
C  22.70100 -6.65300 45.47600
C  22.50600 -10.33200 48.62300
C  27.07600 -9.78900 50.13700
N  24.99400 -6.58100 46.31000
C  26.05800 -5.70400 46.29400
C  25.77600 -4.67500 45.16200
C  24.25600 -4.73000 44.96600
C  23.90900 -6.04600 45.66200
C  23.48000 -3.46000 45.28300
C  26.53300 -4.93500 43.79800
C  26.88300 -3.66600 42.99200
H  26.18900 -3.50200 41.64200
N  22.82200 -8.35600 47.29400
C  22.11700 -7.69600 46.21400
C  20.86100 -8.31300 46.04400
C  20.85900 -9.51600 46.80700
C  22.08600 -9.44000 47.63100
C  19.82100 -7.60600 45.15400
C  19.83000 -10.49100 46.71600
O  18.79500 -10.32600 46.08600
C  19.94200 -11.82800 47.46200
N  24.79300 -9.87800 49.30300
C  23.63500 -10.60700 49.39800
C  23.91600 -11.86400 50.20100
C  25.34500 -11.67600 50.81500
C  25.76500 -10.37100 50.07200
C  22.80700 -12.39500 51.18900
C  26.41000 -12.78900 50.56200
C  27.31600 -12.94400 51.77100
N  26.73200 -7.94000 48.54400
C  27.54900 -8.75600 49.29900
C  28.89300 -8.21100 49.30900
C  28.75600 -7.12000 48.41200
C  27.44800 -7.04300 47.92500
C  30.08200 -8.80600 50.06300
C  29.55000 -6.01400 47.81600
O  30.74100 -5.83800 47.83600
C  28.51200 -5.22200 46.84200
C  28.27700 -3.88900 47.40100
O  27.35200 -3.50400 48.16000
O  29.26100 -3.02200 46.82200
C  29.17000 -1.67300 47.13000
H  22.03000 -6.24400 44.71800
H  21.85400 -11.18800 48.80600
H  27.79800 -10.04200 50.91600
H  25.95400 -3.73500 45.68400
H  24.10200 -4.83100 43.89200
H  24.16400 -2.80400 45.82000
H  22.63600 -3.77800 45.89400
H  23.11900 -2.89500 44.42200
H  25.97300 -5.60900 43.14900
H  27.46900 -5.43000 44.05400
H  27.96900 -3.57300 42.96100
H  26.41000 -2.86900 43.56600
H  19.82500 -6.56000 45.46200
H  18.80500 -7.89500 45.42400
H  19.95000 -7.72000 44.07800
H  20.83600 -12.34200 47.10900
H  19.01100 -12.35600 47.25600
H  19.95800 -11.71800 48.54700
H  23.94300 -12.66400 49.46100
H  25.22400 -11.53400 51.88900
H  22.08400 -11.61200 51.41700
H  23.20800 -12.67900 52.16200
H  22.27200 -13.25700 50.78900
H  26.96800 -12.45700 49.68600
H  25.92200 -13.73700 50.33200
H  26.58800 -12.78400 52.56600
H  28.13400 -12.24700 51.95400
H  27.65700 -13.97900 51.76500
H  29.77600 -8.74100 51.10700
H  30.93800 -8.15100 49.90100
H  30.22600 -9.86100 49.82900
H  28.99100 -5.25500 45.86400
H  30.16600 -1.24600 47.24700
H  28.65400 -1.44300 48.06200
H  28.78700 -1.07700 46.30200
Mg 9.09200 48.06800 27.05200
C  7.00100 47.58600 29.94200
C  11.71300 48.27100 29.05600
C  10.71900 49.09800 24.30700
C  6.09900 48.01500 25.09200
N  9.25200 48.11000 29.31200
C  8.38100 47.72800 30.28300
C  9.05700 47.70800 31.62900
C  10.50900 48.15200 31.34600
C  10.52900 48.09800 29.77300
C  10.79600 49.58300 31.91300
C  9.02300 46.43800 32.49500
C  8.78100 46.59900 34.00700
H  9.23600 45.49600 34.98900
N  11.01300 48.44700 26.71500
C  11.94200 48.42500 27.68500
C  13.22000 48.48600 26.93800
C  12.99500 48.74100 25.56700
C  11.55400 48.76100 25.48000
C  14.55100 48.36300 27.68700
C  13.89700 48.99500 24.50000
O  13.51900 49.20800 23.31500
C  15.37100 48.86200 24.73100
N  8.50500 48.48500 25.00800
C  9.38100 49.00600 24.12200
C  8.60600 49.43200 22.79600
C  7.28500 48.63900 22.93100
C  7.26500 48.41000 24.43600
C  8.54600 51.02700 22.73800
C  7.31300 47.36100 22.14600
C  6.26900 47.30900 20.97000
N  6.94200 47.97700 27.32000
C  5.89800 47.94900 26.48300
C  4.67000 47.77300 27.18200
C  5.05400 47.71400 28.52900
C  6.47600 47.75500 28.55600
C  3.30800 47.78800 26.59100
C  4.49600 47.52900 29.85300
O  3.39300 47.50000 30.31700
C  5.79200 47.37300 30.78000
C  5.69400 46.07400 31.43400
O  5.88100 45.00600 30.87300
O  5.20900 46.26400 32.72000
C  5.07800 45.05400 33.50700
H  12.58700 48.18800 29.70400
H  11.21500 49.47400 23.41000
H  5.25200 48.08300 24.40500
H  8.55100 48.49600 32.18700
H  11.31800 47.58800 31.81000
H  10.96700 50.30200 31.11300
H  11.68500 49.54800 32.54300
H  10.13200 49.96500 32.68900
H  9.99800 45.95200 32.46400
H  8.26800 45.76900 32.08300
H  7.69500 46.61600 34.09100
H  9.19600 47.55200 34.33700
H  15.07800 49.31000 27.80800
H  15.24900 47.60700 27.32900
H  14.24600 47.93800 28.64300
H  15.87900 48.89800 23.76700
H  15.58400 47.96200 25.30800
H  15.68800 49.72700 25.31300
H  9.13800 49.05500 21.92200
H  6.56300 49.33000 22.49400
H  9.50800 51.43300 23.05000
H  7.73100 51.34100 23.39100
H  8.29500 51.39000 21.74100
H  7.17200 46.46800 22.75500
H  8.30200 47.15800 21.73400
H  6.86900 47.18600 20.06800
H  5.70600 48.24200 20.93900
H  5.53300 46.50900 21.05300
H  2.57300 47.39600 27.29300
H  3.25200 47.39400 25.57600
H  2.93000 48.80700 26.66600
H  5.75800 48.06400 31.62300
H  5.91000 45.14100 34.20500
H  5.11300 44.06500 33.05100
H  4.09700 45.22700 33.95000

