158

Mg 36.01500 2.00000 29.93900
C  33.86000 3.14500 32.35100
C  38.56500 1.95300 32.49300
C  38.32200 1.13900 27.61700
C  33.59200 2.47800 27.54500
N  36.16400 2.44800 32.14400
C  35.10700 2.92400 32.88900
C  35.53600 3.05800 34.35700
C  37.07100 3.00500 34.20600
C  37.28400 2.40500 32.87300
C  37.86500 4.37100 34.39100
C  34.86700 2.04700 35.26600
C  34.45200 2.48100 36.65600
H  35.01800 3.77500 37.32100
N  38.08400 1.51500 30.02300
C  38.92200 1.56000 31.14200
C  40.21600 1.12600 30.68600
C  40.21200 0.79700 29.29400
C  38.84800 1.23400 28.91500
C  41.44700 1.20300 31.63400
C  41.29600 0.31400 28.38000
O  41.09500 0.17400 27.20100
C  42.77300 0.12700 28.92400
N  36.00600 2.00300 27.83000
C  37.09200 1.44300 27.10700
C  36.68600 1.15900 25.63300
C  35.18400 1.67000 25.61700
C  34.87700 2.01000 27.10800
C  37.61100 1.75800 24.54600
C  34.14500 0.52700 25.03100
C  33.04500 1.13300 24.12500
N  34.13300 2.69500 29.93800
C  33.23600 2.77900 28.84600
C  31.92300 3.07900 29.31900
C  32.09400 3.28700 30.73700
C  33.44100 2.99700 31.02200
C  30.66400 3.35200 28.38500
C  31.47900 3.77900 32.02600
O  30.42400 4.24100 32.26100
C  32.66100 3.57500 33.08000
C  32.78900 4.81200 33.85400
O  33.24600 5.88600 33.42400
O  32.16500 4.71900 35.08300
C  31.72800 5.96000 35.75700
H  39.29700 1.89600 33.30100
H  38.98500 0.93400 26.77300
H  32.83000 2.66400 26.78500
H  35.31100 4.06700 34.70200
H  37.52300 2.47000 35.04200
H  38.55500 4.22400 35.22200
H  37.31700 5.27700 34.64700
H  38.48700 4.54500 33.51200
H  35.54700 1.19500 35.24900
H  34.01700 1.62100 34.73500
H  34.81900 1.64200 37.24700
H  33.36600 2.40400 36.60800
H  41.96800 0.24600 31.66900
H  41.07100 1.40300 32.63700
H  42.03500 2.05700 31.29700
H  43.49800 -0.11900 28.14800
H  42.84400 -0.82200 29.45600
H  43.11000 1.01400 29.46100
H  36.63100 0.07200 25.58200
H  35.07800 2.57700 25.02200
H  38.40700 1.02800 24.39500
H  38.05100 2.66800 24.95400
H  37.09800 1.92400 23.59900
H  33.67200 -0.03100 25.83900
H  34.74000 -0.10400 24.37100
H  33.17700 0.77300 23.10500
H  33.12400 2.22000 24.15000
H  32.08600 0.79400 24.51700
H  30.35900 2.44800 27.85700
H  30.99000 4.18000 27.75500
H  29.85400 3.73000 29.00900
H  32.44200 2.71400 33.71200
H  30.69800 5.85000 36.09900
H  31.72400 6.88600 35.18200
H  32.31500 6.14700 36.65600
Mg 41.63200 40.58500 27.03400
C  40.95200 43.23300 29.49900
C  42.52700 38.69700 29.54200
C  42.68200 38.60600 24.65500
C  40.98100 43.17500 24.46500
N  41.83000 41.02600 29.34400
C  41.41500 42.03000 30.09700
C  41.40000 41.71800 31.61900
C  42.04100 40.21000 31.55600
C  42.06500 39.91000 30.03800
C  43.43200 40.09600 32.29600
C  39.92400 41.87900 32.23300
C  39.74200 42.68500 33.50800
H  39.07000 42.04900 34.82400
N  42.49000 38.83700 27.14300
C  42.79100 38.16800 28.26200
C  43.31200 36.88600 27.91100
C  43.20500 36.75900 26.48700
C  42.78100 38.10800 26.03100
C  43.81500 35.91900 28.90900
C  43.45800 35.55700 25.57300
O  43.58400 35.66100 24.33000
C  43.53800 34.22400 26.25900
N  41.81700 40.88500 24.90900
C  42.15900 39.79600 24.16200
C  42.09200 40.09500 22.63300
C  41.58400 41.56000 22.60800
C  41.47300 41.91200 24.09700
C  43.51100 39.95200 22.00400
C  40.27500 41.64100 21.70400
C  40.32200 42.53500 20.55500
N  41.20400 42.77300 26.96900
C  40.86300 43.59900 25.85500
C  40.56300 44.93300 26.41800
C  40.52700 44.80400 27.84100
C  40.93600 43.51600 28.09300
C  40.11100 46.18600 25.60500
C  40.17700 45.47500 29.03100
O  39.78200 46.64700 29.16600
C  40.37600 44.48300 30.16700
C  41.33100 45.18300 31.13300
O  42.53900 45.26200 30.97500
O  40.71700 45.80600 32.14300
C  41.59900 46.55400 33.03000
H  42.62900 37.94000 30.32300
H  43.10700 37.90900 23.93000
H  40.67900 43.85900 23.66900
H  42.05500 42.45100 32.09200
H  41.31700 39.56600 32.05400
H  43.74900 41.04300 32.73300
H  44.10400 39.61400 31.58600
H  43.43500 39.38600 33.12300
H  39.39400 40.95100 32.44800
H  39.24100 42.29300 31.49100
H  39.06300 43.44600 33.12300
H  40.67500 43.10500 33.88400
H  43.11200 35.08600 28.90400
H  43.95900 36.28500 29.92600
H  44.76100 35.53000 28.53100
H  44.49900 33.97800 26.71100
H  43.30200 33.49100 25.48800
H  42.67500 34.15500 26.92200
H  41.38700 39.33500 22.29500
H  42.40400 42.11600 22.15400
H  44.19800 40.44700 22.69000
H  43.55900 40.41500 21.01900
H  44.01400 38.98700 21.93900
H  39.38900 41.91000 22.28000
H  39.95900 40.64900 21.38000
H  39.29600 42.88700 20.44100
H  40.59900 41.88800 19.72200
H  41.03900 43.32600 20.77200
H  39.02400 46.12000 25.54900
H  40.46800 46.24700 24.57700
H  40.33200 47.12200 26.11800
H  39.39900 44.33100 30.62600
H  41.96700 46.01400 33.90200
H  41.00900 47.36300 33.46000
H  42.45000 47.01200 32.52600

