158

Mg 46.95600 16.83200 28.19700
C  45.11400 16.35700 31.28000
C  49.28700 18.49700 30.07500
C  48.28000 17.54700 25.38100
C  44.21700 15.27900 26.57800
N  47.15900 17.25000 30.47000
C  46.31400 17.03600 31.49900
C  46.82200 17.54400 32.84100
C  48.07300 18.34900 32.34200
C  48.17700 18.02500 30.86600
C  48.06800 19.92700 32.56600
C  47.05800 16.37300 33.89100
C  48.04000 16.56300 35.09100
H  48.00500 17.93000 35.88700
N  48.58100 17.84500 27.79200
C  49.41000 18.40600 28.68100
C  50.38500 19.02700 27.95000
C  50.20300 18.81300 26.58500
C  49.06800 18.00300 26.50800
C  51.40300 20.04600 28.56700
C  50.92600 19.36000 25.35500
O  50.62000 19.00500 24.21600
C  52.19400 20.22800 25.46900
N  46.30200 16.50500 26.27400
C  47.02600 16.98300 25.21400
C  46.41100 16.44000 23.86700
C  45.32400 15.41700 24.38200
C  45.27000 15.73800 25.85500
C  45.87200 17.55600 22.89000
C  45.70000 13.99100 24.08900
C  45.10000 13.43800 22.79200
N  45.01400 15.92300 28.79600
C  44.03500 15.42300 28.00100
C  42.91900 15.03400 28.78200
C  43.24800 15.35800 30.09400
C  44.54000 15.91800 30.02000
C  41.69800 14.36800 28.18500
C  42.87900 15.31600 31.44400
O  41.84700 14.95500 31.98600
C  44.04800 15.98800 32.28400
C  43.39400 17.07800 33.05000
O  43.39100 18.26400 32.74700
O  42.79900 16.58500 34.18500
C  42.18500 17.57000 35.09800
H  50.10900 18.96400 30.62100
H  48.67800 17.91700 24.43400
H  43.43500 14.74900 26.03100
H  46.06800 18.21600 33.25100
H  49.04000 18.02500 32.72700
H  48.97800 20.29900 33.03600
H  47.25600 20.17800 33.24800
H  48.05100 20.51200 31.64700
H  47.36700 15.46500 33.37300
H  46.11500 16.09300 34.36000
H  49.03700 16.47000 34.66200
H  47.88400 15.83600 35.88800
H  51.46000 20.92900 27.93100
H  52.39300 19.58800 28.56300
H  51.10400 20.27300 29.59000
H  52.91400 19.75400 26.13700
H  51.98100 21.23300 25.83500
H  52.61500 20.39800 24.47800
H  47.16700 15.89900 23.29800
H  44.31700 15.63800 24.02800
H  46.64800 17.65800 22.13100
H  45.73200 18.52900 23.36100
H  44.96200 17.26500 22.36600
H  45.43600 13.52100 25.03600
H  46.78600 13.90200 24.06700
H  45.78000 13.16500 21.98500
H  44.36200 14.16000 22.44500
H  44.44800 12.60600 23.06000
H  41.90900 13.31100 28.02600
H  41.36600 14.87700 27.28000
H  40.94900 14.41500 28.97500
H  44.43000 15.23400 32.97400
H  41.29500 17.99200 34.63200
H  42.95800 18.26600 35.42400
H  41.80100 17.05800 35.98000
Mg -1.30300 34.26600 27.24200
C  -3.02200 32.56400 29.89600
C  -0.02100 36.38700 29.75900
C  0.16400 35.95800 24.90700
C  -3.03700 32.28100 24.92200
N  -1.58500 34.41200 29.69300
C  -2.31500 33.65100 30.50100
C  -2.00600 34.05500 31.89900
C  -1.12900 35.41300 31.82600
C  -0.89600 35.42600 30.30400
C  -1.83700 36.65100 32.38500
C  -1.31800 32.92700 32.74300
C  -1.97100 32.60000 34.08200
H  -0.93400 32.49300 35.22800
N  -0.17000 35.96500 27.28700
C  0.39500 36.59400 28.40900
C  1.36800 37.59300 27.95800
C  1.42800 37.52000 26.56400
C  0.37100 36.51500 26.17500
C  2.17200 38.53900 28.89600
C  2.28900 38.32200 25.57300
O  2.33300 38.13600 24.33300
C  3.13100 39.42500 26.05500
N  -1.46700 34.24900 25.22600
C  -0.75000 35.08700 24.41100
C  -0.93900 34.65700 22.92200
C  -1.95700 33.46000 22.93600
C  -2.11400 33.30800 24.49600
C  -1.27200 35.85400 21.91200
C  -1.56600 32.26700 22.14900
C  -0.86100 31.08600 22.88600
N  -2.64900 32.68600 27.32100
C  -3.33100 32.08300 26.27700
C  -4.15700 31.03000 26.86000
C  -3.98500 31.13800 28.25100
C  -3.09300 32.17200 28.49000
C  -5.09900 30.10800 26.07500
C  -4.41200 30.54800 29.50200
O  -5.12300 29.58300 29.71400
C  -3.92000 31.50300 30.62900
C  -5.09800 32.21100 31.30400
O  -5.84600 33.07300 30.82300
O  -5.28200 31.64600 32.52500
C  -6.38300 32.22200 33.29600
H  0.36200 37.05300 30.53500
H  0.70100 36.46400 24.10300
H  -3.50600 31.55500 24.25500
H  -2.94200 34.43900 32.30600
H  -0.21800 35.26100 32.40500
H  -2.71300 36.48400 33.01200
H  -1.96500 37.40200 31.60500
H  -1.04900 37.07900 33.00600
H  -0.24000 33.03200 32.86600
H  -1.53200 31.99400 32.22200
H  -2.26600 31.55100 34.10100
H  -2.78100 33.22900 34.45300
H  2.08500 39.57500 28.56900
H  3.21900 38.23900 28.94700
H  1.90100 38.43500 29.94600
H  3.69800 39.80000 25.20300
H  3.73200 38.97000 26.84300
H  2.52000 40.22300 26.47800
H  0.10200 34.38500 22.74800
H  -2.97800 33.75700 22.69800
H  -0.49200 36.11900 21.19800
H  -1.33000 36.76900 22.50100
H  -2.21800 35.76700 21.37700
H  -0.88300 32.40600 21.31100
H  -2.54500 31.91500 21.82600
H  -1.68100 30.36900 22.93300
H  -0.63400 31.47400 23.87800
H  -0.11200 30.55100 22.30200
H  -5.26700 30.59800 25.11600
H  -6.11500 30.10700 26.47000
H  -4.81300 29.06300 25.95500
H  -3.36100 30.95400 31.38700
H  -7.11100 32.79200 32.72000
H  -5.92100 32.91100 34.00300
H  -6.89800 31.47100 33.89600

