158

Mg 28.23800 57.53400 42.61700
C  25.92100 55.64400 40.82700
C  30.68100 56.26300 40.71600
C  30.04500 60.14400 43.67200
C  25.34300 59.07200 44.26000
N  28.20100 56.33600 40.77600
C  27.19400 55.53700 40.30000
C  27.66800 54.61900 39.14500
C  29.24600 54.78700 39.31400
C  29.44000 55.78000 40.45400
C  30.10900 53.51500 39.48200
C  27.08700 55.03200 37.78200
C  26.52900 53.83600 37.00200
H  27.10500 53.45100 35.64600
N  30.13800 58.04500 42.39800
C  31.07300 57.33000 41.60900
C  32.34400 57.95300 41.77400
C  32.19900 59.07800 42.59900
C  30.74600 59.19300 42.90900
C  33.63800 57.42000 41.06900
C  33.29800 60.04700 42.93900
O  34.41400 59.95100 42.44900
C  33.15500 61.24300 43.94100
N  27.70900 59.46000 43.74300
C  28.70200 60.26600 44.11400
C  28.15400 61.48700 44.85300
C  26.74700 60.99900 45.21800
C  26.54100 59.82800 44.34900
C  29.00400 61.89500 46.03600
C  25.64200 62.06400 45.25600
C  24.85700 62.22400 46.59500
N  26.09800 57.31900 42.69900
C  25.11500 57.99400 43.39900
C  23.76600 57.45000 43.12100
C  24.09200 56.60800 42.06800
C  25.51300 56.45700 41.90300
C  22.33400 57.88600 43.54300
C  23.42600 55.71600 41.09400
O  22.23500 55.46800 40.97100
C  24.57700 54.99100 40.32500
C  24.36600 53.57900 40.52200
O  24.52100 52.95100 41.56500
O  24.23000 53.06200 39.24500
C  24.28100 51.58000 39.11200
H  31.51500 55.81200 40.17500
H  30.62100 61.02600 43.96300
H  24.49200 59.52700 44.77100
H  27.38700 53.59100 39.37600
H  29.62000 55.30600 38.43200
H  30.52600 53.52400 40.48900
H  30.82500 53.49300 38.66100
H  29.46500 52.64300 39.36900
H  27.78600 55.46300 37.06500
H  26.36200 55.83300 37.92400
H  25.50800 54.13700 36.76800
H  26.58800 52.93500 37.61300
H  33.59100 56.33200 41.10600
H  34.52100 57.78300 41.59500
H  33.76700 57.69600 40.02200
H  32.57700 62.03900 43.47300
H  34.11700 61.63800 44.26800
H  32.72500 60.84300 44.86000
H  28.07500 62.25200 44.08100
H  26.77500 60.41400 46.13800
H  28.36700 62.08400 46.90000
H  29.49400 62.81900 45.72900
H  29.73700 61.14300 46.33100
H  24.88900 61.76400 44.52800
H  25.84300 63.08000 44.91500
H  24.87700 63.28700 46.83800
H  25.24000 61.70600 47.47500
H  23.85400 61.85900 46.37400
H  22.06900 58.93800 43.44700
H  22.23600 57.48900 44.55300
H  21.75300 57.37400 42.77600
H  24.52500 55.33400 39.29200
H  24.49800 51.50100 38.04700
H  23.28500 51.27500 39.43400
H  25.01200 51.22500 39.83900
Mg 6.43600 53.20400 40.73800
C  5.90500 49.65100 40.29300
C  9.63800 52.64800 39.57700
C  6.62400 56.44500 40.44500
C  3.01500 53.41400 41.31800
N  7.59200 51.32300 39.85900
C  7.21000 49.98700 39.90700
C  8.44400 49.01800 39.76800
C  9.63500 50.03600 39.87100
C  8.91300 51.42900 39.64600
C  10.23400 49.92600 41.28500
C  8.46100 48.15500 38.49900
C  8.35500 48.89600 37.19400
H  7.48600 48.19500 36.09800
N  7.95100 54.43300 40.00200
C  9.18600 54.03000 39.63400
C  9.90600 55.18800 39.28900
C  9.02500 56.33300 39.45100
C  7.78800 55.79300 40.03200
C  11.40600 55.17000 38.97500
C  9.38500 57.74600 39.10000
O  10.52100 57.98100 38.65700
C  8.54300 58.99600 39.25400
N  4.99200 54.67500 40.83400
C  5.39300 55.95600 40.81600
C  4.18400 56.94000 41.02900
C  3.04900 55.95600 41.18700
C  3.68300 54.59000 40.97400
C  4.38900 57.88200 42.32800
C  1.92800 56.26700 40.14600
C  0.58300 56.75300 40.74300
N  4.81800 51.82500 40.97400
C  3.49700 52.04600 41.17800
C  2.71400 50.85600 41.39300
C  3.67600 49.89200 41.06100
C  4.90000 50.50000 40.74800
C  1.22500 50.68400 41.73000
C  3.83200 48.42700 40.96400
O  3.06100 47.53400 41.08500
C  5.32000 48.26600 40.39400
C  5.18000 47.61500 39.05300
O  4.75200 48.03100 37.98400
O  5.45700 46.35900 39.24400
C  5.08100 45.37300 38.20900
H  10.71000 52.47000 39.68700
H  6.77000 57.52300 40.53900
H  2.02600 53.43700 41.78100
H  8.55400 48.26900 40.55200
H  10.27400 49.97100 38.99100
H  11.16400 49.39700 41.07500
H  9.59100 49.38400 41.97900
H  10.57900 50.90900 41.60400
H  7.65600 47.44400 38.68500
H  9.42800 47.65100 38.48200
H  9.31800 49.19400 36.78200
H  7.88200 49.84900 37.43000
H  11.45200 55.24200 37.88800
H  11.82200 54.23000 39.33900
H  11.96500 56.01400 39.37900
H  8.87700 59.87800 38.70800
H  8.47600 59.34000 40.28600
H  7.54300 58.96700 38.82200
H  4.19600 57.51600 40.10400
H  2.66000 55.92900 42.20500
H  5.38200 57.76200 42.76100
H  3.74400 57.71900 43.19200
H  4.35700 58.91500 41.98100
H  1.61400 55.39700 39.56900
H  2.08800 56.99800 39.35400
H  0.82800 57.67600 41.26700
H  0.12100 56.01800 41.40300
H  -0.10600 56.98100 39.93000
H  0.74800 51.32300 40.98600
H  1.17900 51.11000 42.73200
H  0.81300 49.68500 41.58900
H  5.92000 47.67600 41.08800
H  5.96800 44.85600 37.84400
H  4.58900 45.78800 37.33000
H  4.51800 44.53200 38.61400

