158

Mg 25.32200 2.23200 29.54300
C  27.49900 1.75400 32.25600
C  22.83900 2.68200 31.66600
C  23.39000 2.47900 26.84500
C  28.10400 1.52800 27.35900
N  25.17400 1.96200 31.74900
C  26.20700 2.07000 32.63100
C  25.64700 2.35800 34.01500
C  24.13000 2.56900 33.91800
C  24.03500 2.44300 32.33800
C  23.18400 1.60900 34.62500
C  26.41300 3.44600 34.86100
C  26.94700 3.01300 36.28000
H  26.59800 4.03500 37.45200
N  23.33100 2.42000 29.31300
C  22.46400 2.63900 30.36000
C  21.12100 2.73900 29.79900
C  21.28100 2.52100 28.36300
C  22.72800 2.49500 28.09200
C  19.91500 2.88700 30.63700
C  20.35300 2.26300 27.29300
O  20.58800 2.12600 26.10300
C  18.90900 2.14300 27.75900
N  25.70500 2.03200 27.39300
C  24.67700 2.19600 26.50100
C  25.12200 2.06300 25.08600
C  26.72000 1.93100 25.22500
C  26.88600 1.89500 26.76700
C  24.33100 0.96900 24.37400
C  27.58400 3.00700 24.51900
C  27.14600 4.43500 24.71800
N  27.36000 1.73100 29.75900
C  28.37600 1.48100 28.78000
C  29.59500 1.10600 29.42400
C  29.28800 1.19900 30.75900
C  27.95400 1.52400 30.89700
C  30.90100 0.71600 28.81000
C  29.84900 1.14400 32.11700
O  31.02600 0.96500 32.46300
C  28.70900 1.58000 33.17900
C  28.66000 0.48500 34.19800
O  28.02000 -0.53200 34.17100
O  29.34500 0.91500 35.17400
C  29.07700 0.39300 36.48900
H  22.01300 3.01900 32.29600
H  22.75900 2.79600 26.01200
H  28.86000 1.20300 26.64200
H  25.94000 1.41800 34.48300
H  23.92300 3.62200 34.10800
H  23.00100 0.81600 33.90000
H  22.30500 2.19500 34.89200
H  23.61300 1.06400 35.46600
H  25.65000 4.18400 35.11200
H  27.15500 3.93700 34.23200
H  28.03500 2.96300 36.24000
H  26.53500 2.02600 36.49200
H  20.08200 3.16900 31.67700
H  19.46000 1.89600 30.66000
H  19.14600 3.56200 30.26300
H  19.10200 1.40600 28.53900
H  18.32300 1.65900 26.97800
H  18.44900 3.06200 28.12300
H  24.82900 3.01600 24.64500
H  27.02600 0.94700 24.86900
H  23.42300 0.63000 24.87300
H  24.96800 0.09100 24.26800
H  24.01800 1.35600 23.40400
H  27.54700 2.73300 23.46400
H  28.62900 2.91500 24.81500
H  26.76600 4.72800 23.74000
H  27.93200 5.15300 24.94800
H  26.31100 4.70300 25.36700
H  30.75400 -0.16100 28.17800
H  31.58700 0.46200 29.61700
H  31.29800 1.49900 28.16400
H  29.02000 2.49900 33.67500
H  28.00900 0.52700 36.65900
H  29.60800 1.10600 37.11900
H  29.39500 -0.64900 36.45300
Mg -5.93800 24.98400 26.10800
C  -4.30300 26.28300 29.06800
C  -7.80600 22.95200 28.19400
C  -6.74400 23.28800 23.43500
C  -3.53200 26.76200 24.25300
N  -5.93400 24.63200 28.38900
C  -5.18000 25.24300 29.35700
C  -5.62800 24.92400 30.71300
C  -6.61100 23.70400 30.43100
C  -6.87200 23.78000 28.86500
C  -5.93700 22.27800 30.73600
C  -6.43500 26.14300 31.23900
C  -6.30100 26.45000 32.74600
H  -5.65300 25.34800 33.64200
N  -7.23500 23.47400 25.85700
C  -7.97400 22.84800 26.79000
C  -8.82000 21.91300 26.09500
C  -8.60100 21.99400 24.74700
C  -7.49300 22.89400 24.59900
C  -9.73300 21.02800 26.88100
C  -9.24200 21.19200 23.55000
O  -8.88800 21.34600 22.42200
C  -10.35400 20.25000 23.81200
N  -5.35600 25.17800 24.06900
C  -5.85500 24.31000 23.16100
C  -5.12600 24.49200 21.73600
C  -4.21000 25.72700 22.01200
C  -4.33000 25.86800 23.53500
C  -4.40300 23.21700 21.31900
C  -4.60700 27.01400 21.23700
C  -5.46300 28.02600 21.89100
N  -4.40800 26.33300 26.52100
C  -3.55200 26.95400 25.63900
C  -2.74900 27.90300 26.40800
C  -3.04500 27.69600 27.69400
C  -4.03800 26.68900 27.74900
C  -1.78500 28.87000 25.90900
C  -2.63500 28.04400 28.99000
O  -1.81700 28.86800 29.45300
C  -3.43400 27.17700 29.95700
C  -2.44500 26.46100 30.85200
O  -1.90100 25.35700 30.69200
O  -2.33100 27.16700 32.02400
C  -1.69900 26.68600 33.29200
H  -8.28400 22.25100 28.88200
H  -6.94400 22.65000 22.57200
H  -2.81200 27.34200 23.67200
H  -4.74300 24.63900 31.28100
H  -7.55500 23.89300 30.94300
H  -5.84900 21.58300 29.90100
H  -6.62800 21.86000 31.46800
H  -5.01600 22.34900 31.31400
H  -7.47700 26.04400 30.93500
H  -6.20100 27.07500 30.72300
H  -7.30100 26.57600 33.16100
H  -5.75100 27.38300 32.86800
H  -9.61200 19.96200 26.68400
H  -10.68700 21.27200 26.41400
H  -9.80400 21.23600 27.94800
H  -11.10200 20.55900 24.54300
H  -9.82200 19.36000 24.14600
H  -10.77800 20.02500 22.83300
H  -5.84700 24.82100 20.98700
H  -3.16900 25.50100 21.78100
H  -4.55300 22.39900 22.02400
H  -3.34100 23.41400 21.17100
H  -4.73900 22.90400 20.33100
H  -4.94600 26.80200 20.22300
H  -3.66800 27.50200 20.97600
H  -4.88900 28.92900 22.10100
H  -6.02800 27.73500 22.77700
H  -6.13500 28.40800 21.12200
H  -2.28500 29.83100 25.78100
H  -1.44000 28.60600 24.90900
H  -0.84600 28.87900 26.46200
H  -4.07200 27.85700 30.52100
H  -2.29700 27.11500 34.09700
H  -0.62900 26.88400 33.34800
H  -1.72400 25.59800 33.36000

