158

Mg 25.10700 -5.25700 45.90700
C  26.95500 -2.76900 44.40200
C  22.29700 -4.22000 44.07700
C  23.59700 -8.11900 46.87000
C  28.07900 -6.47900 47.54100
N  24.66300 -3.68000 44.43600
C  25.65800 -2.80300 43.94400
C  25.06600 -1.96700 42.84700
C  23.48200 -2.08500 43.17900
C  23.43700 -3.41300 43.96600
C  22.93400 -0.99900 44.12000
C  25.52400 -2.55600 41.45300
C  26.37400 -1.62500 40.52000
H  25.95600 -1.54000 39.02000
N  23.24900 -6.01700 45.54500
C  22.21500 -5.44300 44.82300
C  21.13000 -6.32700 44.80700
C  21.34700 -7.45500 45.56500
C  22.79500 -7.24000 46.04400
C  19.81800 -5.92700 44.18200
C  20.50800 -8.65800 45.75800
O  19.34200 -8.63800 45.35300
C  20.82500 -9.73700 46.66300
N  25.75600 -7.16700 46.94600
C  24.87100 -8.10200 47.26700
C  25.48800 -9.04000 48.30300
C  26.87800 -8.44300 48.62400
C  26.97500 -7.27500 47.62500
C  24.65800 -9.58400 49.58400
C  28.10800 -9.42000 48.63600
C  28.76900 -9.50500 49.97800
N  27.07500 -4.78600 46.03100
C  28.14900 -5.34700 46.72200
C  29.35400 -4.49300 46.48700
C  28.87300 -3.61800 45.48900
C  27.52800 -3.72800 45.35100
C  30.67800 -4.61100 46.99300
C  29.38000 -2.63100 44.57500
O  30.44100 -2.22000 44.43600
C  28.12000 -1.99600 43.83500
C  28.06900 -0.58400 44.16200
O  27.85600 -0.13300 45.27500
O  28.35400 0.20600 43.08700
C  28.85000 1.50600 43.41100
H  21.42100 -3.78800 43.58900
H  23.12300 -9.00000 47.30900
H  28.92600 -6.74500 48.17700
H  25.42600 -0.95800 43.05200
H  22.78700 -2.29400 42.36600
H  22.40600 -0.28100 43.49200
H  23.73500 -0.42200 44.58200
H  22.32500 -1.37800 44.94000
H  24.65000 -2.92000 40.91100
H  26.02100 -3.51900 41.56900
H  27.41800 -1.93300 40.55500
H  26.28600 -0.58700 40.83900
H  19.16300 -6.78900 44.05100
H  19.95400 -5.60300 43.15000
H  19.27600 -5.17600 44.75700
H  19.89700 -10.28300 46.83600
H  21.09600 -9.28600 47.61700
H  21.65000 -10.36000 46.31800
H  25.61900 -9.96700 47.74300
H  26.79800 -8.01100 49.62200
H  25.21300 -9.62200 50.52100
H  24.24200 -10.58200 49.44500
H  23.84700 -8.85600 49.58700
H  28.82300 -9.11300 47.87200
H  27.90100 -10.45800 48.37500
H  28.02200 -9.57800 50.76900
H  29.27000 -8.56300 50.20000
H  29.51700 -10.29700 50.00000
H  31.36400 -3.85400 46.61300
H  30.92500 -5.63000 46.69600
H  30.62600 -4.55400 48.08100
H  28.30200 -2.12600 42.76800
H  28.99800 2.12000 42.52200
H  29.87000 1.37600 43.77400
H  28.27100 2.17200 44.05000
Mg 40.06700 9.31000 30.31600
C  42.13500 10.67700 32.92400
C  38.26500 7.60900 32.74900
C  38.26700 7.89700 27.77900
C  42.17500 10.74000 27.98900
N  40.17200 9.16400 32.59900
C  41.01600 9.90600 33.41500
C  40.62200 9.76900 34.87300
C  39.37200 8.76100 34.84600
C  39.19500 8.50100 33.32800
C  39.50000 7.48800 35.79000
C  40.21700 11.16300 35.53400
C  40.91800 11.63500 36.80400
H  40.01800 12.52800 37.73300
N  38.47000 8.02600 30.28900
C  37.90300 7.41000 31.36200
C  36.69100 6.69900 30.89400
C  36.73600 6.64700 29.40500
C  37.90000 7.51400 29.06900
C  35.68900 6.09500 31.99800
C  35.86200 5.85000 28.43100
O  36.09600 5.73900 27.21800
C  34.54900 5.32300 29.07400
N  40.14800 9.35000 28.20200
C  39.26800 8.77100 27.41500
C  39.46000 9.22500 25.98000
C  40.51400 10.37300 26.10600
C  40.98900 10.14500 27.48700
C  39.66900 8.28300 24.71100
C  39.84400 11.75100 25.86900
C  40.69400 12.74300 24.96500
N  41.89100 10.46600 30.40400
C  42.57400 10.88400 29.33800
C  43.73700 11.70300 29.85900
C  43.54600 11.69900 31.26800
C  42.43400 10.85900 31.55100
C  44.82100 12.18800 29.04800
C  44.08100 12.16300 32.51600
O  45.13500 12.78100 32.70400
C  43.22900 11.54200 33.66200
C  44.01700 10.67700 34.60200
O  44.52000 9.53800 34.40800
O  44.05400 11.38000 35.82500
C  44.45400 10.46100 36.92000
H  37.51100 7.20000 33.42500
H  37.60700 7.66400 26.94100
H  42.85000 11.22300 27.27800
H  41.49100 9.38900 35.41000
H  38.43400 9.27400 35.05800
H  39.18000 6.52400 35.39400
H  38.74600 7.71200 36.54400
H  40.45400 7.48700 36.31600
H  39.14400 11.18300 35.72300
H  40.28700 11.90100 34.73500
H  41.78400 12.22300 36.50000
H  41.25500 10.75500 37.35300
H  35.56400 6.75800 32.85400
H  36.01900 5.08900 32.25700
H  34.70400 5.96200 31.55200
H  33.95400 4.79100 28.33200
H  34.07100 6.21200 29.48500
H  34.75500 4.57000 29.83500
H  38.49300 9.69100 25.79300
H  41.43900 10.24800 25.54300
H  39.82900 7.27500 25.09300
H  40.55100 8.49600 24.10700
H  38.83500 8.27200 24.00900
H  39.74400 12.20000 26.85700
H  38.80900 11.64300 25.54400
H  40.96100 13.71200 25.38600
H  40.32100 12.80600 23.94300
H  41.63500 12.23300 24.75900
H  44.91400 11.77400 28.04400
H  45.73900 11.87800 29.54600
H  44.73300 13.27400 29.02500
H  42.77200 12.34800 34.23700
H  43.79300 9.59400 36.92600
H  44.42100 11.04100 37.84200
H  45.46600 10.11200 36.71500

