158

Mg 7.51400 3.07800 27.96200
C  8.98300 1.77100 30.93300
C  5.50800 4.99000 29.96500
C  5.75500 4.04800 25.20800
C  9.21700 0.67100 26.07600
N  7.38600 3.41000 30.27700
C  8.18400 2.85500 31.28000
C  7.61100 3.32000 32.67500
C  6.41800 4.25200 32.29500
C  6.37700 4.16600 30.75000
C  5.08800 3.81600 32.80700
C  8.65600 3.97100 33.61700
C  9.17600 3.22700 34.76500
H  9.87200 3.98000 35.90300
N  5.87100 4.34700 27.63400
C  5.22900 5.06000 28.59000
C  4.21000 5.85000 27.99700
C  4.39200 5.75600 26.53500
C  5.38600 4.74000 26.39300
C  3.26600 6.74300 28.79200
C  3.76800 6.51900 25.37900
O  4.12400 6.36900 24.25500
C  2.61800 7.54100 25.57700
N  7.40900 2.47300 25.97600
C  6.58800 2.99500 25.00400
C  6.83500 2.29400 23.67200
C  8.21600 1.56700 23.88600
C  8.23500 1.49800 25.42100
C  5.69000 1.30800 23.12800
C  9.47400 2.30900 23.35500
C  9.84700 1.70800 21.90800
N  8.86300 1.61900 28.32700
C  9.45700 0.71000 27.47400
C  10.22500 -0.27300 28.26700
C  10.13800 0.15500 29.59900
C  9.19000 1.27000 29.59200
C  10.81900 -1.52000 27.88200
C  10.56300 -0.09100 30.97300
O  11.32200 -0.90500 31.41000
C  9.86800 0.94100 31.88000
C  9.14800 0.23300 32.94600
O  7.99800 -0.20900 32.80400
O  9.86800 0.05600 34.05200
C  9.24100 -0.41500 35.32100
H  4.88400 5.64900 30.57200
H  5.22500 4.37500 24.31000
H  9.68400 -0.00300 25.35400
H  7.35900 2.38500 33.17600
H  6.58100 5.28800 32.59200
H  5.34200 3.07800 33.56900
H  4.30600 3.37800 32.18700
H  4.68900 4.63800 33.40100
H  8.22300 4.93000 33.90100
H  9.55700 4.11300 33.02100
H  9.87500 2.57200 34.24600
H  8.44700 2.51900 35.16000
H  3.22400 6.57400 29.86800
H  2.28200 6.66800 28.32800
H  3.60700 7.77800 28.81400
H  2.27900 8.04600 24.67300
H  3.18600 8.27100 26.15200
H  1.73600 7.19500 26.11600
H  6.92900 3.17200 23.03400
H  8.09800 0.56100 23.48500
H  5.26200 1.68500 22.19800
H  4.88200 1.29300 23.85900
H  6.03600 0.29200 22.94000
H  10.25600 2.23200 24.11000
H  9.17700 3.33900 23.15900
H  9.91300 2.43800 21.10100
H  9.26700 0.85900 21.54500
H  10.84300 1.29900 22.07400
H  10.32400 -1.93500 27.00500
H  10.64800 -2.16300 28.74500
H  11.86400 -1.46700 27.57900
H  10.69500 1.51500 32.29900
H  9.17000 0.48000 35.93900
H  9.70000 -1.23000 35.88100
H  8.18200 -0.62800 35.17600
Mg 40.56600 9.68900 29.45500
C  42.47700 10.73400 32.21600
C  38.35200 8.29700 31.56100
C  39.08400 8.41400 26.73100
C  42.97200 11.21100 27.33600
N  40.57400 9.40300 31.67700
C  41.28700 10.09500 32.66400
C  40.60100 9.88900 34.04800
C  39.30700 9.11900 33.74200
C  39.36600 9.00400 32.17000
C  39.03300 7.79100 34.52300
C  40.34700 11.23300 34.89200
C  40.94200 11.24800 36.28200
H  40.60200 12.26800 37.27300
N  38.97900 8.55100 29.17900
C  38.14700 8.09000 30.17400
C  37.10000 7.32400 29.56400
C  37.28000 7.37400 28.18000
C  38.52100 8.13100 27.95600
C  36.06400 6.59400 30.44400
C  36.45900 6.82600 27.08300
O  36.55900 7.22100 25.95800
C  35.21100 5.92700 27.36600
N  40.97400 9.80700 27.29300
C  40.18100 9.21100 26.38100
C  40.67700 9.47600 24.94100
C  41.99800 10.30900 25.14900
C  41.90600 10.57300 26.66900
C  40.91000 8.23700 24.04900
C  42.07600 11.48100 24.27300
C  41.16100 12.75900 24.54100
N  42.32100 10.70900 29.63100
C  43.15300 11.28400 28.74300
C  44.21100 12.02600 29.39900
C  44.06500 11.67600 30.75900
C  42.85100 10.96400 30.90600
C  45.25500 12.86700 28.78700
C  44.50800 11.98500 32.06400
O  45.48600 12.66600 32.41100
C  43.53200 11.41400 33.06800
C  44.35300 10.48500 33.92400
O  44.68500 9.34200 33.68000
O  44.55600 11.05300 35.16700
C  45.23800 10.26500 36.13400
H  37.43300 8.30800 32.15000
H  38.70600 7.93400 25.82600
H  43.75300 11.58900 26.67300
H  41.30100 9.33000 34.66900
H  38.50600 9.82400 33.96500
H  37.98100 7.58300 34.32900
H  39.09300 7.87600 35.60800
H  39.67600 6.98600 34.16700
H  39.27500 11.34900 35.05100
H  40.59900 12.15400 34.36700
H  42.02300 11.33000 36.16800
H  40.75600 10.24200 36.65700
H  35.07400 6.85800 30.07300
H  36.18700 6.96300 31.46200
H  36.15100 5.50800 30.39500
H  35.54200 4.95600 27.73100
H  34.79400 5.69200 26.38600
H  34.45600 6.43600 27.96600
H  39.99100 10.16100 24.44200
H  42.91700 9.76100 24.94100
H  40.54800 7.38700 24.62700
H  41.94700 8.12100 23.73400
H  40.28400 8.31400 23.16000
H  41.81700 11.18300 23.25700
H  43.07200 11.92300 24.26200
H  40.35300 12.85400 23.81600
H  41.76300 13.66200 24.63500
H  40.74300 12.63500 25.54000
H  44.89000 13.13300 27.79500
H  46.09600 12.17400 28.76600
H  45.26000 13.73800 29.44300
H  43.06000 12.22100 33.62900
H  44.83100 9.25400 36.13100
H  45.04700 10.64700 37.13700
H  46.31000 10.20900 35.94400

