158

Mg 36.63000 50.28900 26.19000
C  36.96700 47.96800 28.91800
C  35.56100 52.63400 28.47200
C  36.01600 52.25800 23.51800
C  37.58000 47.66700 24.01400
N  36.15400 50.16200 28.46100
C  36.57800 49.23400 29.37500
C  36.44400 49.66300 30.84300
C  35.73400 51.13200 30.63700
C  35.75400 51.30500 29.08800
C  34.29900 51.37500 31.16800
C  37.83800 49.79900 31.63600
C  37.84500 48.90000 32.95200
H  36.66100 49.19900 33.95000
N  36.04100 52.21200 26.04500
C  35.59000 53.04000 27.08800
C  35.24800 54.30000 26.54200
C  35.30900 54.23800 25.07200
C  35.80800 52.80500 24.80300
C  34.89900 55.47900 27.45700
C  34.95100 55.23800 23.94900
O  35.13400 55.07300 22.75600
C  34.38000 56.57700 24.33700
N  36.76800 50.02700 24.10600
C  36.48700 50.95500 23.24200
C  36.81000 50.51200 21.80200
C  37.39400 49.09300 21.95400
C  37.24300 48.90300 23.45900
C  35.57100 50.68600 20.86600
C  38.90400 48.90000 21.50800
C  39.92500 49.75200 22.31100
N  37.14400 48.23500 26.36100
C  37.58700 47.37400 25.40900
C  37.87200 46.07900 26.07800
C  37.67600 46.29500 27.42900
C  37.18900 47.62300 27.57200
C  38.38700 44.87800 25.41900
C  37.73900 45.62700 28.77900
O  37.97100 44.48800 29.07900
C  37.28200 46.76600 29.72100
C  36.15100 46.29200 30.48900
O  34.98200 46.42500 30.18900
O  36.43300 45.77300 31.74200
C  35.45300 45.35100 32.72100
H  35.29900 53.39800 29.20700
H  35.74200 52.79700 22.60900
H  38.12200 47.00100 23.33900
H  35.85100 48.87700 31.31000
H  36.30900 51.94500 31.08100
H  34.36200 52.19500 31.88400
H  33.81800 50.50400 31.61300
H  33.55100 51.57700 30.40200
H  37.78100 50.82200 32.00900
H  38.72300 49.68500 31.01000
H  38.77200 48.94100 33.52500
H  37.65100 47.91900 32.51900
H  35.60100 56.24000 27.11300
H  35.11600 55.21700 28.49200
H  33.82900 55.68200 27.41400
H  33.48700 56.44500 24.94800
H  34.04500 57.08800 23.43400
H  35.20900 57.02400 24.88500
H  37.61700 51.15500 21.45200
H  36.76500 48.33300 21.49100
H  34.66000 50.88600 21.43100
H  35.47600 49.69600 20.41900
H  35.64000 51.35600 20.00900
H  39.03800 49.35600 20.52800
H  39.22300 47.88400 21.27400
H  40.79000 50.08900 21.73800
H  40.30100 49.16900 23.15200
H  39.59400 50.71200 22.70800
H  38.54100 44.08500 26.15000
H  39.36800 45.13000 25.01400
H  37.81000 44.53000 24.56300
H  38.09800 47.04300 30.38800
H  35.45800 44.27000 32.58100
H  34.39200 45.56400 32.59000
H  35.63100 45.68600 33.74300
Mg 1.29500 41.87900 25.73500
C  3.05200 42.06300 28.71100
C  -1.27100 40.58700 27.47600
C  -0.29000 41.44900 22.72400
C  4.19700 42.48300 23.91200
N  0.86400 41.67200 27.83200
C  1.71500 41.84600 28.89300
C  1.14000 41.65100 30.24800
C  -0.26300 41.02800 29.89400
C  -0.27500 41.03200 28.30500
C  -0.59000 39.57000 30.44000
C  1.10800 43.07600 30.92100
C  1.53100 43.16000 32.40100
H  1.29200 41.90200 33.34700
N  -0.53900 41.14700 25.18300
C  -1.50700 40.65100 26.01300
C  -2.72000 40.18300 25.24600
C  -2.35200 40.36500 23.87000
C  -1.00500 41.01700 23.87100
C  -4.12300 39.79500 25.79300
C  -3.05900 40.01800 22.57500
O  -2.70300 40.33000 21.41400
C  -4.36500 39.22300 22.62900
N  1.83200 42.02500 23.60200
C  0.97900 41.93600 22.64800
C  1.69900 42.01800 21.26400
C  3.11200 42.62200 21.63100
C  3.03400 42.31300 23.16500
C  1.83200 40.65500 20.46700
C  3.16200 44.20300 21.39400
C  4.03200 44.75500 20.20900
N  3.22500 42.09500 26.09300
C  4.34800 42.36800 25.30400
C  5.49000 42.54300 26.16500
C  4.97700 42.37700 27.44100
C  3.62000 42.12100 27.40200
C  6.86300 43.06300 25.73600
C  5.41100 42.51700 28.79900
O  6.58600 42.62600 29.18900
C  4.23700 42.33100 29.69100
C  4.69100 41.22200 30.62200
O  4.50800 40.03200 30.43800
O  5.22800 41.71700 31.73300
C  5.50100 40.79800 32.81800
H  -2.06700 40.02700 27.97200
H  -0.59500 41.28000 21.68900
H  5.07000 42.72000 23.30000
H  1.74700 40.86100 30.69000
H  -1.08800 41.65000 30.24100
H  0.33100 38.98700 30.43300
H  -1.30000 39.02800 29.81600
H  -0.97400 39.61400 31.45900
H  0.08000 43.43100 30.84400
H  1.67400 43.76600 30.29600
H  0.93600 44.00200 32.75400
H  2.60000 43.36000 32.46600
H  -4.48400 38.85700 25.37300
H  -4.66000 40.67200 25.43100
H  -4.31200 39.68400 26.86100
H  -5.16900 39.66300 23.21900
H  -3.95300 38.24700 22.88700
H  -4.88500 39.04800 21.68700
H  1.15100 42.78400 20.71400
H  3.93200 42.11300 21.12500
H  1.47900 39.80100 21.04400
H  2.89800 40.47800 20.32500
H  1.29600 40.74800 19.52200
H  3.51100 44.71500 22.29200
H  2.14100 44.57000 21.28500
H  3.42800 45.35400 19.52700
H  4.51100 43.95900 19.63900
H  4.79300 45.41800 20.62000
H  7.48300 42.22900 25.40600
H  7.34000 43.68200 26.49600
H  6.62300 43.74900 24.92400
H  4.10200 43.22200 30.30400
H  6.43800 40.24400 32.76000
H  4.72000 40.10500 33.13000
H  5.56100 41.51300 33.63900

