158

Mg 48.42400 34.26800 26.89400
C  46.73600 32.87400 29.66600
C  48.45100 37.22200 28.74800
C  49.65900 35.65900 24.34200
C  47.62600 31.38500 25.10700
N  47.63200 35.06000 28.95300
C  47.12100 34.20000 29.92900
C  46.95100 34.97000 31.24800
C  47.12000 36.48500 30.79200
C  47.85600 36.23900 29.49700
C  45.75500 37.23100 30.74000
C  48.05000 34.56900 32.26900
C  47.54900 34.38800 33.75000
H  46.53100 35.34400 34.33400
N  49.08700 36.10700 26.63600
C  49.10800 37.16300 27.50700
C  49.96400 38.14300 26.88500
C  50.20900 37.82100 25.54500
C  49.66500 36.47200 25.47300
C  50.33800 39.48300 27.58100
C  50.92300 38.55900 24.39200
O  50.76900 38.32500 23.19100
C  51.64100 39.86600 24.82900
N  48.38400 33.73100 24.92800
C  49.11200 34.44400 24.07400
C  49.40400 33.73900 22.81700
C  48.87600 32.26500 23.03100
C  48.23200 32.43900 24.39500
C  48.93200 34.44800 21.53000
C  49.92900 31.06400 23.10800
C  50.62900 30.63400 21.74700
N  47.45100 32.43100 27.25300
C  47.12100 31.35900 26.40000
C  46.44300 30.33400 27.16000
C  46.25500 30.92400 28.43200
C  46.92300 32.17400 28.41400
C  45.95600 29.02000 26.71900
C  45.81700 30.60000 29.78000
O  45.40900 29.55800 30.31900
C  45.97800 31.90100 30.55900
C  46.45700 31.50700 31.94600
O  47.49700 31.10800 32.30100
O  45.27100 31.48700 32.71600
C  45.35900 31.04700 34.10200
H  48.46900 38.20400 29.22700
H  50.32100 35.97800 23.53500
H  47.53600 30.44300 24.56300
H  46.01600 34.64400 31.70400
H  47.75900 36.93400 31.55300
H  45.40400 37.44300 29.73000
H  45.73900 38.13000 31.35700
H  45.04200 36.59000 31.25800
H  48.73600 35.40200 32.42800
H  48.62200 33.68400 31.98800
H  48.40800 34.38700 34.42200
H  47.22000 33.34900 33.73200
H  49.76000 40.27900 27.11200
H  51.38000 39.60900 27.28900
H  50.09700 39.36000 28.63700
H  50.92400 40.65900 25.04200
H  52.18500 40.16900 23.93400
H  52.41500 39.70200 25.57900
H  50.48200 33.59400 22.74500
H  48.08300 31.90200 22.37700
H  47.95000 33.99700 21.38500
H  49.64600 34.38900 20.70900
H  48.71600 35.50300 21.69600
H  49.41900 30.13900 23.37800
H  50.67000 31.36100 23.84900
H  50.77200 29.56400 21.59300
H  51.60500 31.11500 21.80600
H  50.09900 31.00400 20.86900
H  46.28000 28.68500 25.73300
H  44.87000 29.03300 26.81700
H  46.38000 28.39800 27.50700
H  44.97200 32.31700 30.61300
H  46.25600 30.46000 34.30100
H  44.51700 30.38400 34.30100
H  45.24000 31.80600 34.87500
Mg -8.12000 39.19500 39.96700
C  -7.73300 35.87400 38.94600
C  -4.79000 39.76500 39.13900
C  -8.68900 42.56000 39.73100
C  -11.49600 38.66200 40.24500
N  -6.52700 38.06000 39.02800
C  -6.53600 36.67800 38.86000
C  -5.12000 36.21600 38.49000
C  -4.14300 37.37900 38.95600
C  -5.18300 38.48300 39.07200
C  -3.38400 37.10800 40.26400
C  -4.95100 35.84300 37.00500
C  -5.29800 36.96400 35.99400
H  -6.53500 36.74800 35.04800
N  -6.92100 40.96100 39.50900
C  -5.59500 40.94300 39.31600
C  -5.06900 42.26900 39.17400
C  -6.22300 43.16700 39.15100
C  -7.35400 42.23700 39.49700
C  -3.69200 42.70000 38.82600
C  -6.16200 44.67200 38.79400
O  -5.10200 45.31300 38.61100
C  -7.51000 45.38000 38.58900
N  -9.78300 40.47200 39.96900
C  -9.74800 41.80800 40.03700
C  -11.20600 42.31900 40.39600
C  -11.95800 41.10600 40.90400
C  -11.07300 39.95800 40.22900
C  -11.28200 43.53400 41.29000
C  -13.49800 40.93900 40.66200
C  -14.36200 40.46500 41.87100
N  -9.36600 37.55100 39.81700
C  -10.72600 37.50300 40.02500
C  -11.15000 36.09700 40.03000
C  -10.05000 35.47400 39.48100
C  -8.99000 36.40000 39.38800
C  -12.59800 35.55300 40.06600
C  -9.53600 34.22900 39.05600
O  -10.03300 33.11400 39.03400
C  -7.99400 34.38800 38.72100
C  -7.07200 33.59700 39.47700
O  -6.76000 33.77600 40.64400
O  -6.56200 32.57100 38.62100
C  -5.56800 31.63400 39.15400
H  -3.72500 39.97000 39.01500
H  -8.92300 43.62700 39.71700
H  -12.53800 38.36100 40.36600
H  -4.81500 35.37900 39.11700
H  -3.55900 37.67800 38.08600
H  -3.39100 36.06900 40.59300
H  -3.67500 37.76100 41.08700
H  -2.36400 37.48500 40.19700
H  -5.53200 34.92600 36.90500
H  -3.89100 35.61100 36.89800
H  -4.39300 37.15400 35.41700
H  -5.42300 37.89100 36.55400
H  -2.97300 41.88100 38.79600
H  -3.33900 43.38500 39.59700
H  -3.80400 43.22100 37.87400
H  -7.94500 45.55900 39.57300
H  -8.04600 44.65900 37.97100
H  -7.34100 46.30600 38.04100
H  -11.55700 42.53300 39.38600
H  -11.78200 40.96400 41.97000
H  -12.06700 43.45800 42.04100
H  -11.45700 44.46100 40.74300
H  -10.39500 43.52300 41.92300
H  -13.75900 40.26300 39.84800
H  -13.83100 41.95700 40.46100
H  -14.68300 39.42800 41.78300
H  -15.32000 40.98500 41.91900
H  -13.85000 40.52400 42.83100
H  -13.12900 36.38600 39.60700
H  -13.05700 35.15400 40.97000
H  -12.63100 34.73900 39.34200
H  -7.87300 34.15200 37.66300
H  -4.67600 31.66800 38.52900
H  -5.91100 30.59900 39.16300
H  -5.20000 31.97900 40.12000

