158

Mg 47.76200 35.16200 27.69600
C  45.90000 33.45600 30.16000
C  47.78000 37.92500 29.87700
C  49.15700 36.79500 25.38900
C  46.98800 32.51900 25.52600
N  47.05700 35.55100 29.78400
C  46.56600 34.58800 30.63500
C  46.70900 35.07000 32.09900
C  46.79400 36.60500 31.95100
C  47.24000 36.72500 30.45200
C  45.42300 37.31800 32.21300
C  47.96000 34.42600 32.85300
C  48.07500 34.56800 34.37100
H  47.35000 35.78100 35.06500
N  48.46400 37.12700 27.74100
C  48.43300 38.06700 28.66100
C  49.30900 39.16900 28.22100
C  49.83200 38.77400 26.97000
C  49.12700 37.53400 26.67000
C  49.61900 40.45900 28.99300
C  50.86100 39.46100 26.04500
O  51.26700 38.88600 25.05300
C  51.57600 40.69400 26.38000
N  48.06400 34.68600 25.70200
C  48.67800 35.55900 24.88600
C  48.59900 35.13600 23.41000
C  48.04600 33.71100 23.56400
C  47.69700 33.64500 25.05400
C  47.83100 36.08700 22.41800
C  49.13800 32.68200 23.12700
C  48.65400 31.54300 22.23600
N  46.83500 33.28000 27.78900
C  46.49400 32.33600 26.80900
C  45.78900 31.20100 27.42200
C  45.48300 31.67500 28.69200
C  46.12500 32.92800 28.87800
C  45.34500 29.92400 26.78800
C  44.77400 31.38700 29.88400
O  44.10200 30.43700 30.10700
C  44.87800 32.59500 30.82800
C  45.08500 32.20700 32.30200
O  46.06200 31.63900 32.75200
O  44.07500 32.71500 33.15000
C  44.45800 32.56500 34.59300
H  47.73900 38.83800 30.47500
H  49.66000 37.38000 24.61600
H  46.64900 31.80800 24.77100
H  45.79400 34.77600 32.61400
H  47.56100 36.91200 32.66200
H  45.40500 37.85300 33.16300
H  44.58300 36.63300 32.10400
H  45.25300 38.05800 31.43100
H  48.86900 34.70000 32.31600
H  47.85500 33.36900 32.60900
H  49.06800 34.62300 34.81600
H  47.70200 33.64800 34.82200
H  50.70300 40.51000 29.09700
H  49.27200 40.35000 30.02100
H  49.30600 41.42400 28.59500
H  52.14900 40.59400 27.30200
H  50.83300 41.47000 26.56400
H  52.27400 40.97000 25.58900
H  49.61600 35.03200 23.03100
H  47.15400 33.76400 22.94100
H  48.53900 36.80600 22.00600
H  47.33900 36.75800 23.12200
H  47.04600 35.61500 21.82600
H  49.45900 32.19700 24.04900
H  50.11000 33.11600 22.89100
H  47.89000 30.92900 22.71300
H  49.54500 30.94600 22.04400
H  48.31600 31.97600 21.29400
H  45.77400 29.88900 25.78700
H  44.25600 29.90500 26.76400
H  45.62700 29.02800 27.34200
H  43.88500 33.04500 30.81500
H  45.37700 33.09100 34.85100
H  44.57800 31.52700 34.90300
H  43.79100 33.11400 35.25700
Mg 9.94000 47.42300 26.76800
C  7.90100 47.47900 29.62100
C  12.33100 49.08900 28.41500
C  11.66300 47.17400 23.97000
C  6.96800 46.61900 24.86400
N  9.99500 48.27400 28.75200
C  9.21300 48.04700 29.82600
C  9.84600 48.44000 31.20400
C  11.05300 49.30100 30.61800
C  11.18900 48.81200 29.18500
C  10.84800 50.83400 30.80300
C  10.30900 47.17200 31.94800
C  9.86300 47.09100 33.38800
H  9.87300 45.81900 34.15300
N  11.77700 47.96900 26.31600
C  12.70300 48.67600 27.12100
C  13.95900 48.68800 26.45200
C  13.81600 47.94000 25.25000
C  12.34300 47.72600 25.13200
C  15.26700 49.12100 27.09100
C  14.81800 47.51900 24.17300
O  14.54600 47.02900 23.08700
C  16.24100 47.78200 24.45600
N  9.32700 47.17100 24.68700
C  10.29200 46.94100 23.77500
C  9.73100 46.44100 22.48900
C  8.17500 46.34200 22.64900
C  8.09600 46.72900 24.20100
C  10.07300 47.28600 21.20200
C  7.63000 44.98200 22.35200
C  6.11400 44.88800 21.90800
N  7.80900 47.14800 27.08300
C  6.76800 46.76500 26.27200
C  5.55900 46.60300 27.03700
C  6.00900 46.71100 28.42400
C  7.34800 47.17800 28.37500
C  4.21900 46.22200 26.47300
C  5.55100 46.64500 29.77800
O  4.42800 46.39600 30.23100
C  6.83200 47.04000 30.64100
C  7.14100 45.81600 31.48200
O  7.99700 44.99700 31.17100
O  6.36100 45.76000 32.62900
C  6.47800 44.64800 33.49900
H  13.03100 49.72200 28.96400
H  12.23700 47.09100 23.04400
H  6.06600 46.45200 24.27300
H  9.18700 49.02400 31.84600
H  12.00700 49.09500 31.10400
H  10.13700 51.20600 31.54100
H  10.66300 51.29700 29.83300
H  11.81300 51.18000 31.17200
H  11.39900 47.20800 31.92300
H  10.04900 46.27600 31.38500
H  8.80600 47.28500 33.20400
H  10.23200 47.97000 33.91600
H  15.69000 48.18000 27.44200
H  14.95500 49.77700 27.90400
H  16.03500 49.68400 26.56100
H  16.78900 47.66000 23.52200
H  16.56900 47.14900 25.28000
H  16.40300 48.81700 24.75700
H  10.16700 45.44600 22.40500
H  7.70400 47.14200 22.07700
H  10.81000 48.02300 21.52100
H  9.23400 47.82000 20.75400
H  10.59700 46.69700 20.44900
H  7.78800 44.43800 23.28300
H  8.31100 44.51200 21.64300
H  5.59500 44.47800 22.77500
H  5.98800 44.18800 21.08300
H  5.59000 45.80800 21.64700
H  3.63300 47.09400 26.18300
H  3.66500 45.77700 27.30000
H  4.36100 45.59900 25.59000
H  6.60800 47.76900 31.42000
H  7.43700 44.13300 33.43800
H  5.72100 43.87400 33.37500
H  6.45000 45.15400 34.46300

