158

Mg 2.06200 -1.20700 43.58200
C  5.43200 -0.20100 42.75000
C  0.91400 1.62800 42.06100
C  -0.95900 -2.69500 43.52400
C  3.46500 -4.20600 44.88800
N  3.07600 0.41700 42.46800
C  4.44900 0.61900 42.26300
C  4.67800 1.99600 41.62100
C  3.29900 2.67500 41.68400
C  2.32800 1.53500 42.13400
C  3.20400 3.95600 42.63700
C  5.09700 1.79000 40.13900
C  5.94800 2.81900 39.41800
H  5.38300 3.52800 38.24200
N  0.17200 -0.57900 42.98200
C  -0.12000 0.66200 42.44300
C  -1.50400 0.83600 42.37900
C  -2.11600 -0.37600 42.87300
C  -0.99700 -1.33200 43.15000
C  -2.12900 2.14100 41.85300
C  -3.60400 -0.65100 43.06900
O  -4.43000 0.27500 42.78800
C  -4.02000 -1.98900 43.50700
N  1.33100 -3.09900 44.13200
C  0.09800 -3.52800 43.89900
C  -0.14400 -5.01700 44.07500
C  1.23300 -5.40400 44.78900
C  2.07000 -4.16600 44.59500
C  -1.43800 -5.27100 44.90400
C  2.02300 -6.59600 44.19400
C  2.15700 -7.79600 45.11600
N  4.00600 -2.03500 43.95400
C  4.36900 -3.22800 44.58200
C  5.80600 -3.20100 44.77400
C  6.25000 -2.08400 44.01100
C  5.11300 -1.41500 43.51700
C  6.64400 -4.17100 45.43800
C  7.57100 -1.38200 43.58900
O  8.73300 -1.71500 43.71200
C  6.97400 -0.07500 42.89800
C  7.40500 1.09000 43.69300
O  6.79200 1.60800 44.62000
O  8.66300 1.48500 43.24900
C  8.99700 2.88000 43.73300
H  0.69400 2.64700 41.73800
H  -1.86000 -3.30100 43.40700
H  3.94000 -5.07300 45.35200
H  5.38700 2.65600 42.12000
H  3.05600 3.07000 40.69700
H  4.04600 3.96300 43.32900
H  2.29500 3.96200 43.23900
H  3.20400 4.87500 42.05200
H  4.17900 1.51800 39.61800
H  5.59200 0.84200 39.92900
H  6.78800 2.20200 39.10000
H  6.20100 3.60900 40.12600
H  -3.06300 1.84400 41.37700
H  -1.54200 2.58800 41.05100
H  -2.25700 2.95700 42.56500
H  -5.07300 -1.93100 43.78500
H  -3.57800 -2.28100 44.46000
H  -3.80500 -2.60800 42.63600
H  -0.23200 -5.32300 43.03200
H  1.06000 -5.44000 45.86400
H  -1.22000 -6.06300 45.62100
H  -2.26600 -5.54200 44.25000
H  -1.52900 -4.48100 45.65000
H  2.98000 -6.44900 43.69400
H  1.40100 -7.00100 43.39600
H  2.43800 -7.58100 46.14700
H  2.96900 -8.42100 44.74500
H  1.32500 -8.50000 45.09400
H  5.99700 -4.47000 46.26200
H  7.53000 -3.68000 45.84000
H  6.85500 -5.04500 44.82200
H  7.43700 0.06100 41.92000
H  9.75700 3.27100 43.05700
H  9.33100 2.78500 44.76600
H  8.13000 3.54000 43.68400
Mg 35.43200 3.30500 29.87900
C  32.95100 3.92200 32.30000
C  37.82300 3.51100 32.51300
C  37.87200 2.53100 27.65500
C  33.08100 3.54500 27.41600
N  35.36100 3.75700 32.14800
C  34.24400 3.92100 32.89100
C  34.54200 3.98300 34.43000
C  36.11200 4.09800 34.42800
C  36.49900 3.77400 32.93000
C  36.66400 5.35800 35.02800
C  34.09500 2.66200 35.16900
C  33.63300 2.70900 36.62300
H  34.31800 3.75800 37.53800
N  37.51100 3.01800 30.04100
C  38.32800 3.19800 31.20100
C  39.67000 2.78200 30.88800
C  39.66500 2.33900 29.48800
C  38.31400 2.67300 28.97700
C  40.76300 2.60400 31.94800
C  40.69600 1.51900 28.71700
O  40.53900 1.19100 27.53400
C  41.89300 0.94700 29.38100
N  35.47000 3.09600 27.79600
C  36.56700 2.70700 27.15800
C  36.18000 2.65800 25.66000
C  34.63100 2.85600 25.51500
C  34.36200 3.21900 26.99700
C  36.98300 3.49500 24.60100
C  33.85300 1.69300 24.97200
C  33.31400 1.74000 23.58600
N  33.45000 3.84500 29.78100
C  32.58600 3.78600 28.69100
C  31.19400 4.02000 29.16900
C  31.30100 4.08100 30.56700
C  32.66700 3.84600 30.90400
C  29.92800 4.22800 28.41400
C  30.56900 4.28300 31.83700
O  29.41100 4.51400 32.05200
C  31.64900 4.23700 32.97100
C  31.76500 5.57700 33.57400
O  32.01400 6.65400 33.01700
O  31.19400 5.52200 34.84400
C  31.12000 6.70800 35.71100
H  38.56600 3.45200 33.31000
H  38.49900 2.13500 26.85400
H  32.33900 3.51800 26.61500
H  33.97900 4.84000 34.79900
H  36.50200 3.23400 34.96700
H  37.46600 5.12700 35.72900
H  35.87100 5.98100 35.44200
H  37.21100 5.82200 34.20700
H  34.82800 1.85600 35.14000
H  33.24200 2.32300 34.58100
H  33.83700 1.69200 36.95700
H  32.54300 2.72700 36.64500
H  41.71000 2.81000 31.45100
H  40.72400 1.60400 32.38000
H  40.61000 3.39800 32.67900
H  42.69100 1.63400 29.66400
H  42.27800 0.19200 28.69500
H  41.50100 0.34700 30.20200
H  36.47400 1.67400 25.29600
H  34.43000 3.71200 24.87000
H  36.42600 3.92800 23.77000
H  37.75500 2.86800 24.15600
H  37.50000 4.26900 25.16700
H  33.04000 1.43800 25.65200
H  34.49600 0.81800 25.06300
H  33.92600 2.49000 23.08400
H  32.27000 2.05400 23.56600
H  33.53100 0.89100 22.93700
H  29.27000 3.42000 28.73400
H  30.07300 4.39000 27.34600
H  29.43500 5.12700 28.78300
H  31.39400 3.52500 33.75600
H  30.28900 7.35500 35.42800
H  32.07400 7.23400 35.67500
H  31.00500 6.33900 36.73000

