158

Mg 1.77800 -2.20400 43.12600
C  5.15100 -1.50000 42.35000
C  0.98000 0.69200 41.45000
C  -1.40100 -3.11600 43.23200
C  2.77500 -5.48900 43.90700
N  3.00700 -0.66800 41.95100
C  4.31300 -0.53700 41.88800
C  4.71900 0.84000 41.20500
C  3.35200 1.57100 41.11300
C  2.38000 0.46400 41.50800
C  3.19100 2.88900 42.00500
C  5.48700 0.68500 39.86300
C  6.49100 1.76400 39.59900
H  6.62300 2.41900 38.18400
N  -0.00200 -1.23900 42.53300
C  -0.11500 -0.01700 41.93800
C  -1.51100 0.33800 41.86700
C  -2.21400 -0.81800 42.31900
C  -1.23100 -1.79700 42.77200
C  -1.92100 1.63800 41.20800
C  -3.75800 -0.96000 42.36200
O  -4.55500 -0.08300 42.00800
C  -4.42800 -2.12200 43.08000
N  0.81000 -4.06200 43.45300
C  -0.49800 -4.15400 43.53100
C  -0.94600 -5.49700 44.17600
C  0.41100 -6.32300 44.18600
C  1.37100 -5.28200 43.69600
C  -1.73400 -5.48300 45.44400
C  0.33200 -7.63300 43.35900
C  1.28700 -8.78200 43.73200
N  3.56300 -3.29400 43.24600
C  3.84100 -4.57100 43.63700
C  5.28400 -4.75600 43.81200
C  5.79900 -3.62800 43.27700
C  4.72200 -2.76100 42.87800
C  5.90200 -6.04200 44.40700
C  7.04400 -2.89200 42.97800
O  8.21900 -3.11900 43.13000
C  6.59500 -1.49300 42.39600
C  7.02400 -0.39200 43.30500
O  6.67800 -0.16800 44.43800
O  7.97600 0.35000 42.71800
C  8.60100 1.40500 43.56700
H  0.73800 1.65700 40.99900
H  -2.41600 -3.50300 43.34600
H  3.11700 -6.46200 44.26600
H  5.39600 1.38900 41.86000
H  3.00700 1.87500 40.12500
H  3.86800 2.85000 42.85800
H  2.19900 2.99600 42.44300
H  3.44800 3.75300 41.39200
H  4.80300 0.74900 39.01600
H  5.99100 -0.28000 39.82100
H  7.44900 1.28400 39.79800
H  6.34100 2.67500 40.18000
H  -1.77100 1.53700 40.13300
H  -1.24900 2.44500 41.49900
H  -2.94600 1.95600 41.39900
H  -5.47900 -1.86900 43.21400
H  -3.91200 -2.24800 44.03200
H  -4.35400 -3.04900 42.51100
H  -1.55000 -6.00800 43.42600
H  0.60400 -6.49100 45.24500
H  -1.60800 -4.52600 45.95100
H  -1.47800 -6.26400 46.15900
H  -2.80000 -5.59200 45.24200
H  0.57700 -7.51400 42.30400
H  -0.67400 -8.05200 43.33600
H  1.83600 -8.65500 44.66500
H  1.96400 -9.05400 42.92200
H  0.59300 -9.62100 43.78800
H  6.95300 -5.96600 44.68600
H  5.78900 -6.93900 43.79800
H  5.36600 -6.18100 45.34600
H  7.05500 -1.41400 41.41100
H  9.59100 1.49100 43.12100
H  8.55000 1.43700 44.65500
H  8.06800 2.32300 43.31800
Mg 6.57900 54.23400 41.41200
C  5.86500 50.73000 40.89400
C  9.70100 53.74100 40.23000
C  6.92700 57.62100 41.15700
C  3.07900 54.65200 41.97400
N  7.57200 52.46400 40.30000
C  7.14400 51.11300 40.40200
C  8.31100 50.23900 39.84500
C  9.57300 51.16200 39.88500
C  8.95300 52.53700 40.22100
C  10.73300 50.70400 40.75800
C  7.97200 49.51000 38.52500
C  6.96400 50.17300 37.51000
H  7.60200 50.64600 36.17600
N  8.11600 55.52200 40.84300
C  9.33300 55.06100 40.49200
C  10.27700 56.17200 40.32000
C  9.51600 57.31100 40.62200
C  8.11000 56.83500 40.87600
C  11.61500 56.01000 39.78400
C  9.97600 58.73400 40.49200
O  11.10000 58.99800 40.02700
C  9.16700 59.97500 40.88100
N  5.23300 55.91500 41.71900
C  5.58100 57.16100 41.41300
C  4.44300 58.22500 41.63700
C  3.25100 57.19200 41.72200
C  3.85700 55.82900 41.77100
C  4.56000 59.14300 43.05300
C  2.09600 57.38100 40.60400
C  2.23100 56.34200 39.47000
N  4.87100 53.03200 41.72300
C  3.56300 53.36900 42.00300
C  2.80400 52.16900 42.13500
C  3.65200 51.15600 41.77000
C  4.89500 51.69200 41.44400
C  1.41000 52.04000 42.66900
C  3.68600 49.71800 41.63600
O  2.80800 48.88300 41.86800
C  5.15100 49.37300 41.01800
C  4.94800 48.51400 39.81400
O  4.25400 48.76300 38.85100
O  5.69900 47.36000 39.99200
C  5.44700 46.33100 38.95700
H  10.77500 53.54500 40.20900
H  7.00000 58.70800 41.07800
H  1.99300 54.74100 42.04300
H  8.43500 49.47200 40.60900
H  9.82500 51.36000 38.84300
H  10.90100 51.55600 41.41600
H  11.56000 50.51500 40.07300
H  10.49200 49.82200 41.35200
H  7.87100 48.43900 38.70100
H  8.90800 49.58100 37.97100
H  6.43600 50.98300 38.01300
H  6.14800 49.49900 37.24900
H  12.18000 55.39500 40.48500
H  12.18500 56.92800 39.64000
H  11.48800 55.44400 38.86100
H  8.41300 60.16800 40.11800
H  9.85300 60.81200 41.00500
H  8.76200 59.75400 41.86800
H  4.46100 58.89600 40.77800
H  2.61900 57.22900 42.60900
H  4.41200 60.16000 42.69100
H  5.56400 58.99400 43.45100
H  3.90900 58.84000 43.87300
H  2.13900 58.39700 40.21000
H  1.17300 57.29800 41.17800
H  3.29000 56.13100 39.32500
H  2.11300 56.73500 38.46000
H  1.66600 55.43600 39.69000
H  1.05600 51.01700 42.79800
H  0.61600 52.55000 42.12300
H  1.39900 52.47700 43.66800
H  5.67200 48.72600 41.72300
H  5.47500 45.38800 39.50200
H  6.19200 46.42700 38.16700
H  4.48100 46.37500 38.45400

