158

Mg 9.02800 3.91100 27.64400
C  10.59000 2.22100 30.45800
C  7.42900 5.92500 29.76200
C  7.35100 5.17900 25.05000
C  10.39000 1.37700 25.65800
N  8.86000 3.91800 29.88700
C  9.73200 3.33100 30.77700
C  9.56700 3.97200 32.18200
C  8.38000 4.98400 31.96600
C  8.16200 4.95500 30.46700
C  7.14200 4.69900 32.77400
C  10.88500 4.51300 32.78800
C  10.71000 5.13200 34.24600
H  11.58000 4.68000 35.37000
N  7.47200 5.26200 27.41800
C  7.00100 6.03400 28.44100
C  6.09900 7.01900 27.91500
C  6.25400 6.91400 26.51100
C  7.08400 5.78100 26.23500
C  5.27700 7.93000 28.82100
C  5.59300 7.77900 25.42000
O  5.93900 7.74600 24.22600
C  4.40100 8.54500 25.72200
N  9.04500 3.41700 25.58800
C  8.19100 4.05100 24.73900
C  8.20400 3.36100 23.35500
C  9.16300 2.17600 23.56600
C  9.57200 2.30800 25.02900
C  6.82900 3.02000 22.80600
C  10.38900 2.17600 22.61100
C  10.66600 0.84700 21.78200
N  10.31200 2.18700 27.95700
C  10.77600 1.29700 27.03400
C  11.67600 0.36300 27.62200
C  11.67300 0.67000 29.02400
C  10.83500 1.77700 29.18200
C  12.51400 -0.70400 26.92900
C  12.07800 0.22900 30.29800
O  12.64400 -0.79200 30.60400
C  11.59500 1.37400 31.29600
C  11.01600 0.61700 32.56500
O  9.99200 -0.08200 32.62100
O  11.82700 0.83500 33.67000
C  11.44100 0.27500 34.99500
H  7.07200 6.77400 30.34800
H  6.77500 5.57400 24.21100
H  10.69000 0.56700 24.98900
H  9.36400 3.17800 32.90000
H  8.86200 5.89700 32.31700
H  6.29200 4.44400 32.14200
H  6.87200 5.60500 33.31600
H  7.30200 3.84900 33.43700
H  11.24000 5.29400 32.11500
H  11.67000 3.75800 32.76200
H  9.65400 5.11300 34.51500
H  10.98700 6.15600 33.99500
H  5.54000 8.94600 28.52400
H  5.47700 7.91500 29.89300
H  4.20600 7.78600 28.67700
H  3.91000 8.75500 24.77200
H  4.64700 9.48300 26.22000
H  3.76700 8.01800 26.43500
H  8.64400 4.01300 22.60100
H  8.57800 1.27600 23.37800
H  6.14100 2.99700 23.65100
H  6.77400 2.00300 22.41700
H  6.48600 3.77200 22.09600
H  11.30700 2.44700 23.13200
H  10.29900 3.05600 21.97400
H  9.85600 0.15900 22.02500
H  11.60700 0.41200 22.11900
H  10.78300 0.91900 20.70000
H  13.19000 -1.07200 27.70000
H  12.99500 -0.17300 26.10700
H  11.93300 -1.45100 26.38800
H  12.47800 1.88800 31.67700
H  11.71000 1.02800 35.73500
H  12.17100 -0.50000 35.23000
H  10.39100 0.00900 35.11900
Mg -11.55400 38.12700 41.73900
C  -9.42000 35.56300 40.78900
C  -9.42800 40.50600 40.32700
C  -14.05100 40.42400 41.89400
C  -13.92300 35.55900 42.78200
N  -9.74100 38.07400 40.48500
C  -8.97900 36.88500 40.39100
C  -7.56300 37.22700 39.79900
C  -7.49300 38.76800 39.90600
C  -8.91300 39.19200 40.25600
C  -6.41600 39.32500 40.82200
C  -7.40200 36.59100 38.44400
C  -6.28400 35.58800 38.19400
H  -5.23800 35.98000 37.24000
N  -11.72100 40.16000 41.18000
C  -10.75400 40.96500 40.69200
C  -11.24200 42.36700 40.69800
C  -12.62400 42.37900 40.94400
C  -12.90700 40.88500 41.29600
C  -10.44600 43.66200 40.38500
C  -13.65600 43.54400 40.79100
O  -13.17600 44.66600 40.73000
C  -15.13200 43.33500 40.63500
N  -13.76200 37.95100 42.16900
C  -14.44900 39.08100 42.36100
C  -15.83200 38.87700 42.98200
C  -15.86200 37.31200 43.09400
C  -14.50300 36.83500 42.57200
C  -15.92900 39.55400 44.35800
C  -17.05700 36.56200 42.30400
C  -18.32300 36.10700 43.12600
N  -11.69800 36.02300 41.84500
C  -12.62200 35.12400 42.36000
C  -12.00300 33.81300 42.42100
C  -10.85800 33.94600 41.73500
C  -10.63500 35.32900 41.43300
C  -12.71100 32.62600 42.99000
C  -9.66000 33.15600 41.34400
O  -9.47400 31.95800 41.46600
C  -8.74700 34.23300 40.64400
C  -7.42100 34.19400 41.32400
O  -7.08600 34.89300 42.20600
O  -6.53400 33.41800 40.62000
C  -5.15100 33.37800 41.08400
H  -8.72400 41.28000 40.01400
H  -14.81200 41.20500 41.96700
H  -14.53500 34.79400 43.26500
H  -6.77700 36.79000 40.41500
H  -7.29900 39.22600 38.93600
H  -5.92100 38.48300 41.30600
H  -6.82000 40.03000 41.54800
H  -5.67200 39.77700 40.16700
H  -7.38200 37.45800 37.78400
H  -8.27300 35.96100 38.26200
H  -6.75500 34.67500 37.82900
H  -5.74200 35.59000 39.14000
H  -10.32400 44.24500 41.29900
H  -10.99300 44.30800 39.69700
H  -9.47000 43.34100 40.02400
H  -15.43000 42.36800 40.23000
H  -15.35200 44.21400 40.02900
H  -15.60900 43.50900 41.60000
H  -16.53000 39.21100 42.21500
H  -15.86700 37.05400 44.15300
H  -16.70700 40.30600 44.22600
H  -15.01700 40.05100 44.68900
H  -16.24500 38.79800 45.07700
H  -16.77100 35.67100 41.74400
H  -17.47400 37.23500 41.55500
H  -18.40300 35.02100 43.07600
H  -19.25900 36.55700 42.79400
H  -18.32000 36.25300 44.20600
H  -13.58500 32.35400 42.39800
H  -12.98800 32.78400 44.03200
H  -12.10100 31.72300 42.98400
H  -8.72500 33.89300 39.60900
H  -4.90800 34.34900 41.51600
H  -4.40500 33.22100 40.30500
H  -5.11200 32.66100 41.90400

