158

Mg 41.00900 9.38400 30.12500
C  42.72900 10.89000 33.00100
C  38.63500 8.38700 32.21400
C  39.68700 7.79800 27.48500
C  43.80300 10.32000 28.26800
N  40.80600 9.57400 32.34200
C  41.52800 10.27300 33.39000
C  40.92600 10.10500 34.78300
C  39.65100 9.25800 34.41000
C  39.69100 9.06600 32.88300
C  39.51600 7.92500 35.31000
C  40.68700 11.47500 35.44200
C  40.83200 11.47200 37.01100
H  41.30500 12.77300 37.73500
N  39.35900 8.26200 29.84200
C  38.45000 8.01600 30.80300
C  37.31100 7.35400 30.15500
C  37.59900 7.17000 28.78300
C  38.94400 7.72300 28.65300
C  36.07300 7.00800 30.99500
C  36.76000 6.51400 27.63800
O  37.23800 6.34900 26.55100
C  35.35200 6.11400 27.94900
N  41.63000 9.19100 28.15300
C  40.85400 8.54500 27.17800
C  41.46100 8.73400 25.78100
C  42.70100 9.50700 26.06300
C  42.72800 9.64600 27.59900
C  41.59100 7.33100 25.02200
C  43.06500 10.84700 25.26200
C  42.43000 12.18300 25.76400
N  42.89400 10.32700 30.47600
C  43.87600 10.72500 29.62500
C  44.86400 11.54400 30.30300
C  44.39900 11.56800 31.61700
C  43.24100 10.82400 31.66600
C  46.11100 12.13800 29.70800
C  44.79600 12.16000 32.87000
O  45.73500 12.82100 33.13700
C  43.65600 11.63400 33.92000
C  44.27700 10.79600 34.96900
O  45.05100 9.79700 34.81500
O  44.05600 11.37100 36.24800
C  44.71000 10.75600 37.45700
H  37.84000 8.04100 32.87700
H  39.22800 7.29000 26.63400
H  44.68200 10.62400 27.69600
H  41.65600 9.48800 35.30700
H  38.85400 9.91700 34.75600
H  40.48300 7.45700 35.49700
H  39.01700 7.14800 34.73000
H  38.96000 8.06500 36.23700
H  39.64300 11.73800 35.27600
H  41.26600 12.29800 35.02300
H  41.64400 10.80100 37.29200
H  39.94800 11.17100 37.57300
H  35.87700 5.93600 31.03600
H  35.24700 7.40700 30.40700
H  36.02400 7.35700 32.02700
H  34.97000 5.77100 26.98800
H  34.87700 7.06300 28.19700
H  35.36300 5.43200 28.79900
H  40.67700 9.29600 25.27300
H  43.55000 8.83700 25.93000
H  40.89500 7.23600 24.18800
H  41.37000 6.54200 25.74200
H  42.59500 7.14500 24.64300
H  42.81500 10.72800 24.20700
H  44.15500 10.85900 25.25800
H  41.75300 12.50400 24.97300
H  43.17900 12.97100 25.84500
H  41.72600 12.01100 26.57900
H  46.62500 12.64000 30.52800
H  45.83200 12.86700 28.94600
H  46.73000 11.37900 29.22900
H  43.18700 12.52900 34.32900
H  45.68000 11.21100 37.65900
H  44.93300 9.70300 37.28900
H  44.11100 10.75300 38.36800
Mg 57.20500 23.67100 45.30200
C  55.34600 26.23000 43.69300
C  54.82800 21.44600 43.78600
C  59.26600 21.14600 46.05100
C  59.70400 25.97000 45.86500
N  55.38300 23.82200 43.83900
C  54.80200 25.00500 43.36200
C  53.52100 24.76300 42.57700
C  53.24800 23.27600 43.00400
C  54.61200 22.80400 43.52900
C  52.25100 23.12200 44.20300
C  53.74000 24.81000 41.04700
C  52.64200 25.34800 40.07300
H  52.08800 24.32300 38.99700
N  57.00800 21.54300 45.06800
C  55.96700 20.88200 44.45100
C  56.22300 19.44600 44.61000
C  57.51000 19.27200 45.20700
C  58.01800 20.66000 45.48900
C  55.31400 18.42600 43.91500
C  58.18400 17.93600 45.42800
O  57.71500 16.86900 44.99900
C  59.51600 17.94200 46.08100
N  59.11300 23.59200 46.07200
C  59.80100 22.42000 46.28900
C  61.28600 22.67600 46.74200
C  61.35500 24.22000 46.57900
C  60.00400 24.62400 46.08700
C  61.57200 22.07800 48.17500
C  62.50700 24.65800 45.61100
C  63.41900 25.75700 46.08900
N  57.42000 25.69000 45.14000
C  58.50700 26.52800 45.40800
C  58.12600 27.89600 45.12800
C  56.82300 27.82100 44.64600
C  56.54600 26.47900 44.47200
C  59.07800 29.11100 45.48700
C  55.67900 28.55700 44.21400
O  55.46500 29.74000 44.33600
C  54.74800 27.54900 43.40300
C  54.76000 27.93400 42.02000
O  55.69200 27.82400 41.25900
O  53.57000 28.52900 41.71600
C  53.35100 29.08900 40.39000
H  54.05000 20.77600 43.41300
H  60.03700 20.44000 46.36600
H  60.53000 26.65100 46.07900
H  52.75900 25.43300 42.97600
H  53.01600 22.60400 42.17700
H  52.64400 22.55500 45.04700
H  51.35600 22.64400 43.80500
H  51.94200 24.10600 44.55300
H  54.02100 23.79100 40.78200
H  54.61500 25.39600 40.76500
H  53.03400 26.19100 39.50500
H  51.82100 25.69400 40.70100
H  55.45400 18.49800 42.83600
H  54.25700 18.59200 44.12200
H  55.57800 17.39900 44.16600
H  59.92800 16.94600 46.23900
H  59.38000 18.60100 46.93900
H  60.10600 18.53500 45.38300
H  61.86400 22.10300 46.01700
H  61.46700 24.73200 47.53500
H  62.42700 21.42700 47.99900
H  60.83100 21.39300 48.58800
H  61.80000 22.75500 48.99800
H  61.95500 24.95800 44.72100
H  63.17800 23.90900 45.19100
H  64.41700 25.39500 45.84400
H  63.44300 25.93200 47.16400
H  63.36200 26.72100 45.58300
H  60.02700 28.73200 45.86700
H  58.65300 29.80200 46.21500
H  59.23000 29.63400 44.54300
H  53.73200 27.49400 43.79500
H  53.29800 30.17500 40.46600
H  52.36700 28.79300 40.02600
H  54.06400 28.79800 39.61700

