158

Mg 5.46900 53.74700 40.83800
C  4.96700 50.21800 40.42300
C  8.73500 53.38300 40.14600
C  5.55800 57.05400 40.45900
C  2.06100 53.96000 41.77400
N  6.64900 51.96100 40.30700
C  6.32900 50.64600 40.32900
C  7.57000 49.78700 40.13100
C  8.75400 50.85600 40.39100
C  7.96600 52.14000 40.30500
C  9.57900 50.75700 41.70600
C  7.72300 49.07600 38.72100
C  7.58200 49.99800 37.55600
H  6.56100 49.57300 36.45700
N  6.95600 55.07400 40.36000
C  8.26800 54.73100 40.13000
C  9.07700 55.87800 39.79400
C  8.13700 56.98900 39.87800
C  6.80200 56.44600 40.13500
C  10.57700 55.84500 39.47300
C  8.52700 58.51400 39.70100
O  9.68700 58.85200 39.59600
C  7.53200 59.65500 39.66300
N  3.98400 55.28300 40.93900
C  4.31300 56.57300 40.79500
C  3.11800 57.45500 41.15600
C  1.96600 56.43300 41.29400
C  2.72300 55.14700 41.42600
C  3.30700 58.38000 42.28000
C  0.81400 56.57600 40.25200
C  -0.48400 57.12600 40.85500
N  3.76000 52.42800 41.05800
C  2.52000 52.64300 41.50300
C  1.79300 51.35200 41.65900
C  2.65300 50.35100 41.18400
C  3.87100 51.07900 40.89600
C  0.47500 51.09500 42.45100
C  2.88000 48.94300 41.01000
O  2.08800 48.00800 41.16000
C  4.42100 48.79300 40.52700
C  4.45000 48.13500 39.21600
O  3.99600 48.66000 38.21900
O  5.02300 46.88900 39.30100
C  5.16200 46.13100 38.04000
H  9.82100 53.27500 40.15100
H  5.34700 58.09400 40.20500
H  1.00400 54.09000 42.01700
H  7.65100 48.99600 40.87700
H  9.52000 50.87200 39.61500
H  9.52900 49.69200 41.93500
H  9.20700 51.35400 42.53900
H  10.63300 50.98400 41.54800
H  6.94200 48.32000 38.64300
H  8.73400 48.67100 38.76200
H  8.49200 49.78000 36.99600
H  7.55100 51.06200 37.79000
H  10.92300 54.82200 39.32600
H  11.10800 56.28100 40.32000
H  10.87500 56.22600 38.49600
H  7.23900 59.76700 40.70700
H  6.67600 59.32600 39.07500
H  7.85600 60.60300 39.23200
H  2.96000 57.99600 40.22300
H  1.49400 56.46600 42.27600
H  4.28700 58.37900 42.75700
H  2.63100 58.19200 43.11400
H  3.08300 59.39800 41.96100
H  0.68800 55.68500 39.63800
H  1.14400 57.28600 39.49400
H  -0.53800 57.46200 41.89000
H  -1.14600 56.30000 40.59500
H  -0.79900 58.03100 40.33500
H  0.54900 50.78300 43.49300
H  -0.13700 50.27400 42.07700
H  -0.07300 52.03500 42.51900
H  4.81700 48.22000 41.36600
H  4.27800 45.50600 37.92200
H  6.00700 45.44400 38.07300
H  5.23900 46.78700 37.17200
Mg -2.55700 34.51100 27.38100
C  -4.13100 32.43800 29.78000
C  -1.05400 36.20500 29.75800
C  -1.30900 36.58500 25.02000
C  -4.25900 32.84000 24.78400
N  -2.77200 34.45900 29.52500
C  -3.39000 33.45600 30.33600
C  -3.19300 33.72500 31.79800
C  -2.41000 35.10800 31.74200
C  -2.01000 35.28400 30.24600
C  -3.18600 36.33900 32.27900
C  -2.49700 32.55600 32.57800
C  -3.16500 32.25100 34.05500
H  -2.25100 32.57900 35.27100
N  -1.24400 36.10500 27.35600
C  -0.62700 36.57300 28.45500
C  0.40900 37.43100 28.09100
C  0.14100 37.79900 26.71900
C  -0.91200 36.80900 26.28700
C  1.42300 37.87300 29.08600
C  0.78900 38.96000 25.86800
O  0.50200 39.11000 24.68300
C  1.94500 39.76200 26.28100
N  -2.51100 34.48200 25.13800
C  -2.15200 35.62200 24.51000
C  -2.53900 35.54900 23.04300
C  -3.60900 34.41600 23.00900
C  -3.42600 33.86300 24.39000
C  -3.17000 36.86800 22.38400
C  -3.62600 33.36900 21.85400
C  -2.68300 32.13000 22.08200
N  -3.83300 33.01000 27.26600
C  -4.42900 32.42300 26.15400
C  -5.27200 31.34600 26.62100
C  -5.12000 31.23300 28.00400
C  -4.23400 32.29900 28.38900
C  -6.09800 30.47500 25.77300
C  -5.62200 30.63100 29.23500
O  -6.46800 29.78900 29.41800
C  -4.85000 31.26500 30.42600
C  -5.83700 31.58600 31.49400
O  -6.77300 32.38800 31.43400
O  -5.64800 30.72700 32.58600
C  -6.49300 30.84800 33.75300
H  -0.56200 36.73200 30.57800
H  -0.98800 37.22900 24.19800
H  -5.05600 32.45000 24.14800
H  -4.20100 33.88900 32.18000
H  -1.45000 35.03100 32.25200
H  -4.07700 36.01300 32.81400
H  -3.49800 36.93900 31.42400
H  -2.63600 36.83200 33.08100
H  -1.46400 32.88800 32.68100
H  -2.47600 31.68300 31.92500
H  -3.36300 31.18400 33.94900
H  -4.16200 32.66100 34.21900
H  1.23000 37.40700 30.05200
H  1.45100 38.95000 29.24700
H  2.46900 37.74400 28.81000
H  1.77900 40.34600 27.18700
H  2.15600 40.55400 25.56300
H  2.81300 39.11600 26.41000
H  -1.71000 35.19800 22.42900
H  -4.55200 34.95200 23.11500
H  -3.13400 37.73400 23.04500
H  -4.22000 36.65600 22.18200
H  -2.63700 37.15600 21.47800
H  -3.24800 33.82300 20.93700
H  -4.67100 33.08200 21.73900
H  -3.18900 31.26800 22.51600
H  -1.78300 32.30800 22.67200
H  -2.34400 31.83900 21.08800
H  -5.73700 30.31400 24.75700
H  -7.15300 30.74900 25.74900
H  -6.06400 29.47500 26.20700
H  -4.18000 30.49800 30.81500
H  -6.91700 29.84500 33.68700
H  -7.29700 31.55500 33.55200
H  -5.91900 31.16300 34.62400

