158

Mg 47.14600 35.19100 28.51700
C  45.40100 33.37400 31.19600
C  47.46200 37.82300 30.68000
C  48.17800 36.92300 25.92300
C  46.82800 32.31700 26.51800
N  46.57100 35.47500 30.69200
C  45.97800 34.64000 31.55100
C  46.04100 35.20800 32.97700
C  46.17700 36.73600 32.69400
C  46.79000 36.71300 31.23600
C  44.94100 37.55500 32.96000
C  47.25300 34.62300 33.76900
C  47.06800 34.34700 35.35000
H  46.23800 35.35600 36.19000
N  47.83900 37.06800 28.28600
C  47.97500 38.01700 29.34900
C  48.57300 39.22300 28.81400
C  48.82400 39.03500 27.44800
C  48.33100 37.57800 27.13500
C  48.48400 40.50800 29.58000
C  49.35400 40.02200 26.47200
O  49.38200 39.74900 25.27100
C  49.83900 41.37400 26.85600
N  47.34300 34.71700 26.46100
C  47.85800 35.61600 25.65400
C  48.14900 34.99200 24.28000
C  47.73300 33.49200 24.39600
C  47.40100 33.41900 25.94700
C  47.48700 35.62100 23.02000
C  48.85000 32.46200 24.00400
C  48.27000 31.21800 23.20700
N  46.32200 33.21500 28.77800
C  46.25400 32.16600 27.83700
C  45.49000 31.06500 28.41700
C  45.08900 31.53700 29.64100
C  45.64400 32.79200 29.87800
C  45.07700 29.78000 27.83200
C  44.37200 31.14600 30.83700
O  43.81700 30.06900 31.01100
C  44.40700 32.40700 31.84800
C  44.93200 31.84800 33.07500
O  46.11600 31.71000 33.46100
O  43.82100 31.53700 33.79800
C  44.11900 30.81500 35.08200
H  47.42100 38.75100 31.25500
H  48.55700 37.50500 25.08000
H  46.61500 31.49000 25.83700
H  45.10700 34.81900 33.38500
H  46.94200 37.09000 33.38500
H  44.75300 38.14500 32.06300
H  44.96600 38.18800 33.84700
H  44.06300 36.91300 33.02100
H  48.06900 35.34300 33.71200
H  47.66000 33.76400 33.23600
H  47.97900 34.14300 35.91200
H  46.57600 33.39500 35.54900
H  47.84400 41.22300 29.06300
H  49.49500 40.91400 29.53000
H  48.21500 40.60600 30.63100
H  49.05300 42.12400 26.76700
H  50.51600 41.47900 26.00800
H  50.46600 41.40800 27.74800
H  49.22100 35.01800 24.08900
H  46.73700 33.27600 24.00800
H  46.76000 34.93400 22.58600
H  48.28200 35.88500 22.32200
H  46.88200 36.49200 23.27200
H  49.41600 32.09700 24.86100
H  49.54100 32.94800 23.31500
H  47.21300 31.18300 23.47300
H  48.76900 30.30500 23.53100
H  48.26800 31.43200 22.13800
H  45.96700 29.17000 27.67500
H  44.57000 29.94100 26.88100
H  44.47600 29.19100 28.52500
H  43.44000 32.89100 31.98000
H  44.87300 30.02900 35.07500
H  43.22300 30.24600 35.33100
H  44.48300 31.48800 35.85900
Mg -5.66300 24.99400 27.72100
C  -3.78100 26.86200 30.11200
C  -6.64800 22.84300 30.13300
C  -7.16300 23.01100 25.26300
C  -4.19900 26.83300 25.23200
N  -5.18000 24.87900 29.77300
C  -4.53500 25.78900 30.64300
C  -4.83800 25.54300 32.12900
C  -5.67100 24.15400 32.07100
C  -5.79900 23.85500 30.56700
C  -5.03200 23.03100 32.85100
C  -5.66000 26.69800 32.74100
C  -5.34100 27.00700 34.17100
H  -6.39900 26.71600 35.21100
N  -6.85700 23.17700 27.75500
C  -7.12300 22.46100 28.82800
C  -7.77100 21.24300 28.41200
C  -7.91000 21.19200 27.01300
C  -7.24100 22.45700 26.61900
C  -8.27100 20.26200 29.45600
C  -8.57700 20.12900 26.12100
O  -8.58400 20.17400 24.87000
C  -9.35100 19.02500 26.80000
N  -5.68400 24.89000 25.58100
C  -6.41200 24.04600 24.78800
C  -6.30800 24.33100 23.27500
C  -5.31300 25.61300 23.30000
C  -5.08500 25.85300 24.80100
C  -5.73900 23.14700 22.48800
C  -5.93300 26.92900 22.63200
C  -5.02400 27.73700 21.78700
N  -4.28400 26.55100 27.65900
C  -3.90800 27.22100 26.57400
C  -2.89800 28.21000 27.00700
C  -2.90800 28.20000 28.37200
C  -3.65100 27.09200 28.73500
C  -2.30000 29.21900 26.14000
C  -2.36900 28.74400 29.60200
O  -1.59100 29.68500 29.76600
C  -3.00500 27.96200 30.78800
C  -1.83100 27.50600 31.61900
O  -0.79500 26.97500 31.26200
O  -2.11800 27.90200 32.88500
C  -0.97400 27.72000 33.79800
H  -6.92100 22.12800 30.91200
H  -7.59300 22.32300 24.53300
H  -3.86800 27.55600 24.48400
H  -3.87900 25.36700 32.61700
H  -6.67300 24.21300 32.49700
H  -5.78400 22.37400 33.28800
H  -4.36300 23.33300 33.65600
H  -4.46100 22.41500 32.15700
H  -6.67500 26.30800 32.66500
H  -5.78500 27.60000 32.14300
H  -5.10200 28.06800 34.24800
H  -4.45000 26.44400 34.45100
H  -9.34500 20.09000 29.38500
H  -7.99800 20.54000 30.47400
H  -7.64000 19.38600 29.30800
H  -9.95900 18.51100 26.05500
H  -10.09900 19.38400 27.50800
H  -8.53900 18.52600 27.32900
H  -7.30600 24.51300 22.87600
H  -4.32100 25.33700 22.94200
H  -4.94600 23.46200 21.80900
H  -6.53000 22.63300 21.94100
H  -5.34800 22.39500 23.17200
H  -6.27100 27.58300 23.43600
H  -6.83700 26.67700 22.07900
H  -5.49100 27.88900 20.81400
H  -4.03300 27.28700 21.72400
H  -4.81400 28.72400 22.19800
H  -1.75800 28.62100 25.40800
H  -1.43600 29.67300 26.62600
H  -2.98500 29.96100 25.72800
H  -3.70400 28.59500 31.33400
H  -0.07800 28.13500 33.33600
H  -0.68900 26.67200 33.89100
H  -1.16800 28.13800 34.78600

