158

Mg 2.01700 -1.24900 44.07800
C  5.27600 -0.69800 43.32400
C  1.08500 1.46600 42.01000
C  -1.12300 -2.37900 44.02600
C  3.06800 -4.31900 45.57500
N  3.01700 0.13700 42.68700
C  4.40000 0.23800 42.73400
C  4.84500 1.53000 42.07400
C  3.51700 2.25200 41.75900
C  2.45200 1.25200 42.16400
C  3.30400 3.74200 42.14200
C  5.69200 1.15200 40.79900
C  6.95900 2.06800 40.67800
H  6.89500 3.10500 39.48000
N  0.13000 -0.47300 43.23100
C  -0.01300 0.63200 42.41400
C  -1.40100 0.82700 42.17700
C  -2.09100 -0.32600 42.77000
C  -1.01700 -1.09100 43.47800
C  -1.99300 2.05500 41.43900
C  -3.56300 -0.46600 42.66200
O  -4.31400 0.11800 41.85100
C  -4.22000 -1.61800 43.45800
N  1.09100 -3.16300 44.56600
C  -0.21500 -3.29300 44.59200
C  -0.52800 -4.66900 45.27600
C  0.75700 -5.01100 46.07200
C  1.72100 -4.16800 45.37500
C  -1.80100 -4.62000 46.12400
C  1.05200 -6.52400 46.15400
C  1.04500 -7.05000 47.58900
N  3.83500 -2.29200 44.39900
C  4.04800 -3.42500 45.18000
C  5.39600 -3.60200 45.33600
C  6.02800 -2.49400 44.69300
C  4.99900 -1.78700 44.11500
C  6.00800 -4.87900 45.77900
C  7.25700 -1.89100 44.35100
O  8.37100 -2.25000 44.70200
C  6.81500 -0.64100 43.48400
C  7.23400 0.54300 44.13900
O  6.76700 0.89300 45.22100
O  8.24000 1.29000 43.50100
C  8.55500 2.54300 44.21500
H  0.88400 2.38100 41.44900
H  -2.15300 -2.73700 44.09400
H  3.45600 -5.06600 46.27100
H  5.38800 2.03500 42.87300
H  3.43900 2.31600 40.67300
H  2.40700 3.96700 42.71900
H  3.22600 4.43500 41.30500
H  4.15200 4.16400 42.68200
H  5.07100 1.18500 39.90300
H  6.10800 0.14500 40.76100
H  7.86200 1.47200 40.54400
H  7.15600 2.71300 41.53400
H  -2.10100 1.76700 40.39300
H  -1.28200 2.87800 41.50700
H  -2.96200 2.31700 41.86400
H  -4.01400 -1.52600 44.52400
H  -3.87800 -2.55300 43.01300
H  -5.29600 -1.56100 43.29400
H  -0.68800 -5.34500 44.43600
H  0.79700 -4.53300 47.05100
H  -2.33900 -5.53200 45.86700
H  -2.39200 -3.70700 46.19600
H  -1.54100 -4.82900 47.16200
H  2.03100 -6.77000 45.74200
H  0.32600 -7.03800 45.52500
H  0.61500 -6.24100 48.17900
H  2.05100 -7.30600 47.92200
H  0.50500 -7.98200 47.75300
H  5.60100 -5.06200 46.77300
H  7.09100 -4.90100 45.89800
H  5.58900 -5.63900 45.12000
H  7.29400 -0.67900 42.50600
H  8.96000 3.15900 43.41200
H  9.27200 2.44000 45.03000
H  7.68100 3.03700 44.63900
Mg 0.94900 7.68300 25.41200
C  1.37200 9.91700 28.13100
C  1.05400 5.03600 27.52400
C  0.42700 5.88100 22.77800
C  1.36000 10.67100 23.27700
N  1.00300 7.50100 27.60600
C  1.09100 8.56400 28.55000
C  1.17000 7.98700 29.96100
C  1.18900 6.40300 29.74200
C  1.10700 6.28900 28.22400
C  2.46000 5.69600 30.31800
C  0.00300 8.44000 30.85300
C  0.42300 8.81100 32.24200
H  1.54600 7.95500 32.95000
N  0.60800 5.73800 25.19800
C  0.78500 4.76900 26.19100
C  0.61300 3.48800 25.59200
C  0.35300 3.65500 24.20500
C  0.39400 5.14700 23.98300
C  0.64900 2.19800 26.37300
C  0.19200 2.55700 23.14500
O  0.11700 2.87100 21.99800
C  0.19900 1.06200 23.54700
N  1.01400 8.24400 23.27000
C  0.59600 7.26400 22.47000
C  0.60000 7.83200 20.94800
C  0.86200 9.31800 21.16800
C  1.02600 9.43800 22.69400
C  1.65700 7.10100 20.10400
C  -0.21500 10.28400 20.50600
C  -1.56800 10.51900 21.29300
N  1.36300 9.80000 25.58100
C  1.50300 10.87300 24.63900
C  1.64600 12.20900 25.31900
C  1.63000 11.87300 26.71000
C  1.48400 10.40900 26.78200
C  1.92700 13.63100 24.63300
C  1.84500 12.41800 28.05800
O  2.08900 13.57600 28.37700
C  1.64700 11.19900 29.03300
C  2.94400 11.10400 29.78700
O  4.07000 11.29600 29.28100
O  2.73700 11.05300 31.14200
C  3.83200 11.51800 31.99000
H  1.15000 4.12900 28.12400
H  0.23000 5.32400 21.86000
H  1.51000 11.58800 22.70400
H  2.03400 8.42000 30.46500
H  0.27200 5.93200 30.09700
H  2.77500 6.36200 31.12300
H  3.24300 5.69800 29.56000
H  2.19700 4.72700 30.74100
H  -0.73000 7.63800 30.77300
H  -0.33000 9.37300 30.39800
H  -0.44000 8.94800 32.89300
H  0.85700 9.80900 32.29400
H  -0.28800 1.64200 26.31600
H  0.66700 2.29500 27.45900
H  1.38800 1.51300 25.95700
H  -0.55300 0.80000 24.29300
H  1.16100 0.75800 23.95900
H  -0.12200 0.65400 22.58900
H  -0.42200 7.73800 20.58100
H  1.88800 9.50100 20.84900
H  1.04700 6.40100 19.53200
H  2.50200 6.67100 20.64100
H  2.16100 7.79100 19.42600
H  -0.55400 9.75900 19.61200
H  0.39600 11.18000 20.39500
H  -1.70100 11.58500 21.47600
H  -1.55100 10.11700 22.30600
H  -2.42900 10.09600 20.77400
H  0.95700 14.12500 24.58300
H  2.27100 13.55700 23.60100
H  2.56200 14.25400 25.26300
H  0.89200 11.39500 29.79400
H  3.73600 11.09900 32.99100
H  3.82000 12.60800 31.96200
H  4.83000 11.27300 31.62600

