158

Mg 35.18600 2.36500 29.91900
C  32.64200 2.94700 32.10500
C  37.44100 2.24900 32.54800
C  37.52400 1.50000 27.67400
C  32.69500 2.07600 27.29500
N  35.08300 2.65800 32.10500
C  33.88900 2.86400 32.73400
C  34.17500 3.18400 34.24800
C  35.75700 2.90600 34.41700
C  36.11000 2.56700 32.97400
C  36.70200 4.11500 34.90900
C  33.25900 2.29000 35.14900
C  33.70800 2.03900 36.62200
H  33.94800 3.25100 37.55500
N  37.16700 2.07800 30.00600
C  37.92200 1.99200 31.18100
C  39.23900 1.61100 30.91200
C  39.30300 1.24700 29.48800
C  37.95300 1.55700 28.97900
C  40.33300 1.56800 31.93000
C  40.45100 0.76100 28.67700
O  40.30500 0.35700 27.51100
C  41.82900 0.74300 29.27200
N  35.05000 1.71700 27.80600
C  36.21400 1.59600 27.10300
C  36.04800 1.50800 25.60300
C  34.48300 1.35100 25.53000
C  33.98700 1.62200 26.98300
C  36.69900 2.64800 24.67400
C  33.84300 -0.00800 25.01800
C  32.46900 0.15400 24.36200
N  33.15400 2.50400 29.71100
C  32.26700 2.39800 28.62600
C  30.87900 2.71700 29.03800
C  30.99500 2.91900 30.41100
C  32.39000 2.76600 30.73300
C  29.68500 2.75200 28.05800
C  30.27000 3.34200 31.58900
O  29.07800 3.63000 31.74800
C  31.31600 3.19800 32.77900
C  31.29500 4.55800 33.48000
O  31.79500 5.58200 33.03900
O  30.57200 4.45100 34.63500
C  30.57200 5.63800 35.46600
H  38.22200 2.20700 33.31100
H  38.23300 1.29800 26.86900
H  31.97500 1.96600 26.48200
H  33.93600 4.23500 34.41200
H  35.93500 1.89000 34.77000
H  37.30600 4.60900 34.14700
H  37.38400 3.74100 35.67300
H  36.07000 4.93400 35.25100
H  33.19900 1.36600 34.57400
H  32.26900 2.73200 35.25900
H  34.47300 1.26700 36.70000
H  32.84000 1.60900 37.12200
H  40.67100 0.54100 32.06400
H  40.14900 1.93400 32.94000
H  41.29200 1.95800 31.59000
H  42.53800 0.27500 28.58900
H  41.90900 0.15200 30.18400
H  42.10100 1.78900 29.41000
H  36.54000 0.56300 25.37200
H  34.10200 2.11200 24.85000
H  35.91500 3.35100 24.39200
H  37.18100 2.15000 23.83300
H  37.46900 3.21700 25.19400
H  33.70100 -0.73300 25.81900
H  34.48700 -0.56400 24.33700
H  31.66700 -0.28100 24.95900
H  32.47600 -0.27800 23.36200
H  32.23700 1.21500 24.26600
H  29.11100 3.67600 28.11600
H  28.92000 1.98800 28.19400
H  30.07700 2.66300 27.04400
H  30.94000 2.50600 33.53300
H  31.51400 5.66600 36.01400
H  29.78600 5.53400 36.21500
H  30.35400 6.56500 34.93700
Mg 47.48600 34.43400 27.60500
C  45.51500 32.98400 29.93300
C  47.85900 37.11700 29.76300
C  48.85200 36.23400 24.96700
C  46.79600 31.86900 25.35600
N  46.89000 34.92000 29.59200
C  46.26000 34.05200 30.42600
C  46.37200 34.54500 31.93600
C  46.81200 36.04400 31.77600
C  47.22600 36.04700 30.27900
C  45.65800 37.11200 32.08200
C  47.45700 33.71000 32.69100
C  47.11600 33.39100 34.20800
H  48.01200 33.86000 35.31900
N  48.34000 36.40600 27.41000
C  48.36800 37.34400 28.45100
C  48.84400 38.61800 27.86400
C  49.14900 38.34100 26.48700
C  48.78600 36.91800 26.24100
C  48.70400 39.87800 28.71100
C  49.55100 39.33600 25.46100
O  49.92300 39.04700 24.31900
C  49.67600 40.85800 25.90000
N  48.00100 34.08800 25.60100
C  48.56700 34.94400 24.68300
C  48.78600 34.35800 23.31100
C  48.42800 32.83300 23.57600
C  47.70300 32.85500 24.94600
C  47.93800 35.05200 22.21400
C  49.74400 31.87800 23.70400
C  49.76300 30.98800 22.45000
N  46.43100 32.77300 27.64400
C  46.12900 31.84800 26.62700
C  45.20600 30.83300 27.16600
C  44.99200 31.19400 28.48000
C  45.69500 32.39500 28.69600
C  44.62500 29.55500 26.48100
C  44.33800 30.91000 29.69200
O  43.66800 29.95400 30.02100
C  44.47200 32.17300 30.61100
C  44.79400 31.74000 31.94600
O  45.71600 30.96700 32.29300
O  43.85300 32.23100 32.80600
C  44.03600 31.91200 34.29800
H  48.00800 37.97300 30.42400
H  49.22200 36.77900 24.09600
H  46.45500 31.10300 24.65700
H  45.44200 34.41300 32.49100
H  47.69600 36.37100 32.32300
H  45.23000 37.50800 31.16200
H  46.17800 37.92100 32.59400
H  44.88700 36.64700 32.69800
H  48.41600 34.22600 32.64700
H  47.67400 32.80000 32.13100
H  47.27100 32.32800 34.39300
H  46.11400 33.74400 34.44900
H  47.72800 39.82900 29.19300
H  48.79200 40.87300 28.27400
H  49.48800 39.95000 29.46500
H  50.33800 40.85600 26.76600
H  48.69500 41.27900 26.12100
H  50.05500 41.48600 25.09300
H  49.83400 34.56200 23.09100
H  47.76000 32.37600 22.84600
H  48.51300 35.11000 21.29000
H  47.51600 36.03100 22.43900
H  47.18100 34.30500 21.97400
H  49.55200 31.26300 24.58400
H  50.70100 32.40000 23.70200
H  50.69900 31.18500 21.92700
H  48.89100 31.11000 21.80600
H  49.72600 29.94200 22.75600
H  43.64300 29.34700 26.90600
H  45.30000 28.73700 26.73200
H  44.51000 29.73300 25.41100
H  43.54700 32.74800 30.56700
H  44.87400 31.24600 34.50600
H  43.12500 31.47500 34.70600
H  44.18400 32.85400 34.82600

