158

Mg 8.60200 48.62600 25.21200
C  6.79800 48.75000 28.15900
C  11.36800 50.07000 26.94400
C  10.45400 48.23500 22.54000
C  5.73000 47.67700 23.52300
N  8.96100 49.52600 27.26200
C  8.05200 49.36700 28.29400
C  8.65400 50.01100 29.55600
C  9.91700 50.66700 28.98800
C  10.14200 50.07900 27.66000
C  9.79800 52.23400 28.99600
C  8.96200 48.86700 30.62100
C  10.08000 49.07300 31.63700
H  9.87800 48.52200 33.07700
N  10.61200 49.09200 24.80900
C  11.52300 49.70700 25.55300
C  12.81000 49.77900 24.85400
C  12.66300 49.11800 23.61800
C  11.20200 48.73500 23.65800
C  13.98700 50.44500 25.46600
C  13.65300 48.78900 22.56600
O  13.38500 48.16100 21.55600
C  15.09900 49.15900 22.70500
N  8.13600 48.05900 23.36700
C  9.10000 47.86000 22.38400
C  8.53800 47.30300 21.13400
C  7.08500 46.98200 21.49500
C  6.97200 47.60900 22.84900
C  8.84000 48.15900 19.92100
C  6.80800 45.43100 21.60800
C  7.94200 44.54100 22.15400
N  6.66400 48.20700 25.64800
C  5.61300 47.89000 24.88000
C  4.43000 47.76300 25.67600
C  4.87900 47.94800 26.97700
C  6.23200 48.32600 26.90400
C  3.10800 47.24600 25.21200
C  4.39000 47.96400 28.38500
O  3.33000 47.62200 28.89000
C  5.72300 48.38200 29.16200
C  6.16200 47.14800 29.93200
O  6.75900 46.22600 29.43900
O  5.92800 47.25400 31.26100
C  6.44100 46.18100 32.08800
H  12.25800 50.42300 27.46900
H  11.03100 47.97400 21.65000
H  4.85000 47.36700 22.95600
H  8.00700 50.75400 30.02300
H  10.87900 50.64400 29.49900
H  9.85800 52.54200 27.95200
H  10.59300 52.72700 29.55500
H  8.84300 52.65200 29.31500
H  8.91200 47.89700 30.12600
H  8.07300 48.86500 31.25200
H  10.63700 50.01000 31.65500
H  10.83200 48.35700 31.30500
H  14.57400 50.92900 24.68600
H  14.74000 49.78100 25.89100
H  13.80400 51.21900 26.21200
H  15.08600 50.22600 22.48000
H  15.66100 48.63000 21.93500
H  15.59200 48.94000 23.65200
H  9.15800 46.40900 21.06500
H  6.49100 47.58300 20.80700
H  7.83800 48.41600 19.57800
H  9.39800 47.48200 19.27500
H  9.38500 49.08300 20.11600
H  6.56500 45.16800 20.57900
H  5.91900 45.23800 22.20800
H  8.52200 45.07200 22.91000
H  8.47800 44.06200 21.33500
H  7.45800 43.72400 22.69000
H  2.98300 47.51200 24.16200
H  2.42100 47.71000 25.91900
H  3.05200 46.15800 25.23100
H  5.58700 49.25100 29.80600
H  5.96100 46.49800 33.01400
H  7.52500 46.10500 32.17300
H  6.04500 45.20000 31.82600
Mg -11.97900 38.41600 42.01600
C  -10.02200 35.61800 41.31800
C  -10.11800 40.33000 40.01700
C  -14.48700 40.63900 42.05100
C  -14.34200 36.07300 43.45800
N  -10.40100 37.90200 40.65400
C  -9.61800 36.72500 40.60200
C  -8.37700 36.93500 39.73200
C  -8.32000 38.51600 39.50300
C  -9.67800 38.98000 40.14200
C  -7.12600 39.16800 40.17900
C  -8.34800 36.00700 38.48500
C  -7.05100 35.27500 38.13500
H  -6.30100 35.87600 36.97900
N  -12.15400 40.32800 41.33000
C  -11.28800 40.95500 40.56400
C  -11.72500 42.33700 40.25600
C  -13.07800 42.49000 40.87100
C  -13.32400 41.11800 41.47700
C  -10.87400 43.31800 39.58500
C  -14.00500 43.72200 40.70000
O  -13.50300 44.74800 40.22200
C  -15.43400 43.61600 41.11100
N  -14.23600 38.29400 42.31800
C  -14.84200 39.37300 42.51800
C  -16.37400 39.08600 42.78800
C  -16.23600 37.64800 43.33500
C  -14.87500 37.26600 42.96100
C  -17.09500 40.02800 43.68500
C  -17.34000 36.61500 42.76200
C  -18.46300 36.11300 43.74900
N  -12.17200 36.31100 42.39700
C  -13.06500 35.62200 43.16500
C  -12.51600 34.36500 43.53100
C  -11.29700 34.28000 42.79300
C  -11.17300 35.53800 42.13500
C  -13.11400 33.26000 44.39400
C  -10.22900 33.48100 42.53600
O  -9.77900 32.35700 42.81600
C  -9.44500 34.24600 41.43100
C  -7.99700 34.26300 41.75900
O  -7.11800 33.82900 40.99500
O  -7.72200 34.99300 42.95100
C  -6.32900 35.13800 43.28600
H  -9.52300 40.93000 39.32400
H  -15.32200 41.34100 42.09800
H  -14.96400 35.52200 44.16600
H  -7.54100 36.60300 40.34800
H  -8.24800 38.74500 38.43900
H  -6.47900 38.35900 40.51700
H  -7.41600 39.72200 41.07200
H  -6.60200 39.89200 39.55500
H  -8.57600 36.55400 37.57000
H  -9.14200 35.27400 38.62300
H  -7.42800 34.29400 37.84300
H  -6.33500 35.30000 38.95600
H  -9.86400 42.96100 39.78300
H  -11.10500 44.31100 39.97100
H  -10.97200 43.22800 38.50300
H  -15.92600 42.75700 40.65400
H  -15.93100 44.48800 40.68700
H  -15.64400 43.63200 42.18000
H  -16.97400 39.07600 41.87800
H  -16.40600 37.64300 44.41100
H  -16.55500 40.89200 44.07500
H  -17.26100 39.48800 44.61700
H  -18.08600 40.29400 43.31900
H  -16.83900 35.71500 42.40500
H  -17.78500 36.92600 41.81700
H  -18.63300 35.03700 43.76700
H  -19.40200 36.63900 43.57500
H  -18.14900 36.39700 44.75300
H  -14.06000 32.96000 43.94200
H  -13.36600 33.48400 45.43100
H  -12.35000 32.48300 44.37900
H  -9.50400 33.54800 40.59500
H  -6.39900 35.68500 44.22700
H  -5.91700 35.86200 42.58300
H  -5.76800 34.20400 43.31800

