158

Mg 48.14700 15.74700 27.50900
C  46.33800 15.76100 30.54100
C  50.44400 17.65800 28.89000
C  49.56600 16.08400 24.36700
C  45.27700 14.26900 25.85700
N  48.22400 16.66500 29.51600
C  47.54800 16.38900 30.66300
C  48.13200 17.02400 31.90100
C  49.38300 17.78600 31.28300
C  49.35300 17.40400 29.79500
C  49.29800 19.29400 31.52200
C  48.50500 15.97400 32.97700
C  47.94300 16.38700 34.35100
H  47.82400 17.86500 34.71700
N  49.81400 16.71100 26.73500
C  50.66600 17.40800 27.50100
C  51.82100 17.82900 26.73500
C  51.60100 17.40200 25.38000
C  50.27400 16.69100 25.44100
C  52.98100 18.55200 27.24800
C  52.52300 17.61200 24.13200
O  52.15700 17.30700 23.00500
C  53.88700 18.17900 24.26700
N  47.51000 15.10100 25.44200
C  48.30900 15.46700 24.40300
C  47.73900 14.89100 23.08200
C  46.43400 14.19000 23.53000
C  46.38700 14.50200 25.03000
C  47.57700 15.81300 21.89800
C  46.30000 12.66200 23.11900
C  45.49200 12.48000 21.80500
N  46.27700 15.17200 28.02500
C  45.21900 14.54200 27.27100
C  44.12800 14.29200 28.11800
C  44.49400 14.74400 29.40500
C  45.83300 15.21000 29.30200
C  42.79300 13.59100 27.73500
C  44.07300 14.92000 30.74800
O  42.98000 14.84400 31.22400
C  45.28200 15.47800 31.55500
C  44.85200 16.68000 32.27800
O  44.54200 17.78500 31.84500
O  44.53000 16.36400 33.58300
C  43.87200 17.25900 34.49200
H  51.32400 18.15800 29.29900
H  50.02300 16.15000 23.37800
H  44.49300 13.83100 25.23500
H  47.39100 17.73600 32.26300
H  50.40500 17.50300 31.53500
H  48.85600 19.85000 30.69500
H  50.30900 19.64300 31.73400
H  48.67400 19.39300 32.41000
H  49.58500 15.83100 32.96000
H  47.98800 15.03100 32.79600
H  48.62600 15.93000 35.06700
H  46.91200 16.05000 34.45900
H  53.17100 19.40100 26.59300
H  53.87000 17.93300 27.36600
H  52.69800 19.01200 28.19500
H  54.51200 17.77800 25.06500
H  53.82300 19.26100 24.38400
H  54.27700 18.01400 23.26300
H  48.46600 14.11900 22.83000
H  45.61400 14.74800 23.07800
H  48.55900 15.85400 21.42700
H  47.40800 16.86100 22.14200
H  46.77800 15.57300 21.19600
H  45.65600 12.13800 23.82500
H  47.27700 12.18000 23.15800
H  46.10500 12.02800 21.02500
H  45.14900 13.42000 21.37400
H  44.60500 11.87100 21.97900
H  42.12900 14.31200 27.25800
H  42.44300 13.29700 28.72400
H  42.89900 12.68400 27.14000
H  45.44200 14.70200 32.30500
H  43.76900 16.64200 35.38500
H  42.90900 17.65000 34.16400
H  44.45000 18.14900 34.74200
Mg -2.12000 34.80400 26.37500
C  -4.09600 32.92400 28.74600
C  -1.20500 36.80600 29.01400
C  -0.43600 36.69600 24.10700
C  -3.22200 32.87400 23.82000
N  -2.58100 34.76800 28.63500
C  -3.40400 34.01900 29.34600
C  -3.25100 34.27600 30.82200
C  -2.59600 35.58700 30.82400
C  -2.08700 35.76000 29.38400
C  -3.63000 36.72900 31.13700
C  -2.57900 33.19300 31.63200
C  -2.99700 32.97100 33.06600
H  -3.23300 34.21000 33.90300
N  -0.95800 36.49100 26.54300
C  -0.70900 37.14200 27.69700
C  0.21600 38.27100 27.40800
C  0.32500 38.29300 26.00700
C  -0.32900 37.10600 25.45000
C  0.71900 39.19200 28.49500
C  0.97500 39.29800 25.18100
O  1.15700 39.11700 24.00800
C  1.53200 40.53800 25.80000
N  -1.86000 34.82600 24.25600
C  -1.07700 35.62600 23.55800
C  -0.90500 35.16700 22.07700
C  -1.70300 33.87000 22.11000
C  -2.33100 33.84200 23.46900
C  -1.40200 36.22100 20.95000
C  -0.71800 32.72500 21.82100
C  0.47500 32.63000 22.75000
N  -3.51700 33.35700 26.19900
C  -3.87600 32.66600 25.09400
C  -4.79700 31.65100 25.45900
C  -4.92600 31.72300 26.87800
C  -4.12300 32.73100 27.31400
C  -5.53900 30.71200 24.59600
C  -5.52200 31.14400 28.05700
O  -6.28000 30.21600 28.16000
C  -5.02400 31.86500 29.30300
C  -6.17900 32.45000 30.00400
O  -7.04600 33.12400 29.50800
O  -6.12000 32.09700 31.32900
C  -7.25000 32.34400 32.14100
H  -0.93900 37.39600 29.89400
H  0.05700 37.32200 23.36100
H  -3.55900 32.14400 23.08100
H  -4.26000 34.23600 31.23100
H  -1.77900 35.57400 31.54600
H  -3.12900 37.41600 31.81900
H  -4.53700 36.32600 31.58900
H  -3.96800 37.30200 30.27400
H  -1.49600 33.27900 31.71800
H  -2.70900 32.27600 31.05700
H  -2.22600 32.35800 33.53200
H  -3.96300 32.46800 33.02600
H  1.76000 39.33000 28.20300
H  0.67200 38.88400 29.53900
H  0.08900 40.07800 28.41900
H  0.60000 40.97200 26.16300
H  1.84500 41.13600 24.94400
H  2.39500 40.44700 26.46000
H  0.18100 35.16700 21.98300
H  -2.45900 33.89800 21.32400
H  -2.17900 35.83700 20.28800
H  -0.55600 36.44100 20.29900
H  -1.71600 37.07000 21.55700
H  -0.44800 32.64600 20.76800
H  -1.31500 31.82500 21.96800
H  0.49300 31.65400 23.23600
H  0.65300 33.47300 23.41800
H  1.33700 32.67200 22.08400
H  -4.95200 29.79400 24.59600
H  -5.55300 30.94200 23.53100
H  -6.53300 30.52000 25.00000
H  -4.47000 31.16100 29.92400
H  -7.96900 33.04900 31.72300
H  -6.94800 32.51200 33.17500
H  -7.80900 31.41400 32.24900

