158

Mg 1.76700 -2.04700 44.86000
C  4.87100 -1.10200 43.88300
C  0.39100 0.44900 42.77600
C  -1.42000 -3.31900 45.48300
C  3.02000 -5.07800 46.14600
N  2.54100 -0.60100 43.43100
C  3.88600 -0.35800 43.22600
C  4.15200 0.84200 42.31100
C  2.66900 1.37200 42.13300
C  1.75300 0.30400 42.76100
C  2.40500 2.85200 42.68500
C  4.74300 0.44200 40.90100
C  6.12100 1.03700 40.60600
H  6.28300 1.81700 39.23100
N  -0.19800 -1.53000 44.21900
C  -0.52900 -0.47800 43.39600
C  -1.97500 -0.34400 43.39300
C  -2.54100 -1.34400 44.18600
C  -1.35800 -2.14600 44.65900
C  -2.75000 0.74200 42.61000
C  -3.95500 -1.46100 44.52200
O  -4.74600 -0.68900 44.02500
C  -4.48000 -2.40300 45.51700
N  0.87900 -4.11100 45.45100
C  -0.38800 -4.22400 45.85400
C  -0.70400 -5.55400 46.49900
C  0.74400 -6.12200 46.78500
C  1.64600 -5.07400 46.06000
C  -1.74400 -5.51200 47.71500
C  1.02500 -7.50900 46.21100
C  -0.19000 -8.48700 46.30400
N  3.52500 -2.93700 45.01100
C  3.95600 -4.16300 45.56300
C  5.42400 -4.20600 45.48400
C  5.81300 -3.05500 44.84300
C  4.61900 -2.27500 44.61200
C  6.23600 -5.27800 46.13400
C  6.94200 -2.24600 44.49400
O  8.12400 -2.58300 44.53900
C  6.34700 -0.94600 43.83900
C  6.84100 0.29100 44.46600
O  7.35800 1.18700 43.83500
O  6.60500 0.34400 45.80400
C  6.81300 1.66200 46.50700
H  -0.09800 1.32100 42.33600
H  -2.37200 -3.65900 45.89500
H  3.49300 -5.86200 46.74100
H  4.69800 1.65100 42.79600
H  2.39500 1.53600 41.09100
H  2.08400 3.58000 41.94000
H  3.24200 3.22700 43.27400
H  1.56400 2.72900 43.36800
H  4.12200 0.42100 40.00600
H  4.96000 -0.61800 41.03500
H  6.72900 0.13800 40.50700
H  6.38000 1.72900 41.40800
H  -2.18400 1.67000 42.54000
H  -3.70900 1.01300 43.05200
H  -2.96500 0.33700 41.62100
H  -3.90900 -2.44900 46.44400
H  -4.59800 -3.40300 45.10100
H  -5.43500 -1.97300 45.81800
H  -1.29900 -6.05900 45.73800
H  0.99100 -5.98100 47.83700
H  -2.79200 -5.65000 47.44900
H  -1.74400 -4.53200 48.19200
H  -1.40300 -6.25400 48.43700
H  1.84300 -7.95700 46.77500
H  1.30900 -7.56000 45.16000
H  -0.66200 -8.77900 45.36600
H  -0.88100 -8.04500 47.02200
H  0.14200 -9.43700 46.72200
H  7.24200 -4.88700 46.28600
H  6.22000 -6.12800 45.45200
H  5.86400 -5.63100 47.09600
H  6.65400 -0.94800 42.79300
H  6.06100 1.71200 47.29400
H  6.58500 2.49600 45.84300
H  7.80300 1.71600 46.95900
Mg 35.22800 2.30200 29.79800
C  33.09800 3.65100 32.21900
C  37.61600 2.06300 32.16100
C  37.45500 1.91500 27.22900
C  32.75900 3.17200 27.38000
N  35.25300 2.82000 31.88900
C  34.28900 3.24300 32.75400
C  34.64500 3.14700 34.19800
C  36.22200 3.01000 34.10300
C  36.38900 2.62900 32.56100
C  37.07700 4.17800 34.61600
C  33.94200 1.98900 35.02800
C  33.96000 2.23100 36.57900
H  34.86500 3.32300 37.19900
N  37.30900 2.00400 29.73200
C  38.11800 1.81800 30.84800
C  39.38700 1.43300 30.40800
C  39.41600 1.41200 28.94900
C  38.00500 1.85600 28.58600
C  40.50800 1.22800 31.40400
C  40.60500 1.11600 28.02900
O  40.54200 1.21700 26.80200
C  41.90900 0.61900 28.67900
N  35.14600 2.54200 27.63400
C  36.18600 2.15700 26.82100
C  35.76200 2.15400 25.32000
C  34.18000 2.48600 25.43100
C  34.02000 2.76200 26.91300
C  36.70300 3.04900 24.42200
C  33.20500 1.31300 25.04000
C  32.21400 1.64200 23.95300
N  33.30300 3.04000 29.72300
C  32.44000 3.41500 28.66200
C  31.18700 3.97500 29.17600
C  31.44800 3.99800 30.57600
C  32.73400 3.49900 30.85700
C  30.06400 4.68200 28.42200
C  30.86600 4.46900 31.81800
O  29.84200 5.03500 32.15100
C  31.86600 4.06600 32.97000
C  32.20000 5.31300 33.75100
O  32.97500 6.21100 33.47400
O  31.52400 5.19400 34.97700
C  31.85000 6.16800 36.05500
H  38.29000 1.95700 33.01300
H  38.20800 1.65700 26.48100
H  31.93400 3.25600 26.66900
H  34.39900 4.12100 34.62100
H  36.57100 2.10900 34.60600
H  37.90900 4.48400 33.98300
H  37.53200 3.74100 35.50400
H  36.46500 5.05400 34.83500
H  34.48300 1.10700 34.68500
H  32.93700 1.81900 34.64200
H  34.04300 1.22400 36.98600
H  32.96900 2.53900 36.91400
H  41.36700 1.85800 31.17200
H  40.84800 0.19200 31.42300
H  40.17700 1.51400 32.40300
H  42.66100 0.15200 28.04400
H  41.68200 -0.10700 29.45900
H  42.37000 1.51700 29.09100
H  35.95000 1.12400 25.01600
H  33.80100 3.36300 24.90700
H  37.16600 3.82300 25.03400
H  36.07300 3.70600 23.82300
H  37.43000 2.58200 23.75800
H  32.80200 0.80200 25.91400
H  33.91700 0.68500 24.50400
H  32.73000 1.65000 22.99300
H  31.91500 2.68500 24.06500
H  31.42200 0.90000 24.05400
H  29.22700 5.03600 29.02400
H  29.77900 4.08500 27.55600
H  30.51600 5.53500 27.91700
H  31.61800 3.25000 33.64900
H  31.30000 7.10900 36.05100
H  32.91600 6.36600 35.93700
H  31.76900 5.73700 37.05200

