158

Mg 39.85600 10.42300 29.91900
C  42.02500 11.32100 32.51700
C  37.78400 9.04900 32.36500
C  38.09400 9.14200 27.45800
C  42.55700 11.12000 27.69400
N  39.90500 10.29200 32.19100
C  40.80800 10.80100 32.99700
C  40.45400 10.62200 34.45800
C  39.16300 9.71600 34.35400
C  38.93700 9.67600 32.87500
C  39.30300 8.24200 34.86400
C  40.27900 11.98000 35.28600
C  40.01500 11.62000 36.73400
H  40.03400 12.78500 37.63900
N  38.07400 9.42600 29.89500
C  37.35100 8.96800 30.99300
C  36.21300 8.33900 30.49000
C  36.20500 8.41700 29.03800
C  37.51400 8.99100 28.73400
C  35.08600 7.77300 31.37300
C  35.21300 7.92800 28.09000
O  35.37900 8.00600 26.86100
C  33.87700 7.37800 28.48000
N  40.27300 10.15300 27.83100
C  39.35800 9.64000 27.03900
C  39.91100 9.46700 25.58000
C  41.21400 10.38400 25.67300
C  41.31600 10.64000 27.20000
C  40.23500 8.08400 24.89800
C  41.09100 11.63900 24.77300
C  40.43900 12.97100 25.33700
N  41.86700 11.03600 29.97600
C  42.84300 11.28200 29.07300
C  44.05600 11.73600 29.65000
C  43.73500 11.85900 30.98900
C  42.38200 11.41400 31.15200
C  45.37400 11.92900 28.93400
C  44.24600 12.28500 32.28800
O  45.36700 12.72300 32.51400
C  43.16900 12.01300 33.32200
C  43.71100 11.13200 34.38600
O  44.26100 10.06300 34.29100
O  43.43900 11.66600 35.60200
C  43.97300 11.02900 36.81800
H  37.17300 8.61700 33.16000
H  37.50800 8.82700 26.59100
H  43.38000 11.25200 26.98800
H  41.27600 10.15600 35.00100
H  38.25400 10.01500 34.87600
H  39.21500 7.47900 34.09000
H  38.51100 8.06000 35.59000
H  40.19800 8.07900 35.46400
H  39.36700 12.37200 34.83700
H  41.16800 12.61200 35.27700
H  40.82600 10.97300 37.06700
H  39.10900 11.01500 36.76600
H  35.36100 7.76900 32.42700
H  34.86100 6.78000 30.98200
H  34.19200 8.35800 31.15400
H  33.25400 8.07200 29.04300
H  34.05000 6.45800 29.03800
H  33.35200 7.01300 27.59700
H  39.16300 9.93000 24.93700
H  42.08700 9.82200 25.34200
H  40.24400 7.36000 25.71400
H  41.22300 8.13200 24.44000
H  39.43200 7.96600 24.17100
H  40.44200 11.27400 23.97700
H  42.08000 11.86600 24.37700
H  41.18600 13.75700 25.23000
H  40.04300 12.90900 26.35000
H  39.52500 13.26300 24.81800
H  45.29400 12.79900 28.28200
H  45.58100 11.05100 28.32200
H  46.16300 12.16300 29.64900
H  42.77700 12.94400 33.73000
H  45.00600 11.37600 36.79500
H  43.94500 9.93900 36.81700
H  43.44900 11.46700 37.66700
Mg 49.39900 34.85200 27.18500
C  47.06600 33.62700 29.57600
C  50.47200 37.22900 29.49000
C  51.07300 36.23800 24.75900
C  48.20100 32.41900 24.95300
N  48.73400 35.38300 29.24400
C  47.90900 34.68000 30.06500
C  48.00300 35.24500 31.53200
C  48.81100 36.56100 31.43200
C  49.40100 36.35100 29.96800
C  47.97800 37.80500 31.69400
C  48.85300 34.27200 32.46700
C  48.44100 34.18800 33.96400
H  47.77100 35.40800 34.63300
N  50.61300 36.57500 27.10900
C  51.02800 37.31600 28.18300
C  51.92100 38.32700 27.70600
C  52.21300 38.03200 26.31100
C  51.29000 36.90400 25.99000
C  52.42800 39.45000 28.62400
C  53.09600 38.63300 25.29700
O  53.29100 38.24200 24.14700
C  53.93600 39.80300 25.59900
N  49.47000 34.50200 25.02800
C  50.35100 35.11200 24.32700
C  50.45300 34.49600 22.89800
C  49.78500 33.13600 23.06400
C  49.10500 33.29500 24.41600
C  49.88900 35.40500 21.81400
C  50.63900 31.89600 22.99200
C  51.40700 31.64600 21.68500
N  47.90900 33.32200 27.20200
C  47.54800 32.49000 26.16400
C  46.55600 31.53200 26.69400
C  46.30100 31.92400 28.01800
C  47.14300 33.08000 28.27100
C  45.83800 30.36600 25.97400
C  45.50000 31.72800 29.22600
O  44.65200 30.84100 29.41500
C  45.86700 32.90000 30.21000
C  45.94300 32.41200 31.59800
O  46.87400 31.72000 32.03200
O  44.88000 32.67400 32.42000
C  44.99100 32.36800 33.87200
H  50.87000 37.88200 30.27000
H  51.64700 36.63100 23.91600
H  47.98000 31.50700 24.39500
H  46.98500 35.44400 31.86600
H  49.65300 36.52100 32.12400
H  48.10700 38.31500 30.73900
H  48.36800 38.36100 32.54700
H  46.97700 37.43600 31.92100
H  49.92100 34.49200 32.43800
H  48.76000 33.26900 32.05200
H  49.34500 34.08300 34.56400
H  47.90900 33.26200 34.18000
H  51.75200 40.30200 28.56400
H  53.43600 39.76200 28.34900
H  52.52300 39.14000 29.66500
H  54.86200 39.48700 26.08000
H  53.22600 40.39000 26.18000
H  54.20300 40.27400 24.65300
H  51.46900 34.24000 22.60100
H  48.99100 32.89500 22.35600
H  50.64800 35.87500 21.19000
H  49.48500 36.26200 22.35300
H  49.09000 34.99900 21.19400
H  50.11100 31.00200 23.32600
H  51.34400 32.08500 23.80100
H  51.01500 32.33500 20.93700
H  51.25900 30.62000 21.34800
H  52.44500 31.90100 21.89900
H  46.39700 29.43600 25.86900
H  45.54800 30.76100 25.00000
H  44.99700 30.16000 26.63600
H  45.06000 33.63200 30.26300
H  44.08600 31.79500 34.07500
H  44.87400 33.29800 34.42800
H  45.81800 31.81100 34.31300

