158

Mg 3.45600 0.69500 44.44300
C  6.25500 2.77800 44.25500
C  1.55300 3.20300 42.98100
C  0.89900 -1.55500 43.90900
C  5.64400 -1.95800 45.28900
N  3.87800 2.67300 43.70000
C  5.11400 3.30700 43.66400
C  4.97300 4.77500 43.28200
C  3.36000 4.95100 43.20600
C  2.86400 3.55500 43.33500
C  2.69900 5.89700 44.26000
C  5.74500 5.11700 41.89700
C  6.08800 3.97000 40.93300
H  6.51600 4.25300 39.50100
N  1.43100 0.79000 43.70400
C  0.88400 1.91400 43.13400
C  -0.42300 1.59600 42.66300
C  -0.64600 0.22400 42.97600
C  0.55700 -0.26200 43.59000
C  -1.41800 2.62800 42.03100
C  -1.92300 -0.64700 42.56000
O  -2.83200 -0.09000 41.98100
C  -2.20400 -2.06700 43.02300
N  3.32400 -1.46900 44.37800
C  2.11600 -2.12700 44.28900
C  2.36000 -3.59500 44.51300
C  3.78000 -3.73400 45.18400
C  4.30800 -2.32000 44.92600
C  1.30000 -4.42100 45.16700
C  4.68900 -4.98300 44.71800
C  5.35000 -5.73400 45.82300
N  5.50100 0.35200 44.67300
C  6.23600 -0.70900 45.16800
C  7.55900 -0.31000 45.49900
C  7.69100 1.00500 45.07900
C  6.39800 1.37700 44.65500
C  8.64200 -1.20200 45.98200
C  8.54600 2.20400 44.97300
O  9.73700 2.32000 45.14100
C  7.60400 3.35300 44.49500
C  7.61500 4.55600 45.35500
O  8.38700 5.47700 45.14800
O  6.69600 4.58300 46.34500
C  6.62000 5.81900 47.16300
H  1.01000 4.08300 42.63100
H  0.13500 -2.32500 43.78100
H  6.27300 -2.73600 45.72700
H  5.38200 5.31400 44.13700
H  3.11100 5.38000 42.23600
H  3.02400 5.48600 45.21600
H  1.64700 5.79900 43.99100
H  3.02000 6.93400 44.16400
H  6.64300 5.54600 42.34400
H  5.17800 5.89800 41.38900
H  5.40100 3.12500 40.96300
H  7.02500 3.52500 41.26500
H  -1.41400 2.38600 40.96800
H  -1.06200 3.65400 42.11900
H  -2.43200 2.42800 42.37700
H  -1.94600 -2.18700 44.07500
H  -1.55900 -2.59300 42.31900
H  -3.27000 -2.29100 42.97900
H  2.31200 -3.87000 43.45900
H  3.58100 -3.70300 46.25600
H  0.64400 -3.82600 45.80100
H  1.80500 -5.22900 45.69600
H  0.83500 -4.92400 44.31900
H  5.33500 -4.59100 43.93300
H  4.09200 -5.73100 44.19600
H  4.91600 -5.43000 46.77600
H  6.41200 -5.50200 45.75300
H  5.13100 -6.80100 45.82700
H  8.88800 -2.02800 45.31500
H  8.37500 -1.53300 46.98500
H  9.61600 -0.71400 46.01000
H  8.24700 3.59300 43.64800
H  5.84600 6.47500 46.76600
H  7.57600 6.34200 47.17700
H  6.32000 5.54500 48.17400
Mg 29.73400 58.68000 41.63700
C  26.68400 57.55300 40.53700
C  31.29200 56.06100 40.26300
C  32.68600 60.37800 42.08200
C  28.06700 61.90400 42.26300
N  29.03100 57.04400 40.40900
C  27.76200 56.74000 40.03600
C  27.79400 55.38800 39.22500
C  29.26900 54.79000 39.39300
C  29.90200 56.02600 40.12200
C  29.34300 53.46700 40.13500
C  27.32600 55.68100 37.81000
C  26.33500 54.74200 37.19300
H  26.19700 54.51500 35.74100
N  31.66300 58.20600 41.41700
C  32.15100 56.99600 40.90500
C  33.56400 56.94800 41.03100
C  33.99100 58.18600 41.50300
C  32.71900 59.00600 41.71600
C  34.40900 55.78300 40.58700
C  35.41100 58.59400 41.72600
O  36.31400 57.84900 41.40200
C  35.85400 59.98200 42.11200
N  30.30800 60.90000 42.01100
C  31.62600 61.29000 42.19100
C  31.76000 62.67900 42.79200
C  30.23800 63.16700 42.84800
C  29.46600 61.97900 42.37200
C  32.65500 62.83600 44.05300
C  29.99500 64.46300 42.25200
C  28.83100 65.26300 42.97700
N  27.74600 59.54600 41.51500
C  27.26100 60.75700 41.85800
C  25.80900 60.75100 41.73900
C  25.56000 59.48900 41.25000
C  26.78100 58.82300 41.13100
C  24.95700 61.88800 42.11800
C  24.49400 58.54600 40.80600
O  23.26000 58.60300 40.85100
C  25.21600 57.27900 40.40400
C  24.82600 56.19000 41.30800
O  25.22900 55.95500 42.41600
O  23.69200 55.68000 40.74900
C  22.85100 54.99700 41.68400
H  31.77400 55.15800 39.88200
H  33.65200 60.87400 42.20400
H  27.54200 62.80300 42.59300
H  27.03300 54.81300 39.75300
H  29.81100 54.64100 38.46000
H  29.74700 53.59500 41.14000
H  29.95000 52.76400 39.56400
H  28.30100 53.15300 40.19500
H  28.16400 55.72300 37.11300
H  26.98500 56.70700 37.67100
H  25.35300 55.09800 37.50500
H  26.47600 53.79000 37.70400
H  34.73200 55.95600 39.56100
H  33.87600 54.83500 40.52000
H  35.18400 55.52500 41.30900
H  35.46700 60.62700 41.32300
H  36.94200 60.00000 42.16900
H  35.32900 60.23000 43.03500
H  32.21800 63.30800 42.02900
H  30.05700 63.31200 43.91300
H  32.97300 63.87900 44.05500
H  33.48300 62.13200 44.13800
H  32.04100 62.84100 44.95400
H  29.74200 64.40200 41.19300
H  30.89400 65.05600 42.41900
H  29.11200 66.26000 43.31500
H  28.35400 64.66200 43.75200
H  28.10200 65.64700 42.26400
H  25.27900 62.57800 41.33800
H  25.24600 62.29800 43.08500
H  23.91700 61.57300 42.03000
H  25.03900 57.04700 39.35400
H  22.28100 55.79600 42.15700
H  23.32800 54.30600 42.37900
H  22.10100 54.44000 41.12200

