158

Mg 1.09400 8.26800 27.52500
C  1.51100 10.29900 30.18700
C  1.01700 5.52900 29.73300
C  0.68900 6.25400 24.98300
C  1.67700 10.88600 25.32600
N  1.44600 8.02200 29.75800
C  1.21700 9.01200 30.57000
C  0.96700 8.51300 32.03000
C  1.11500 6.98400 31.74700
C  1.26800 6.81500 30.28800
C  2.33900 6.27100 32.58700
C  -0.39300 9.03000 32.77600
C  -0.38800 9.12000 34.28500
H  0.75300 8.37600 35.08300
N  0.85900 6.15000 27.41900
C  0.68400 5.22500 28.40200
C  0.34900 3.97200 27.91500
C  0.29100 4.12300 26.46600
C  0.61200 5.54100 26.18300
C  0.23200 2.83300 28.78300
C  0.21100 3.02900 25.39800
O  0.36500 3.28400 24.20800
C  0.17900 1.53800 25.72400
N  1.19900 8.45900 25.43100
C  1.03100 7.48500 24.56400
C  1.00700 7.91000 23.06800
C  0.91900 9.48800 23.20900
C  1.26800 9.62500 24.78400
C  2.37700 7.43000 22.41400
C  -0.44900 10.14400 22.87100
C  -0.41900 11.53900 22.21900
N  1.46400 10.17800 27.70700
C  1.80000 11.14500 26.78000
C  2.02900 12.41800 27.37300
C  1.88200 12.15600 28.72400
C  1.59300 10.75400 28.85900
C  2.16800 13.79000 26.65600
C  1.85500 12.74000 30.04500
O  2.02000 13.92900 30.36000
C  1.57500 11.55800 30.99300
C  2.55200 11.40400 32.17000
O  3.77600 11.43300 32.07700
O  1.84700 11.51900 33.32700
C  2.70800 11.92000 34.50200
H  1.10100 4.71400 30.45500
H  0.44700 5.61800 24.12900
H  1.73500 11.65000 24.54800
H  1.81900 8.80000 32.64700
H  0.21300 6.49300 32.11100
H  2.02200 6.19600 33.62700
H  3.23700 6.88800 32.54600
H  2.60000 5.32300 32.11700
H  -1.21500 8.41000 32.41900
H  -0.61500 9.99900 32.32800
H  -1.35900 8.82300 34.68200
H  -0.24200 10.16100 34.57100
H  1.17100 2.36200 29.07600
H  -0.39500 2.03400 28.38700
H  -0.41900 3.13700 29.60200
H  1.01300 1.29200 26.38100
H  0.14600 0.88400 24.85300
H  -0.71500 1.27200 26.28700
H  0.16200 7.49300 22.52000
H  1.64800 10.06200 22.63700
H  2.62800 8.26100 21.75400
H  2.22600 6.50400 21.85900
H  3.09100 7.06500 23.15200
H  -1.18800 10.16700 23.67100
H  -0.77800 9.45100 22.09600
H  0.53000 12.07500 22.23700
H  -1.07500 12.30600 22.63000
H  -0.75200 11.40400 21.19000
H  2.49700 13.58300 25.63800
H  2.97800 14.31300 27.16400
H  1.32500 14.48100 26.67600
H  0.53200 11.70400 31.27500
H  3.30500 12.80900 34.29500
H  3.39600 11.11600 34.76300
H  2.01100 12.04100 35.33100
Mg 46.85700 25.74900 28.28000
C  47.71500 27.97200 30.80000
C  46.09500 23.40500 30.73700
C  46.30200 23.63100 25.86000
C  48.23400 28.04700 25.96400
N  46.85100 25.76600 30.50600
C  47.24600 26.79300 31.34000
C  47.14500 26.37700 32.86000
C  46.64600 24.85900 32.79600
C  46.54000 24.66600 31.21200
C  47.50600 23.79200 33.57000
C  46.14900 27.29600 33.73000
C  45.68400 26.62800 35.06900
H  45.64600 27.58900 36.25300
N  46.27300 23.77300 28.25700
C  46.01200 22.96800 29.41000
C  45.59400 21.68400 28.92700
C  45.52700 21.76000 27.51600
C  46.06700 23.08900 27.13000
C  45.53800 20.46300 29.78200
C  45.14100 20.74700 26.49900
O  45.17100 20.93200 25.27800
C  44.57900 19.42900 26.90000
N  47.45800 25.73000 26.20500
C  46.94700 24.78800 25.41000
C  46.89300 25.16500 23.94300
C  47.44500 26.60300 23.96700
C  47.77200 26.83000 25.42000
C  47.70100 24.13000 22.96900
C  46.45600 27.62500 23.35800
C  46.99500 28.94900 22.70500
N  47.77000 27.64000 28.36400
C  48.26000 28.41600 27.31400
C  48.72200 29.64700 27.87200
C  48.56800 29.47800 29.25500
C  47.90600 28.28200 29.52000
C  49.22300 30.82500 27.07300
C  48.66900 30.24700 30.50200
O  49.13900 31.34900 30.62300
C  48.04800 29.22600 31.59200
C  49.09600 29.01600 32.54600
O  50.06300 28.27300 32.40600
O  48.97000 29.77000 33.70100
C  49.90500 29.65900 34.83100
H  45.69500 22.78400 31.54100
H  46.01700 23.03900 24.98700
H  48.50000 28.74600 25.16800
H  48.13900 26.39200 33.30700
H  45.66300 24.65000 33.21800
H  48.22800 23.23600 32.97200
H  46.79000 23.12000 34.04300
H  48.19800 24.25000 34.27600
H  45.20500 27.67400 33.33600
H  46.66500 28.21300 34.01500
H  46.40000 25.82800 35.25800
H  44.65200 26.29000 34.96800
H  46.21600 19.67800 29.44600
H  44.51700 20.08600 29.71800
H  45.69100 20.71600 30.83000
H  45.18900 18.90600 27.63700
H  44.42100 18.61700 26.19000
H  43.65100 19.76500 27.36100
H  45.85600 25.09100 23.61400
H  48.41600 26.62700 23.47200
H  46.94900 23.92900 22.20700
H  48.01100 23.21600 23.47600
H  48.52600 24.60100 22.43400
H  45.71400 27.91900 24.10000
H  45.86200 27.17300 22.56300
H  46.77900 29.77400 23.38500
H  46.55200 29.16000 21.73200
H  48.07800 28.87000 22.61400
H  48.90000 31.78200 27.48400
H  48.88900 30.82700 26.03500
H  50.31000 30.90000 27.08600
H  47.26000 29.66800 32.20300
H  50.57200 30.51600 34.73400
H  50.55300 28.78500 34.89400
H  49.35000 29.76000 35.76300

