158

Mg -1.14200 33.81600 26.69500
C  -2.93600 32.10000 29.44500
C  0.57600 35.46700 28.94200
C  0.24800 35.26700 24.16400
C  -3.60100 32.24600 24.59000
N  -1.45600 33.96300 28.95700
C  -2.08800 33.12900 29.85000
C  -1.73900 33.58900 31.24800
C  -0.67600 34.73600 31.07200
C  -0.54600 34.81700 29.60200
C  -0.91800 36.17800 31.72800
C  -1.13100 32.41000 32.11700
C  -1.59400 32.10400 33.54000
H  -0.73200 32.73700 34.66600
N  0.31600 35.07500 26.54200
C  0.95600 35.61900 27.60500
C  2.05000 36.42000 27.08900
C  1.92100 36.47000 25.67700
C  0.82000 35.58200 25.38300
C  3.05100 37.12500 27.95000
C  2.77400 37.27000 24.66500
O  2.64100 37.06400 23.47100
C  3.73900 38.35800 25.08300
N  -1.66500 33.75800 24.75800
C  -0.92700 34.54000 23.90500
C  -1.66700 34.60200 22.57500
C  -2.85200 33.62900 22.64400
C  -2.70000 33.10100 24.07800
C  -2.12600 36.06700 22.21100
C  -2.91200 32.58700 21.54600
C  -1.78100 31.50800 21.48300
N  -2.90600 32.41400 26.94700
C  -3.66600 31.85000 25.98400
C  -4.45900 30.77400 26.58800
C  -4.24800 30.85500 27.96100
C  -3.29800 31.86400 28.12500
C  -5.47900 29.95000 25.89400
C  -4.57000 30.25400 29.20400
O  -5.12800 29.20300 29.54800
C  -3.83100 31.16800 30.27200
C  -4.88700 31.92200 31.08800
O  -5.53600 32.91000 30.77500
O  -4.97900 31.32500 32.29600
C  -5.93400 31.89100 33.24000
H  1.23600 35.84100 29.72700
H  0.66500 35.66800 23.23800
H  -4.31300 31.75000 23.92700
H  -2.67300 33.80900 31.76500
H  0.33600 34.45000 31.35800
H  -1.62300 35.97100 32.53300
H  -1.28700 36.87500 30.97600
H  0.06900 36.48000 32.07800
H  -0.05300 32.52100 32.23100
H  -1.23200 31.44400 31.62400
H  -1.54200 31.01800 33.62500
H  -2.62200 32.45500 33.61900
H  2.63600 38.11800 28.12400
H  3.99400 37.17700 27.40700
H  3.11400 36.69300 28.94900
H  4.73000 37.90300 25.06700
H  3.42700 38.76500 26.04500
H  3.83500 39.09800 24.28900
H  -1.03200 34.25700 21.75900
H  -3.79600 34.17300 22.59700
H  -3.21300 36.06900 22.12700
H  -1.52500 36.37400 21.35500
H  -1.95900 36.79400 23.00600
H  -2.96500 33.15000 20.61400
H  -3.87600 32.09500 21.67900
H  -2.16800 30.51400 21.71100
H  -0.99500 31.72800 22.20500
H  -1.36200 31.35700 20.48800
H  -5.23500 28.89300 26.00600
H  -5.61800 30.15300 24.83200
H  -6.44500 30.03700 26.39200
H  -3.14500 30.54300 30.84300
H  -5.37400 32.46600 33.97800
H  -6.49900 31.13000 33.77800
H  -6.68900 32.59200 32.88400
Mg -5.24000 24.95000 26.41200
C  -3.75600 26.40500 29.19700
C  -6.94300 22.78000 28.49800
C  -5.96400 22.89900 23.75600
C  -3.11400 26.85900 24.33400
N  -5.32400 24.64800 28.57600
C  -4.66100 25.37300 29.56500
C  -5.09800 24.96100 30.99100
C  -6.14800 23.73200 30.74200
C  -6.10800 23.69700 29.19500
C  -5.71500 22.40000 31.37700
C  -5.64000 26.10800 31.88300
C  -5.52800 26.11800 33.40700
H  -5.17000 24.80000 34.08400
N  -6.45400 23.29800 26.14800
C  -7.14100 22.60700 27.09600
C  -8.09400 21.67800 26.46900
C  -7.76100 21.64300 25.10000
C  -6.69800 22.65800 24.92300
C  -9.33400 21.04500 27.19700
C  -8.40300 20.82300 24.01400
O  -8.08100 21.00600 22.87200
C  -9.39000 19.71200 24.35700
N  -4.54500 24.81500 24.34800
C  -5.02400 23.87500 23.49400
C  -4.40900 24.08800 22.05300
C  -3.62700 25.42800 22.32000
C  -3.80400 25.76000 23.73600
C  -3.61400 22.81600 21.63800
C  -4.12500 26.64600 21.33200
C  -3.05600 27.44500 20.59700
N  -3.79900 26.42000 26.70900
C  -3.03900 27.14700 25.74300
C  -2.08400 27.95300 26.42900
C  -2.33800 27.76300 27.79100
C  -3.41700 26.78100 27.88600
C  -1.00000 28.75300 25.81700
C  -1.94100 28.02700 29.13700
O  -1.10500 28.88700 29.55600
C  -2.83600 27.14300 30.11000
C  -1.95000 26.13400 30.84700
O  -1.53600 25.08700 30.40700
O  -1.73200 26.52400 32.20000
C  -0.86000 25.66700 32.93800
H  -7.53600 22.12300 29.13800
H  -6.06100 22.15900 22.95800
H  -2.50800 27.52400 23.71600
H  -4.22200 24.59000 31.52300
H  -7.18200 23.93900 31.01800
H  -6.60500 21.80700 31.58900
H  -5.13800 22.54800 32.28900
H  -5.16400 21.78300 30.66700
H  -6.69600 25.89400 31.72100
H  -5.12600 27.00100 31.52900
H  -6.48000 26.45100 33.82000
H  -4.86300 26.87100 33.82900
H  -10.14400 21.18800 26.48200
H  -9.64900 21.71400 27.99900
H  -9.24600 20.01900 27.55200
H  -9.16400 19.23800 25.31200
H  -9.47500 19.03400 23.50800
H  -10.37100 20.18500 24.39400
H  -5.32800 24.19500 21.47700
H  -2.55700 25.26200 22.19400
H  -2.68100 22.96500 21.09400
H  -4.27900 22.24200 20.99300
H  -3.35200 22.26700 22.54300
H  -4.80000 27.28500 21.90200
H  -4.73300 26.09000 20.61800
H  -2.04300 27.05200 20.68000
H  -3.06300 28.43400 21.05400
H  -3.28100 27.40300 19.53200
H  -0.15500 28.09900 25.60400
H  -0.72100 29.46400 26.59500
H  -1.18700 29.18600 24.83400
H  -3.35700 27.79600 30.81000
H  0.15900 26.04100 33.04200
H  -0.88100 24.65500 32.53400
H  -1.19300 25.53200 33.96800

