158

Mg 24.83600 -5.77500 46.75900
C  26.96400 -3.41900 45.23600
C  22.21200 -4.40700 44.81400
C  22.93600 -8.58900 47.31700
C  27.44000 -7.11600 48.36300
N  24.65500 -4.29700 44.93300
C  25.65700 -3.37200 44.65700
C  25.12300 -2.31900 43.66700
C  23.57600 -2.37500 43.98700
C  23.44200 -3.74000 44.62100
C  23.13400 -1.25400 44.99800
C  25.51900 -2.86800 42.18100
C  26.34000 -1.94300 41.27900
H  26.18300 -2.05600 39.72900
N  22.81000 -6.41800 46.17900
C  21.94000 -5.75100 45.33500
C  20.69300 -6.39300 45.28100
C  20.79300 -7.69000 45.97800
C  22.25200 -7.61500 46.52400
C  19.62200 -5.88600 44.42700
C  19.82000 -8.83000 46.11700
O  18.71800 -8.68400 45.58800
C  20.10600 -10.05700 46.96200
N  25.08100 -7.60200 47.82600
C  24.22200 -8.67100 47.92100
C  24.88900 -9.79900 48.71600
C  26.31500 -9.20800 49.26100
C  26.27400 -7.88000 48.46200
C  24.10900 -10.31500 49.94800
C  27.69100 -10.07900 49.07500
C  28.55400 -10.10900 50.35200
N  26.75500 -5.33800 46.84600
C  27.76900 -5.98100 47.58800
C  29.06700 -5.27100 47.43600
C  28.74400 -4.29100 46.48000
C  27.39000 -4.39600 46.13800
C  30.28800 -5.64700 48.06800
C  29.31200 -3.18100 45.71200
O  30.44400 -2.73000 45.64700
C  28.17400 -2.60400 44.79700
C  28.02300 -1.12100 45.14400
O  28.68200 -0.22300 44.69700
O  27.02100 -0.91000 46.08200
C  26.98000 0.45100 46.64400
H  21.47600 -3.76000 44.33400
H  22.48500 -9.54100 47.60400
H  28.34800 -7.43900 48.87600
H  25.58200 -1.36200 43.91500
H  23.03600 -2.16600 43.06300
H  23.99100 -0.69400 45.37200
H  22.49900 -1.50300 45.84800
H  22.51800 -0.62500 44.35400
H  24.61400 -3.22700 41.69200
H  26.01700 -3.83100 42.29600
H  27.42000 -1.95000 41.42900
H  25.85000 -0.98800 41.46900
H  19.77100 -6.24000 43.40700
H  19.53100 -4.80000 44.42300
H  18.65200 -6.24700 44.76700
H  20.96600 -10.57400 46.53500
H  19.30000 -10.78300 47.07600
H  20.31300 -9.76000 47.99000
H  25.01900 -10.64300 48.03900
H  26.19000 -8.77200 50.25200
H  23.69200 -11.31200 49.81000
H  23.35500 -9.60400 50.28600
H  24.76300 -10.27200 50.81900
H  28.28600 -9.63200 48.27900
H  27.48200 -11.08200 48.70500
H  29.38900 -9.47900 50.04700
H  29.00600 -11.10000 50.36900
H  28.20300 -9.83700 51.34800
H  30.74700 -4.77200 48.52900
H  30.92100 -5.93400 47.22800
H  30.12400 -6.38700 48.85100
H  28.40400 -2.65000 43.73300
H  26.57700 0.57000 47.65000
H  26.32500 0.98900 45.95800
H  27.89700 1.03700 46.70400
Mg 0.29600 43.67700 25.93000
C  2.47200 43.92600 28.67900
C  -2.16400 42.72700 28.14400
C  -1.62700 42.96500 23.29700
C  3.08900 43.97800 23.77100
N  0.16300 43.50000 28.14500
C  1.14700 43.76800 29.05400
C  0.64700 43.83600 30.47700
C  -0.83500 43.25100 30.39200
C  -0.99700 43.09400 28.81400
C  -1.17100 41.95100 31.22200
C  0.69000 45.22400 31.22500
C  0.81100 45.39000 32.81800
H  0.57800 44.08700 33.59800
N  -1.64100 42.98200 25.82300
C  -2.50700 42.70000 26.79000
C  -3.83600 42.29200 26.21000
C  -3.63400 42.23900 24.82200
C  -2.26600 42.74200 24.59200
C  -4.99900 42.10300 27.07400
C  -4.67200 41.84700 23.66000
O  -4.39100 41.74300 22.46000
C  -6.11400 41.46000 24.10500
N  0.69100 43.54000 23.88000
C  -0.31400 43.34400 23.05600
C  0.25100 43.44000 21.57100
C  1.67300 43.96600 21.70600
C  1.82900 43.80200 23.20900
C  0.08000 42.14300 20.72100
C  1.82300 45.44700 21.30700
C  1.20200 46.59700 22.17000
N  2.34300 44.03500 26.09900
C  3.33500 44.16600 25.12900
C  4.65900 44.30700 25.83800
C  4.43400 44.22200 27.19000
C  2.96500 44.02600 27.28600
C  6.00900 44.52200 25.16400
C  4.95100 44.16500 28.55100
O  6.10000 44.15500 29.02000
C  3.76900 44.08600 29.56100
C  4.06700 42.79500 30.26400
O  4.26500 41.67100 29.82600
O  3.95100 43.10200 31.63300
C  4.34000 42.01400 32.54600
H  -3.03600 42.45900 28.74300
H  -2.30000 42.93900 22.43800
H  3.72300 44.03100 22.88300
H  1.16600 43.05500 31.03200
H  -1.53100 44.04500 30.66300
H  -1.47900 41.23600 30.45900
H  -1.91500 42.14500 31.99500
H  -0.24100 41.59700 31.66600
H  -0.21600 45.76600 30.95300
H  1.52100 45.70300 30.70900
H  0.09900 46.15700 33.12300
H  1.84000 45.72800 32.94700
H  -5.88900 42.54300 26.62400
H  -4.87600 42.67000 27.99700
H  -5.25900 41.13400 27.50100
H  -5.94300 40.71400 24.88000
H  -6.57100 40.99600 23.23100
H  -6.61100 42.35300 24.48400
H  -0.24200 44.32800 21.17500
H  2.42300 43.41000 21.14400
H  -0.56400 41.41100 21.20800
H  0.98300 41.63700 20.37900
H  -0.49700 42.45900 19.85200
H  1.36400 45.44200 20.31800
H  2.86800 45.68500 21.11200
H  0.78600 46.24000 23.11100
H  0.43500 46.92100 21.46600
H  1.96600 47.36400 22.29700
H  6.54000 43.57100 25.20400
H  6.57300 45.22800 25.77300
H  5.82100 44.82500 24.13400
H  3.75700 44.98200 30.18100
H  5.39800 41.88000 32.31800
H  3.94900 41.03400 32.27200
H  4.16800 42.39500 33.55300

