158

Mg 1.87500 -1.17300 43.48700
C  5.32200 -0.51800 42.74600
C  1.09000 1.84000 41.79700
C  -1.36400 -1.88100 43.60800
C  2.74000 -4.22600 44.59200
N  3.09800 0.40600 42.37600
C  4.47200 0.54500 42.32700
C  4.84900 1.74500 41.44900
C  3.60000 2.64500 41.62200
C  2.44100 1.57400 41.88600
C  3.68400 3.64800 42.73000
C  5.22000 1.27700 39.94200
C  6.72100 1.60200 39.64900
H  7.41300 0.82900 38.53100
N  0.07800 -0.17100 42.86400
C  -0.03400 1.09300 42.21000
C  -1.40200 1.35900 41.93600
C  -2.15700 0.23400 42.28900
C  -1.17500 -0.69000 42.95300
C  -1.84700 2.62500 41.27900
C  -3.68300 0.14000 42.23700
O  -4.29200 0.90000 41.51200
C  -4.44700 -0.93400 42.92300
N  0.88000 -2.87600 43.70000
C  -0.47000 -2.89500 43.91000
C  -0.93200 -4.27100 44.37000
C  0.44300 -5.16300 44.37300
C  1.42900 -4.03600 44.21100
C  -1.77200 -4.28600 45.67000
C  0.68000 -6.25800 43.32500
C  0.67300 -7.66300 43.85200
N  3.64500 -2.18900 43.79200
C  3.83600 -3.45400 44.29700
C  5.22400 -3.67100 44.46200
C  5.77600 -2.53700 43.88900
C  4.83100 -1.68900 43.43300
C  5.91800 -4.83400 45.11300
C  7.12500 -1.90300 43.70100
O  8.23900 -2.28400 43.97200
C  6.85100 -0.63900 42.81600
C  7.61400 0.54500 43.30600
O  8.48900 1.11200 42.67300
O  7.19000 0.82400 44.60700
C  7.92500 2.01200 45.03700
H  0.82000 2.75200 41.26000
H  -2.41000 -2.18000 43.70100
H  3.04600 -5.22300 44.91600
H  5.72000 2.09600 42.00200
H  3.53700 3.23500 40.70700
H  3.56200 4.68400 42.41600
H  4.63500 3.64300 43.26200
H  2.91100 3.54300 43.49100
H  4.76500 1.86900 39.14800
H  5.01900 0.21500 39.80700
H  7.30300 1.52000 40.56700
H  6.63200 2.61000 39.24600
H  -2.28400 2.38200 40.31000
H  -1.10300 3.37200 41.00100
H  -2.68300 3.00900 41.86300
H  -5.53300 -0.85100 42.96500
H  -4.09200 -1.05200 43.94700
H  -4.27500 -1.75900 42.23200
H  -1.63100 -4.49400 43.56400
H  0.49500 -5.69000 45.32600
H  -2.45100 -3.43300 45.66600
H  -1.04200 -4.23900 46.47900
H  -2.34400 -5.20100 45.82100
H  1.69700 -6.10100 42.96800
H  -0.13500 -6.25300 42.60200
H  0.36300 -7.60900 44.89600
H  1.67800 -8.05000 43.68300
H  -0.08300 -8.30700 43.40300
H  5.32300 -5.45000 45.78700
H  6.84100 -4.61100 45.64700
H  6.26200 -5.50900 44.32900
H  7.25300 -0.91000 41.84000
H  8.92700 1.83700 45.42900
H  7.43900 2.33100 45.95900
H  7.96200 2.85800 44.35100
Mg 8.56300 3.52100 28.09900
C  10.30400 1.95200 30.84000
C  6.57700 5.04500 30.13100
C  7.26900 4.69700 25.35900
C  10.66100 1.40300 25.93000
N  8.32800 3.24700 30.22100
C  9.24400 2.81600 31.14100
C  8.85200 3.26600 32.52200
C  7.54700 4.08700 32.30100
C  7.48500 4.16000 30.75200
C  6.25600 3.72600 33.09700
C  10.03900 3.98800 33.35100
C  9.58500 4.96000 34.44500
H  10.20500 4.86700 35.76900
N  7.17500 4.80000 27.82600
C  6.42300 5.32400 28.78500
C  5.45500 6.27700 28.17800
C  5.55900 6.08700 26.76000
C  6.70300 5.16900 26.56400
C  4.49800 7.11100 28.95100
C  4.78600 6.65500 25.73200
O  5.00800 6.37400 24.55700
C  3.70300 7.68900 25.94800
N  9.01500 3.15900 25.93900
C  8.37700 3.90900 25.03400
C  8.79800 3.59300 23.54700
C  10.01900 2.65200 23.77700
C  9.88900 2.37800 25.35100
C  7.65500 3.14700 22.56000
C  11.36400 3.29600 23.42600
C  11.89400 4.34800 24.38500
N  10.14900 1.97700 28.24500
C  10.79800 1.19600 27.30100
C  11.71700 0.41000 28.00500
C  11.61300 0.70000 29.39000
C  10.57900 1.58600 29.46300
C  12.66000 -0.45600 27.32400
C  12.11500 0.45500 30.72400
O  12.96100 -0.29600 31.08800
C  11.21300 1.24600 31.72200
C  10.59300 0.33800 32.73500
O  9.59000 -0.28800 32.43900
O  11.16800 0.53400 34.02300
C  10.37200 -0.05000 35.10100
H  5.95400 5.59900 30.83700
H  6.94500 4.92300 24.34100
H  11.19300 0.67800 25.30900
H  8.65800 2.37900 33.12600
H  7.61300 5.13900 32.57900
H  6.48800 2.70700 33.40800
H  5.36900 3.69400 32.46400
H  6.18500 4.47000 33.89100
H  10.40600 4.58200 32.51400
H  10.77200 3.21800 33.59600
H  8.49900 5.01900 34.51100
H  9.87700 5.95100 34.09900
H  3.44000 6.89000 28.81600
H  4.73800 8.15100 28.73400
H  4.77100 7.09000 30.00600
H  3.32600 8.00400 24.97500
H  4.10700 8.55600 26.47100
H  2.90400 7.22600 26.52700
H  9.13100 4.56700 23.18700
H  9.87200 1.68500 23.29600
H  6.68600 3.36600 23.00700
H  7.74100 2.11200 22.22700
H  7.71300 3.77700 21.67300
H  11.26400 3.65500 22.40100
H  12.05700 2.45500 23.38900
H  11.24800 4.39600 25.26100
H  11.98800 5.31700 23.89600
H  12.88000 4.06500 24.75400
H  13.29700 0.08600 26.62600
H  12.27600 -1.32900 26.79700
H  13.37800 -0.65600 28.11900
H  11.90900 1.87600 32.27600
H  9.78900 0.74900 35.55800
H  11.06700 -0.33300 35.89300
H  9.81100 -0.92500 34.77400

