158

Mg 0.32200 7.47800 26.18900
C  1.29700 9.38300 28.79500
C  -0.01000 4.82500 28.25600
C  -0.30100 5.51400 23.47700
C  1.06000 10.14000 24.06300
N  0.54200 7.12600 28.25900
C  0.85700 8.07900 29.21200
C  0.62000 7.50600 30.63600
C  0.51100 6.03500 30.32300
C  0.18100 5.97800 28.87400
C  1.71200 5.14600 30.83500
C  -0.77900 8.05300 31.15300
C  -1.03500 7.91300 32.65800
H  0.17600 7.93500 33.56800
N  -0.15500 5.42700 25.88500
C  -0.27400 4.48300 26.89600
C  -0.67800 3.27000 26.29100
C  -0.88400 3.43300 24.92100
C  -0.38500 4.79500 24.66300
C  -0.77800 1.99500 27.06300
C  -1.32100 2.47400 23.82100
O  -1.30000 2.72800 22.63100
C  -1.76000 1.16300 24.17100
N  0.20100 7.82200 24.14300
C  0.01200 6.91000 23.24300
C  0.27400 7.30800 21.83500
C  0.29500 8.89700 21.97800
C  0.49800 8.97600 23.49600
C  1.56600 6.72500 21.26900
C  -0.96500 9.61800 21.40300
C  -0.64500 10.91000 20.66100
N  1.14300 9.38200 26.39700
C  1.41000 10.32200 25.39100
C  2.06300 11.42800 25.99000
C  1.98300 11.15500 27.37900
C  1.42300 9.86700 27.50300
C  2.51600 12.72000 25.34600
C  2.17100 11.71400 28.69900
O  2.54600 12.80200 29.08000
C  1.62700 10.64300 29.66900
C  2.59800 10.46700 30.74400
O  3.55000 9.64300 30.68200
O  2.37200 11.28400 31.78300
C  3.18500 11.10100 32.97600
H  -0.12400 3.97100 28.92600
H  -0.35600 4.97400 22.52900
H  1.34900 10.90600 23.34100
H  1.44700 7.90100 31.22500
H  -0.37700 5.64900 30.82300
H  1.23000 4.39600 31.46200
H  2.47200 5.77900 31.29300
H  2.28400 4.70400 30.02000
H  -1.50600 7.48500 30.57200
H  -0.78600 9.12000 30.92800
H  -1.63100 7.02200 32.85600
H  -1.61100 8.79400 32.94100
H  -0.27000 2.09300 28.02200
H  -0.25800 1.21500 26.50600
H  -1.78800 1.58400 27.06100
H  -2.03500 0.62700 23.26300
H  -2.64200 1.33700 24.78700
H  -1.00400 0.54500 24.65500
H  -0.61100 7.06200 21.24900
H  1.21300 9.24800 21.50500
H  1.96300 7.39800 20.50900
H  1.39600 5.78900 20.73800
H  2.23100 6.60000 22.12400
H  -1.52200 9.89500 22.29700
H  -1.51400 9.03000 20.66700
H  -0.73700 10.73000 19.59000
H  0.39100 11.24100 20.73800
H  -1.23100 11.71500 21.10400
H  3.26000 12.59400 24.56000
H  3.02200 13.41300 26.01800
H  1.55400 12.98600 24.90700
H  0.73800 11.09300 30.11100
H  2.87000 11.69600 33.83300
H  4.23900 11.34400 32.84200
H  3.09500 10.03500 33.18200
Mg -4.75400 25.45100 26.33600
C  -3.48700 26.96900 29.23000
C  -6.68500 23.45300 28.26600
C  -5.48300 23.82200 23.59600
C  -2.34900 27.47700 24.58400
N  -4.95800 25.29300 28.51900
C  -4.40900 25.99400 29.47500
C  -5.01700 25.61600 30.86500
C  -5.73700 24.31900 30.48700
C  -5.80600 24.33900 28.95900
C  -5.03600 23.00300 30.98900
C  -5.84700 26.81700 31.46500
C  -5.63300 27.00100 32.98900
H  -5.35700 25.65400 33.71600
N  -6.06100 23.89100 25.95800
C  -6.82700 23.25800 26.83300
C  -7.87000 22.37800 26.13900
C  -7.43900 22.36000 24.71700
C  -6.31100 23.38700 24.67400
C  -9.00600 21.57600 26.82700
C  -7.97900 21.64700 23.54600
O  -7.42500 21.70200 22.45600
C  -9.21000 20.70800 23.72900
N  -4.22500 25.81100 24.39700
C  -4.56600 24.91400 23.43300
C  -3.90700 25.19400 22.04500
C  -2.96100 26.37800 22.39100
C  -3.20300 26.64000 23.86700
C  -3.08700 24.01800 21.49300
C  -3.19400 27.68400 21.56100
C  -1.87500 28.36100 21.05000
N  -3.22900 26.92400 26.75100
C  -2.41500 27.69100 25.94300
C  -1.68000 28.66600 26.75500
C  -2.06500 28.39800 28.09600
C  -2.96500 27.34200 28.02000
C  -0.61000 29.64100 26.35100
C  -1.85800 28.81200 29.45600
O  -1.11900 29.67500 29.96500
C  -2.67100 27.74800 30.30700
C  -1.80900 26.97900 31.16100
O  -0.99000 26.19900 30.75300
O  -2.12100 27.19500 32.40800
C  -1.26100 26.52300 33.36500
H  -7.44100 22.92900 28.85500
H  -5.71100 23.24400 22.69800
H  -1.54900 28.01700 24.07400
H  -4.11800 25.38200 31.43600
H  -6.73000 24.16700 30.90900
H  -4.21700 23.13500 31.69600
H  -4.60500 22.48800 30.13000
H  -5.81900 22.34500 31.36400
H  -6.88300 26.51700 31.31000
H  -5.74100 27.77000 30.94800
H  -6.54000 27.35000 33.48300
H  -4.79900 27.69300 33.10700
H  -9.87700 22.07600 26.40200
H  -9.07900 21.65700 27.91200
H  -9.11900 20.53400 26.52900
H  -9.90700 21.37100 24.24200
H  -8.88600 19.97000 24.46300
H  -9.42500 20.09400 22.85400
H  -4.64600 25.42700 21.27800
H  -1.92100 26.13300 22.17500
H  -2.01400 24.09000 21.66500
H  -3.25300 23.85000 20.42900
H  -3.39600 23.10200 21.99800
H  -3.81800 28.32800 22.18000
H  -3.71800 27.41900 20.64300
H  -1.90000 29.43900 21.20700
H  -1.94700 28.21600 19.97200
H  -0.94200 27.90600 21.38000
H  -0.93700 30.68000 26.33100
H  -0.27400 29.43000 25.33600
H  0.16200 29.57000 27.11700
H  -3.39500 28.37100 30.83200
H  -0.28800 26.99500 33.49600
H  -0.95900 25.51000 33.09900
H  -1.79800 26.42000 34.30800

