158

Mg 35.60400 1.84300 30.12300
C  33.03600 3.07700 32.41500
C  37.72400 1.87400 32.70800
C  37.85500 1.31500 27.92400
C  33.29500 2.59400 27.41500
N  35.32600 2.47700 32.31000
C  34.23200 2.85900 33.01900
C  34.51200 2.96100 34.47000
C  36.07900 2.88200 34.51000
C  36.44000 2.34000 33.10900
C  36.72300 4.26200 34.76500
C  33.78600 1.86300 35.27600
C  33.25700 2.20700 36.71700
H  34.07200 3.32500 37.49900
N  37.55500 1.37600 30.33700
C  38.22100 1.41600 31.47100
C  39.56700 0.93200 31.15300
C  39.66500 0.97500 29.73100
C  38.37000 1.27500 29.28100
C  40.49600 0.51400 32.26500
C  40.95800 0.81100 28.86400
O  40.95900 0.86900 27.63900
C  42.24400 0.60600 29.52000
N  35.47300 1.75300 27.95000
C  36.59000 1.50800 27.30200
C  36.46600 1.84100 25.78800
C  34.89000 1.88900 25.62500
C  34.53100 2.08400 27.07000
C  37.29200 3.05700 25.26200
C  34.10700 0.79300 24.94400
C  33.70000 -0.44500 25.65500
N  33.66500 2.63700 29.86100
C  32.89400 2.86200 28.76400
C  31.52900 3.28900 29.24600
C  31.58500 3.37300 30.61000
C  32.85300 3.00300 30.99400
C  30.30300 3.56800 28.47400
C  30.79300 3.70600 31.76600
O  29.66200 4.16600 31.85800
C  31.74500 3.47900 33.01500
C  31.91200 4.78700 33.67600
O  32.60300 5.74500 33.27100
O  31.00900 4.91000 34.72100
C  30.91300 6.22300 35.37800
H  38.42600 1.79400 33.54100
H  38.56600 1.00100 27.15700
H  32.47300 2.90400 26.76600
H  34.15700 3.95000 34.76000
H  36.50900 2.22700 35.26800
H  35.97500 5.05300 34.70900
H  37.51600 4.51600 34.06200
H  37.31600 4.28600 35.68000
H  34.52200 1.06100 35.21900
H  32.87700 1.47100 34.81900
H  33.21000 1.32300 37.35300
H  32.19700 2.43900 36.61400
H  41.14100 -0.29800 31.92900
H  39.91500 0.19700 33.13100
H  41.09500 1.31600 32.69600
H  42.58100 1.43800 30.13700
H  42.89600 0.49400 28.65400
H  42.27700 -0.29900 30.12700
H  36.77400 0.92800 25.27800
H  34.77600 2.84100 25.10500
H  37.69800 2.76200 24.29400
H  38.11800 3.31500 25.92400
H  36.68800 3.92800 25.00900
H  34.76400 0.50600 24.12200
H  33.21000 1.07500 24.39300
H  33.96300 -1.34200 25.09500
H  32.62700 -0.46300 25.84700
H  34.28200 -0.53400 26.57200
H  30.22800 2.75000 27.75600
H  30.49500 4.47600 27.90300
H  29.34700 3.62800 28.99400
H  31.15200 2.76100 33.58200
H  31.78000 6.43300 36.00500
H  30.09800 6.07100 36.08500
H  30.67000 7.08800 34.76100
Mg 47.66100 34.42400 27.00600
C  46.05800 33.33800 30.00400
C  48.54900 37.19900 28.57500
C  49.03800 35.22800 24.12700
C  46.43800 31.43100 25.50600
N  47.34800 35.07300 29.09600
C  46.75100 34.55500 30.17200
C  46.96800 35.45500 31.44200
C  47.35500 36.82000 30.74300
C  47.81600 36.34100 29.39300
C  46.19000 37.88300 30.51800
C  48.12900 34.86600 32.37200
C  47.72700 34.56600 33.88900
H  48.52800 35.40500 34.90700
N  48.58200 36.08200 26.40000
C  48.92200 37.15600 27.19900
C  49.58800 38.15900 26.32600
C  49.65900 37.61400 25.05500
C  49.05500 36.26200 25.12900
C  50.00600 39.46500 26.82800
C  50.12600 38.24300 23.85900
O  50.07000 37.73000 22.75400
C  50.63000 39.63200 23.90100
N  47.67100 33.41300 25.02000
C  48.43400 33.99200 24.04200
C  48.50800 33.01700 22.85500
C  47.64800 31.83200 23.24200
C  47.26700 32.18400 24.68200
C  48.09800 33.72000 21.49600
C  48.36300 30.48900 22.97500
C  49.46300 29.99800 24.02700
N  46.48700 32.75900 27.53700
C  46.15800 31.63700 26.85400
C  45.34200 30.77000 27.75500
C  45.24400 31.46700 28.91700
C  46.07700 32.58600 28.78100
C  44.73000 29.46000 27.50500
C  44.65200 31.34200 30.25300
O  43.98600 30.44400 30.74300
C  45.00400 32.68200 30.88900
C  45.18200 32.55800 32.33600
O  46.19400 32.20800 32.85300
O  43.91600 32.78500 32.92000
C  43.64300 32.34500 34.25000
H  48.89400 38.11300 29.06300
H  49.69500 35.40000 23.27200
H  46.14900 30.49300 25.02700
H  45.98900 35.44400 31.91900
H  48.14800 37.33600 31.28500
H  45.89700 38.02300 29.47700
H  46.60100 38.83900 30.84100
H  45.29000 37.81100 31.12900
H  48.93900 35.59000 32.46100
H  48.53400 33.96200 31.91900
H  47.98000 33.56300 34.23100
H  46.65400 34.71500 34.00700
H  50.95900 39.81100 26.42700
H  50.08400 39.30800 27.90400
H  49.20600 40.19000 26.67500
H  51.65500 39.61500 24.27100
H  49.87000 40.22400 24.41100
H  50.60200 40.01500 22.88100
H  49.54600 32.70000 22.75400
H  46.74400 31.82400 22.63300
H  47.31100 33.09700 21.07200
H  48.96600 33.67500 20.83800
H  47.81100 34.74000 21.75100
H  48.87400 30.55000 22.01400
H  47.62800 29.68400 22.98000
H  49.72000 30.72200 24.79900
H  50.32200 29.53100 23.54300
H  48.99300 29.20600 24.61000
H  43.68100 29.45000 27.80300
H  45.32000 28.61500 27.86100
H  44.69300 29.32500 26.42400
H  44.12000 33.31600 30.83200
H  43.02200 31.45100 34.29500
H  43.18400 33.15000 34.82400
H  44.58800 32.04000 34.70100

