158

Mg 44.43300 2.20500 47.27500
C  44.05200 5.51900 46.30300
C  41.31400 1.52900 46.10000
C  45.14600 -1.08800 47.56300
C  47.84400 2.87300 47.90900
N  42.80000 3.41600 46.49700
C  42.86600 4.73100 46.05400
C  41.60100 5.17500 45.39200
C  40.63300 3.91000 45.55300
C  41.61900 2.88100 46.12900
C  39.44800 4.04000 46.59300
C  41.82700 5.60200 43.90800
C  41.37600 7.00000 43.47500
H  40.20300 7.16500 42.43300
N  43.34100 0.43100 46.96500
C  42.03100 0.39100 46.47700
C  41.60600 -1.01400 46.35300
C  42.70500 -1.80000 46.82300
C  43.79900 -0.85700 47.17600
C  40.21700 -1.45000 45.88500
C  42.73100 -3.32900 46.96600
O  41.70700 -3.93400 46.72700
C  43.90400 -4.12600 47.33500
N  46.27100 1.02000 47.73600
C  46.21200 -0.25600 47.85800
C  47.60000 -0.91000 48.11100
C  48.53200 0.39300 47.95200
C  47.50700 1.54200 47.90300
C  47.78400 -1.71000 49.41700
C  49.56100 0.45100 46.83500
C  51.00600 0.11600 47.16800
N  45.66600 3.89900 47.22500
C  46.98200 4.00500 47.62400
C  47.35300 5.42000 47.51700
C  46.23500 6.02600 47.03400
C  45.26100 5.08700 46.85400
C  48.57500 6.03700 47.90800
C  45.70400 7.28700 46.57100
O  46.20900 8.40800 46.52100
C  44.25200 6.97400 46.01400
C  43.32000 7.81000 46.79700
O  42.90600 7.62500 47.88900
O  43.11600 8.99000 46.09600
C  42.49200 10.04500 46.86300
H  40.33100 1.31500 45.67600
H  45.42000 -2.12500 47.76900
H  48.90600 3.10500 48.01600
H  41.09800 6.04000 45.82500
H  40.08100 3.57100 44.67600
H  39.80500 4.03300 47.62300
H  38.65300 3.30900 46.44400
H  39.09000 5.06100 46.46300
H  41.41000 4.82800 43.26300
H  42.88000 5.38100 43.73600
H  42.21800 7.44800 42.94800
H  41.20200 7.67900 44.31000
H  40.20900 -2.19600 45.09000
H  39.69400 -0.56100 45.53200
H  39.63300 -1.71900 46.76500
H  44.26500 -3.81100 48.31400
H  44.67400 -4.12800 46.56400
H  43.46300 -5.12100 47.40800
H  47.67000 -1.59400 47.26600
H  49.07900 0.47600 48.89100
H  48.47000 -1.16700 50.06700
H  48.10700 -2.72500 49.18700
H  46.87200 -1.66300 50.01200
H  49.60400 1.42800 46.35500
H  49.15300 -0.29400 46.15200
H  51.62900 0.86100 46.67300
H  51.25500 -0.85300 46.73600
H  51.27500 0.11200 48.22500
H  49.43300 5.38300 48.06100
H  48.41900 6.65600 48.79200
H  48.72200 6.66800 47.03200
H  44.26000 7.28500 44.96900
H  42.89100 10.98400 46.47800
H  42.57800 9.89200 47.93900
H  41.44700 9.95200 46.56700
Mg 36.15200 1.08900 29.84200
C  33.89500 1.90200 32.32000
C  38.54300 0.66800 32.39400
C  38.41700 0.30500 27.40700
C  33.67500 1.24700 27.46200
N  36.19500 1.43300 32.09300
C  35.12300 1.77600 32.82300
C  35.48300 1.73100 34.29800
C  37.01400 1.65500 34.29800
C  37.33700 1.29900 32.84500
C  37.85700 2.75100 34.85300
C  34.83000 0.51000 35.00300
C  35.07200 0.43700 36.57600
H  35.70000 1.64200 37.33800
N  38.17100 0.64800 29.91100
C  38.96200 0.50300 31.01900
C  40.33400 0.10100 30.54100
C  40.35600 0.05600 29.15400
C  38.92200 0.45500 28.73900
C  41.46800 -0.18700 31.54900
C  41.55600 -0.34600 28.18500
O  41.38500 -0.35900 26.95500
C  42.77600 -1.06700 28.74000
N  36.04900 0.63300 27.76500
C  37.08900 0.31900 26.92200
C  36.64200 0.23300 25.44100
C  35.10100 0.41500 25.51600
C  34.92400 0.78000 27.00600
C  37.40500 1.18400 24.56800
C  34.28900 -0.78500 25.06800
C  34.00100 -1.75300 26.19300
N  34.18000 1.60800 29.83000
C  33.28900 1.62700 28.77800
C  31.99700 2.08200 29.30400
C  32.18600 2.16900 30.65900
C  33.51400 1.85900 30.92400
C  30.78700 2.24900 28.40100
C  31.51100 2.51500 31.88900
O  30.38300 2.99600 32.08900
C  32.61500 2.34000 32.94000
C  32.61100 3.55600 33.75200
O  32.81200 4.65100 33.29900
O  32.44000 3.24400 35.10400
C  32.34400 4.30100 36.13800
H  39.30200 0.38400 33.12600
H  39.06500 -0.07900 26.61600
H  32.93800 1.49500 26.69500
H  35.26900 2.69900 34.75200
H  37.30200 0.73400 34.80500
H  38.62800 2.29500 35.47400
H  37.29900 3.41300 35.51400
H  38.41300 3.30600 34.09600
H  35.26000 -0.41900 34.63000
H  33.75500 0.49200 34.82300
H  35.61000 -0.48600 36.79100
H  34.04000 0.33000 36.90900
H  41.34700 -1.18100 31.97900
H  41.31800 0.50200 32.38000
H  42.51400 0.00200 31.30600
H  42.56200 -1.76900 29.54600
H  43.57700 -0.36300 28.96600
H  43.27600 -1.78700 28.09200
H  36.87500 -0.80800 25.21800
H  34.83200 1.27700 24.90500
H  37.84300 0.53500 23.80900
H  38.30900 1.61400 25.00000
H  36.79700 1.88800 24.00000
H  34.80300 -1.33700 24.28000
H  33.31100 -0.36400 24.83300
H  33.15300 -1.48300 26.82100
H  34.83000 -1.74600 26.90000
H  33.88900 -2.79000 25.87700
H  30.59900 1.25900 27.98400
H  31.05400 2.98200 27.64000
H  29.91200 2.58100 28.95800
H  32.26400 1.52900 33.57800
H  32.32700 5.24600 35.59500
H  33.22800 4.31700 36.77500
H  31.48100 4.20300 36.79700

