158

Mg 16.10300 -1.43700 28.18000
C  15.30000 0.60400 30.92500
C  18.39600 -3.05400 30.08200
C  16.94600 -3.18400 25.39500
C  14.54900 0.86700 26.12000
N  16.81800 -1.12900 30.30400
C  16.22200 -0.38100 31.27600
C  16.92700 -0.64400 32.60300
C  18.04700 -1.66400 32.24800
C  17.73000 -2.03300 30.81100
C  19.57400 -1.27500 32.41800
C  15.99000 -1.11300 33.77300
C  16.53700 -1.62800 35.01500
H  17.72100 -0.87600 35.74700
N  17.37400 -2.95300 27.84800
C  18.24200 -3.48000 28.72900
C  18.96000 -4.54500 28.08600
C  18.44200 -4.72100 26.82900
C  17.55300 -3.58600 26.62300
C  19.94100 -5.34100 28.86000
C  18.77200 -5.75200 25.71400
O  18.31600 -5.73800 24.60800
C  19.71500 -6.81300 25.99900
N  15.95300 -1.10000 26.01800
C  16.37100 -1.96700 25.10000
C  15.93300 -1.65700 23.71600
C  14.97700 -0.45400 23.92400
C  15.14100 -0.23600 25.43900
C  17.15900 -1.34500 22.75600
C  13.48000 -0.71400 23.53400
C  12.88900 0.05200 22.38100
N  15.11300 0.38800 28.47300
C  14.46800 1.16300 27.49300
C  13.77100 2.20300 28.11700
C  14.11500 2.03300 29.48600
C  14.83200 0.91100 29.61900
C  13.22200 3.35400 27.46400
C  13.99900 2.64600 30.76500
O  13.49700 3.62900 31.23100
C  14.71300 1.65200 31.77800
C  15.71500 2.34300 32.50800
O  16.69300 2.89300 31.97100
O  15.45300 2.32600 33.81600
C  16.32000 3.12600 34.69300
H  19.20200 -3.54100 30.63400
H  17.25200 -3.64700 24.45400
H  14.08000 1.60100 25.46200
H  17.32200 0.25600 33.07400
H  17.81700 -2.61300 32.73200
H  20.10900 -2.03400 32.98900
H  19.44800 -0.26900 32.81800
H  20.03700 -1.22100 31.43200
H  15.47800 -1.93300 33.26800
H  15.19700 -0.40000 34.00100
H  16.78300 -2.68500 34.91000
H  15.69500 -1.57500 35.70600
H  19.59300 -6.26900 29.31500
H  20.38000 -4.76900 29.67700
H  20.76600 -5.51300 28.17000
H  20.75800 -6.54300 26.16800
H  19.75300 -7.67800 25.33800
H  19.26800 -7.20400 26.91300
H  15.32800 -2.49100 23.36100
H  15.25300 0.48800 23.45000
H  17.21400 -0.26600 22.61700
H  17.13200 -1.80200 21.76700
H  18.11800 -1.52900 23.24000
H  12.89700 -0.75400 24.45400
H  13.46200 -1.73200 23.14500
H  12.49900 1.01300 22.71500
H  12.06200 -0.44900 21.87800
H  13.66500 0.15300 21.62100
H  13.11500 4.15300 28.19800
H  12.21600 3.11600 27.11800
H  13.75600 3.65300 26.56200
H  14.01000 1.21600 32.48800
H  15.94200 3.19300 35.71300
H  16.43000 4.10200 34.21900
H  17.27200 2.59800 34.72700
Mg 47.51000 25.81800 28.17500
C  48.41500 28.10000 30.65500
C  46.40000 23.66800 30.51700
C  46.64000 23.73800 25.66900
C  48.79600 28.08600 25.79700
N  47.36200 25.93100 30.38200
C  47.66000 27.04400 31.16800
C  47.13300 26.82600 32.64800
C  46.69800 25.28800 32.60200
C  46.82800 24.88900 31.05600
C  47.43500 24.30800 33.57500
C  45.99500 27.89900 33.11700
C  45.27800 27.48000 34.36900
H  45.18400 28.50000 35.59900
N  46.64500 23.91100 28.12200
C  46.30400 23.12100 29.15100
C  45.79600 21.81300 28.72400
C  45.83600 21.83500 27.25400
C  46.37400 23.17600 26.92800
C  45.27000 20.76800 29.66500
C  45.39200 20.77100 26.18600
O  45.46100 20.88900 24.98900
C  44.79600 19.51500 26.68500
N  47.78700 25.86700 26.09000
C  47.12300 24.97900 25.27300
C  47.10600 25.40600 23.78600
C  47.81100 26.81100 23.82700
C  48.20200 26.91800 25.32100
C  47.78200 24.42400 22.78200
C  46.93600 27.95900 23.26900
C  47.05600 28.27900 21.77200
N  48.67300 27.58500 28.18700
C  49.07400 28.40900 27.17300
C  49.66300 29.60300 27.67400
C  49.50100 29.50600 29.03600
C  48.82000 28.27300 29.31700
C  50.25900 30.74200 26.84000
C  49.75600 30.21500 30.28400
O  50.24100 31.28200 30.49400
C  48.96100 29.37000 31.36800
C  49.78300 29.00800 32.54100
O  50.71100 28.26500 32.50500
O  49.36500 29.71600 33.64500
C  50.14800 29.55500 34.93400
H  46.05400 23.04700 31.34600
H  46.26900 23.02300 24.93100
H  49.11000 28.76000 24.99800
H  47.96700 26.95100 33.33800
H  45.66100 25.23900 32.93300
H  47.57100 23.34900 33.07500
H  46.84700 24.05000 34.45600
H  48.46300 24.59300 33.80200
H  45.25000 28.09500 32.34600
H  46.50300 28.83900 33.33400
H  45.63600 26.55600 34.82400
H  44.28000 27.10500 34.14500
H  44.18700 20.63900 29.65800
H  45.56800 20.87300 30.70800
H  45.68900 19.79800 29.40000
H  44.00900 19.87000 27.35100
H  45.60700 19.03800 27.23500
H  44.36400 18.90000 25.89500
H  46.07600 25.55600 23.46200
H  48.67100 26.76400 23.15900
H  48.27700 23.63100 23.34300
H  48.45300 24.89000 22.06000
H  46.97600 23.84800 22.32700
H  47.09000 28.85800 23.86600
H  45.87900 27.75100 23.43900
H  47.79400 27.63900 21.28600
H  47.40900 29.29700 21.61100
H  46.08800 28.29000 21.27200
H  50.41200 31.59100 27.50700
H  49.54300 31.00800 26.06200
H  51.20000 30.35800 26.44500
H  48.15800 30.00800 31.73700
H  49.40800 29.15100 35.62500
H  50.53000 30.48400 35.35700
H  51.02200 28.94400 34.70800

