158

Mg 46.77900 16.62600 28.10300
C  45.07800 16.07200 31.17700
C  49.14400 18.33300 30.02300
C  48.25400 17.55200 25.27300
C  44.15000 15.23300 26.36200
N  47.06900 17.16400 30.38100
C  46.34200 16.64600 31.39300
C  46.97800 17.00000 32.75800
C  48.11100 18.10200 32.34700
C  48.18200 17.85900 30.81900
C  47.85700 19.56900 32.88100
C  47.32700 15.80800 33.65100
C  47.38800 15.99900 35.14200
H  47.19800 17.31200 35.76200
N  48.54900 17.65300 27.70000
C  49.37000 18.23200 28.63100
C  50.58100 18.77600 27.95400
C  50.23500 18.66600 26.51900
C  48.98800 17.95200 26.42900
C  51.75400 19.35900 28.65600
C  51.05600 19.16500 25.40700
O  50.68400 19.23300 24.25000
C  52.38300 19.73100 25.64100
N  46.33500 16.21800 26.06300
C  47.11700 16.71900 25.11200
C  46.53300 16.41200 23.67800
C  45.27400 15.62100 24.01100
C  45.21700 15.64300 25.57500
C  46.31900 17.68300 22.84500
C  45.29000 14.12200 23.31700
C  44.09400 13.69200 22.43300
N  44.93500 15.84900 28.55600
C  43.99900 15.23800 27.76100
C  42.92800 14.78800 28.58400
C  43.29300 15.07000 29.89300
C  44.56900 15.68800 29.87000
C  41.60900 14.18800 27.99500
C  42.89300 14.91000 31.23600
O  41.87300 14.43300 31.70200
C  43.98400 15.63200 32.14800
C  43.43200 16.88600 32.90900
O  42.91500 17.89400 32.44700
O  43.57200 16.58300 34.20500
C  42.99100 17.49700 35.21100
H  49.86500 18.92900 30.58600
H  48.72000 17.89200 24.34500
H  43.28100 14.97600 25.75300
H  46.15400 17.45100 33.31000
H  49.10000 17.84200 32.72300
H  48.60800 19.93800 33.57900
H  46.88400 19.56900 33.37100
H  47.70500 20.27800 32.06800
H  48.33700 15.56400 33.32300
H  46.56500 15.06400 33.41800
H  48.26300 15.44300 35.47800
H  46.48400 15.50500 35.49800
H  52.69300 19.12200 28.15700
H  51.82200 18.88000 29.63300
H  51.69200 20.42900 28.85600
H  52.25700 20.58200 26.31000
H  52.90200 20.19000 24.80000
H  52.88400 18.88100 26.10400
H  47.25800 15.76500 23.18500
H  44.39600 16.14000 23.62800
H  46.28900 18.64200 23.36100
H  45.36000 17.50400 22.35800
H  47.12000 17.83100 22.12200
H  45.32000 13.38800 24.12200
H  46.16400 14.14800 22.66500
H  43.72000 12.75200 22.83700
H  44.44100 13.62200 21.40200
H  43.33000 14.45200 22.60100
H  41.12300 14.97700 27.42200
H  40.95700 13.67800 28.70500
H  41.86400 13.37500 27.31500
H  44.33100 14.87900 32.85400
H  43.38700 17.25700 36.19800
H  41.90300 17.43100 35.23000
H  43.23600 18.53700 34.99800
Mg 41.96700 41.91100 27.76100
C  40.52200 44.39300 29.97300
C  42.82100 40.07400 30.52100
C  43.75000 39.96900 25.71800
C  42.11800 44.50300 25.41000
N  41.75300 42.30900 29.92000
C  40.91900 43.20100 30.58200
C  40.74800 42.79700 32.05100
C  41.63000 41.58200 32.24700
C  42.12900 41.30600 30.78900
C  42.71100 41.86500 33.33800
C  39.26600 42.68600 32.61600
C  38.98700 43.30800 33.99800
H  38.75000 42.37700 35.16300
N  43.07600 40.14900 27.97800
C  43.18300 39.51300 29.24000
C  43.88600 38.24100 28.98100
C  44.15800 38.19100 27.53400
C  43.69400 39.43400 27.00500
C  44.17400 37.16700 30.06700
C  44.79200 37.15400 26.68800
O  44.86400 37.27100 25.45100
C  45.35800 35.94800 27.34100
N  42.88300 42.20400 25.91000
C  43.37200 41.18700 25.21400
C  43.56100 41.62700 23.71100
C  42.93400 42.95400 23.62600
C  42.64200 43.26000 25.05700
C  45.06000 41.61500 23.18900
C  41.65400 42.98000 22.68100
C  40.23500 42.69600 23.33100
N  41.32100 44.03800 27.57200
C  41.45500 44.96800 26.52800
C  40.96700 46.27400 26.87100
C  40.56600 46.10100 28.22800
C  40.80200 44.72600 28.60000
C  40.91800 47.48300 25.97400
C  40.09700 46.75200 29.42900
O  39.86100 47.95900 29.61800
C  40.03800 45.71800 30.59700
C  40.90400 46.24400 31.68000
O  42.11100 46.51800 31.55000
O  40.08300 46.59500 32.84400
C  40.87900 47.35000 33.90700
H  42.97100 39.49100 31.43200
H  44.00300 39.31900 24.87700
H  42.03900 45.21600 24.58700
H  41.17200 43.67200 32.54400
H  40.99300 40.77800 32.61400
H  42.14800 41.95500 34.26700
H  43.17500 42.84300 33.21800
H  43.51600 41.13000 33.32200
H  38.95100 41.64400 32.67700
H  38.57600 43.13100 31.89900
H  38.09500 43.89700 33.78300
H  39.84900 43.92800 34.24400
H  45.23400 36.91700 30.02800
H  43.68800 36.21800 29.84300
H  44.00600 37.43600 31.11000
H  44.67700 35.36100 27.95800
H  46.12400 36.40300 27.96800
H  45.80300 35.25700 26.62500
H  42.94100 40.91900 23.16000
H  43.67700 43.68800 23.31400
H  45.32000 42.45000 22.53900
H  45.16800 40.71200 22.58700
H  45.81900 41.53800 23.96800
H  41.82000 42.56500 21.68700
H  41.46600 44.01400 22.39200
H  40.36100 42.37100 24.36300
H  39.75400 41.95400 22.69400
H  39.50100 43.50100 23.29400
H  40.43000 47.39300 25.00300
H  41.93800 47.79900 25.75500
H  40.47300 48.28500 26.56300
H  38.98800 45.64100 30.88100
H  41.27500 48.32700 33.62900
H  41.60600 46.71900 34.41800
H  40.20100 47.66000 34.70300

