158

Mg 1.31100 7.98800 25.57700
C  2.15600 9.92000 28.35500
C  1.70600 5.18700 27.29500
C  0.86700 6.25300 22.69900
C  1.45900 10.85300 23.62700
N  1.77900 7.64600 27.57600
C  1.91900 8.57000 28.60700
C  2.17000 7.91300 29.88200
C  2.11700 6.32800 29.61400
C  1.89300 6.40800 28.05200
C  3.42400 5.54200 29.95700
C  1.10900 8.38200 30.98400
C  1.51400 8.60400 32.51900
H  2.76600 7.86400 33.08200
N  1.28700 5.99300 25.09300
C  1.38500 5.00900 25.97200
C  1.25500 3.75200 25.30800
C  0.84600 4.04700 23.99300
C  0.99300 5.43500 23.81300
C  1.31700 2.40600 26.04000
C  0.35900 3.10400 22.89900
O  0.07900 3.54500 21.78400
C  0.44400 1.66800 23.04200
N  1.14100 8.51700 23.44400
C  0.95700 7.60500 22.46300
C  1.16100 8.30000 21.02100
C  1.09200 9.76700 21.38800
C  1.26000 9.73300 22.88200
C  2.53400 7.82600 20.30600
C  -0.18300 10.54200 20.95500
C  -0.04800 11.64100 19.94700
N  1.59000 10.00500 25.91700
C  1.70200 11.01400 25.00100
C  1.94800 12.21000 25.76100
C  2.15400 11.78500 27.05100
C  1.97600 10.44200 27.09700
C  2.06600 13.67700 25.18900
C  2.50600 12.25800 28.38700
O  2.75400 13.39800 28.74900
C  2.27200 11.01500 29.32800
C  3.49800 10.95300 30.25200
O  4.56500 10.40500 30.02500
O  3.16600 11.69900 31.37600
C  4.14700 11.66700 32.53600
H  2.05900 4.36600 27.92200
H  0.81800 5.64700 21.79200
H  1.57100 11.83900 23.17200
H  3.18500 8.17200 30.18300
H  1.32000 5.78400 30.12100
H  4.21300 6.14800 30.40400
H  3.89600 5.01200 29.13000
H  3.20800 4.84000 30.76200
H  0.35000 7.61500 30.83000
H  0.65900 9.34100 30.72900
H  0.65000 8.26900 33.09300
H  1.56900 9.66900 32.74600
H  0.36000 1.92100 25.84800
H  1.53800 2.61800 27.08600
H  2.12400 1.81400 25.60800
H  -0.39900 1.44200 23.69500
H  1.40500 1.32300 23.42500
H  0.28800 1.17000 22.08500
H  0.37400 7.85700 20.41100
H  1.99600 10.27300 21.05100
H  3.11600 8.68000 19.96200
H  2.32100 7.34200 19.35300
H  3.23300 7.19200 20.85100
H  -0.73600 10.91500 21.81700
H  -0.83500 9.85800 20.41200
H  -0.34300 11.30800 18.95200
H  1.01800 11.86400 19.92800
H  -0.53400 12.52700 20.35600
H  2.49000 13.78300 24.19100
H  2.67400 14.23800 25.89800
H  1.07400 14.12800 25.15900
H  1.37100 11.22800 29.90300
H  3.68200 10.99400 33.25600
H  4.35100 12.60100 33.06000
H  5.15800 11.27800 32.41100
Mg 0.08200 43.52400 26.63400
C  2.16100 42.73900 29.29500
C  -2.66400 42.50100 28.55800
C  -1.92400 44.03600 24.01100
C  2.84000 44.19900 24.61300
N  -0.20400 42.75800 28.70200
C  0.77500 42.68500 29.60400
C  0.23900 42.50300 30.98700
C  -1.29200 42.07800 30.70500
C  -1.41900 42.43100 29.24500
C  -1.71000 40.62000 30.94300
C  0.48100 43.79700 31.85700
C  1.22800 43.52700 33.17300
H  0.97500 42.26800 33.98000
N  -1.99600 43.30300 26.30000
C  -2.94300 42.82900 27.17200
C  -4.21900 42.77400 26.56700
C  -3.96000 43.15900 25.20700
C  -2.56100 43.48700 25.11700
C  -5.54300 42.47900 27.31300
C  -4.89800 43.26600 24.06100
O  -4.74600 43.76500 22.96900
C  -6.32300 42.65200 24.23700
N  0.49600 44.01900 24.52700
C  -0.57200 44.39700 23.83600
C  -0.14000 45.09200 22.56500
C  1.38600 45.42000 22.87000
C  1.61200 44.49100 24.02700
C  -0.31500 44.43500 21.25600
C  1.52100 47.00000 23.17600
C  1.68000 47.96800 22.06500
N  2.03800 43.49300 26.83000
C  3.08300 43.70900 25.93000
C  4.35400 43.67900 26.59800
C  4.03600 43.12100 27.86400
C  2.63000 43.07500 28.00700
C  5.65500 43.82600 25.92600
C  4.59500 42.70500 29.15000
O  5.80300 42.50500 29.39700
C  3.38200 42.58900 30.17700
C  3.50400 41.22800 30.75100
O  3.35600 40.22200 30.10900
O  3.95800 41.26600 32.03400
C  4.39700 39.99000 32.50700
H  -3.39600 41.97500 29.17400
H  -2.54800 44.08700 23.11700
H  3.72400 44.42700 24.01300
H  0.71000 41.61400 31.40700
H  -1.92400 42.69800 31.34200
H  -2.47100 40.56200 31.72100
H  -0.91000 40.04200 31.40800
H  -2.10000 40.09600 30.07100
H  -0.50600 44.19000 32.10100
H  1.06300 44.55100 31.32700
H  0.93200 44.30100 33.88100
H  2.28500 43.61400 32.92200
H  -5.98800 41.50500 27.10900
H  -6.38400 43.12300 27.05500
H  -5.33700 42.54800 28.38100
H  -6.84200 43.33500 24.90900
H  -6.28200 41.66500 24.69800
H  -6.68900 42.57000 23.21300
H  -0.74400 45.99900 22.52800
H  1.97000 45.16700 21.98400
H  -1.01100 45.03700 20.67100
H  -0.75700 43.43900 21.25600
H  0.57600 44.17500 20.68600
H  2.41200 47.11900 23.79300
H  0.64800 47.24500 23.78200
H  0.97600 48.77900 22.25300
H  1.31900 47.54400 21.12900
H  2.66600 48.41700 21.94300
H  5.83500 44.86500 25.65000
H  5.61300 43.20600 25.03000
H  6.44000 43.46900 26.59400
H  3.39100 43.40900 30.89500
H  3.61700 39.24900 32.68000
H  4.93900 40.09800 33.44700
H  5.11200 39.64800 31.75900

