158

Mg 8.92800 2.95000 27.12600
C  10.23600 1.48100 30.04300
C  7.28800 5.17600 29.23900
C  7.52900 4.33100 24.43900
C  10.56000 0.66500 25.20600
N  8.62500 3.18200 29.51000
C  9.41300 2.55500 30.41900
C  9.19600 3.16700 31.83800
C  8.05200 4.28200 31.58300
C  7.94900 4.26900 30.03200
C  6.69900 4.14100 32.27400
C  10.53500 3.66500 32.52700
C  10.42600 4.33900 33.86700
H  11.16300 3.66900 35.03200
N  7.59000 4.43400 26.87200
C  7.01600 5.25300 27.86200
C  6.16400 6.30200 27.22800
C  6.27500 6.15100 25.82400
C  7.12500 4.92200 25.64200
C  5.19300 7.19600 28.00800
C  5.62100 6.94300 24.74900
O  5.79600 6.65900 23.53500
C  4.86600 8.22500 25.07400
N  9.15200 2.64900 25.06000
C  8.37100 3.28600 24.18100
C  8.57100 2.67000 22.78800
C  9.68100 1.61600 22.97600
C  9.85200 1.65100 24.49900
C  7.25200 2.10400 22.24000
C  11.11000 2.02300 22.31300
C  11.31900 1.26600 20.98400
N  9.95700 1.24200 27.48300
C  10.60400 0.45600 26.63300
C  11.38400 -0.55500 27.36800
C  11.28300 -0.17800 28.73100
C  10.43900 0.99100 28.71500
C  11.94700 -1.85000 26.89000
C  11.63800 -0.54100 30.14200
O  12.30600 -1.38300 30.64000
C  11.08700 0.57600 30.94600
C  10.27100 0.00900 32.10300
O  9.13500 -0.30700 32.06500
O  11.02800 0.01100 33.26800
C  10.36300 -0.26400 34.49400
H  6.95700 6.05700 29.79300
H  7.22400 4.76600 23.48500
H  11.25200 0.04300 24.63500
H  8.73000 2.50100 32.56400
H  8.41400 5.24200 31.95100
H  5.81100 4.02600 31.65300
H  6.42100 4.98300 32.90800
H  6.81700 3.33100 32.99500
H  11.07900 4.26000 31.79400
H  11.12100 2.75700 32.67300
H  9.34900 4.40200 34.02100
H  10.84200 5.34000 33.75100
H  4.19900 6.96900 27.62300
H  5.21500 8.27800 27.87400
H  5.22700 6.97300 29.07400
H  5.45700 8.87100 25.72400
H  3.91700 7.92200 25.51500
H  4.57100 8.84300 24.22600
H  8.81100 3.43100 22.04500
H  9.21100 0.69600 22.62700
H  6.42400 2.68100 22.65200
H  7.11400 1.05400 22.50000
H  7.22100 2.30100 21.16900
H  11.99700 1.78700 22.90100
H  11.07500 3.11300 22.31400
H  11.30600 2.08700 20.26800
H  10.49500 0.65400 20.61700
H  12.33000 0.86400 20.91500
H  11.53800 -2.71200 27.41800
H  13.02400 -1.90100 27.05300
H  11.71100 -2.06000 25.84700
H  11.90900 1.10000 31.43400
H  9.32000 -0.58100 34.49000
H  10.33900 0.70900 34.98400
H  10.97800 -0.93100 35.09800
Mg 46.40800 24.58100 28.25100
C  46.92700 26.95300 30.73000
C  45.38100 22.33600 30.52600
C  46.50500 22.21800 25.93700
C  47.85400 26.87500 26.08200
N  46.29000 24.69500 30.40600
C  46.40000 25.79200 31.19400
C  46.01000 25.45900 32.63100
C  45.55700 23.96900 32.64100
C  45.80200 23.63200 31.11900
C  46.39400 23.12600 33.64700
C  45.01300 26.44500 33.30600
C  45.52500 27.07500 34.59400
H  44.60200 27.35300 35.78500
N  45.97400 22.54900 28.19800
C  45.45100 21.88400 29.24000
C  45.19100 20.54500 28.80700
C  45.53600 20.46700 27.42200
C  45.94500 21.81400 27.12100
C  44.68900 19.45100 29.70300
C  45.34100 19.30900 26.36000
O  45.45300 19.39600 25.16600
C  44.75400 17.96800 26.83200
N  47.27300 24.50800 26.40300
C  47.11800 23.42100 25.58400
C  47.70700 23.59400 24.19500
C  48.16500 25.13400 24.25800
C  47.70700 25.56900 25.65800
C  48.74800 22.64800 23.51800
C  47.67600 26.01200 23.05900
C  46.18800 26.51300 23.12200
N  47.19000 26.55600 28.27900
C  47.65800 27.37100 27.29800
C  48.03700 28.60700 27.86200
C  47.73400 28.54000 29.13800
C  47.31100 27.23600 29.41100
C  48.72100 29.74100 27.15300
C  47.80400 29.26400 30.46700
O  48.14600 30.46700 30.77600
C  47.25600 28.26500 31.51300
C  48.36000 28.05700 32.52300
O  49.46700 27.58200 32.17700
O  47.99900 28.40500 33.79000
C  48.97500 28.06800 34.85900
H  44.90900 21.67500 31.25500
H  46.27400 21.52400 25.12600
H  48.23300 27.61700 25.37600
H  46.96600 25.56400 33.14500
H  44.51200 23.88700 32.94000
H  45.78700 22.54400 34.34000
H  47.17300 23.69700 34.15200
H  46.89900 22.29900 33.14800
H  44.08200 25.92500 33.53100
H  44.89300 27.28000 32.61500
H  45.89500 28.03000 34.22400
H  46.45000 26.65200 34.98600
H  43.98500 18.77600 29.21600
H  44.33600 19.76800 30.68400
H  45.60700 18.87400 29.81600
H  45.47800 17.66700 27.58900
H  44.77500 17.25100 26.01200
H  43.74000 17.92400 27.23200
H  46.84300 23.58200 23.53000
H  49.25300 25.19200 24.30200
H  48.68600 21.73000 24.10200
H  49.73900 23.10100 23.49200
H  48.44500 22.52600 22.47800
H  47.68700 25.33100 22.20800
H  48.35300 26.86600 23.02100
H  45.73900 26.30900 24.09400
H  45.70300 26.14600 22.21700
H  46.18900 27.60100 23.05800
H  48.57300 30.63000 27.76700
H  48.12400 29.95400 26.26700
H  49.73700 29.47100 26.86600
H  46.39200 28.79900 31.90700
H  49.55900 27.16900 34.66100
H  48.34000 27.78200 35.69700
H  49.69100 28.85100 35.10800

