158

Mg 16.77400 51.56400 26.30700
C  18.76400 50.15500 28.75400
C  14.29200 52.01500 28.56900
C  14.76500 52.35000 23.78800
C  19.20600 50.46800 23.88600
N  16.53900 51.12500 28.40900
C  17.53900 50.67400 29.22100
C  17.06500 50.71100 30.71800
C  15.59700 51.15100 30.54300
C  15.41500 51.35100 29.11100
C  14.52300 50.18200 31.13200
C  17.93700 51.64900 31.74900
C  17.86700 51.27600 33.21400
H  16.85900 52.00800 34.16400
N  14.85600 52.30400 26.24700
C  13.99800 52.41400 27.23200
C  12.75500 53.11600 26.75600
C  12.87400 53.19500 25.38000
C  14.16700 52.56100 25.04900
C  11.64400 53.53600 27.62300
C  11.93700 53.77800 24.42800
O  12.11000 53.82400 23.19800
C  10.59900 54.36700 24.90000
N  16.95500 51.40200 24.13200
C  15.94700 51.74300 23.34500
C  16.29800 51.58200 21.85400
C  17.87100 51.46700 21.89700
C  18.04800 51.03100 23.39200
C  15.38700 50.57200 21.11200
C  18.68000 52.72900 21.56000
C  19.72800 52.45800 20.41100
N  18.54400 50.46800 26.23100
C  19.49200 50.28300 25.25600
C  20.68500 49.69100 25.87400
C  20.48300 49.60200 27.22700
C  19.18600 50.15600 27.41400
C  21.88100 49.12300 25.17100
C  21.10400 49.26800 28.47300
O  22.21500 48.86600 28.77900
C  20.00200 49.67300 29.56900
C  19.59300 48.58400 30.35300
O  18.78300 47.77200 30.02300
O  20.19900 48.68800 31.60500
C  19.67700 47.66100 32.51100
H  13.43500 52.13900 29.23400
H  14.17100 52.61300 22.91000
H  20.09800 50.19300 23.32100
H  17.17000 49.66400 31.00300
H  15.33900 52.16800 30.83700
H  13.85700 50.83700 31.69400
H  14.90100 49.58700 31.96400
H  14.09700 49.52300 30.37600
H  17.75100 52.72300 31.72600
H  18.98100 51.47100 31.49000
H  18.91200 51.34900 33.51800
H  17.66200 50.20500 33.19700
H  11.37400 54.59000 27.55600
H  11.74500 53.21400 28.65900
H  10.88400 52.85100 27.24800
H  9.99100 54.59200 24.02400
H  10.84600 55.25600 25.48000
H  10.03500 53.63600 25.47900
H  15.96000 52.50800 21.38900
H  18.16000 50.59100 21.31600
H  14.76200 49.85200 21.64100
H  16.03700 49.95000 20.49600
H  14.81100 51.23300 20.46400
H  19.20200 53.06400 22.45600
H  17.95000 53.48100 21.26200
H  19.35600 52.72400 19.42200
H  19.96300 51.40000 20.29400
H  20.59600 53.08000 20.63200
H  21.66000 48.72800 24.17900
H  22.07700 48.27400 25.82500
H  22.82200 49.67300 25.18900
H  20.40400 50.48400 30.17700
H  20.02300 46.66000 32.25400
H  18.59100 47.66300 32.41500
H  20.00700 47.94900 33.50900
Mg 1.64000 41.14600 24.87300
C  3.92800 41.62400 27.71500
C  -0.61100 39.97300 27.04300
C  -0.19200 40.48700 22.22500
C  4.35800 42.04400 22.78100
N  1.67700 40.84900 27.19700
C  2.64300 41.24400 28.12200
C  2.23200 41.07200 29.54600
C  0.75700 40.32000 29.28400
C  0.58100 40.40400 27.76400
C  0.63300 38.88600 29.84100
C  2.15700 42.49300 30.27000
C  1.93000 42.45900 31.76200
H  1.65600 41.09800 32.42900
N  -0.15100 40.34600 24.67000
C  -0.99900 39.97600 25.67100
C  -2.20900 39.45800 25.01400
C  -2.04700 39.51700 23.61000
C  -0.74100 40.17800 23.45700
C  -3.26600 38.94600 25.88800
C  -2.97300 38.95100 22.48600
O  -2.57400 38.90900 21.33100
C  -4.33600 38.35100 22.88700
N  1.99900 41.30500 22.81700
C  1.06600 41.00000 21.90800
C  1.52800 41.29000 20.51800
C  2.85600 42.17500 20.74400
C  3.15200 41.77600 22.19100
C  1.61000 40.11000 19.47100
C  2.73500 43.68300 20.66500
C  3.19500 44.40400 19.36900
N  3.74200 41.67300 25.12400
C  4.73200 41.93600 24.19100
C  6.02500 42.13300 24.86000
C  5.74900 42.04500 26.21800
C  4.37200 41.75200 26.35100
C  7.28800 42.34100 24.17100
C  6.36800 42.14000 27.51100
O  7.51100 42.30700 27.90800
C  5.15900 41.96300 28.53700
C  5.41000 40.89900 29.61700
O  5.44700 39.72500 29.46100
O  5.48800 41.47500 30.91000
C  5.50800 40.53400 32.03600
H  -1.33900 39.63800 27.78400
H  -0.88700 40.49900 21.38300
H  5.12000 42.36800 22.07000
H  2.92500 40.42100 30.08000
H  -0.00600 40.96500 29.72000
H  1.61000 38.49900 30.12900
H  0.20300 38.24200 29.07300
H  -0.03800 38.87300 30.70000
H  1.40800 43.06100 29.71800
H  3.10800 43.01300 30.15600
H  1.07600 43.07000 32.05300
H  2.82700 42.81800 32.26500
H  -2.95300 37.94400 26.18300
H  -4.29000 38.94100 25.51400
H  -3.37900 39.55800 26.78200
H  -4.88900 39.05600 23.50700
H  -4.15200 37.40200 23.39000
H  -5.00100 38.21100 22.03400
H  0.72500 41.98400 20.27000
H  3.61000 41.77000 20.06900
H  0.99900 40.47900 18.64700
H  1.25800 39.21700 19.98800
H  2.67600 40.01600 19.26500
H  3.39800 44.07000 21.43800
H  1.71600 43.95900 20.93500
H  2.29400 44.86100 18.95800
H  3.65800 43.69400 18.68300
H  3.92500 45.12700 19.73200
H  7.98400 41.54700 24.44300
H  7.66900 43.32600 24.44200
H  7.11500 42.14400 23.11300
H  4.96100 42.93300 28.99400
H  6.55800 40.38500 32.28600
H  5.03500 39.59800 31.73800
H  4.86200 40.85700 32.85300

