158

Mg 17.60600 -0.55900 27.31000
C  16.16600 1.07100 30.09000
C  19.36700 -2.57200 29.33000
C  18.68700 -1.78900 24.58600
C  15.80800 1.83800 25.28500
N  17.81700 -0.64300 29.53800
C  17.08300 0.05300 30.48700
C  17.62400 -0.34300 31.95600
C  18.65200 -1.55900 31.59400
C  18.61800 -1.67900 30.06100
C  20.09700 -1.38000 32.07000
C  16.54200 -0.72900 33.02200
C  16.56300 -0.04300 34.43400
H  17.84300 0.60500 34.99600
N  18.86200 -1.96000 27.03300
C  19.45700 -2.70600 27.98200
C  20.33600 -3.64800 27.28100
C  20.12000 -3.53700 25.89800
C  19.13000 -2.39800 25.77700
C  21.21300 -4.70300 28.03500
C  20.42200 -4.44500 24.76200
O  20.00200 -4.19100 23.64800
C  21.26800 -5.69800 25.03500
N  17.38300 0.07800 25.23700
C  17.86400 -0.69400 24.31600
C  17.77900 -0.14300 22.87100
C  16.67800 1.02700 23.15400
C  16.68500 1.04900 24.64400
C  19.24300 0.40500 22.41800
C  15.27000 0.79100 22.48100
C  14.20300 -0.09300 23.19700
N  16.21600 1.04400 27.54200
C  15.58200 1.90100 26.63600
C  14.71000 2.73200 27.31000
C  14.84600 2.43600 28.68500
C  15.79800 1.39700 28.72800
C  13.87300 3.69100 26.69800
C  14.39100 2.74900 30.04800
O  13.51700 3.52400 30.50100
C  15.33100 1.97500 30.98000
C  16.22700 2.82300 31.74000
O  17.29100 3.33100 31.41300
O  15.53600 3.13800 32.87400
C  16.21600 4.03700 33.78500
H  20.09300 -3.19100 29.86000
H  18.99700 -2.15400 23.60500
H  15.18000 2.50000 24.68300
H  18.27700 0.44600 32.32900
H  18.27400 -2.53200 31.90800
H  20.38700 -2.33900 32.49700
H  20.22600 -0.50500 32.70800
H  20.78600 -1.15400 31.25600
H  16.52500 -1.79600 33.24300
H  15.54400 -0.66300 32.58900
H  16.25500 -0.73700 35.21700
H  15.77300 0.68900 34.26600
H  22.14800 -4.76200 27.47900
H  20.64000 -5.62900 28.08800
H  21.56900 -4.32500 28.99300
H  22.28500 -5.32800 25.16600
H  21.19800 -6.28900 24.12200
H  21.02900 -6.28500 25.92300
H  17.45200 -0.94700 22.21100
H  17.04100 2.00200 22.82800
H  20.07100 0.21400 23.10100
H  19.17600 1.47500 22.22100
H  19.51600 -0.11200 21.49800
H  15.37600 0.40100 21.46900
H  14.87900 1.77400 22.22100
H  13.48700 -0.53100 22.50200
H  13.59500 0.59500 23.78300
H  14.69300 -0.93300 23.69000
H  14.40400 4.51600 26.22400
H  13.32800 4.21100 27.48600
H  13.23000 3.34200 25.89000
H  14.81900 1.29700 31.66300
H  15.54400 4.77200 34.22900
H  17.01900 4.58600 33.29300
H  16.71000 3.42700 34.54100
Mg 52.93000 23.95500 45.64100
C  50.79000 26.47900 44.39500
C  51.05800 21.62400 44.14100
C  55.44800 21.99000 45.93500
C  54.84500 26.62800 46.92500
N  51.30800 24.10700 44.16700
C  50.60300 25.23700 43.80600
C  49.67600 24.82400 42.67900
C  49.32500 23.33000 43.08700
C  50.68500 22.98000 43.79500
C  48.13400 23.23100 44.08500
C  50.37300 24.84800 41.27300
C  49.51800 25.34800 40.11700
H  50.18900 26.06400 38.99000
N  53.24100 22.01200 45.12400
C  52.27900 21.20300 44.58100
C  52.80000 19.86700 44.64300
C  54.08400 19.91400 45.23500
C  54.28200 21.33300 45.47700
C  52.08900 18.63100 44.19500
C  54.90500 18.66200 45.58300
O  54.49400 17.50400 45.30100
C  56.29700 18.73900 46.22800
N  54.88700 24.28800 46.31300
C  55.73300 23.28000 46.39400
C  57.18400 23.75100 46.84900
C  56.82500 25.11000 47.40900
C  55.47500 25.43300 46.79300
C  57.76100 22.70000 47.89200
C  57.86000 26.34400 47.27300
C  58.12300 27.20200 48.58900
N  52.83200 26.07400 45.84800
C  53.58700 26.97100 46.52000
C  53.00800 28.28000 46.54800
C  51.93400 28.13700 45.61800
C  51.81300 26.78300 45.30100
C  53.59800 29.60600 47.10100
C  50.93200 28.90200 44.93400
O  50.80700 30.12700 44.85500
C  50.06700 27.80800 44.15700
C  49.88700 28.25600 42.74200
O  50.80700 28.64700 42.04200
O  48.59300 28.25300 42.45200
C  48.12600 28.66500 41.17100
H  50.42800 20.83700 43.72100
H  56.34500 21.38800 46.09200
H  55.49400 27.40200 47.34300
H  48.71600 25.32500 42.79600
H  49.11500 22.55000 42.35500
H  47.39700 23.89900 43.63900
H  48.47500 23.67700 45.01900
H  47.83800 22.18800 44.20100
H  50.76700 23.84300 41.12000
H  51.32500 25.35000 41.44600
H  48.67200 25.91600 40.50600
H  48.99000 24.48700 39.70800
H  52.81200 17.93300 43.77300
H  51.42600 19.02000 43.42300
H  51.50700 18.16700 44.99100
H  56.78200 17.77000 46.34200
H  56.14500 19.16200 47.22100
H  57.00500 19.18000 45.52700
H  57.86000 23.81000 45.99700
H  56.52900 25.00700 48.45200
H  56.92800 22.05800 48.17700
H  58.16800 23.29500 48.71000
H  58.56300 22.06200 47.52100
H  57.45600 26.99300 46.49500
H  58.80900 25.94100 46.92100
H  59.19400 27.29800 48.76700
H  57.68200 26.80700 49.50400
H  57.79500 28.20900 48.33100
H  53.02500 29.90800 47.97700
H  53.61400 30.38800 46.34200
H  54.61300 29.42200 47.45300
H  49.06500 27.82300 44.58600
H  47.92500 29.73200 41.27200
H  47.14800 28.22600 40.97200
H  48.82200 28.46800 40.35500

