158

Mg 25.85000 0.36600 29.58100
C  27.68600 0.14500 32.61400
C  22.94400 0.99300 31.52500
C  23.96300 0.16300 26.86500
C  28.65500 -0.58300 27.90900
N  25.35100 0.45200 31.81900
C  26.32300 0.45300 32.79600
C  25.66600 0.81300 34.15600
C  24.09600 0.87900 33.88400
C  24.09700 0.75800 32.31900
C  23.18200 -0.28800 34.45800
C  26.23200 2.08400 34.86100
C  26.93600 1.82100 36.22400
H  26.55000 2.73400 37.40200
N  23.78300 0.53300 29.26900
C  22.77900 0.87200 30.12200
C  21.54600 1.10300 29.42200
C  21.74500 0.86600 28.04600
C  23.20900 0.41400 28.02500
C  20.26200 1.56300 30.19300
C  20.94200 0.92500 26.87100
O  21.37100 0.87000 25.71600
C  19.43500 1.17100 26.98300
N  26.19900 -0.40600 27.68900
C  25.28400 -0.21500 26.65900
C  25.97600 -0.30700 25.23100
C  27.45800 -0.67600 25.60800
C  27.48300 -0.56700 27.13900
C  25.25800 -1.42200 24.34100
C  28.52200 0.35000 25.05400
C  28.47700 1.76000 25.63200
N  27.80500 -0.05400 30.16400
C  28.77900 -0.50300 29.29700
C  29.98600 -0.82400 30.09500
C  29.54300 -0.48600 31.42400
C  28.24600 -0.08800 31.37800
C  31.23400 -1.40700 29.63600
C  29.97600 -0.45300 32.79800
O  31.09200 -0.68100 33.29500
C  28.74100 -0.04300 33.61400
C  28.49400 -1.10000 34.63400
O  27.87100 -2.16800 34.43600
O  29.12900 -0.73800 35.81500
C  28.89000 -1.69500 36.85900
H  22.05500 1.16000 32.13600
H  23.52100 0.26400 25.87200
H  29.63300 -0.68000 27.43200
H  25.75600 -0.09200 34.75700
H  23.61700 1.85100 34.00400
H  23.05500 -1.09600 33.73700
H  22.26900 0.10100 34.90700
H  23.73400 -0.76900 35.26600
H  25.39000 2.76900 34.95900
H  27.00600 2.57300 34.26800
H  27.98700 1.89900 35.94800
H  26.61600 0.84800 36.59900
H  19.88000 0.62100 30.58800
H  19.53800 2.16500 29.64400
H  20.61000 2.23900 30.97400
H  19.06000 0.47600 27.73500
H  18.98100 0.92100 26.02500
H  19.20100 2.17200 27.34400
H  25.99300 0.70000 24.81500
H  27.79100 -1.65800 25.27100
H  25.74100 -2.37700 24.13300
H  25.17500 -0.99100 23.34300
H  24.26900 -1.65700 24.73400
H  28.36700 0.47100 23.98200
H  29.49300 -0.11200 25.23300
H  29.33900 2.04200 26.23500
H  27.59500 1.95500 26.24300
H  28.44700 2.50200 24.83500
H  31.93600 -0.57400 29.59800
H  31.11800 -1.86400 28.65300
H  31.51200 -2.11800 30.41500
H  28.86600 0.87200 34.19400
H  28.12100 -1.34700 37.55000
H  29.88800 -1.70300 37.29600
H  28.63000 -2.71500 36.57300
Mg -5.68100 25.14900 25.95800
C  -4.11400 26.89400 28.61200
C  -6.78500 22.75800 28.04300
C  -6.98500 23.76000 23.28800
C  -3.96800 27.53700 23.77900
N  -5.51100 24.84700 28.10200
C  -4.85400 25.71900 28.95600
C  -5.30400 25.32600 30.44300
C  -5.80700 23.84100 30.24300
C  -6.07400 23.80400 28.70000
C  -4.89400 22.77400 30.74100
C  -6.36700 26.28400 31.05100
C  -6.61400 26.26800 32.50200
H  -6.07400 25.12700 33.30200
N  -6.91500 23.62000 25.71900
C  -7.25600 22.70200 26.74700
C  -8.09600 21.68400 26.13900
C  -8.18300 22.00100 24.74400
C  -7.33300 23.20300 24.52600
C  -8.79200 20.56100 26.90600
C  -8.93400 21.21100 23.69500
O  -9.04000 21.59300 22.56300
C  -9.59900 19.87200 24.08800
N  -5.54800 25.66000 23.83300
C  -6.07600 24.77200 22.98000
C  -5.79900 25.22800 21.57900
C  -4.87400 26.48900 21.69700
C  -4.79800 26.56500 23.20400
C  -5.17600 24.11900 20.61800
C  -5.45600 27.83300 21.01000
C  -4.73900 28.54100 19.84600
N  -4.18800 26.77200 26.16700
C  -3.65600 27.65100 25.19900
C  -2.75400 28.58400 25.84100
C  -2.85800 28.32600 27.21400
C  -3.84100 27.25200 27.31200
C  -1.96600 29.71800 25.12400
C  -2.41400 28.72700 28.55100
O  -1.56800 29.59700 28.79800
C  -3.31600 27.87500 29.46000
C  -2.43700 27.33300 30.54600
O  -1.49800 26.55400 30.43200
O  -2.85600 27.79500 31.80700
C  -2.24400 27.26400 33.06200
H  -7.13200 21.98300 28.73000
H  -7.29200 23.34200 22.32700
H  -3.43800 28.15500 23.05200
H  -4.47700 25.41500 31.14700
H  -6.74200 23.73000 30.79300
H  -3.89100 23.09700 30.46200
H  -5.11200 21.82800 30.24600
H  -4.92400 22.62900 31.82100
H  -7.32300 25.93900 30.65800
H  -6.24900 27.34600 30.83700
H  -7.67600 26.29100 32.74700
H  -6.17200 27.17800 32.90900
H  -8.71300 19.58600 26.42500
H  -9.86300 20.76500 26.91900
H  -8.56600 20.41200 27.96200
H  -10.40300 20.05000 24.80300
H  -8.85100 19.17700 24.46900
H  -10.08600 19.32800 23.27800
H  -6.73600 25.61000 21.17400
H  -3.86200 26.27800 21.35100
H  -4.11800 24.31300 20.44100
H  -5.62100 24.11300 19.62300
H  -5.20700 23.09500 20.99000
H  -5.43500 28.53600 21.84200
H  -6.51600 27.80700 20.75800
H  -3.96200 27.94700 19.36400
H  -4.26800 29.43200 20.26000
H  -5.46300 29.01400 19.18300
H  -1.11300 29.78500 25.79800
H  -2.59500 30.60800 25.10900
H  -1.65100 29.40200 24.12900
H  -4.02200 28.45800 30.05100
H  -3.06400 27.28700 33.78000
H  -1.38100 27.81500 33.43400
H  -1.91200 26.23000 32.97200

