158

Mg 47.41600 24.98100 28.68400
C  48.34000 27.43700 31.14300
C  46.06000 23.17700 31.33000
C  46.97800 22.56700 26.69200
C  49.09000 26.98500 26.27600
N  47.40700 25.26200 31.04000
C  47.59200 26.37000 31.70500
C  47.19600 26.30000 33.19300
C  46.51200 24.89800 33.23800
C  46.75200 24.30500 31.79200
C  47.04500 23.85700 34.36100
C  46.25100 27.39600 33.84200
C  46.85300 28.09900 35.09800
H  47.22000 27.23500 36.31300
N  46.52900 23.15500 28.94100
C  45.97600 22.56500 30.08400
C  45.37300 21.35700 29.70200
C  45.66000 21.16400 28.33400
C  46.51400 22.21600 27.95200
C  44.60100 20.53500 30.72200
C  45.29000 19.89700 27.50800
O  45.80000 19.75600 26.36100
C  44.37100 18.84600 28.10400
N  48.19800 24.75200 26.89700
C  47.67900 23.70700 26.15700
C  48.10900 23.73100 24.67200
C  48.56800 25.17600 24.52500
C  48.66800 25.69000 26.00200
C  49.18400 22.68400 24.34400
C  47.64700 26.00000 23.55200
C  48.26400 26.33200 22.16800
N  48.49900 26.86300 28.64200
C  49.12000 27.50100 27.57400
C  49.62200 28.78300 28.09700
C  49.39200 28.78900 29.47300
C  48.69800 27.62300 29.76800
C  50.33500 29.82700 27.20000
C  49.52000 29.50400 30.71000
O  50.00000 30.58900 31.01400
C  49.00100 28.58700 31.84300
C  50.08800 28.13700 32.85300
O  50.79400 27.15300 32.81300
O  50.13000 29.09500 33.93000
C  51.00500 28.70000 35.08900
H  45.55200 22.73100 32.18800
H  46.82500 21.86100 25.87300
H  49.44500 27.57000 25.42500
H  48.14100 26.25300 33.73400
H  45.42300 24.93400 33.26100
H  47.32300 22.90200 33.91600
H  46.36500 23.60200 35.17500
H  48.02600 24.14800 34.73800
H  45.37000 26.92300 34.27800
H  45.90100 28.17800 33.16800
H  46.19900 28.91600 35.40200
H  47.76700 28.63600 34.84200
H  43.55300 20.39100 30.46100
H  44.60600 21.05100 31.68200
H  44.99200 19.53300 30.89400
H  44.84100 18.37200 28.96600
H  44.05500 18.15000 27.32700
H  43.52900 19.43700 28.46400
H  47.20000 23.55300 24.09700
H  49.62000 25.14700 24.24100
H  50.14200 23.19600 24.24900
H  49.01500 22.28800 23.34300
H  49.14400 21.81300 24.99800
H  47.32200 26.89000 24.09000
H  46.71800 25.45900 23.37100
H  47.62400 26.03900 21.33600
H  49.20300 25.78900 22.06000
H  48.47900 27.39400 22.05000
H  51.40400 29.83300 27.41500
H  49.85400 30.80200 27.27300
H  50.27400 29.53500 26.15200
H  48.23600 29.23700 32.26800
H  51.95400 28.29000 34.74300
H  50.43300 27.94200 35.62500
H  51.13000 29.53700 35.77600
Mg 0.77500 43.02600 26.64100
C  3.34000 42.99900 29.09100
C  -1.54300 42.48600 28.97200
C  -1.28700 42.70600 24.02900
C  3.44700 43.40300 24.37900
N  0.96000 42.93900 28.76600
C  2.06900 42.93500 29.63100
C  1.62400 42.97600 31.08100
C  0.12500 42.59400 31.02100
C  -0.20000 42.54000 29.48700
C  -0.33600 41.24300 31.81800
C  1.94600 44.39600 31.67200
C  2.11100 44.54200 33.16900
H  1.63300 43.44400 34.09600
N  -1.11900 42.56600 26.49600
C  -1.93000 42.32900 27.58100
C  -3.27800 42.06100 27.02100
C  -3.28700 42.18600 25.61100
C  -1.86200 42.52300 25.32200
C  -4.48400 41.65900 27.85600
C  -4.44100 42.03500 24.57600
O  -4.24000 41.88700 23.36300
C  -5.75800 41.62400 25.15300
N  0.98000 43.11300 24.52600
C  -0.00500 42.85600 23.64100
C  0.41500 42.87400 22.16100
C  1.94100 43.23200 22.32500
C  2.12300 43.32800 23.83100
C  0.15800 41.60400 21.39400
C  2.31100 44.62700 21.70700
C  2.11300 45.96700 22.59100
N  2.96200 43.30000 26.64600
C  3.88700 43.35700 25.64300
C  5.25800 43.35700 26.17400
C  5.09400 43.09300 27.50800
C  3.70700 43.21700 27.74900
C  6.40500 43.59200 25.40200
C  5.73800 42.77700 28.80400
O  6.94800 42.52900 29.02500
C  4.66900 42.92200 29.86800
C  4.95500 41.83400 30.84000
O  4.74200 40.61200 30.66800
O  5.43000 42.35900 32.02800
C  5.81500 41.40600 33.08900
H  -2.31200 42.14300 29.66800
H  -1.93800 42.57600 23.16300
H  4.24600 43.53700 23.64700
H  2.30700 42.24100 31.50800
H  -0.49600 43.38200 31.44900
H  -1.07200 41.57000 32.55200
H  0.52500 40.84400 32.35400
H  -0.81400 40.54200 31.13200
H  1.01400 44.87800 31.37700
H  2.75600 44.90100 31.14600
H  1.62000 45.41800 33.59300
H  3.19000 44.61600 33.31000
H  -5.17200 42.47100 28.09000
H  -4.15200 41.21600 28.79500
H  -5.10900 40.86000 27.45600
H  -5.71300 40.57500 25.44500
H  -6.41800 41.60700 24.28600
H  -6.11500 42.25000 25.97000
H  -0.03300 43.71200 21.62600
H  2.63400 42.47200 21.96600
H  -0.45200 41.04400 22.10400
H  1.06200 41.04600 21.15100
H  -0.45000 41.83800 20.52000
H  1.85500 44.93100 20.76500
H  3.38300 44.64400 21.51100
H  1.47800 46.62400 21.99700
H  3.09200 46.39100 22.81600
H  1.60500 45.88900 23.55200
H  7.33700 43.49400 25.95700
H  6.34500 44.45300 24.73500
H  6.45100 42.69300 24.78800
H  4.91100 43.88900 30.30900
H  6.75500 40.89100 32.88900
H  5.00400 40.72400 33.34300
H  5.94400 41.96600 34.01500

