158

Mg -1.43000 17.81700 27.40900
C  -1.99800 15.85000 30.04700
C  -2.41800 20.48000 29.28700
C  -1.01000 19.74600 24.66700
C  -1.23700 14.99200 25.38800
N  -2.20100 18.14200 29.42300
C  -2.33100 17.17800 30.37900
C  -2.69700 17.75100 31.80900
C  -3.11600 19.22800 31.39600
C  -2.54100 19.29100 29.95300
C  -4.68300 19.47200 31.37400
C  -1.51300 17.63500 32.79500
C  -1.87800 16.88100 34.11000
H  -0.79600 16.73600 35.23800
N  -1.47900 19.88500 27.07400
C  -1.94700 20.84300 28.00800
C  -1.88700 22.17900 27.36300
C  -1.52800 21.91400 25.99300
C  -1.28800 20.48800 25.85500
C  -2.25200 23.50200 28.09200
C  -1.47000 22.98100 24.88700
O  -1.09100 22.73900 23.74800
C  -1.97100 24.34100 25.17200
N  -1.16100 17.47100 25.38300
C  -1.00700 18.42000 24.36400
C  -0.93600 17.84700 22.97800
C  -0.68800 16.34600 23.33900
C  -1.12800 16.23000 24.79700
C  -2.32800 18.08500 22.22400
C  0.80800 15.97900 23.19200
C  1.80900 16.52100 24.26000
N  -1.61000 15.82400 27.59000
C  -1.40200 14.75900 26.74800
C  -1.62900 13.54200 27.47100
C  -1.77100 13.91500 28.78500
C  -1.73700 15.31400 28.77900
C  -1.69500 12.18000 26.83400
C  -1.91500 13.33600 30.11400
O  -1.97900 12.14700 30.43700
C  -2.01900 14.57500 31.01300
C  -0.79800 14.50900 31.76400
O  0.25100 14.86800 31.30500
O  -0.97100 13.87100 32.97500
C  0.37300 13.75500 33.67600
H  -2.74300 21.38700 29.80100
H  -0.97300 20.48900 23.86700
H  -1.24200 14.12900 24.71800
H  -3.56800 17.21300 32.18400
H  -2.60200 20.01500 31.94800
H  -4.95500 19.74800 32.39300
H  -5.13700 18.50500 31.15700
H  -5.00400 20.17600 30.60600
H  -1.20400 18.63700 33.09200
H  -0.62300 17.26200 32.28700
H  -2.16100 15.91900 33.68400
H  -2.77900 17.28800 34.57000
H  -2.46100 23.23900 29.12800
H  -3.17700 23.95600 27.73400
H  -1.47400 24.24600 27.91700
H  -3.04100 24.28600 25.37100
H  -1.84800 24.84900 24.21600
H  -1.44100 24.91400 25.93300
H  -0.05300 18.10500 22.39200
H  -1.27200 15.59900 22.80100
H  -2.95000 18.64100 22.92500
H  -2.93800 17.19000 22.10500
H  -2.29200 18.65100 21.29300
H  1.16600 16.36100 22.23600
H  0.84700 14.89200 23.12700
H  1.31700 16.97700 25.11900
H  2.42200 17.27900 23.77200
H  2.38700 15.74300 24.75700
H  -2.71200 11.98600 26.49500
H  -1.36300 11.53200 27.64500
H  -1.00100 11.98500 26.01600
H  -2.92600 14.59200 31.61800
H  0.68600 14.72000 34.07400
H  1.09400 13.38500 32.94800
H  0.30200 12.99900 34.45800
Mg 30.22500 58.11200 41.22600
C  27.26400 56.39700 40.05300
C  31.96700 55.34500 39.94900
C  32.96100 59.90900 41.44300
C  28.17800 60.91200 41.80300
N  29.62000 56.09400 39.99600
C  28.34800 55.62800 39.73700
C  28.48900 54.25500 39.06200
C  29.98000 53.78100 39.44300
C  30.56000 55.16000 39.81100
C  30.01100 52.53800 40.37400
C  28.02400 54.14200 37.56100
C  28.89600 54.94100 36.56900
H  28.05800 56.00700 35.74400
N  32.17400 57.62000 40.86800
C  32.71500 56.49300 40.28700
C  34.20700 56.65000 40.11600
C  34.46900 57.92800 40.73100
C  33.17000 58.54100 41.07700
C  35.23700 55.60300 39.69200
C  35.85400 58.54200 40.78000
O  36.81800 58.03900 40.30300
C  36.11900 59.85100 41.50800
N  30.52500 60.18700 41.42600
C  31.79800 60.67200 41.63600
C  31.78900 62.07200 42.31900
C  30.21700 62.33600 42.30500
C  29.58900 61.01300 41.85100
C  32.45300 62.26200 43.70200
C  29.76500 63.45100 41.32200
C  28.46300 64.18800 41.82200
N  28.10500 58.56900 41.14000
C  27.49400 59.65200 41.50600
C  26.03100 59.39300 41.50900
C  25.90200 58.13400 40.99200
C  27.19000 57.72000 40.66000
C  24.83800 60.34400 41.88700
C  24.92600 57.18500 40.57800
O  23.67600 57.12100 40.67700
C  25.77100 56.08100 39.85100
C  25.39000 54.78800 40.50600
O  25.93700 54.25400 41.46400
O  24.16600 54.36000 39.94100
C  23.63900 53.08100 40.34500
H  32.69800 54.54200 39.83600
H  33.75500 60.60900 41.71000
H  27.33900 61.46200 42.23600
H  27.74400 53.63100 39.55600
H  30.58000 53.52100 38.57100
H  30.26800 52.83800 41.39000
H  30.83800 51.94300 39.98500
H  29.05600 52.01300 40.36700
H  26.98400 54.45900 37.49300
H  27.98800 53.13400 37.14600
H  29.24000 54.21900 35.82900
H  29.70500 55.50000 37.04000
H  35.80600 55.96700 38.83600
H  34.80900 54.63400 39.43300
H  36.00100 55.38200 40.43700
H  35.81400 60.73200 40.94300
H  37.20700 59.86800 41.58300
H  35.76800 59.83100 42.53900
H  32.28400 62.74600 41.61900
H  29.73200 62.47400 43.27200
H  31.79500 62.73500 44.43100
H  33.36100 62.83800 43.51800
H  32.84000 61.30000 44.03700
H  29.51900 63.10700 40.31700
H  30.54300 64.21000 41.23800
H  28.24300 63.81700 42.82300
H  27.62800 64.05200 41.13500
H  28.68200 65.23300 42.03900
H  25.17200 61.00000 42.69100
H  23.94400 59.79200 42.17800
H  24.65100 61.01700 41.05100
H  25.46500 56.12100 38.80600
H  23.98800 52.44800 39.52900
H  22.56200 53.00300 40.49800
H  24.12200 52.83000 41.28900

