158

Mg 17.45900 -2.49800 27.18800
C  16.57300 -0.51500 30.03100
C  19.13100 -4.44500 29.36000
C  18.32300 -4.04000 24.47600
C  15.80200 -0.06300 25.22200
N  17.93900 -2.38700 29.55900
C  17.39400 -1.60300 30.47000
C  17.64600 -1.98900 31.90100
C  18.59000 -3.25100 31.59700
C  18.57100 -3.39500 30.10900
C  19.97200 -3.19000 32.31700
C  16.37300 -2.23900 32.78700
C  16.28200 -1.44400 34.03800
H  17.57500 -0.93800 34.84700
N  18.51400 -4.11000 26.94600
C  19.14200 -4.80400 27.90000
C  19.95800 -5.80900 27.29300
C  19.63000 -5.75400 25.91100
C  18.71900 -4.65400 25.72700
C  20.87000 -6.65000 28.15100
C  20.09400 -6.65300 24.82200
O  19.75200 -6.59200 23.63100
C  20.85400 -7.89200 25.13800
N  16.96600 -2.14200 25.04100
C  17.54300 -2.94000 24.13700
C  17.21700 -2.41300 22.69900
C  16.31800 -1.16900 23.00600
C  16.37800 -1.09400 24.50900
C  18.53700 -2.11100 21.92700
C  14.79200 -1.39500 22.52400
C  14.39500 -0.63300 21.28200
N  16.32000 -0.70600 27.51700
C  15.74800 0.15600 26.61900
C  15.14100 1.25700 27.26800
C  15.34100 1.05000 28.63400
C  16.05100 -0.18000 28.73800
C  14.54700 2.48800 26.62900
C  15.25400 1.58500 29.97200
O  14.65000 2.62600 30.28300
C  15.90300 0.60500 30.96200
C  16.86100 1.51400 31.71900
O  17.97400 1.79700 31.31300
O  16.21000 2.00700 32.81400
C  16.93300 3.05500 33.51800
H  19.64500 -5.09900 30.06700
H  18.84700 -4.52500 23.65000
H  15.26700 0.66600 24.60800
H  18.10900 -1.09000 32.31000
H  17.98200 -4.08100 31.95800
H  20.73400 -2.88100 31.60300
H  20.29300 -4.17800 32.64800
H  20.03000 -2.50800 33.16500
H  16.15000 -3.29600 32.93300
H  15.54000 -1.86600 32.19200
H  15.59200 -2.00300 34.67000
H  15.70900 -0.54700 33.80600
H  21.87700 -6.80700 27.76300
H  20.59900 -7.70400 28.20700
H  21.09100 -6.42000 29.19300
H  20.28700 -8.56400 25.78300
H  21.80100 -7.62600 25.60700
H  21.06800 -8.39600 24.19500
H  16.75800 -3.22400 22.13400
H  16.66000 -0.21600 22.60300
H  18.62300 -2.69300 21.00900
H  19.38800 -2.35000 22.56500
H  18.63000 -1.05200 21.68600
H  14.08600 -0.98900 23.24800
H  14.49600 -2.43300 22.37400
H  15.27200 -0.34500 20.70200
H  13.95400 0.29600 21.64400
H  13.70900 -1.16900 20.62700
H  13.47400 2.36700 26.48100
H  14.90000 2.67100 25.61400
H  14.77100 3.34300 27.26600
H  15.19300 0.25100 31.70900
H  17.11500 3.85800 32.80400
H  17.87900 2.65100 33.87900
H  16.28900 3.43400 34.31200
Mg 46.90800 16.02600 28.21800
C  45.04100 15.60700 31.01300
C  48.87200 18.25800 29.74900
C  48.70000 16.29200 25.25600
C  44.65800 13.96300 26.46000
N  47.00200 16.79300 30.18300
C  46.07600 16.54100 31.17300
C  46.40600 17.34100 32.46400
C  47.54200 18.24300 31.98000
C  47.85600 17.71500 30.52600
C  47.24700 19.75900 31.94000
C  46.92100 16.33200 33.52200
C  47.15600 16.92200 34.94200
H  48.55700 16.73900 35.53500
N  48.53400 17.13800 27.61200
C  49.24200 17.97200 28.38700
C  50.26400 18.61700 27.63900
C  50.21100 18.14800 26.25300
C  49.13800 17.08800 26.35800
C  51.19400 19.70900 28.08300
C  51.00000 18.51100 24.97900
O  50.81800 18.00200 23.89400
C  52.01900 19.57700 25.04200
N  46.65800 15.33000 26.10300
C  47.55200 15.44500 25.12400
C  47.09200 14.77200 23.84400
C  45.79800 14.00900 24.20000
C  45.70900 14.40300 25.71300
C  46.90100 15.81900 22.72500
C  45.75100 12.53500 23.82700
C  46.46100 11.64600 24.78700
N  45.18800 15.02100 28.54000
C  44.32000 14.36200 27.77200
C  43.19400 13.85800 28.57400
C  43.41900 14.29400 29.85700
C  44.61400 15.00400 29.75400
C  42.12600 12.91200 28.08200
C  42.99800 14.17200 31.20600
O  42.07800 13.57700 31.73800
C  43.98700 15.07700 32.02900
C  43.16200 16.11100 32.70700
O  42.39900 16.81800 32.09100
O  43.41400 16.18600 34.05200
C  42.46900 17.00100 34.86300
H  49.55600 18.92800 30.27400
H  49.32300 16.41200 24.36700
H  44.02000 13.24800 25.93700
H  45.55500 17.88900 32.86700
H  48.46000 18.14100 32.55900
H  47.37900 20.14000 30.92700
H  48.01000 20.25400 32.53900
H  46.21400 19.99300 32.19600
H  47.85100 15.86900 33.19200
H  46.07100 15.66400 33.66200
H  46.56500 16.48500 35.74600
H  46.95900 17.99100 35.02600
H  51.12700 20.03100 29.12200
H  50.94900 20.58000 27.47500
H  52.20400 19.30400 28.02800
H  51.65700 20.58300 25.25500
H  52.64400 19.54300 24.15000
H  52.74100 19.41200 25.84200
H  47.77000 13.93100 23.70300
H  44.93200 14.56000 23.83400
H  45.94300 15.66000 22.23000
H  47.74300 16.00300 22.05800
H  46.78700 16.72600 23.31900
H  46.26200 12.45400 22.86800
H  44.67800 12.34000 23.81800
H  46.91100 12.13200 25.65300
H  47.25300 11.15900 24.21900
H  45.72800 11.00200 25.27300
H  42.55600 12.35400 27.25000
H  41.25700 13.49300 27.77400
H  41.83300 12.19700 28.85000
H  44.40600 14.44600 32.81300
H  42.00600 17.76500 34.23900
H  43.08000 17.48700 35.62500
H  41.70100 16.42300 35.37700

