158

Mg 1.63100 -1.84300 44.36900
C  5.06700 -1.41300 43.72700
C  0.92300 0.63700 41.99400
C  -1.60800 -2.75700 44.30800
C  2.50000 -4.91800 45.91900
N  2.88000 -0.57500 43.02700
C  4.24100 -0.54400 43.00300
C  4.73100 0.57900 42.00200
C  3.48600 1.39800 41.82000
C  2.33000 0.44400 42.33800
C  3.35700 2.81700 42.49900
C  5.43000 -0.12700 40.71800
C  6.53600 0.69700 40.00900
H  6.61000 0.73400 38.46200
N  -0.13700 -1.15000 43.28100
C  -0.24200 -0.09600 42.40100
C  -1.62000 0.16200 42.04900
C  -2.43500 -0.75700 42.84000
C  -1.44100 -1.59900 43.51900
C  -2.10300 1.13300 40.97900
C  -3.90100 -0.81300 42.83600
O  -4.58900 -0.02000 42.20900
C  -4.57500 -2.03600 43.48500
N  0.64500 -3.63100 45.09600
C  -0.72600 -3.62900 44.96700
C  -1.25700 -5.00700 45.55700
C  0.04100 -5.73300 46.04200
C  1.13600 -4.70700 45.71500
C  -2.32100 -4.93600 46.69900
C  0.22900 -7.19300 45.53200
C  0.84500 -8.13500 46.52900
N  3.42700 -2.83200 45.02800
C  3.65100 -4.05600 45.62500
C  5.05100 -4.25800 45.84300
C  5.66000 -3.21500 45.14200
C  4.60900 -2.36800 44.65000
C  5.68400 -5.42500 46.55800
C  6.98000 -2.67200 44.70000
O  8.12300 -3.00500 44.88600
C  6.66500 -1.44300 43.75400
C  7.35500 -0.26700 44.25300
O  8.25500 0.34300 43.77200
O  6.70800 0.18800 45.39200
C  7.12700 1.57700 45.73000
H  0.69100 1.47500 41.33400
H  -2.60200 -3.20200 44.38000
H  2.72400 -5.77200 46.56100
H  5.57000 1.02000 42.54100
H  3.45500 1.44200 40.73100
H  4.01400 3.05600 43.33500
H  2.41400 2.92000 43.03600
H  3.25800 3.57800 41.72500
H  4.61800 -0.11600 39.99100
H  5.49900 -1.19500 40.92500
H  7.46500 0.28800 40.40700
H  6.57400 1.74200 40.31600
H  -3.02800 0.84200 40.48000
H  -1.44100 1.22300 40.11800
H  -2.14800 2.14600 41.38000
H  -4.52900 -2.06100 44.57400
H  -4.27400 -2.97000 43.01000
H  -5.62600 -1.94100 43.21500
H  -1.76000 -5.59100 44.78700
H  -0.10400 -5.84200 47.11700
H  -2.40900 -5.85300 47.28000
H  -3.30300 -4.62600 46.34000
H  -1.85500 -4.13300 47.27100
H  0.85400 -7.18400 44.63900
H  -0.70800 -7.61700 45.17100
H  0.29600 -9.07700 46.50900
H  0.75800 -7.83800 47.57500
H  1.89900 -8.30000 46.30700
H  6.74100 -5.17400 46.65100
H  5.55600 -6.38300 46.05200
H  5.22100 -5.44500 47.54400
H  7.06500 -1.63400 42.75800
H  6.71200 1.88600 46.68900
H  6.75500 2.29100 44.99600
H  8.20200 1.75200 45.70000
Mg -6.77000 24.91900 25.47800
C  -5.06100 26.26200 28.16900
C  -8.45300 22.71000 27.66100
C  -7.95400 23.23500 22.82100
C  -4.73000 26.76300 23.32100
N  -6.82100 24.58300 27.70500
C  -6.09800 25.37500 28.52000
C  -6.47600 24.93400 30.04700
C  -7.36000 23.60600 29.82700
C  -7.61100 23.66500 28.36100
C  -6.70500 22.20000 30.15800
C  -7.23100 26.01400 30.84700
C  -7.00300 25.99200 32.29900
H  -6.27400 24.79500 32.97300
N  -8.20700 23.37300 25.22500
C  -8.75200 22.60400 26.24800
C  -9.72100 21.68400 25.65800
C  -9.54500 21.79300 24.22500
C  -8.50700 22.79800 24.05100
C  -10.64100 20.78000 26.51700
C  -10.16800 20.96100 23.13400
O  -9.92400 20.99100 21.92100
C  -11.04900 19.79900 23.60400
N  -6.42000 25.03700 23.40800
C  -7.04000 24.27000 22.51900
C  -6.38700 24.32300 21.11800
C  -5.52400 25.59100 21.25700
C  -5.61700 25.87700 22.75100
C  -5.62000 23.03200 20.64600
C  -5.93600 26.82600 20.35700
C  -4.97200 27.26600 19.26100
N  -5.12400 26.16400 25.66800
C  -4.50500 26.98000 24.74000
C  -3.46300 27.74600 25.37200
C  -3.63300 27.50000 26.73000
C  -4.64800 26.51600 26.80600
C  -2.45700 28.73000 24.75000
C  -3.11700 27.73900 28.03900
O  -2.20900 28.47400 28.39100
C  -4.04000 26.98200 29.01000
C  -3.24200 26.03700 29.81100
O  -2.81700 24.96800 29.39600
O  -2.97300 26.47100 31.07600
C  -2.11200 25.80600 32.00700
H  -9.01300 22.03300 28.30900
H  -8.34700 22.74900 21.92600
H  -4.23500 27.43000 22.61200
H  -5.51400 24.64300 30.46900
H  -8.31300 23.72400 30.34100
H  -5.69000 22.48700 30.43500
H  -6.55000 21.62000 29.24800
H  -7.13000 21.65800 31.00300
H  -8.30300 26.03900 30.65500
H  -6.84600 26.98900 30.54800
H  -7.99100 26.14600 32.73100
H  -6.41400 26.84300 32.64000
H  -11.03000 21.52800 27.20800
H  -10.10700 20.01200 27.07700
H  -11.49600 20.34400 26.00100
H  -11.22400 19.03000 22.85100
H  -12.01900 20.19700 23.90100
H  -10.58500 19.19600 24.38500
H  -7.11200 24.67200 20.38400
H  -4.49900 25.25400 21.10400
H  -5.92200 22.80800 19.62200
H  -6.06800 22.23200 21.23400
H  -4.55100 23.17700 20.80300
H  -6.08400 27.62300 21.08600
H  -6.81100 26.61600 19.74100
H  -3.95400 27.09900 19.61000
H  -4.93700 28.32700 19.01100
H  -5.03400 26.71500 18.32300
H  -2.16000 28.24700 23.81900
H  -1.51400 28.79300 25.29300
H  -2.96400 29.67500 24.55700
H  -4.59600 27.68000 29.63600
H  -2.48900 26.11500 32.98200
H  -1.03300 25.94700 31.94600
H  -2.39800 24.75800 31.91100

