158

Mg 25.41900 1.83700 30.00700
C  27.65100 2.00600 32.73000
C  22.87800 2.05600 32.31400
C  23.23600 1.77700 27.49200
C  27.98900 1.00500 27.95700
N  25.31200 2.17300 32.33300
C  26.35400 2.28600 33.21300
C  25.88000 2.52100 34.64000
C  24.34500 2.42100 34.46100
C  24.14300 2.11000 32.94500
C  23.51400 1.50500 35.45500
C  26.39300 3.78600 35.36200
C  26.85500 3.51700 36.81500
H  26.36400 4.51800 37.95600
N  23.39100 1.86200 29.90900
C  22.52100 2.01500 30.94100
C  21.10400 1.98400 30.45200
C  21.19100 1.95000 29.03500
C  22.65000 1.89100 28.77900
C  19.84800 2.25600 31.29600
C  20.08900 2.05300 27.93700
O  20.25300 1.86100 26.72200
C  18.68800 2.14400 28.39000
N  25.54200 1.30300 27.97800
C  24.53000 1.44100 27.16300
C  25.02800 1.32300 25.68100
C  26.54500 0.91000 25.82000
C  26.69900 1.11000 27.35800
C  24.20300 0.30000 24.81100
C  27.53700 1.80100 24.93700
C  27.75300 3.30000 25.25100
N  27.43600 1.49400 30.27000
C  28.36500 1.24300 29.31200
C  29.63400 0.99500 29.93900
C  29.40700 1.29900 31.26000
C  28.02000 1.61000 31.39700
C  30.89200 0.49900 29.19700
C  30.00400 1.39500 32.62700
O  31.12900 1.08100 32.90700
C  28.89400 1.88500 33.61000
C  28.79500 0.85800 34.68500
O  28.08100 -0.09300 34.77400
O  29.79800 1.09100 35.59700
C  29.67400 0.26100 36.83600
H  22.06000 2.24900 33.01100
H  22.55700 1.83800 26.63800
H  28.76500 0.72900 27.24100
H  26.19300 1.67000 35.24500
H  23.84900 3.38600 34.55500
H  22.49400 1.28900 35.13900
H  23.46600 2.00300 36.42400
H  23.96000 0.52700 35.63300
H  25.67300 4.59400 35.49100
H  27.19800 4.19700 34.75400
H  27.91800 3.75900 36.80700
H  26.75500 2.48000 37.13600
H  20.15900 2.33600 32.33700
H  19.15700 1.42500 31.44000
H  19.33600 3.16300 30.97400
H  17.87000 1.83100 27.74000
H  18.67200 3.19600 28.67500
H  18.54600 1.46900 29.23300
H  24.90300 2.25200 25.12500
H  26.71300 -0.15300 25.65000
H  23.91900 0.86100 23.92000
H  23.26400 0.16200 25.34700
H  24.44500 -0.73800 24.58300
H  27.14700 1.85000 23.92100
H  28.46500 1.23600 24.85800
H  27.58500 3.97200 24.40900
H  28.80200 3.49500 25.47600
H  27.06100 3.54300 26.05700
H  30.92100 0.89300 28.18100
H  30.76200 -0.56300 29.40600
H  31.72900 0.80000 29.82700
H  28.99500 2.89200 34.01500
H  29.95800 -0.79000 36.88700
H  28.62700 0.30600 37.13600
H  30.22100 0.88300 37.54400
Mg 40.97000 9.24600 29.60900
C  42.77600 10.37700 32.46700
C  38.61900 7.84300 31.73800
C  39.32100 8.72000 26.96600
C  43.69300 10.61900 27.67100
N  40.83800 9.03300 31.85100
C  41.70600 9.56600 32.80500
C  41.13000 9.29100 34.21000
C  39.89200 8.31300 33.94900
C  39.71700 8.44000 32.45400
C  40.18400 6.84300 34.38900
C  40.78900 10.55000 35.02200
C  41.27300 10.41700 36.49300
H  41.18000 11.54400 37.40200
N  39.27100 8.37800 29.39000
C  38.41900 7.91100 30.35600
C  37.24100 7.43200 29.64400
C  37.43400 7.71500 28.28300
C  38.75400 8.29600 28.20100
C  36.24200 6.68400 30.38100
C  36.35100 7.64200 27.15600
O  36.48600 8.07800 26.05000
C  35.11200 6.93700 27.47200
N  41.53400 9.47300 27.55900
C  40.55400 9.29700 26.66500
C  41.07400 9.39700 25.17100
C  42.46900 10.09300 25.46300
C  42.55900 10.14300 27.03900
C  41.12500 8.06200 24.42100
C  42.70400 11.49100 24.84400
C  41.65900 12.57500 25.17000
N  42.82100 10.16300 29.95500
C  43.85700 10.62100 29.09200
C  44.92100 11.25900 29.78800
C  44.47500 11.23700 31.09300
C  43.24900 10.57200 31.16000
C  46.14200 12.03800 29.28100
C  44.89800 11.62600 32.36800
O  45.90900 12.19300 32.78100
C  43.77900 11.10900 33.33200
C  44.52100 10.29200 34.36800
O  44.87500 9.16600 34.22800
O  44.87000 11.03200 35.51100
C  45.40600 10.29500 36.63100
H  37.98300 7.36900 32.48900
H  38.68300 8.51900 26.10200
H  44.42100 11.12500 27.03300
H  41.87200 8.76700 34.81300
H  39.08300 8.57900 34.63000
H  39.38400 6.54900 35.07000
H  41.14700 6.87000 34.89800
H  40.20000 6.13100 33.56300
H  39.70200 10.53900 35.09300
H  40.97800 11.47100 34.46900
H  42.30200 10.06000 36.52500
H  40.67300 9.61600 36.92300
H  35.38700 7.33900 30.20900
H  36.34800 6.51700 31.45200
H  36.06900 5.76000 29.83000
H  34.51700 7.56400 28.13600
H  35.20700 6.01700 28.05000
H  34.43200 6.72100 26.64900
H  40.39700 10.04500 24.61400
H  43.31700 9.49400 25.12900
H  41.93200 8.09100 23.68900
H  40.18800 7.75000 23.95900
H  41.35500 7.22700 25.08200
H  42.84900 11.37100 23.77000
H  43.62300 11.92400 25.23800
H  42.21000 13.47300 25.44900
H  40.90000 12.24200 25.87700
H  41.24300 12.85300 24.20200
H  46.33300 11.88800 28.21900
H  46.99700 11.71100 29.87400
H  46.02200 13.09000 29.53800
H  43.34100 11.99900 33.78500
H  45.56500 9.22000 36.54800
H  44.76900 10.36000 37.51200
H  46.34700 10.72000 36.98100

