158

Mg 49.66100 35.20800 28.01000
C  47.68100 33.65500 30.53600
C  49.86800 37.98900 30.01700
C  51.41900 36.70600 25.50400
C  48.98900 32.46800 25.90500
N  48.89200 35.64700 30.13100
C  48.27700 34.86500 31.00600
C  48.37200 35.41300 32.42400
C  48.78300 36.91900 32.13900
C  49.24800 36.87300 30.67300
C  47.75900 38.05900 32.63000
C  49.51500 34.58400 33.10700
C  49.48800 34.36800 34.61600
H  48.56800 35.21600 35.48700
N  50.57000 37.06600 27.86600
C  50.44700 38.08900 28.75100
C  51.12300 39.32200 28.19400
C  51.71400 38.92800 26.95100
C  51.20700 37.50000 26.67500
C  51.23500 40.66100 29.06500
C  52.73900 39.62700 26.03800
O  53.33800 39.08700 25.14100
C  53.28200 41.00200 26.43300
N  49.89000 34.75700 25.87000
C  50.90000 35.42700 25.17700
C  51.50100 34.57700 24.01100
C  50.68200 33.26700 24.04700
C  49.78900 33.45900 25.32000
C  51.45200 35.40500 22.66600
C  51.57400 31.98500 24.07900
C  50.98000 30.78900 23.36700
N  48.57500 33.44000 28.11000
C  48.35800 32.46900 27.16400
C  47.37200 31.59900 27.68000
C  47.08800 32.03300 29.02600
C  47.86100 33.15400 29.18100
C  46.91900 30.29600 26.95300
C  46.30400 31.71800 30.13400
O  45.50000 30.81100 30.30300
C  46.72800 32.73700 31.24300
C  47.48000 32.04600 32.34100
O  48.38600 31.25800 32.05700
O  47.02600 32.26400 33.57500
C  47.37500 31.21200 34.58000
H  49.93600 38.86600 30.66500
H  51.97700 37.13000 24.66600
H  48.78800 31.59200 25.28500
H  47.43300 35.25100 32.95400
H  49.66800 37.15500 32.73100
H  48.08700 38.43000 33.60100
H  46.74800 37.66200 32.73200
H  47.80800 38.88500 31.92100
H  50.40800 35.20600 33.04700
H  49.60600 33.63900 32.57200
H  50.49400 34.51100 35.01200
H  49.17500 33.34200 34.81200
H  50.65300 40.72200 29.98400
H  50.81100 41.41400 28.40000
H  52.26700 40.84600 29.36300
H  52.50700 41.71100 26.72400
H  53.78700 41.39600 25.55100
H  53.80300 40.70300 27.34200
H  52.54300 34.49400 24.32000
H  50.02800 33.21100 23.17600
H  50.88300 34.78800 21.97000
H  52.48500 35.60500 22.38100
H  50.98000 36.38200 22.76600
H  51.68200 31.75900 25.14000
H  52.58300 32.10400 23.68400
H  51.75700 30.24700 22.82900
H  50.11700 31.09200 22.77300
H  50.60100 30.16400 24.17500
H  47.72100 29.93200 26.31100
H  45.97000 30.53000 26.46900
H  46.74800 29.56700 27.74400
H  45.85000 33.28700 31.58300
H  47.08100 30.21100 34.26500
H  46.99200 31.47200 35.56800
H  48.45400 31.14200 34.71300
Mg 10.21900 47.16300 25.45600
C  8.04700 47.50500 28.27000
C  12.73200 48.33000 27.48200
C  12.34700 46.48200 22.98200
C  7.45900 46.50900 23.50900
N  10.33200 48.02700 27.62800
C  9.41000 47.85800 28.59800
C  9.87200 48.38800 29.95700
C  11.29500 48.97300 29.60200
C  11.51300 48.43200 28.13900
C  11.30900 50.46900 29.64100
C  9.95400 47.27000 31.03800
C  10.74500 47.66600 32.25100
H  10.00900 47.88600 33.58400
N  12.32700 47.39200 25.20300
C  13.17900 47.79400 26.18700
C  14.52400 47.54600 25.72400
C  14.40300 46.90800 24.43400
C  13.01500 46.87500 24.13200
C  15.82300 47.78200 26.65700
C  15.49300 46.43900 23.47800
O  15.33900 45.90700 22.41500
C  16.94000 46.64100 23.77400
N  9.87200 46.73100 23.53600
C  10.94100 46.34700 22.71600
C  10.43300 45.89600 21.31900
C  8.86800 45.96600 21.49500
C  8.68900 46.28200 22.93900
C  11.04000 46.79900 20.12300
C  8.08300 44.78600 21.02300
C  7.23400 45.04500 19.76900
N  8.11400 47.17000 25.73100
C  7.09000 46.86100 24.86700
C  5.80900 46.95100 25.55300
C  6.16500 47.05100 26.88100
C  7.57100 47.22900 26.95800
C  4.52600 46.73200 24.99600
C  5.59700 47.05500 28.20000
O  4.43200 46.82200 28.61500
C  6.85000 47.20600 29.17600
C  7.07500 45.91200 29.93500
O  7.88500 45.03100 29.76200
O  6.17100 45.93600 31.00800
C  6.31200 44.86500 32.01000
H  13.49700 48.69600 28.17000
H  12.98900 46.33000 22.11200
H  6.61700 46.27800 22.85300
H  9.17100 49.11100 30.37400
H  12.11200 48.49400 30.14200
H  12.36900 50.72100 29.67600
H  10.76800 50.73200 30.55000
H  10.79600 50.82600 28.74900
H  10.39100 46.40100 30.54700
H  8.94100 47.09300 31.39800
H  11.47900 48.46200 32.11900
H  11.32700 46.77300 32.47700
H  16.43100 46.88200 26.56200
H  15.55200 47.86500 27.70900
H  16.28400 48.73200 26.38600
H  17.48000 46.76800 22.83500
H  17.12300 45.77000 24.40300
H  17.06900 47.52300 24.40200
H  10.69700 44.84100 21.24200
H  8.55000 46.91700 21.06700
H  10.21700 47.17800 19.51700
H  11.59900 46.16900 19.43100
H  11.63600 47.63400 20.49300
H  7.52700 44.30100 21.82500
H  8.82000 44.09400 20.61400
H  7.33900 46.06600 19.40200
H  6.22600 44.74800 20.05800
H  7.59600 44.39400 18.97300
H  4.63200 46.45400 23.94800
H  3.97800 47.67100 25.07300
H  3.93500 46.05200 25.61000
H  6.71400 48.02300 29.88400
H  6.91600 44.01900 31.68000
H  5.35600 44.40900 32.26700
H  6.66000 45.19100 32.99000

