158

Mg -12.20100 39.42600 40.08100
C  -10.57400 36.22900 39.85000
C  -9.05200 40.91800 39.04500
C  -13.76700 42.15900 39.63800
C  -15.16300 37.64400 40.76400
N  -10.09500 38.63100 39.50100
C  -9.72300 37.27000 39.39400
C  -8.42700 37.15900 38.59300
C  -7.81000 38.53300 38.97600
C  -9.06900 39.46200 39.13000
C  -7.01200 38.49400 40.22500
C  -8.76500 36.92000 37.07700
C  -7.64800 36.20300 36.31900
H  -7.93800 35.49700 34.94600
N  -11.44300 41.26100 39.58100
C  -10.18400 41.68700 39.20300
C  -10.25000 43.09600 39.20100
C  -11.56900 43.56500 39.42700
C  -12.34200 42.27900 39.51400
C  -8.95000 43.97400 38.92100
C  -12.03500 45.02400 39.51200
O  -11.31500 46.00000 39.30900
C  -13.41700 45.33400 39.99900
N  -14.26000 39.82300 39.93500
C  -14.64300 41.09000 39.91500
C  -16.16900 41.18200 39.98500
C  -16.50800 39.78100 40.62100
C  -15.24900 39.04300 40.43900
C  -16.76600 42.43500 40.68300
C  -17.69200 39.06300 39.86500
C  -18.87800 38.45600 40.61400
N  -12.77800 37.37700 40.35300
C  -14.00300 36.82800 40.61200
C  -13.87900 35.43100 40.80900
C  -12.50100 35.16800 40.59600
C  -11.90200 36.37900 40.22700
C  -15.00900 34.52100 41.21000
C  -11.53300 34.04600 40.41100
O  -11.71100 32.79400 40.46800
C  -10.24300 34.77300 39.92500
C  -9.13500 34.50200 40.90900
O  -9.25800 34.51500 42.10400
O  -7.91700 34.28900 40.30300
C  -6.82000 34.17000 41.22100
H  -8.09900 41.43400 38.90800
H  -14.18300 43.14200 39.41100
H  -16.09500 37.16400 41.06900
H  -7.74500 36.41000 38.99500
H  -7.07900 38.84600 38.23000
H  -6.01800 38.81400 39.91400
H  -7.02200 37.55700 40.78200
H  -7.37100 39.29600 40.86900
H  -8.92000 37.88100 36.58700
H  -9.72200 36.41300 36.96200
H  -7.28600 35.48800 37.05800
H  -6.87900 36.95800 36.15700
H  -8.17400 43.41300 38.40100
H  -8.55100 44.30100 39.88100
H  -9.15500 44.92700 38.43300
H  -13.46800 46.34300 40.40700
H  -13.65700 44.60400 40.77200
H  -14.17000 45.20800 39.22100
H  -16.41900 41.22400 38.92500
H  -16.87000 39.91300 41.64100
H  -17.66900 42.67900 40.12400
H  -16.10900 43.30500 40.65900
H  -17.17500 42.13100 41.64700
H  -17.27500 38.27500 39.23700
H  -18.16400 39.80700 39.22200
H  -19.06500 37.47600 40.17500
H  -19.76900 39.08400 40.61700
H  -18.54400 38.38400 41.64900
H  -15.62700 34.98000 41.98200
H  -14.65900 33.61100 41.69600
H  -15.54700 34.29900 40.28800
H  -9.95300 34.21200 39.03700
H  -6.06400 34.25300 40.44000
H  -6.78200 33.13100 41.54700
H  -6.72700 34.91500 42.01100
Mg 0.41200 43.87800 26.23500
C  1.96300 43.98500 29.36700
C  -2.50200 43.16500 27.99900
C  -1.00200 43.16600 23.30800
C  3.62400 44.23100 24.72700
N  -0.21800 43.54200 28.51000
C  0.61300 43.79600 29.52600
C  -0.21400 43.64200 30.90800
C  -1.60600 43.18600 30.43400
C  -1.42900 43.31800 28.91100
C  -1.96700 41.80100 30.90600
C  -0.23800 45.01800 31.66500
C  -0.43400 44.97100 33.22700
H  -0.81700 43.68200 34.00700
N  -1.52700 43.42100 25.74200
C  -2.59600 43.17400 26.57500
C  -3.74500 42.78900 25.67900
C  -3.33500 42.91400 24.32200
C  -1.90000 43.15400 24.43400
C  -5.10900 42.46200 26.16500
C  -4.15800 42.71900 22.99200
O  -3.71800 42.86800 21.87200
C  -5.60800 42.28400 23.01300
N  1.19500 43.75300 24.33400
C  0.40100 43.46600 23.29900
C  1.18600 43.44200 21.96200
C  2.55200 44.11300 22.36500
C  2.49500 44.06800 23.90400
C  1.34200 42.15000 21.18300
C  2.75900 45.49900 21.85200
C  3.46600 45.56600 20.48100
N  2.46200 44.07000 26.81200
C  3.63400 44.15900 26.12700
C  4.68000 44.33700 27.13600
C  4.08600 44.25700 28.40500
C  2.70700 44.10500 28.15300
C  6.16200 44.52500 26.80800
C  4.33400 44.18700 29.82100
O  5.36400 44.17200 30.48500
C  3.01300 44.11600 30.49000
C  3.13900 42.99300 31.38400
O  3.16700 41.84000 31.03000
O  3.01100 43.39300 32.68300
C  3.03500 42.22200 33.56900
H  -3.36500 43.02800 28.65500
H  -1.51700 42.98400 22.36300
H  4.53400 44.47300 24.17500
H  0.30500 42.95700 31.57800
H  -2.35300 43.93600 30.69000
H  -2.96400 41.80200 31.34600
H  -1.21900 41.32700 31.54200
H  -1.98900 41.16600 30.02000
H  -0.93200 45.76000 31.26900
H  0.73900 45.49500 31.58700
H  -1.03600 45.79500 33.60900
H  0.57000 45.25500 33.54300
H  -5.94500 43.08500 25.84800
H  -5.16800 42.12100 27.19900
H  -5.40200 41.50700 25.72900
H  -6.26700 43.02900 23.45900
H  -5.81200 41.33600 23.50900
H  -5.88400 42.04100 21.98600
H  0.62400 44.16000 21.36500
H  3.40200 43.45100 22.20300
H  2.28100 42.13100 20.62900
H  0.54900 42.03900 20.44300
H  1.37100 41.26900 21.82400
H  3.32900 46.15800 22.50700
H  1.82500 46.05400 21.75700
H  2.68700 45.75700 19.74200
H  3.82500 44.59000 20.15400
H  4.22300 46.35000 20.46300
H  6.81800 43.92300 27.43700
H  6.30900 45.58000 27.04000
H  6.42200 44.40600 25.75600
H  2.89400 45.01900 31.08800
H  3.89900 41.57700 33.40500
H  2.14700 41.59700 33.46900
H  3.04000 42.41500 34.64100

