158

Mg 42.86900 4.16100 47.19700
C  41.14900 7.08700 47.10200
C  40.06000 2.36100 46.88100
C  44.77900 1.38200 46.68300
C  45.94800 6.25900 46.72900
N  40.82000 4.74800 46.87300
C  40.33500 5.92900 47.08400
C  38.75000 5.93800 47.07000
C  38.45800 4.40000 47.10100
C  39.89600 3.76400 46.91700
C  37.76500 3.88900 48.39500
C  38.16000 6.71800 45.90900
C  39.04500 6.69000 44.57400
H  38.31100 6.11600 43.33300
N  42.45400 2.06800 46.93300
C  41.23200 1.55900 46.75300
C  41.29900 0.18100 46.60400
C  42.69400 -0.17900 46.48100
C  43.39200 1.12400 46.71600
C  40.02500 -0.77100 46.38200
C  43.21700 -1.57500 46.24500
O  42.40600 -2.49700 46.30500
C  44.64400 -1.87000 46.26200
N  44.99000 3.89200 46.70600
C  45.46800 2.59000 46.68000
C  47.03500 2.65300 46.59700
C  47.35500 4.17200 46.52900
C  45.95900 4.83500 46.63400
C  47.69600 1.93600 47.72800
C  48.31300 4.65800 45.40600
C  49.53100 5.46800 45.78900
N  43.46100 6.29400 47.02000
C  44.68900 6.95300 46.87100
C  44.49800 8.33300 46.79400
C  43.10000 8.48500 46.96100
C  42.54200 7.19400 46.94800
C  45.57700 9.32600 46.38300
C  42.01900 9.39500 47.15200
O  42.08700 10.64700 47.25400
C  40.73300 8.56700 47.07500
C  39.77600 8.93900 48.21100
O  39.68300 8.43200 49.34400
O  38.93400 9.87200 47.69600
C  37.82700 10.14600 48.55500
H  39.16500 1.73700 46.84400
H  45.39900 0.50300 46.49200
H  46.93500 6.72200 46.65600
H  38.37800 6.43500 47.96600
H  37.84600 4.14400 46.23600
H  37.39600 4.73800 48.97000
H  38.52400 3.41800 49.02000
H  36.94400 3.18200 48.27400
H  38.01300 7.71500 46.32400
H  37.17400 6.34300 45.63200
H  39.95100 6.08700 44.63900
H  39.36000 7.71500 44.37600
H  39.67000 -0.75400 45.35100
H  39.21300 -0.34900 46.97400
H  40.26000 -1.77400 46.73900
H  45.16000 -1.45800 47.12900
H  45.05300 -1.64100 45.27800
H  44.62400 -2.95900 46.28000
H  47.33600 2.15000 45.67700
H  47.85900 4.38500 47.47200
H  48.00800 0.92800 47.45700
H  47.04800 1.85300 48.60100
H  48.61000 2.46500 47.99600
H  47.68700 5.21900 44.71300
H  48.61100 3.82000 44.77500
H  50.43500 4.90300 45.56100
H  49.52900 5.65900 46.86200
H  49.54100 6.37600 45.18700
H  46.00900 9.02000 45.43000
H  46.36700 9.32800 47.13400
H  45.27600 10.36800 46.27500
H  40.28900 8.65700 46.08300
H  37.04100 10.65300 47.99500
H  38.13300 10.64200 49.47600
H  37.43900 9.13800 48.70600
Mg 35.29100 3.47800 29.61400
C  32.76500 4.02600 32.15200
C  37.63300 3.63400 31.96500
C  37.48100 2.40400 27.26800
C  32.86900 3.80900 27.11900
N  35.17700 4.04700 31.75700
C  34.12500 4.05000 32.61900
C  34.58100 3.99700 34.06700
C  36.14000 4.26700 33.92800
C  36.32800 3.91400 32.46800
C  36.61900 5.67900 34.33200
C  34.35800 2.56600 34.68300
C  34.33000 2.50900 36.17700
H  35.15100 3.56400 36.85900
N  37.30300 3.08000 29.59600
C  38.06400 3.17100 30.70100
C  39.42600 2.86200 30.32700
C  39.47100 2.40600 28.94000
C  38.05300 2.53400 28.54400
C  40.41400 2.75400 31.48300
C  40.59300 1.67800 28.11400
O  40.44800 1.12400 26.98700
C  42.04000 1.61200 28.70400
N  35.18300 3.30000 27.52100
C  36.20200 2.79500 26.76200
C  35.81400 2.58100 25.28500
C  34.27500 3.06200 25.23300
C  34.10600 3.38800 26.65900
C  36.72700 3.42700 24.29800
C  33.36400 1.91600 24.68700
C  32.35700 2.45800 23.66100
N  33.16300 3.88600 29.55700
C  32.33300 3.92500 28.51900
C  30.99100 4.18400 28.90700
C  31.10600 4.23900 30.36000
C  32.45100 4.03300 30.73900
C  29.75600 4.28500 28.04400
C  30.34500 4.22900 31.58500
O  29.12600 4.17100 31.68900
C  31.40100 4.16800 32.80200
C  31.42000 5.47800 33.62300
O  31.72300 6.58000 33.22300
O  31.02000 5.18500 34.91100
C  31.20600 6.15600 36.03000
H  38.33700 3.86100 32.76700
H  38.18300 2.05900 26.50600
H  32.17200 3.72900 26.28200
H  33.97100 4.66500 34.67500
H  36.67400 3.51000 34.50300
H  36.60700 5.73900 35.42000
H  35.84000 6.32400 33.92600
H  37.57600 5.87100 33.84600
H  35.18200 1.93900 34.34000
H  33.40200 2.25100 34.26400
H  34.74300 1.54400 36.47200
H  33.30000 2.56000 36.52900
H  40.35500 3.56200 32.21300
H  41.46600 2.79900 31.20200
H  40.10900 1.81900 31.95200
H  42.38100 2.63500 28.86500
H  42.67300 1.10500 27.97600
H  42.06900 1.15000 29.69100
H  35.82900 1.51200 25.07300
H  34.17900 4.05100 24.78400
H  37.48700 2.84700 23.77400
H  37.32200 4.16900 24.83200
H  36.24100 4.06400 23.55900
H  32.79300 1.54300 25.53800
H  33.89800 1.10000 24.20100
H  32.55600 3.46200 23.28800
H  31.33300 2.41000 24.03400
H  32.34600 1.73900 22.84200
H  28.89200 4.02600 28.65600
H  29.75400 3.38600 27.42800
H  29.64700 5.15900 27.40200
H  31.26000 3.30000 33.44700
H  30.25300 6.62900 36.26600
H  31.88500 7.00300 35.93000
H  31.55800 5.64000 36.92300

