158

Mg 26.13300 1.15300 28.93000
C  27.99400 1.06100 31.86100
C  23.29800 1.21300 30.87100
C  24.52800 1.56700 26.16400
C  29.00600 0.63800 27.11700
N  25.72300 1.08700 31.12900
C  26.68400 1.23100 32.11200
C  26.00400 1.39000 33.50400
C  24.48700 1.17700 33.19100
C  24.46400 1.14100 31.62600
C  23.88100 -0.08000 33.89400
C  26.32800 2.73500 34.20900
C  27.01500 2.56600 35.63300
H  26.60300 3.51700 36.71000
N  24.16400 1.25100 28.57300
C  23.12200 1.22900 29.48900
C  21.89700 1.43400 28.75200
C  22.25700 1.73700 27.42700
C  23.73200 1.47100 27.32200
C  20.55400 1.48300 29.40700
C  21.42700 2.41500 26.29500
O  21.87100 2.71400 25.23400
C  20.05700 2.75700 26.72200
N  26.67400 0.94800 26.90000
C  25.82500 1.42000 25.98500
C  26.47100 1.52600 24.58100
C  27.98300 1.32900 24.90400
C  27.93600 0.87100 26.36700
C  25.86700 0.48800 23.56400
C  28.76600 2.68400 24.92500
C  30.17900 2.61400 24.29500
N  28.11000 0.75600 29.35700
C  29.12000 0.50800 28.52800
C  30.36100 0.18400 29.28900
C  29.97700 0.54100 30.56700
C  28.57500 0.77700 30.58600
C  31.68300 -0.18000 28.76800
C  30.49500 0.58100 31.90500
O  31.61700 0.34300 32.34300
C  29.26500 0.99700 32.78400
C  29.16900 0.06500 33.91100
O  28.62800 -1.00200 33.97100
O  29.76200 0.67700 34.98300
C  29.88100 -0.11600 36.22400
H  22.41200 1.17800 31.50800
H  24.06800 1.84200 25.21300
H  29.99200 0.59300 26.65000
H  26.44900 0.61900 34.13200
H  23.98900 2.08400 33.53500
H  24.71500 -0.72500 34.17200
H  23.37100 -0.55800 33.05800
H  23.17900 0.13000 34.70100
H  25.46100 3.37000 34.39100
H  26.96700 3.30800 33.53700
H  28.05600 2.82600 35.44600
H  26.87200 1.54900 36.00100
H  19.87500 2.32500 29.27600
H  20.49900 1.27800 30.47700
H  20.03200 0.62900 28.97400
H  19.46900 3.18500 25.91000
H  20.14200 3.58500 27.42600
H  19.51000 1.88000 27.06900
H  26.16000 2.53000 24.29000
H  28.51600 0.61100 24.28100
H  25.21400 -0.24100 24.04200
H  26.71400 0.01600 23.06500
H  25.37800 1.01000 22.74100
H  28.82000 3.08700 25.93700
H  28.17600 3.42000 24.38100
H  30.71200 3.30000 24.95400
H  30.25500 3.01500 23.28500
H  30.51200 1.58300 24.41500
H  32.48900 0.47900 29.09200
H  31.78100 -0.18900 27.68300
H  31.90700 -1.17500 29.15300
H  29.41700 1.94200 33.30500
H  30.41300 -1.05600 36.07900
H  28.85600 -0.36200 36.49900
H  30.45100 0.30300 37.05300
Mg 47.67000 34.79400 26.81200
C  45.97800 33.15000 29.22100
C  47.93000 37.64000 28.71600
C  49.22300 36.52600 24.12400
C  47.07000 32.12300 24.59700
N  46.89900 35.36400 28.69900
C  46.51300 34.43000 29.63500
C  46.63500 35.02500 31.00300
C  46.74000 36.62200 30.69500
C  47.29300 36.51100 29.30900
C  45.36000 37.34500 30.68300
C  47.74400 34.49100 31.85500
C  47.77900 34.85000 33.37100
H  46.66700 35.57900 34.07200
N  48.21400 36.86700 26.41700
C  48.44800 37.79100 27.36100
C  49.01300 39.02400 26.89300
C  49.48200 38.66500 25.56800
C  48.97600 37.31800 25.25700
C  49.15700 40.31500 27.61900
C  50.29900 39.56300 24.56800
O  50.54900 39.24100 23.39200
C  50.84500 40.95300 25.04500
N  48.02400 34.36600 24.61400
C  48.68200 35.21100 23.77800
C  48.97000 34.50200 22.41900
C  48.42300 33.01500 22.63700
C  47.84600 33.11300 24.07400
C  48.35800 35.21900 21.14400
C  49.57000 31.95300 22.60600
C  49.82800 31.14100 21.28500
N  46.79100 32.89300 26.82600
C  46.47000 31.98200 25.89300
C  45.58400 30.96900 26.45100
C  45.38100 31.32300 27.76200
C  46.14000 32.51000 27.96700
C  45.05200 29.76800 25.85500
C  44.75100 31.01300 29.07100
O  44.10900 30.04200 29.50300
C  44.91500 32.31100 29.90100
C  45.36200 31.96300 31.30300
O  46.45500 31.48700 31.56300
O  44.27100 32.18400 32.17200
C  44.53900 31.53500 33.50500
H  48.14400 38.38000 29.49100
H  50.01000 36.90700 23.46900
H  46.86800 31.28700 23.92400
H  45.72000 34.88400 31.57800
H  47.38900 37.21400 31.34100
H  44.88300 37.25800 29.70700
H  45.56000 38.40600 30.83200
H  44.61700 36.99700 31.40100
H  48.58700 34.96900 31.35600
H  47.98600 33.45200 31.63400
H  48.66400 35.46900 33.52000
H  47.86900 33.95300 33.98300
H  48.43100 40.24500 28.42900
H  48.90700 41.13300 26.94400
H  50.12800 40.46700 28.09100
H  49.95200 41.57500 25.10200
H  51.52000 41.44100 24.34100
H  51.41400 40.76700 25.95600
H  50.05200 34.41900 22.31100
H  47.54400 32.81700 22.02400
H  47.42700 34.70900 20.89800
H  48.94600 34.99100 20.25500
H  48.05000 36.21100 21.47600
H  49.31600 31.17900 23.33000
H  50.45600 32.45900 22.98900
H  49.27400 31.44700 20.39700
H  49.57400 30.10700 21.51900
H  50.89100 31.30900 21.11200
H  44.70200 30.06300 24.86600
H  44.17700 29.42800 26.40700
H  45.77900 28.96100 25.94100
H  43.96300 32.82800 30.02800
H  43.56000 31.35600 33.95000
H  45.17600 32.24500 34.03200
H  45.01900 30.57600 33.31200

