158

Mg 30.97600 57.60100 39.01800
C  28.37600 55.59900 38.12600
C  33.21300 55.12900 38.25100
C  33.69100 59.80800 39.59500
C  28.83800 60.14300 39.98000
N  30.80200 55.71400 38.01700
C  29.59100 54.99600 37.92900
C  29.80900 53.52400 37.55600
C  31.38800 53.34100 37.78200
C  31.83800 54.83400 38.02400
C  31.94500 52.21700 38.73400
C  29.30800 52.99000 36.18400
C  29.67200 53.73100 34.87300
H  28.60600 54.35600 34.09100
N  33.18100 57.45600 38.89200
C  33.86300 56.36500 38.52900
C  35.25800 56.61900 38.60900
C  35.43500 57.94900 38.97900
C  34.08600 58.48800 39.14200
C  36.29600 55.67500 38.14000
C  36.78700 58.63500 39.06300
O  37.81900 58.04000 38.73200
C  36.85400 60.09600 39.42300
N  31.25900 59.67300 39.53300
C  32.38900 60.37400 39.74400
C  32.20600 61.81700 40.18900
C  30.62400 61.81000 40.54400
C  30.17000 60.49800 39.97100
C  33.09100 62.24200 41.41600
C  29.88300 63.16400 40.11300
C  29.14900 63.83300 41.26200
N  29.05700 57.89900 39.04800
C  28.24700 58.93400 39.53300
C  26.85200 58.51000 39.44800
C  26.83600 57.29700 38.85100
C  28.18800 56.87900 38.65500
C  25.65500 59.31500 39.72800
C  26.00700 56.26500 38.23700
O  24.80000 56.27000 38.08800
C  27.00000 55.10600 37.85500
C  26.68600 54.01500 38.78100
O  27.16300 53.82500 39.90800
O  25.55800 53.37000 38.25400
C  24.76100 52.46600 39.13400
H  33.93100 54.30800 38.18700
H  34.50300 60.46500 39.91500
H  28.11100 60.82300 40.43000
H  29.31400 52.97100 38.35500
H  31.83900 52.95600 36.86800
H  31.15000 51.47300 38.78700
H  32.37200 52.59600 39.66200
H  32.74000 51.67400 38.22400
H  28.22500 53.03200 36.30100
H  29.54600 51.93200 36.06700
H  30.09800 52.99300 34.19400
H  30.44300 54.46100 35.11900
H  36.62800 56.03300 37.16600
H  35.96000 54.64200 38.04600
H  37.09900 55.75800 38.87300
H  37.83200 60.48700 39.14400
H  36.61500 60.18700 40.48300
H  36.16400 60.65200 38.78800
H  32.33200 62.47300 39.32800
H  30.63100 61.63900 41.62000
H  32.58100 62.97800 42.03800
H  33.97300 62.79900 41.10000
H  33.21900 61.35600 42.03800
H  29.12400 63.02900 39.34300
H  30.60200 63.78700 39.58100
H  29.95900 64.10600 41.93800
H  28.40700 63.11400 41.60700
H  28.73000 64.79300 40.95800
H  24.76100 58.94500 39.22600
H  25.86800 60.31100 39.34000
H  25.48200 59.28900 40.80400
H  26.80300 54.89000 36.80500
H  24.68300 51.56000 38.53400
H  23.78400 52.90100 39.34400
H  25.40400 52.18800 39.96900
Mg 1.56600 42.43800 25.82800
C  2.95000 42.36800 29.03800
C  -1.41200 41.23700 27.15300
C  0.40900 41.73600 22.65100
C  4.71700 43.25100 24.62100
N  0.88300 41.79000 27.86400
C  1.59500 41.89400 29.03200
C  0.67800 41.74400 30.28200
C  -0.66900 41.28400 29.64100
C  -0.38100 41.50000 28.10200
C  -1.19000 39.93400 30.02700
C  0.49100 43.05500 31.07200
C  0.48700 42.89700 32.61000
H  -0.80200 42.27100 33.24400
N  -0.17600 41.49600 24.99100
C  -1.29300 41.21200 25.73900
C  -2.34500 40.79700 24.82100
C  -1.79400 40.76100 23.48300
C  -0.41900 41.25200 23.69800
C  -3.78700 40.53400 25.27400
C  -2.40800 40.18400 22.11800
O  -1.73600 40.24200 21.10600
C  -3.86400 39.64000 22.14600
N  2.41600 42.40500 23.98400
C  1.75200 42.17700 22.78900
C  2.69100 42.47100 21.61300
C  3.78800 43.33900 22.26100
C  3.64600 43.01000 23.73100
C  3.20600 41.10900 21.04600
C  3.56800 44.86900 22.10600
C  4.24100 45.64800 20.95000
N  3.47900 42.79900 26.62100
C  4.68100 43.12600 26.05600
C  5.71100 43.35100 27.03900
C  5.05500 43.06100 28.24200
C  3.71100 42.77400 27.91700
C  7.04600 43.83400 26.86900
C  5.29500 42.90400 29.63200
O  6.29000 42.89500 30.30100
C  3.94100 42.43800 30.23100
C  4.03900 41.11100 30.91100
O  4.13600 39.98200 30.45700
O  4.03000 41.36000 32.25000
C  3.99000 40.16500 33.22600
H  -2.42800 41.11900 27.53400
H  0.12800 41.61900 21.60300
H  5.62800 43.64300 24.16400
H  1.20800 41.06300 30.94800
H  -1.41200 42.04000 29.89200
H  -0.44600 39.32200 30.53700
H  -1.44700 39.39500 29.11500
H  -2.12000 40.16400 30.54700
H  -0.32800 43.69900 30.75200
H  1.37500 43.67900 30.94600
H  0.54700 43.92600 32.96300
H  1.33400 42.28200 32.91500
H  -3.91600 39.47800 25.03600
H  -4.47000 41.22600 24.78100
H  -4.02000 40.75800 26.31500
H  -3.81000 38.65800 22.61700
H  -4.13400 39.56600 21.09300
H  -4.55800 40.32600 22.63100
H  2.11000 43.01000 20.86500
H  4.82300 43.12600 21.99300
H  2.50300 40.30200 21.25400
H  4.17700 40.78100 21.41800
H  3.29200 41.22200 19.96600
H  3.87600 45.43300 22.98600
H  2.51600 45.15200 22.05700
H  3.50000 45.99400 20.23000
H  4.94400 45.01800 20.40500
H  4.81800 46.47700 21.35800
H  7.06900 44.89500 27.11700
H  7.49000 43.78100 25.87500
H  7.63600 43.33200 27.63700
H  3.51700 43.10800 30.97900
H  4.27800 39.20600 32.79600
H  2.92700 40.09100 33.45300
H  4.62400 40.26900 34.10600

