158

Mg 35.71500 0.34200 29.71800
C  33.59200 1.03700 32.51600
C  38.24600 0.10800 32.09400
C  37.73000 -0.06000 27.24800
C  32.96500 0.78200 27.63800
N  35.85900 0.61400 32.14100
C  34.87100 0.83500 32.99000
C  35.43700 0.87600 34.48300
C  36.94300 0.77100 34.30600
C  37.03000 0.45100 32.76900
C  37.78400 2.04000 34.61300
C  34.75300 -0.15600 35.39900
C  34.48000 0.20900 36.84800
H  35.07600 1.43000 37.56500
N  37.74400 0.01200 29.67400
C  38.60700 -0.01100 30.70600
C  39.90000 -0.48100 30.22500
C  39.74900 -0.43200 28.78600
C  38.39400 -0.15500 28.50800
C  41.02600 -0.74400 31.21600
C  40.77300 -0.74600 27.65700
O  40.69000 -0.67500 26.44300
C  42.11900 -1.11000 28.18700
N  35.37100 0.24100 27.77600
C  36.41700 0.11300 26.89400
C  35.91400 -0.00800 25.46800
C  34.39100 0.13400 25.61800
C  34.20700 0.40700 27.11600
C  36.53800 0.94900 24.42200
C  33.68400 -1.01700 25.08700
C  33.37000 -2.11900 26.15900
N  33.67100 0.91300 29.92300
C  32.71100 1.06600 29.00500
C  31.43800 1.37400 29.70200
C  31.81200 1.47800 31.05100
C  33.10600 1.01400 31.15400
C  30.20300 1.79900 29.04800
C  31.25100 1.83300 32.31500
O  30.13300 2.15800 32.55400
C  32.38600 1.47500 33.36500
C  32.66500 2.72500 34.11600
O  33.40900 3.67400 33.81800
O  31.91900 2.63500 35.28600
C  31.90100 3.93700 36.04000
H  39.13000 0.16300 32.73200
H  38.32900 -0.21000 26.34600
H  32.12600 0.75200 26.93900
H  35.25600 1.83300 34.97300
H  37.26800 -0.11900 34.84500
H  38.60000 2.13400 33.89700
H  38.34100 1.77500 35.51100
H  37.13900 2.91900 34.62700
H  35.29000 -1.09900 35.29900
H  33.78000 -0.26700 34.92100
H  34.90800 -0.58600 37.46000
H  33.42000 0.32500 37.07500
H  41.93800 -1.16500 30.79200
H  40.58500 -1.43800 31.93100
H  41.20700 0.18300 31.76000
H  42.14000 -2.04600 28.74600
H  42.37300 -0.24900 28.80500
H  42.83600 -1.11900 27.36600
H  36.10800 -1.04600 25.19800
H  34.04400 1.08900 25.22500
H  35.97100 1.87900 24.42200
H  36.67100 0.57500 23.40600
H  37.55300 1.17400 24.75200
H  34.16100 -1.46800 24.21700
H  32.78900 -0.56300 24.66200
H  33.94700 -2.18600 27.08200
H  33.71200 -2.97000 25.57100
H  32.30400 -2.21800 26.36300
H  29.82200 2.79000 29.29500
H  29.52600 0.96300 29.22400
H  30.35800 1.68100 27.97600
H  31.92700 0.67300 33.94400
H  32.78600 4.00200 36.67200
H  30.96300 3.98400 36.59300
H  31.95800 4.74500 35.31100
Mg 0.16500 43.17500 25.81200
C  2.65300 43.01300 28.23600
C  -2.02300 42.12900 27.99500
C  -2.05500 42.97900 23.25100
C  2.68900 43.38200 23.41100
N  0.34600 42.72500 27.88500
C  1.37400 42.90400 28.72200
C  1.00900 42.88200 30.14400
C  -0.41100 42.19300 30.08400
C  -0.74600 42.31300 28.60100
C  -0.46200 40.67700 30.46900
C  0.96500 44.28500 30.84500
C  0.91900 44.26900 32.42200
H  0.83400 42.91500 33.06200
N  -1.78000 42.69400 25.67500
C  -2.50600 42.28900 26.68400
C  -3.89300 41.98600 26.24300
C  -3.99400 42.36400 24.88200
C  -2.54900 42.67800 24.53200
C  -4.98600 41.48700 27.13200
C  -5.14000 42.25600 23.91000
O  -5.01600 42.48500 22.67500
C  -6.60200 41.86000 24.35800
N  0.35000 43.32100 23.60900
C  -0.74600 43.14900 22.79900
C  -0.44300 43.61400 21.37000
C  1.08300 43.67200 21.37900
C  1.44500 43.54500 22.87100
C  -1.06700 42.69400 20.25500
C  1.56500 45.02000 20.75000
C  1.60200 46.20100 21.72100
N  2.29400 43.14600 25.81900
C  3.14600 43.26600 24.77400
C  4.50400 43.21300 25.24900
C  4.41200 43.03900 26.64900
C  3.04400 43.06600 26.89500
C  5.76300 43.22200 24.38200
C  5.16600 42.87200 27.90700
O  6.36400 42.75900 28.17200
C  3.99300 42.88700 28.97400
C  4.08300 41.60400 29.74700
O  3.48800 40.55700 29.64000
O  5.05900 41.97900 30.67000
C  5.00300 41.12100 31.78600
H  -2.80500 41.73800 28.64900
H  -2.76700 43.06000 22.42700
H  3.46800 43.52400 22.65900
H  1.77000 42.20300 30.52900
H  -1.08900 42.80100 30.68200
H  0.38300 40.33800 31.06700
H  -0.53300 40.02000 29.60300
H  -1.40200 40.50000 30.99200
H  0.10600 44.79000 30.40300
H  1.83400 44.84400 30.49600
H  0.12900 44.88800 32.84900
H  1.87600 44.73700 32.65100
H  -5.76100 42.22600 27.33700
H  -4.65000 40.94800 28.01800
H  -5.56500 40.79000 26.52600
H  -6.94400 42.48900 25.18000
H  -6.47700 40.80700 24.61300
H  -7.28700 41.91500 23.51300
H  -0.86300 44.60900 21.22600
H  1.40500 42.71800 20.96100
H  -1.46000 41.73500 20.59400
H  -0.17200 42.40000 19.70500
H  -1.80400 43.13800 19.58600
H  0.93200 45.38000 19.93900
H  2.60700 44.96700 20.43300
H  2.65600 46.32200 21.97100
H  1.03000 45.94000 22.61100
H  1.15800 47.06200 21.22000
H  5.48300 43.30000 23.33100
H  6.31900 42.30800 24.59000
H  6.40200 44.05300 24.67900
H  4.27800 43.75600 29.56700
H  5.15900 40.08800 31.47500
H  3.97400 41.15300 32.14300
H  5.47800 41.48900 32.69600

