158

Mg 9.36300 4.93800 28.39300
C  10.75200 3.20900 31.11100
C  7.36700 6.59400 30.44200
C  8.10400 6.58900 25.75400
C  11.27400 2.97700 26.15100
N  9.32900 4.99000 30.62900
C  9.91200 4.18900 31.55700
C  9.40200 4.46500 32.96000
C  8.31700 5.59700 32.75800
C  8.26200 5.69000 31.17800
C  6.89200 5.33500 33.44500
C  10.60400 4.90300 33.82300
C  10.31500 5.88100 34.97500
H  11.01100 5.73600 36.34500
N  7.80100 6.34500 28.08700
C  7.12400 6.91000 29.08000
C  6.10600 7.76100 28.49000
C  6.42900 7.86700 27.07700
C  7.47400 6.90700 26.92200
C  5.09200 8.36400 29.41500
C  5.82700 8.71700 26.02300
O  6.22900 8.87800 24.91600
C  4.65900 9.51700 26.50900
N  9.45900 4.61300 26.18200
C  9.00500 5.61100 25.40900
C  9.35900 5.41300 23.97000
C  10.67600 4.49500 24.07600
C  10.48600 3.95300 25.54500
C  8.21300 4.98700 23.06100
C  11.99100 5.26000 23.80000
C  12.28000 6.48200 24.67400
N  10.61700 3.34200 28.55200
C  11.30700 2.62700 27.53900
C  12.06100 1.60800 28.17100
C  11.89600 1.83200 29.55500
C  11.04100 2.89900 29.71700
C  12.77200 0.37000 27.57000
C  12.24400 1.28500 30.83000
O  12.97800 0.30600 31.10100
C  11.51600 2.17500 31.95600
C  10.57900 1.23900 32.65300
O  9.85100 0.46300 32.01900
O  10.88900 1.11400 33.98200
C  10.04000 0.22100 34.66400
H  6.75600 7.28200 31.02900
H  7.92000 7.19900 24.86700
H  11.88700 2.40000 25.45500
H  9.02700 3.51300 33.33500
H  8.75100 6.53700 33.10000
H  6.15200 5.19400 32.65800
H  6.71000 6.20100 34.08200
H  6.97900 4.43300 34.05100
H  11.23200 5.46200 33.13000
H  11.12100 3.99900 34.14300
H  9.28300 6.09800 35.25000
H  10.64900 6.87600 34.68200
H  4.92700 7.80700 30.33700
H  4.12400 8.43000 28.91900
H  5.48100 9.33300 29.72800
H  4.31300 10.12400 25.67300
H  4.86700 10.27100 27.26900
H  3.85400 8.87900 26.87300
H  9.73400 6.39600 23.68600
H  10.60300 3.77200 23.26400
H  8.15100 3.98600 22.63300
H  8.18500 5.71400 22.24900
H  7.26100 5.05800 23.58600
H  11.91500 5.66500 22.79100
H  12.75500 4.48900 23.69900
H  11.48700 6.66300 25.40000
H  12.42100 7.31300 23.98300
H  13.22000 6.25700 25.17900
H  12.07800 -0.05200 26.84300
H  13.06800 -0.35000 28.33300
H  13.68200 0.65100 27.04200
H  12.25700 2.65600 32.59400
H  9.16500 0.63000 35.16800
H  10.62700 -0.19700 35.48200
H  9.82600 -0.63600 34.02600
Mg 6.00900 54.03200 40.49700
C  5.35700 50.48200 39.80100
C  9.23400 53.40500 39.51000
C  6.46100 57.30500 40.55100
C  2.52900 54.42600 40.82300
N  7.12000 52.12700 39.66200
C  6.66300 50.86700 39.50800
C  7.87300 49.87300 39.27000
C  9.08300 50.83000 39.61600
C  8.43900 52.20900 39.62700
C  9.79000 50.54900 40.92400
C  8.04800 49.13200 37.88600
C  8.01200 50.00400 36.54200
H  6.87600 49.77000 35.57900
N  7.74000 55.21800 40.10300
C  8.91100 54.80500 39.66200
C  9.72900 55.95700 39.49500
C  8.99200 57.08400 40.01600
C  7.67200 56.61500 40.26000
C  11.18600 55.78100 39.07900
C  9.53200 58.47200 40.21100
O  10.71800 58.74100 39.94600
C  8.72300 59.63700 40.67800
N  4.65400 55.61800 40.48100
C  5.12800 56.89100 40.66500
C  3.90800 57.84300 40.86500
C  2.68400 56.90800 40.94600
C  3.30500 55.55800 40.74300
C  4.03200 58.79700 42.13800
C  1.48200 57.22300 40.00900
C  0.28700 57.93000 40.59800
N  4.36100 52.77000 40.50000
C  3.01100 53.07200 40.76100
C  2.18300 51.89100 40.72400
C  3.12400 50.85700 40.45300
C  4.39100 51.39700 40.29800
C  0.70100 51.72400 40.88100
C  3.26600 49.49000 40.29800
O  2.45700 48.62000 40.45300
C  4.71700 49.14200 39.80600
C  4.50300 48.56500 38.42100
O  3.87500 49.09000 37.51300
O  4.87700 47.25100 38.49100
C  4.49900 46.45300 37.29600
H  10.20100 53.05800 39.14100
H  6.59000 58.38300 40.67200
H  1.48900 54.63300 41.08600
H  7.68400 49.17000 40.08100
H  9.73400 50.79300 38.74200
H  9.56100 51.30300 41.67700
H  10.87100 50.54100 40.78200
H  9.60000 49.53500 41.27500
H  7.33200 48.31200 37.93800
H  9.06100 48.73400 37.81300
H  8.95800 49.90700 36.00800
H  7.84600 51.01400 36.91800
H  11.49100 54.79500 39.43100
H  11.82100 56.34400 39.76300
H  11.40600 56.06900 38.05100
H  9.44000 60.45800 40.65800
H  8.40000 59.32700 41.67200
H  8.01000 59.69000 39.85500
H  3.70000 58.41400 39.96000
H  2.31000 56.88000 41.96900
H  3.04900 58.92800 42.59000
H  4.56700 59.65100 41.72100
H  4.65200 58.31600 42.89400
H  1.13600 56.28600 39.57400
H  1.74200 57.78700 39.11400
H  0.28600 58.88700 40.07600
H  0.48100 58.13100 41.65200
H  -0.70400 57.49300 40.48000
H  0.52800 50.94200 41.62000
H  0.24300 51.36600 39.95900
H  0.24600 52.65300 41.22500
H  5.15400 48.37500 40.44600
H  5.14400 45.57400 37.26500
H  4.56500 47.05500 36.38900
H  3.47800 46.09200 37.42200

