158

Mg 1.71900 -1.39800 44.35200
C  4.95300 -0.39200 43.70200
C  0.63300 1.55100 42.53500
C  -1.24300 -2.70400 43.96400
C  2.97900 -4.35600 45.70900
N  2.70900 0.32100 43.22500
C  4.05500 0.52300 43.11400
C  4.32500 1.73400 42.12400
C  2.97400 2.48900 42.18500
C  2.03700 1.43200 42.73700
C  3.09500 3.76900 43.10000
C  4.76700 1.28800 40.68600
C  5.97700 2.11500 40.13800
H  6.04800 2.60900 38.67300
N  -0.05700 -0.67500 43.44100
C  -0.34500 0.58100 42.87000
C  -1.81200 0.74200 42.67900
C  -2.30600 -0.60600 42.95100
C  -1.20000 -1.36700 43.46400
C  -2.34900 1.96400 41.98400
C  -3.83900 -0.92900 42.81700
O  -4.58100 -0.16100 42.25500
C  -4.41600 -2.31000 43.09700
N  0.99000 -3.33100 44.67600
C  -0.34200 -3.54500 44.59300
C  -0.75300 -4.87600 45.18900
C  0.56800 -5.38300 45.79400
C  1.61300 -4.29100 45.37700
C  -1.91700 -4.90000 46.15300
C  0.94600 -6.81100 45.41600
C  1.42600 -7.69500 46.62800
N  3.51500 -2.13000 44.85300
C  3.89000 -3.32400 45.34700
C  5.31700 -3.36900 45.64300
C  5.87600 -2.20600 44.93800
C  4.65600 -1.54200 44.50100
C  6.05200 -4.42600 46.43000
C  7.06400 -1.51700 44.55800
O  8.25400 -1.75200 44.64400
C  6.44500 -0.26500 43.70300
C  6.95700 1.01400 44.30200
O  6.37800 1.50200 45.23100
O  8.09100 1.47600 43.67500
C  8.52000 2.78700 44.02600
H  0.27200 2.50700 42.15000
H  -2.21600 -3.19700 43.91400
H  3.44600 -5.25900 46.10700
H  5.10300 2.31900 42.61500
H  2.60000 2.92800 41.25900
H  4.10700 3.97500 43.44800
H  2.48200 3.69000 43.99800
H  2.75400 4.66400 42.58100
H  3.96500 1.31800 39.94900
H  5.21400 0.31400 40.89000
H  6.90400 1.54700 40.21000
H  6.11100 2.94600 40.83000
H  -1.90800 2.84700 42.44600
H  -3.41600 2.03300 42.19200
H  -2.12400 2.01300 40.91900
H  -3.88000 -3.01300 42.46000
H  -5.45100 -2.30600 42.75700
H  -4.42400 -2.60300 44.14700
H  -1.11500 -5.44600 44.33300
H  0.45700 -5.26900 46.87300
H  -1.65100 -5.55100 46.98600
H  -2.79100 -5.23700 45.59700
H  -2.21000 -3.92800 46.55100
H  1.73100 -6.66400 44.67500
H  0.07200 -7.33500 45.03000
H  1.64400 -7.01600 47.45200
H  2.32100 -8.20200 46.26800
H  0.65100 -8.45700 46.70700
H  5.84300 -4.35300 47.49800
H  7.13200 -4.36300 46.29600
H  5.71300 -5.40600 46.09300
H  6.82800 -0.21000 42.68400
H  8.50800 2.99300 45.09600
H  8.06300 3.56200 43.41100
H  9.57900 2.85300 43.77400
Mg 6.61500 53.10800 40.88500
C  6.54700 49.59900 40.52100
C  9.89500 53.02300 40.28600
C  6.50700 56.46400 40.71500
C  2.97500 53.00300 41.00000
N  7.99500 51.48000 40.32000
C  7.82700 50.10000 40.27800
C  9.09500 49.36900 39.82900
C  10.19800 50.51000 40.01700
C  9.29700 51.77500 40.25200
C  11.20700 50.27600 41.18400
C  9.21000 48.80900 38.34900
C  8.89100 49.74900 37.19800
H  7.52100 49.52600 36.45300
N  8.13500 54.65700 40.63700
C  9.41100 54.39500 40.34000
C  10.12900 55.55600 40.10100
C  9.08900 56.66500 40.25500
C  7.83600 55.98000 40.59500
C  11.60000 55.56300 39.93000
C  9.35900 58.17400 40.11400
O  10.52600 58.46400 39.91900
C  8.31200 59.16800 40.25100
N  4.95100 54.49800 40.82600
C  5.25400 55.88000 40.82100
C  4.01900 56.67300 41.04800
C  2.94100 55.59900 40.98800
C  3.64700 54.29200 40.92100
C  4.10100 57.47800 42.40500
C  1.94900 55.67400 39.73900
C  1.46800 57.07300 39.28000
N  4.96500 51.63100 40.77400
C  3.60300 51.70800 40.95300
C  3.21000 50.40200 41.10000
C  4.28500 49.56800 40.97500
C  5.35300 50.29600 40.75100
C  1.71000 50.05700 41.45900
C  4.69700 48.20400 41.06800
O  4.05300 47.23500 41.29000
C  6.17500 48.18400 40.66200
C  6.14400 47.36000 39.43400
O  6.10300 47.79600 38.27600
O  6.05300 46.02600 39.80400
C  5.89100 45.14600 38.56900
H  10.98400 52.97500 40.22600
H  6.31000 57.53200 40.60200
H  1.88800 53.00900 41.10100
H  9.16900 48.52600 40.51700
H  10.78900 50.72900 39.12800
H  12.17300 50.38600 40.69200
H  11.07200 49.28900 41.62500
H  11.10100 51.14100 41.83900
H  8.68500 47.85800 38.26100
H  10.28400 48.70000 38.19400
H  9.60900 49.82400 36.38100
H  8.71200 50.78500 37.48800
H  12.08700 56.32500 40.53800
H  11.69700 55.91600 38.90300
H  12.13000 54.61500 39.83800
H  8.78800 60.12900 40.05800
H  7.74500 59.06900 41.17700
H  7.59400 59.12400 39.43200
H  3.82000 57.42500 40.28500
H  2.35900 55.58400 41.91000
H  3.45500 57.02900 43.16000
H  3.79300 58.50600 42.21500
H  5.12900 57.52600 42.76500
H  1.03800 55.09700 39.89800
H  2.60800 55.35100 38.93300
H  1.92400 57.25400 38.30700
H  1.55900 57.98700 39.86800
H  0.38000 57.01100 39.25400
H  1.23400 50.95700 41.84900
H  1.66200 49.21300 42.14700
H  1.21700 49.80400 40.52000
H  6.72800 47.69400 41.46300
H  6.53300 45.47900 37.75400
H  4.83100 45.12700 38.31600
H  6.28000 44.17500 38.87500

