158

Mg 41.08800 8.32600 28.92400
C  42.74100 9.81000 31.53900
C  38.87800 6.90700 31.26600
C  39.33700 7.06100 26.36200
C  43.40700 9.62600 26.76500
N  40.95900 8.34100 31.12100
C  41.69200 9.09400 31.99800
C  41.03700 9.10600 33.39500
C  39.87700 8.06800 33.25900
C  39.85800 7.82100 31.76400
C  40.02300 6.80800 34.15500
C  40.39700 10.44000 33.84600
C  39.72600 10.47700 35.17000
H  40.30200 11.40300 36.21000
N  39.44300 7.06200 28.87300
C  38.66100 6.61700 29.90200
C  37.54400 5.81400 29.35100
C  37.47400 6.09700 27.94500
C  38.80300 6.73900 27.63500
C  36.72300 4.87800 30.13700
C  36.34300 5.80300 26.88800
O  36.43700 6.06200 25.71900
C  35.03200 5.22900 27.40200
N  41.30700 8.41400 26.86600
C  40.46000 7.79400 26.01600
C  41.00400 7.92100 24.56900
C  42.10500 8.96900 24.66700
C  42.31400 9.03100 26.14600
C  41.43900 6.51100 24.04500
C  41.69100 10.39700 24.15500
C  40.50800 11.04400 24.95200
N  42.86000 9.43200 29.02700
C  43.71200 9.88800 28.10100
C  44.76200 10.60400 28.73400
C  44.42400 10.70800 30.06300
C  43.26000 9.92700 30.20700
C  45.97700 11.04400 28.05200
C  44.75500 11.28000 31.32000
O  45.69300 11.98200 31.54900
C  43.61900 10.80300 32.35800
C  44.30200 10.17400 33.59800
O  44.99500 9.21700 33.66100
O  43.75000 10.89900 34.65300
C  43.85000 10.24200 35.92500
H  38.16800 6.54800 32.01400
H  38.78100 6.70100 25.49500
H  44.17300 9.92100 26.04400
H  41.75700 8.71300 34.11300
H  38.96200 8.61900 33.47800
H  39.93400 5.95100 33.48700
H  39.26800 6.77100 34.94000
H  40.93500 6.86600 34.74900
H  39.71800 10.71300 33.03900
H  41.21700 11.15600 33.89800
H  39.56500 9.51100 35.64900
H  38.69700 10.77600 34.96900
H  37.10800 4.83400 31.15500
H  36.62100 3.91300 29.64100
H  35.71700 5.25000 30.32900
H  34.57300 5.88200 28.14400
H  35.15900 4.24600 27.85500
H  34.28300 5.13600 26.61500
H  40.18500 8.25600 23.93300
H  43.05300 8.61400 24.26300
H  40.52300 6.07200 23.65000
H  41.77700 5.86500 24.85600
H  42.12500 6.56800 23.20000
H  41.27100 10.25500 23.16000
H  42.48100 11.14700 24.17200
H  40.83100 11.20000 25.98200
H  39.64000 10.38700 24.99000
H  40.23700 12.00300 24.51000
H  45.87600 11.07300 26.96800
H  46.67600 10.22700 28.23500
H  46.32100 12.03800 28.33700
H  43.26500 11.77400 32.70200
H  43.06900 10.52900 36.62900
H  44.84400 10.29200 36.37000
H  43.55600 9.20000 35.80100
Mg 8.66200 47.59100 24.65800
C  6.24200 48.19600 27.23900
C  11.07600 48.72100 26.75200
C  10.81000 47.50500 22.08200
C  5.96700 47.35700 22.41000
N  8.63100 48.60700 26.68700
C  7.57000 48.41800 27.60000
C  8.00000 48.61500 29.03400
C  9.48200 49.20100 28.78900
C  9.82100 48.75100 27.35200
C  9.48800 50.77700 28.94600
C  8.10300 47.35300 29.89500
C  8.22000 47.56700 31.44300
H  7.58700 46.42300 32.18100
N  10.61800 47.85400 24.51500
C  11.46900 48.31000 25.49300
C  12.76600 48.25100 24.96800
C  12.75800 47.73800 23.61400
C  11.32500 47.65500 23.37700
C  14.05000 48.53500 25.86200
C  13.83000 47.45200 22.66400
O  13.68200 47.14300 21.48500
C  15.30200 47.63000 23.12500
N  8.36400 47.58700 22.53800
C  9.46300 47.53600 21.70000
C  9.00300 47.53100 20.22300
C  7.48500 47.05300 20.34200
C  7.21800 47.43700 21.78400
C  9.18100 48.92200 19.57900
C  7.27000 45.55600 19.98400
C  5.96400 45.22200 19.24500
N  6.50600 47.69300 24.75300
C  5.58500 47.52600 23.78700
C  4.25600 47.48500 24.42300
C  4.48000 47.74200 25.73600
C  5.84900 47.92600 25.91800
C  2.96900 47.30600 23.69200
C  3.77100 47.91600 27.01100
O  2.58100 47.81700 27.30100
C  4.87600 48.29600 28.03700
C  4.66700 47.39500 29.17800
O  4.77200 46.18800 29.17700
O  4.41900 48.16400 30.29700
C  4.12900 47.47000 31.54500
H  11.88800 49.10800 27.37300
H  11.46200 47.35800 21.21800
H  5.08300 47.04400 21.85200
H  7.36800 49.33500 29.55400
H  10.20300 48.79000 29.49600
H  9.60200 51.01800 30.00200
H  8.60800 51.18800 28.45000
H  10.34800 51.06600 28.34200
H  8.92900 46.71600 29.57800
H  7.25600 46.70600 29.66800
H  7.81000 48.52900 31.75100
H  9.28100 47.55000 31.69400
H  13.83300 49.02800 26.81000
H  14.69200 49.29900 25.42500
H  14.59700 47.61700 26.07700
H  15.57500 47.04600 24.00400
H  15.54200 48.69000 23.20200
H  15.98700 47.18200 22.40500
H  9.46900 46.74800 19.62600
H  6.93800 47.63100 19.59700
H  9.52700 49.63300 20.32900
H  8.26400 49.23700 19.08100
H  9.90700 48.73300 18.78900
H  7.18400 44.98900 20.91100
H  8.19000 45.21500 19.50800
H  5.39900 44.31900 19.47500
H  6.08900 45.19500 18.16200
H  5.30000 46.06400 19.44400
H  2.42400 46.60000 24.31800
H  3.18600 46.97300 22.67700
H  2.47300 48.27200 23.59600
H  4.68900 49.34400 28.27200
H  4.95200 47.83400 32.16000
H  4.13000 46.38400 31.46000
H  3.24600 47.91200 32.00800

