158

Mg -1.45200 18.21200 27.34400
C  -2.39700 15.93700 29.90000
C  -1.79900 20.76000 29.39900
C  -0.49300 20.18000 24.72700
C  -1.72200 15.46900 24.99900
N  -1.88300 18.24400 29.40500
C  -2.18900 17.25700 30.35000
C  -2.32700 17.78300 31.76400
C  -2.33400 19.38200 31.48600
C  -1.93800 19.50900 30.02200
C  -3.61500 20.21700 31.97200
C  -1.06300 17.36800 32.67100
C  -1.45900 16.52500 33.83800
H  -0.92000 16.65100 35.28900
N  -1.05200 20.16700 27.19000
C  -1.32500 21.06800 28.12100
C  -0.89100 22.43700 27.62100
C  -0.30700 22.16700 26.32400
C  -0.55300 20.80400 25.99800
C  -1.06400 23.71000 28.41800
C  0.15300 23.11400 25.29600
O  0.79100 22.88600 24.29000
C  0.09600 24.57000 25.67000
N  -1.42400 17.94900 25.04300
C  -0.83300 18.94100 24.25600
C  -0.59700 18.46700 22.80200
C  -0.95100 16.86400 22.93000
C  -1.32300 16.69300 24.42700
C  -1.33800 19.38300 21.82100
C  0.16200 15.87100 22.59400
C  1.49800 16.09600 23.39000
N  -2.03700 16.13800 27.32800
C  -2.01700 15.17500 26.33600
C  -2.34300 13.91700 26.93500
C  -2.59600 14.14000 28.30000
C  -2.28200 15.50800 28.50700
C  -2.51900 12.62200 26.11400
C  -3.05400 13.59900 29.51900
O  -3.55600 12.56100 29.83700
C  -2.95300 14.70300 30.66000
C  -2.05600 14.06600 31.54500
O  -0.84700 14.00100 31.47800
O  -2.84800 13.49200 32.51800
C  -2.23700 12.61900 33.53700
H  -1.90000 21.67200 29.99000
H  -0.06900 20.71700 23.87600
H  -1.86000 14.65500 24.28500
H  -3.27400 17.42700 32.17000
H  -1.47200 19.79900 32.00700
H  -4.15700 20.68700 31.15200
H  -3.24800 21.00500 32.63000
H  -4.30400 19.62400 32.57400
H  -0.53200 18.18600 33.15900
H  -0.31600 16.82000 32.09500
H  -1.12500 15.54500 33.49600
H  -2.54200 16.56200 33.95900
H  -0.18400 24.05300 28.96100
H  -1.83000 23.61900 29.18800
H  -1.41500 24.49000 27.74200
H  0.70700 24.73600 26.55700
H  -0.97300 24.78400 25.69700
H  0.72700 25.18600 25.03000
H  0.45000 18.54800 22.51000
H  -1.88900 16.73500 22.39000
H  -1.97900 20.08400 22.35700
H  -1.96800 18.83900 21.11700
H  -0.64800 19.96200 21.20700
H  0.34600 16.12100 21.55000
H  -0.18900 14.85900 22.79500
H  2.15100 15.22300 23.41500
H  1.26500 16.38300 24.41500
H  2.07500 16.90300 22.93800
H  -1.67300 12.50600 25.43600
H  -3.46400 12.45900 25.59600
H  -2.27600 11.76700 26.74400
H  -3.96200 14.89600 31.02500
H  -2.97600 11.95900 33.98900
H  -1.76300 13.26200 34.27900
H  -1.42400 12.04000 33.09800
Mg 1.46100 42.81000 26.13300
C  2.99300 42.74900 29.28700
C  -1.46600 41.70100 27.59200
C  0.12600 42.45100 23.01800
C  4.50100 43.57000 24.68100
N  0.90800 42.17400 28.22600
C  1.61100 42.43100 29.32700
C  0.76800 42.29000 30.61900
C  -0.61400 41.58900 29.99200
C  -0.44800 41.93700 28.48300
C  -0.76700 40.12200 30.31200
C  0.52300 43.58900 31.34800
C  0.88600 43.50000 32.89000
H  -0.09400 42.80800 33.87500
N  -0.45000 42.27700 25.40900
C  -1.46500 41.81800 26.12800
C  -2.57800 41.54200 25.29900
C  -2.19100 41.86500 23.97300
C  -0.77500 42.22800 24.10900
C  -3.85500 41.01300 25.88100
C  -3.00900 41.85700 22.69200
O  -2.58800 42.34000 21.66200
C  -4.45900 41.54800 22.68600
N  2.18500 43.04700 24.20200
C  1.49200 42.65300 23.06600
C  2.38700 42.75300 21.81200
C  3.75500 43.36900 22.30300
C  3.48600 43.31900 23.80400
C  2.67000 41.46600 21.08300
C  3.92500 44.78500 21.89400
C  2.82600 45.81800 22.15900
N  3.39800 43.16900 26.80600
C  4.54100 43.49200 26.13100
C  5.62400 43.64700 27.02500
C  5.06400 43.25200 28.25300
C  3.71200 43.03900 28.07500
C  6.92000 44.26400 26.74100
C  5.34900 43.14500 29.64800
O  6.42100 43.35900 30.25500
C  4.07700 42.82100 30.40100
C  4.31200 41.60200 31.19900
O  4.43000 40.46400 30.79600
O  4.28000 42.01300 32.51800
C  4.34800 40.84000 33.42400
H  -2.42200 41.38800 28.01800
H  -0.22300 42.21600 22.01000
H  5.44000 43.70900 24.14200
H  1.38400 41.60900 31.20700
H  -1.54400 42.01300 30.37100
H  -0.10100 39.85200 31.13200
H  -0.46300 39.43200 29.52500
H  -1.81800 40.04500 30.58900
H  -0.50900 43.86700 31.13300
H  1.09300 44.39800 30.89300
H  1.12800 44.51500 33.20300
H  1.74100 42.82600 32.94600
H  -4.74400 41.33000 25.33600
H  -4.01100 41.42500 26.87700
H  -3.81100 39.93400 26.02600
H  -4.87400 41.54900 21.67800
H  -5.01300 42.32100 23.22000
H  -4.62900 40.59900 23.19400
H  1.85300 43.38600 21.10400
H  4.60000 42.69700 22.15200
H  1.98500 41.26900 20.25800
H  2.44500 40.59700 21.70200
H  3.69900 41.21800 20.82600
H  4.19600 44.83500 20.84000
H  4.77800 45.24400 22.39500
H  3.06800 46.45500 23.01000
H  1.97200 45.25900 22.54200
H  2.63200 46.40200 21.25900
H  7.67800 43.81100 27.38000
H  7.00900 45.33400 26.93000
H  7.18800 44.22000 25.68500
H  3.81300 43.62400 31.08900
H  5.17900 40.17700 33.18200
H  3.34000 40.47200 33.23300
H  4.53200 41.16700 34.44800

