158

Mg 47.38000 25.41700 29.02200
C  47.91000 28.00900 31.35200
C  46.00800 23.58000 31.51100
C  47.01600 23.10100 26.77700
C  48.94500 27.51600 26.53300
N  47.01500 25.73700 31.20200
C  47.35000 26.88500 31.96500
C  46.83100 26.76800 33.38300
C  46.42500 25.28100 33.44700
C  46.47800 24.81400 31.96600
C  47.16900 24.38500 34.48500
C  45.72600 27.85400 33.81900
C  45.89900 28.33500 35.30400
H  46.73100 27.49400 36.31500
N  46.58100 23.61800 29.11600
C  46.10000 23.00100 30.26100
C  45.65900 21.66800 29.92000
C  45.95300 21.45300 28.49400
C  46.57800 22.70300 28.09700
C  44.96700 20.71800 30.91200
C  45.75500 20.27400 27.62200
O  46.24800 20.19200 26.50000
C  44.94600 19.13900 28.15800
N  47.77300 25.41100 26.85500
C  47.53100 24.24800 26.14900
C  48.02000 24.26700 24.64800
C  48.42400 25.85300 24.63800
C  48.40000 26.32400 26.04400
C  49.22600 23.30000 24.43500
C  47.60300 26.72100 23.62500
C  48.45600 27.40900 22.57500
N  48.23600 27.41400 28.82900
C  48.82600 28.13400 27.80300
C  49.18600 29.50400 28.25600
C  48.75700 29.52000 29.63300
C  48.25000 28.19900 29.96200
C  49.97100 30.67100 27.49900
C  48.68700 30.30600 30.85500
O  49.07200 31.45300 31.08900
C  48.34300 29.29700 32.06100
C  49.67600 29.12000 32.74800
O  50.70000 28.91000 32.15100
O  49.45300 29.05700 34.13000
C  50.55900 28.70900 34.88600
H  45.61000 22.94400 32.30500
H  46.91300 22.30900 26.03200
H  49.14700 28.23700 25.73800
H  47.73100 27.02800 33.94000
H  45.36600 25.33600 33.70000
H  46.42200 23.90800 35.12000
H  47.91500 24.96600 35.02700
H  47.69000 23.56400 33.99400
H  44.72000 27.48000 33.62600
H  45.76700 28.76600 33.22400
H  44.90600 28.29000 35.75100
H  46.30600 29.34300 35.22200
H  43.90900 20.58300 30.68500
H  44.90600 21.09600 31.93200
H  45.43300 19.73400 30.87900
H  45.27500 18.80800 29.14300
H  45.07700 18.24400 27.55000
H  43.89300 19.40800 28.23800
H  47.19400 24.11400 23.95400
H  49.49400 25.93400 24.45100
H  49.28600 22.66200 25.31600
H  50.14400 23.88600 24.48600
H  49.15000 22.76800 23.48600
H  47.16100 27.54000 24.19300
H  46.88500 25.97600 23.28100
H  49.51300 27.14100 22.56700
H  48.46200 28.48700 22.73000
H  48.19400 27.18500 21.54000
H  49.49100 31.56500 27.89700
H  49.94300 30.52400 26.41900
H  50.98600 30.86100 27.84700
H  47.62700 29.76200 32.73900
H  50.97600 29.63200 35.29000
H  51.42000 28.26100 34.39100
H  50.31500 27.99100 35.66800
Mg 7.62200 53.61700 41.60900
C  7.15000 50.01700 41.25400
C  10.70000 53.31500 40.45300
C  7.44000 56.87000 41.31500
C  3.88300 53.61500 42.07100
N  8.72000 51.86900 41.11100
C  8.40700 50.55000 40.84900
C  9.43500 49.83700 39.93700
C  10.66800 50.69200 40.23000
C  9.99400 52.08400 40.62700
C  11.49700 50.13400 41.46000
C  8.95700 49.79000 38.41200
C  9.45800 48.53800 37.66100
H  8.61700 47.88800 36.63700
N  8.92500 54.90500 41.00300
C  10.19900 54.62200 40.63500
C  10.90300 55.81400 40.38900
C  9.98300 56.81900 40.58100
C  8.69800 56.25800 40.99100
C  12.36600 55.91700 40.01200
C  10.35000 58.30300 40.55200
O  11.44900 58.59000 40.03400
C  9.51200 59.49000 40.96600
N  5.88300 54.96100 41.54100
C  6.14000 56.29200 41.54200
C  4.76500 57.11300 41.61800
C  3.70200 56.07800 41.74400
C  4.51400 54.81400 41.77200
C  4.60700 58.32700 42.61900
C  2.56800 56.11600 40.56700
C  2.77600 55.21400 39.37800
N  5.90800 52.22600 41.87000
C  4.51900 52.38500 42.06700
C  3.86800 51.10000 42.16800
C  4.93600 50.16700 41.94000
C  6.09700 50.90000 41.66700
C  2.45600 50.83800 42.40800
C  5.26200 48.78100 42.00800
O  4.52100 47.81200 42.32600
C  6.73300 48.59900 41.49600
C  6.82700 47.77200 40.25800
O  6.24400 47.94600 39.23300
O  7.61700 46.66400 40.48400
C  7.39300 45.54600 39.51400
H  11.72700 53.30600 40.08200
H  7.33400 57.95700 41.31600
H  2.80000 53.71100 42.17900
H  9.52000 48.81900 40.31800
H  11.27700 50.80300 39.33300
H  12.50300 50.52800 41.31900
H  11.53800 49.04700 41.38600
H  11.08100 50.58200 42.36200
H  9.42100 50.67900 37.98500
H  7.90100 49.84100 38.14800
H  9.71700 47.79600 38.41600
H  10.37000 48.84300 37.14800
H  12.77900 54.91800 39.86800
H  12.93700 56.34700 40.83400
H  12.49500 56.30000 38.99900
H  9.20900 59.39000 42.00800
H  8.62100 59.62900 40.35300
H  10.11700 60.38300 40.80800
H  4.76900 57.48600 40.59400
H  3.33000 56.33000 42.73700
H  5.32000 58.35000 43.44300
H  3.63400 58.37600 43.10800
H  4.79400 59.24500 42.06300
H  2.44700 57.13400 40.19600
H  1.64700 55.85000 41.08600
H  3.77400 54.77800 39.40100
H  2.79500 55.89000 38.52300
H  2.03400 54.44700 39.15600
H  1.89700 51.09300 41.50800
H  2.13400 51.56700 43.15200
H  2.17900 49.88000 42.84800
H  7.35700 48.09900 42.23700
H  8.25600 45.52300 38.84800
H  6.54600 45.54700 38.82800
H  7.42300 44.54200 39.93700

