158

Mg 43.13900 41.75700 26.89600
C  42.24900 44.11500 29.35700
C  44.14100 39.60600 29.15200
C  44.19000 39.85300 24.28100
C  42.56000 44.42600 24.48600
N  43.41500 41.94900 29.05200
C  42.74400 42.85600 29.89600
C  42.73800 42.36900 31.35300
C  43.45000 40.95600 31.26300
C  43.66200 40.80900 29.75900
C  44.73100 40.81800 32.00500
C  41.25400 42.39100 31.90000
C  40.95100 43.35800 33.11500
H  40.17500 42.69600 34.28600
N  44.06500 39.99200 26.69900
C  44.35400 39.19700 27.80300
C  44.94800 37.97500 27.27900
C  44.94300 37.98800 25.83300
C  44.44200 39.36100 25.55300
C  45.45600 36.89900 28.11800
C  45.34000 36.90500 24.76400
O  45.48800 37.18500 23.62400
C  45.57400 35.53500 25.25300
N  43.51900 42.22200 24.62400
C  43.73200 41.09200 23.83300
C  43.53800 41.49000 22.38000
C  43.02800 43.02000 22.44700
C  42.99800 43.23100 23.93200
C  44.68800 41.24500 21.44700
C  41.72100 43.36800 21.63700
C  40.38000 42.72100 22.04800
N  42.67800 43.81800 26.93800
C  42.43400 44.69600 25.88100
C  41.92900 45.94600 26.40400
C  41.88100 45.78200 27.77000
C  42.30700 44.51200 28.04300
C  41.58700 47.19800 25.52100
C  41.60200 46.47000 29.02800
O  41.27100 47.62200 29.18900
C  41.77900 45.34300 30.19700
C  42.86600 45.84500 31.09100
O  43.99700 46.09800 30.69800
O  42.41400 46.08600 32.33300
C  43.19500 46.67100 33.37400
H  44.29600 38.78600 29.85600
H  44.37900 39.21500 23.41500
H  42.31300 45.22400 23.78300
H  43.34400 43.03300 31.96900
H  42.80100 40.15100 31.60700
H  45.61000 40.81000 31.36000
H  44.72400 39.87200 32.54700
H  44.95500 41.61800 32.71200
H  41.01600 41.36700 32.18600
H  40.65100 42.67200 31.03600
H  40.26500 44.12600 32.75800
H  41.80200 43.96900 33.41600
H  45.90100 37.36900 28.99500
H  46.31000 36.46600 27.59700
H  44.62000 36.27700 28.43800
H  45.72200 34.87800 24.39600
H  44.75200 35.10500 25.82400
H  46.46700 35.43200 25.87000
H  42.70000 40.84900 22.10600
H  43.76400 43.66800 21.97000
H  45.63500 41.09600 21.96500
H  44.82800 42.10400 20.79100
H  44.42000 40.35100 20.88300
H  41.73600 42.91900 20.64400
H  41.56000 44.42900 21.45200
H  40.24700 41.72700 21.62200
H  39.59100 43.43900 21.82300
H  40.35600 42.53600 23.12200
H  40.63600 46.98000 25.03500
H  42.23100 47.43000 24.67200
H  41.44400 48.06300 26.16800
H  40.83900 45.07400 30.68000
H  43.64400 45.79300 33.83800
H  42.67200 47.14200 34.20600
H  43.88000 47.41200 32.96200
Mg 0.95700 42.20800 25.71600
C  1.82900 42.33400 29.15300
C  -2.13000 41.13500 26.56900
C  0.45500 41.65200 22.51100
C  4.32900 43.07900 24.96800
N  -0.02900 41.83200 27.64500
C  0.48300 41.95300 28.91500
C  -0.74600 41.88300 29.93500
C  -1.83000 41.07900 29.06100
C  -1.31100 41.39700 27.69900
C  -1.81800 39.52200 29.30700
C  -1.24200 43.25800 30.37100
C  -1.28000 43.35600 31.95100
H  -2.24000 42.35100 32.65900
N  -0.69800 41.62900 24.67300
C  -1.89400 41.18400 25.19200
C  -2.79200 40.82100 24.17300
C  -2.12600 40.83800 22.95500
C  -0.65900 41.38200 23.35800
C  -4.25000 40.36400 24.47500
C  -2.49500 40.43600 21.57600
O  -1.85500 40.68200 20.61500
C  -3.89700 39.87300 21.30100
N  2.22600 42.48100 23.94900
C  1.78800 42.07100 22.76100
C  2.93700 42.20100 21.71100
C  3.98400 43.03000 22.44800
C  3.48200 42.91700 23.86200
C  3.45600 40.85300 21.21200
C  4.15300 44.54800 22.02900
C  2.88900 45.38300 21.95700
N  2.72600 42.59700 26.77400
C  3.98400 42.90600 26.29100
C  4.90600 43.09000 27.45900
C  4.02200 42.80800 28.51900
C  2.77200 42.54100 28.11000
C  6.33700 43.52400 27.39900
C  4.03700 42.85400 29.99200
O  4.96500 43.25500 30.75600
C  2.55400 42.48300 30.43100
C  2.59200 41.25300 31.23900
O  3.34000 40.31500 31.08500
O  1.54900 41.25700 32.10000
C  1.36600 40.03900 32.86200
H  -3.10800 40.76200 26.88100
H  0.23800 41.25100 21.51900
H  5.33800 43.47400 24.82700
H  -0.58300 41.27500 30.82500
H  -2.83900 41.48300 29.14600
H  -1.02100 39.03600 28.74500
H  -2.76100 39.38200 28.78000
H  -1.92500 39.26200 30.36000
H  -2.27200 43.36300 30.02900
H  -0.63600 44.00800 29.86300
H  -1.63700 44.34500 32.23800
H  -0.37500 43.27400 32.55200
H  -4.32800 39.29900 24.25800
H  -4.91600 40.92700 23.82200
H  -4.61300 40.49400 25.49400
H  -4.17100 39.09800 22.01600
H  -3.83000 39.53400 20.26700
H  -4.57300 40.71300 21.46000
H  2.55000 42.84900 20.92400
H  4.93900 42.50600 22.44000
H  3.13900 40.06100 21.89000
H  4.54400 40.87300 21.15600
H  3.06400 40.56200 20.23700
H  4.71200 44.51000 21.09300
H  4.75800 45.08100 22.76200
H  2.94900 46.20800 22.66600
H  1.91100 44.93800 22.14200
H  2.88300 45.84000 20.96700
H  6.85900 42.81600 28.04300
H  6.31300 44.50600 27.87200
H  6.76500 43.51600 26.39600
H  2.10400 43.29900 30.99700
H  0.43100 40.00700 33.42100
H  2.15900 39.91400 33.60000
H  1.30500 39.12800 32.26700

