158

Mg 16.91500 -1.31800 27.47600
C  15.90500 0.79700 30.09900
C  18.93200 -2.93800 29.68200
C  18.12800 -3.13600 24.85600
C  15.13200 0.70400 25.28900
N  17.43200 -1.06300 29.65500
C  16.80200 -0.26500 30.50600
C  17.39300 -0.41700 31.96900
C  18.53900 -1.49400 31.76400
C  18.37900 -1.81300 30.26900
C  19.93900 -1.01200 32.11300
C  16.26100 -0.94100 32.97700
C  16.23200 -0.38500 34.33700
H  17.56400 0.08400 34.97700
N  18.25900 -2.86800 27.26900
C  18.97300 -3.39600 28.32400
C  19.61000 -4.60700 27.87600
C  19.27600 -4.77600 26.49500
C  18.53400 -3.57300 26.17700
C  20.49100 -5.47000 28.82200
C  19.74400 -5.83400 25.49200
O  19.44700 -5.79900 24.31500
C  20.60000 -7.08800 25.96000
N  16.70100 -1.18500 25.36300
C  17.28200 -2.09700 24.50700
C  17.19800 -1.54200 23.04200
C  16.06200 -0.40600 23.23600
C  15.87200 -0.28900 24.71900
C  18.53600 -1.08500 22.37900
C  14.68300 -0.67000 22.50700
C  13.96200 0.55100 21.79500
N  15.72300 0.38600 27.55800
C  15.00700 1.04700 26.63100
C  14.23800 2.16100 27.18100
C  14.52600 2.06300 28.59600
C  15.42500 0.97000 28.76700
C  13.47100 3.14400 26.36400
C  14.35300 2.70300 29.85600
O  13.71400 3.69100 30.23700
C  15.13100 1.84400 30.92900
C  15.92000 2.81000 31.66500
O  16.90300 3.35200 31.20700
O  15.50000 3.00500 32.93000
C  16.22300 3.80400 33.98100
H  19.60400 -3.42300 30.39400
H  18.56200 -3.66200 24.00200
H  14.63000 1.40600 24.62000
H  17.84600 0.53000 32.26300
H  18.34900 -2.34400 32.41900
H  19.98500 0.04200 32.38400
H  20.69200 -1.28000 31.37200
H  20.26900 -1.61400 32.96000
H  16.40900 -2.01300 33.10800
H  15.28700 -0.89900 32.49000
H  15.85800 -1.13600 35.03300
H  15.51100 0.43100 34.29500
H  20.06100 -6.46200 28.96600
H  20.81100 -4.91000 29.70100
H  21.36000 -5.66100 28.19200
H  21.57800 -6.64900 26.15900
H  20.77700 -7.78700 25.14200
H  20.25800 -7.63500 26.83800
H  16.83500 -2.36300 22.42400
H  16.29900 0.57400 22.82100
H  18.46800 -0.09200 21.93300
H  18.82500 -1.77000 21.58200
H  19.26600 -0.95400 23.17800
H  13.94300 -1.14700 23.15000
H  15.08200 -1.38000 21.78300
H  13.40600 0.23700 20.91100
H  14.63100 1.37300 21.54000
H  13.13700 0.91700 22.40500
H  13.69100 3.14100 25.29700
H  13.95500 4.07700 26.65400
H  12.39500 3.16800 26.53500
H  14.24000 1.54800 31.48300
H  17.06500 4.35100 33.55600
H  16.47500 3.16700 34.82900
H  15.55800 4.52000 34.46400
Mg 48.42900 14.23300 27.17400
C  46.59100 14.70500 30.09100
C  50.76200 16.30700 28.19000
C  49.85800 13.73700 24.18100
C  45.43900 12.51400 25.77000
N  48.55600 15.42200 28.93500
C  47.75600 15.44600 30.10200
C  48.41300 16.23100 31.25300
C  49.47800 17.02500 30.38200
C  49.68200 16.22100 29.07200
C  49.14400 18.50300 30.25400
C  49.09900 15.25500 32.20500
C  48.74900 15.36300 33.66000
H  49.82600 15.09100 34.73300
N  50.10900 14.80600 26.42500
C  51.01700 15.63100 27.01900
C  52.20900 15.57600 26.23400
C  51.98200 14.87600 25.04300
C  50.56200 14.37700 25.17100
C  53.44800 16.31000 26.78900
C  52.80300 14.64800 23.85200
O  52.53100 14.04500 22.81400
C  54.19600 15.26800 23.91800
N  47.75100 13.34000 25.19500
C  48.60800 13.19900 24.22600
C  47.98200 12.48600 22.99400
C  46.56600 12.05500 23.49900
C  46.57400 12.66100 24.90500
C  47.91200 13.46400 21.72900
C  46.20400 10.54000 23.40400
C  46.88700 9.51600 24.31800
N  46.46200 13.74400 27.75200
C  45.40900 12.95100 27.10400
C  44.41400 12.69700 28.09800
C  44.80700 13.40800 29.28000
C  46.04400 14.05100 29.02600
C  43.19900 11.81600 27.96300
C  44.41600 13.68500 30.67400
O  43.37700 13.38800 31.28800
C  45.58800 14.52500 31.14600
C  45.00500 15.84500 31.70400
O  44.03400 16.41400 31.25000
O  45.66400 16.17900 32.90400
C  44.93800 17.14200 33.76900
H  51.58700 16.98000 28.43100
H  50.24600 13.63200 23.16500
H  44.59600 11.90700 25.43400
H  47.71700 16.85500 31.81300
H  50.51200 16.95800 30.72300
H  48.68900 18.69700 29.28300
H  50.06500 19.08600 30.28400
H  48.45500 18.96000 30.96400
H  50.17500 15.38000 32.08400
H  48.92200 14.23700 31.85800
H  47.89000 14.77600 33.98600
H  48.39400 16.38200 33.81000
H  53.43800 16.33000 27.87900
H  53.43600 17.31400 26.36600
H  54.35900 15.81700 26.44900
H  54.92400 14.82900 24.60200
H  54.14100 16.34500 24.07800
H  54.62900 15.08500 22.93500
H  48.59300 11.60900 22.78200
H  45.82600 12.60500 22.91700
H  47.99800 14.52200 21.97500
H  46.97500 13.38900 21.17800
H  48.70800 13.24600 21.01700
H  46.40000 10.24500 22.37300
H  45.16800 10.29300 23.63300
H  47.52900 8.84700 23.74500
H  46.18800 9.03100 24.99900
H  47.54300 10.15800 24.90500
H  43.41700 10.76400 27.77600
H  42.69900 12.06900 27.02800
H  42.67700 11.91100 28.91500
H  45.95400 13.89900 31.95900
H  43.87600 17.30900 33.59100
H  45.43100 18.11400 33.76500
H  45.10800 16.76900 34.78000

