158

Mg 26.28600 -0.49800 30.26000
C  28.32600 -0.51100 32.95700
C  23.53400 0.00000 32.34500
C  24.36200 0.01100 27.53300
C  28.96600 -1.27700 28.11700
N  25.97000 -0.48700 32.46300
C  27.00100 -0.25300 33.30700
C  26.39800 0.04800 34.76600
C  24.85200 0.06300 34.52500
C  24.74700 -0.21600 33.03000
C  23.96600 -0.86800 35.41200
C  27.07500 1.31000 35.38000
C  27.68300 1.23000 36.75600
H  27.24300 2.18700 37.86600
N  24.27500 -0.05900 30.03900
C  23.29600 0.02700 30.94800
C  22.10200 0.37300 30.40200
C  22.22600 0.36500 28.98400
C  23.66900 0.06100 28.78000
C  20.76200 0.42300 31.19400
C  21.23900 0.65600 27.87200
O  21.47300 0.66000 26.66000
C  19.75500 0.92500 28.18100
N  26.63500 -0.67200 28.14500
C  25.63100 -0.34900 27.25300
C  26.16200 -0.28700 25.83300
C  27.61400 -0.86000 26.02100
C  27.80600 -0.83200 27.52700
C  25.33500 -1.01300 24.75900
C  28.69000 0.00900 25.24800
C  29.69000 -0.77100 24.32900
N  28.19200 -0.96900 30.41400
C  29.22100 -1.20300 29.46200
C  30.44300 -1.39600 30.16100
C  30.15900 -1.20100 31.47600
C  28.75500 -0.88600 31.59300
C  31.75600 -1.58300 29.42200
C  30.71900 -1.21100 32.80200
O  31.87600 -1.31900 33.16800
C  29.53500 -0.71600 33.84500
C  29.35400 -1.73900 34.88300
O  28.77800 -2.82700 34.73400
O  29.97500 -1.34200 35.96700
C  29.83300 -2.21900 37.12400
H  22.73900 0.14900 33.07900
H  23.70400 0.27000 26.70100
H  29.81400 -1.50400 27.46700
H  26.73700 -0.79000 35.37600
H  24.47100 1.08300 34.56600
H  22.89800 -0.69200 35.27800
H  24.27500 -0.64500 36.43300
H  24.20700 -1.89200 35.12600
H  26.41300 2.15500 35.19200
H  27.94300 1.43900 34.73300
H  28.73400 1.50100 36.65100
H  27.82700 0.21500 37.12700
H  20.11400 -0.37900 30.84100
H  20.34500 1.41700 31.02800
H  20.88500 0.24100 32.26200
H  19.69600 1.80800 28.81700
H  19.50800 0.07300 28.81500
H  19.23300 1.04700 27.23200
H  26.21900 0.75000 25.50000
H  27.67000 -1.93600 25.85300
H  24.34500 -1.22000 25.16500
H  25.71700 -2.02500 24.62600
H  25.31900 -0.45700 23.82200
H  29.32500 0.44900 26.01700
H  28.38300 0.81400 24.58000
H  30.51400 -1.02300 24.99700
H  30.12700 -0.17400 23.53000
H  29.30600 -1.70500 23.91800
H  32.43800 -1.30900 30.22600
H  31.83900 -0.99300 28.50900
H  31.85200 -2.64700 29.20700
H  29.85300 0.25300 34.23200
H  28.96800 -1.81300 37.64800
H  30.72600 -2.12100 37.74100
H  29.79900 -3.28400 36.89300
Mg -2.37600 34.13500 26.71600
C  -3.49700 32.38900 29.71600
C  -0.79600 36.32000 28.73400
C  -2.22200 36.12400 24.06000
C  -4.26700 31.75600 24.94400
N  -2.25900 34.36300 29.01000
C  -2.59000 33.46600 29.98000
C  -2.01100 33.86300 31.38200
C  -1.35800 35.23900 31.07600
C  -1.39700 35.29900 29.51400
C  -1.81100 36.52000 31.80600
C  -1.06700 32.79900 32.03800
C  -1.54000 32.23100 33.38400
H  -0.62400 32.41800 34.60300
N  -1.51200 35.92100 26.39900
C  -0.89400 36.63800 27.35100
C  -0.43200 37.86900 26.74800
C  -0.86200 37.94000 25.38600
C  -1.59500 36.62900 25.23000
C  0.44600 38.89700 27.46800
C  -0.59500 39.10600 24.33000
O  -1.05200 39.06200 23.17200
C  0.19100 40.33800 24.71700
N  -3.11400 33.95700 24.78600
C  -2.85800 34.91700 23.81700
C  -3.34500 34.49400 22.43900
C  -3.89700 33.02600 22.79200
C  -3.75800 32.86100 24.31000
C  -4.32500 35.52300 21.91200
C  -3.16400 31.83300 22.08300
C  -3.89000 31.08400 20.97900
N  -3.67500 32.46600 27.17300
C  -4.31900 31.55200 26.31100
C  -5.01900 30.52300 27.06600
C  -4.73500 30.81400 28.40700
C  -3.94200 32.00600 28.41500
C  -5.67100 29.31300 26.49500
C  -4.91200 30.35000 29.68100
O  -5.46600 29.36700 30.15500
C  -4.08200 31.30000 30.62500
C  -5.06600 31.79600 31.67700
O  -6.00300 32.58500 31.45200
O  -4.86700 31.23700 32.91000
C  -5.69700 31.60200 34.03800
H  -0.15600 36.93300 29.37100
H  -2.16400 36.89200 23.28700
H  -4.77800 30.96200 24.39600
H  -2.93200 34.05900 31.93100
H  -0.31200 35.20400 31.37900
H  -2.59400 36.17900 32.48400
H  -2.15300 37.20800 31.03300
H  -1.09200 37.02900 32.44800
H  -0.06300 33.17800 32.22800
H  -1.02200 32.02300 31.27400
H  -1.69900 31.15600 33.29900
H  -2.53600 32.65400 33.51800
H  1.50900 38.89000 27.22600
H  0.37000 38.82500 28.55300
H  0.02400 39.88600 27.28500
H  -0.42800 41.02500 25.29400
H  0.56100 40.71200 23.76200
H  1.05700 40.19000 25.36200
H  -2.51900 34.37800 21.73700
H  -4.97000 32.97800 22.61100
H  -5.33300 35.19300 22.16600
H  -4.15500 35.64600 20.84200
H  -4.18500 36.52500 22.31600
H  -3.04800 31.05200 22.83500
H  -2.15000 32.10400 21.79100
H  -4.20000 30.12800 21.40000
H  -3.18900 30.88700 20.16700
H  -4.80700 31.58300 20.66800
H  -5.38300 29.03000 25.48200
H  -6.74800 29.47000 26.44900
H  -5.46000 28.62500 27.31400
H  -3.25800 30.81200 31.14500
H  -5.23900 32.50000 34.45200
H  -5.68400 30.78300 34.75700
H  -6.71500 31.89600 33.78200

