158

Mg 40.54800 8.16800 29.49900
C  42.82400 9.63100 31.99000
C  38.67600 7.00600 32.03700
C  38.92400 6.33600 27.22900
C  43.13500 8.89200 27.11700
N  40.84900 8.24200 31.70300
C  41.65600 8.98900 32.50200
C  41.12900 9.08000 33.91300
C  39.89800 8.11100 33.89300
C  39.79800 7.69800 32.44000
C  39.80000 6.99300 34.88400
C  40.81800 10.55000 34.31400
C  39.79700 10.65800 35.49800
H  40.09000 11.82900 36.41300
N  38.85400 7.06100 29.60300
C  38.23600 6.64400 30.75800
C  37.08500 5.90300 30.41400
C  37.06200 5.75100 28.98800
C  38.29000 6.37900 28.53700
C  36.08400 5.49600 31.46200
C  36.17100 5.07400 28.08800
O  36.38200 4.96100 26.89200
C  34.92200 4.55500 28.58800
N  41.05300 7.60200 27.48800
C  40.18700 6.87600 26.70300
C  40.57600 6.87400 25.20800
C  41.65900 8.03100 25.20900
C  41.99300 8.24200 26.67000
C  41.07500 5.45300 24.70800
C  41.26600 9.40700 24.58800
C  40.09500 10.12700 25.15900
N  42.57600 8.99100 29.54900
C  43.39800 9.19900 28.41500
C  44.58200 9.90700 28.94900
C  44.41000 10.05000 30.35500
C  43.14600 9.57200 30.61600
C  45.81500 10.25100 28.15000
C  44.95200 10.66000 31.62900
O  45.91800 11.38200 31.80300
C  43.91600 10.40200 32.69500
C  44.41400 9.67300 33.83200
O  44.90800 8.58500 33.76600
O  44.08400 10.39600 34.92900
C  44.08200 9.66800 36.19400
H  38.09800 6.56600 32.85300
H  38.30700 5.78800 26.51400
H  43.89000 9.23300 26.40600
H  41.87200 8.80600 34.66200
H  38.97000 8.64100 34.11000
H  40.73500 6.97200 35.44400
H  39.66100 6.09300 34.28600
H  38.93900 6.99800 35.55200
H  40.29100 10.88100 33.42000
H  41.75400 11.09200 34.44600
H  39.58300 9.75900 36.07600
H  38.89000 10.89700 34.94200
H  35.03800 5.63300 31.19000
H  36.22500 5.85900 32.48000
H  36.29700 4.44000 31.62900
H  35.14100 3.79300 29.33600
H  34.35000 3.92400 27.90800
H  34.39500 5.38800 29.05100
H  39.75700 7.16100 24.54800
H  42.59600 7.73100 24.73900
H  42.16200 5.48700 24.62500
H  40.66800 4.99400 23.80700
H  40.90600 4.75700 25.53000
H  41.08600 9.26300 23.52300
H  42.11300 10.09000 24.52100
H  40.43700 11.14100 25.36600
H  39.84300 9.66100 26.11200
H  39.21200 10.10700 24.52100
H  46.68300 9.59700 28.22900
H  46.15800 11.04600 28.81300
H  45.74700 10.53600 27.10000
H  43.67100 11.41900 33.00100
H  44.91100 9.98600 36.82600
H  44.03400 8.58500 36.08200
H  43.09200 9.75200 36.64100
Mg 46.16700 24.99500 28.77400
C  47.11200 27.44100 31.28800
C  45.18100 22.89000 31.19500
C  46.08900 22.64400 26.46200
C  47.38900 27.28000 26.39800
N  46.25500 25.16300 30.99300
C  46.51900 26.25400 31.80900
C  45.92800 26.02400 33.23200
C  45.71000 24.41400 33.22400
C  45.68700 24.11700 31.69100
C  46.66700 23.35500 33.88400
C  44.65800 26.83700 33.57500
C  44.87900 27.92400 34.69500
H  43.93500 27.89000 35.88600
N  45.68200 23.09300 28.80200
C  45.15600 22.40200 29.88000
C  44.75200 21.11100 29.43100
C  45.03000 20.97200 28.04800
C  45.68900 22.24900 27.76300
C  44.23800 20.07600 30.52800
C  44.69700 19.85700 27.06500
O  45.08100 19.86400 25.86500
C  43.96900 18.62400 27.49300
N  46.47200 25.02900 26.68400
C  46.49700 23.88800 26.00000
C  46.96700 24.10700 24.51600
C  46.89100 25.68700 24.43100
C  46.88000 26.06200 25.91500
C  48.29500 23.47400 24.13000
C  45.64600 26.25500 23.68200
C  44.27100 25.91800 24.29600
N  47.11700 26.97100 28.75900
C  47.47400 27.76700 27.68800
C  48.08000 29.05300 28.20500
C  47.92000 28.97400 29.61200
C  47.34800 27.67200 29.91500
C  48.68500 30.08300 27.31300
C  48.09800 29.60900 30.90100
O  48.43700 30.76800 31.06700
C  47.59000 28.66600 31.98900
C  48.65600 28.31700 32.89000
O  49.48500 27.39900 32.65600
O  48.59000 29.02100 34.07400
C  49.62400 28.76100 35.04900
H  44.76600 22.17400 31.90700
H  46.12200 22.00100 25.58000
H  47.74400 28.06000 25.72200
H  46.68800 26.30600 33.96000
H  44.75800 24.15500 33.68800
H  46.98600 22.61500 33.14900
H  46.11600 22.80600 34.64700
H  47.55700 23.73800 34.38500
H  43.75900 26.28900 33.85500
H  44.39100 27.35900 32.65600
H  44.66700 28.85700 34.17200
H  45.90700 27.97800 35.05300
H  43.16500 20.08100 30.72300
H  44.80800 20.23900 31.44200
H  44.54300 19.09700 30.16000
H  43.30700 18.86900 28.32300
H  44.65700 17.81500 27.73900
H  43.37200 18.31000 26.63700
H  46.16600 23.69500 23.90300
H  47.79900 26.06400 23.96000
H  48.38000 22.58800 24.75800
H  49.08800 24.21100 24.25600
H  48.17600 23.11600 23.10700
H  45.69800 25.92500 22.64400
H  45.65900 27.33400 23.53100
H  43.63400 25.39300 23.58400
H  43.67600 26.80500 24.51500
H  44.26000 25.28600 25.18500
H  48.84700 29.70300 26.30400
H  49.59800 30.53700 27.69800
H  48.05100 30.96700 27.24400
H  46.74800 29.07500 32.54700
H  50.63400 28.58400 34.68100
H  49.37400 27.85500 35.60000
H  49.68500 29.62700 35.70900

