158

Mg 36.01000 49.06100 26.43200
C  36.28700 46.73800 29.04300
C  35.04600 51.45600 28.75500
C  35.11100 51.10900 23.96100
C  36.76500 46.53200 24.15900
N  35.46800 49.02700 28.62500
C  35.81800 47.99700 29.49500
C  35.81800 48.48900 30.89000
C  35.06200 49.84200 30.78600
C  35.24900 50.17200 29.33600
C  33.60100 49.74000 31.06700
C  37.35100 48.68200 31.45800
C  37.63800 47.96300 32.82400
H  37.22800 48.80800 34.06700
N  35.27100 50.99600 26.36200
C  35.02800 51.84400 27.46800
C  34.54700 53.20600 27.02000
C  34.68800 53.16200 25.59000
C  35.04200 51.74900 25.24500
C  34.22700 54.33800 28.06200
C  34.59800 54.25000 24.50700
O  35.00400 54.11900 23.32900
C  34.14300 55.61200 24.92200
N  35.96800 48.86400 24.31100
C  35.56100 49.87400 23.53600
C  35.67500 49.50200 22.05100
C  36.32200 47.99700 22.12500
C  36.50400 47.78800 23.59300
C  34.33800 49.59100 21.32800
C  37.54900 47.72900 21.24400
C  38.96400 47.55600 21.90100
N  36.28500 46.98000 26.52300
C  36.71000 46.12700 25.50400
C  36.88900 44.78100 26.05400
C  36.82100 45.01400 27.46400
C  36.39400 46.35200 27.65000
C  37.36400 43.53400 25.39100
C  36.93800 44.38000 28.70100
O  37.16700 43.25100 29.01300
C  36.72500 45.52300 29.78600
C  35.71800 45.12900 30.83600
O  34.51400 45.11600 30.65300
O  36.29200 44.68400 31.97900
C  35.31600 44.64400 33.09000
H  34.89000 52.31800 29.40700
H  34.85200 51.69500 23.07700
H  36.92400 45.66400 23.51500
H  35.35500 47.72700 31.51600
H  35.54000 50.54800 31.46400
H  33.12300 50.66800 31.38000
H  33.35700 48.95000 31.77700
H  33.05700 49.34000 30.21100
H  37.56200 49.74700 31.55500
H  38.01100 48.27200 30.69400
H  38.69500 47.69800 32.84600
H  37.05600 47.04100 32.84800
H  35.17800 54.39800 28.59100
H  33.48600 53.98200 28.77800
H  34.04100 55.36100 27.73400
H  34.91500 55.90500 25.63300
H  33.17800 55.50000 25.41700
H  34.11300 56.26800 24.05100
H  36.44200 50.14400 21.61900
H  35.56100 47.28600 21.80100
H  33.86900 48.61700 21.18900
H  34.40500 50.05100 20.34200
H  33.62700 50.23100 21.85100
H  37.68000 48.54300 20.53100
H  37.38000 46.78700 20.72200
H  39.65300 48.23900 21.40400
H  39.22400 46.51000 21.74400
H  39.07200 47.85100 22.94500
H  36.98700 42.67200 25.94100
H  38.42900 43.67400 25.20600
H  36.83000 43.45200 24.44500
H  37.64500 45.62900 30.35900
H  35.67500 43.95900 33.85700
H  34.33100 44.27900 32.79800
H  35.08100 45.59900 33.56000
Mg 6.46700 54.55900 40.43900
C  5.73700 51.09000 40.14600
C  9.66900 53.86900 39.96500
C  6.83300 57.59600 39.49400
C  2.98300 54.98500 40.90700
N  7.48200 52.75400 39.93200
C  7.04900 51.43400 39.92600
C  8.24200 50.42700 39.63100
C  9.38600 51.41100 40.05700
C  8.85200 52.77400 40.06200
C  9.98900 51.05900 41.48400
C  8.26700 49.95200 38.19300
C  8.01600 50.99300 37.09700
H  6.84100 50.65900 36.09800
N  8.15800 55.66500 39.99900
C  9.41900 55.26800 39.90400
C  10.28600 56.32800 39.64700
C  9.43800 57.50900 39.32400
C  8.05800 56.96500 39.56400
C  11.85600 56.26400 39.58900
C  9.90500 58.94400 38.98100
O  11.06900 59.25100 38.93900
C  8.97800 60.09600 38.95000
N  5.07400 56.06000 40.18000
C  5.52900 57.27000 39.81100
C  4.27400 58.27500 39.58900
C  3.09400 57.47400 40.17800
C  3.66400 56.07200 40.36200
C  4.51500 59.54500 40.49800
C  1.78800 57.47300 39.26900
C  0.43600 57.84900 39.84700
N  4.67900 53.30200 40.54600
C  3.43500 53.62500 40.92100
C  2.67600 52.47200 41.25200
C  3.53300 51.40300 40.84000
C  4.72800 51.98400 40.42600
C  1.23900 52.48100 41.65000
C  3.66500 49.91100 40.82100
O  2.96800 49.00600 41.28900
C  5.09900 49.73500 40.32800
C  5.02300 48.93500 38.99600
O  4.59800 49.45300 37.96000
O  5.37300 47.66500 39.20600
C  5.40000 46.89900 37.99000
H  10.71700 53.56800 40.02800
H  6.93000 58.60200 39.08000
H  1.97900 55.23900 41.25100
H  8.12300 49.60900 40.34200
H  10.27100 51.35100 39.42400
H  10.94700 50.58500 41.27400
H  9.35900 50.35100 42.02300
H  10.09700 51.89200 42.17900
H  7.58100 49.11500 38.06600
H  9.28500 49.65500 37.93900
H  8.91200 51.17300 36.50300
H  7.76400 51.93900 37.57600
H  12.25700 56.23100 38.57600
H  12.20400 55.40300 40.15800
H  12.36800 56.97000 40.24300
H  9.52200 60.99800 39.23100
H  8.19000 60.07100 39.70200
H  8.58200 60.14700 37.93600
H  4.22900 58.49100 38.52200
H  2.77700 57.83700 41.15600
H  4.16500 60.40600 39.92800
H  5.53200 59.60100 40.88600
H  3.93100 59.50900 41.41800
H  1.56100 56.43100 39.04100
H  1.92500 58.07500 38.37100
H  -0.38300 57.13200 39.79700
H  0.09100 58.66500 39.21200
H  0.61600 58.09200 40.89400
H  1.12000 53.32100 42.33400
H  0.90300 51.66100 42.28500
H  0.55600 52.64000 40.81600
H  5.59700 49.05300 41.01700
H  5.76500 47.49900 37.15800
H  4.36500 46.60100 37.82400
H  5.96700 45.97800 38.13300

