158

Mg 40.35500 9.45800 29.62700
C  41.96600 10.91800 32.44700
C  38.14600 7.97800 31.84000
C  38.93200 7.98900 26.92500
C  43.15200 10.30900 27.73500
N  40.12500 9.49900 31.89700
C  40.88700 10.14100 32.77200
C  40.41200 9.97400 34.19700
C  39.34300 8.81800 34.01900
C  39.18800 8.66900 32.48100
C  39.67800 7.50300 34.74800
C  39.91400 11.33300 34.79800
C  40.70400 11.75100 36.04800
H  39.93800 12.46400 37.10300
N  38.75800 8.17900 29.41300
C  37.95000 7.70900 30.42600
C  36.85600 7.02900 29.78100
C  36.99000 7.19700 28.33700
C  38.28100 7.80200 28.19500
C  35.72300 6.44900 30.57800
C  36.08000 6.76300 27.16200
O  36.22600 7.14700 25.96700
C  34.89600 5.94300 27.43400
N  41.01600 9.12900 27.65100
C  40.16400 8.61100 26.69800
C  40.56200 9.06500 25.28500
C  42.09200 9.48800 25.56400
C  42.14400 9.56700 27.08700
C  40.50600 7.98900 24.21400
C  42.36600 10.82400 24.83600
C  41.47400 12.08100 25.11000
N  42.18400 10.36700 29.94700
C  43.16300 10.72700 29.06500
C  44.24500 11.46900 29.74500
C  43.81600 11.56300 31.06400
C  42.52600 10.91300 31.11100
C  45.58400 11.89900 29.08700
C  44.08500 12.11700 32.36900
O  45.00000 12.80400 32.74800
C  42.93500 11.58600 33.34200
C  43.56600 10.76300 34.40000
O  43.77200 9.53500 34.25300
O  44.25600 11.53000 35.26000
C  44.86700 10.76900 36.38100
H  37.35700 7.66500 32.52600
H  38.42900 7.55500 26.05900
H  43.90300 10.76200 27.08400
H  41.24500 9.53900 34.74900
H  38.35000 9.05400 34.40300
H  39.78200 6.69200 34.02800
H  38.84000 7.31400 35.41900
H  40.65200 7.35100 35.21200
H  38.87400 11.18700 35.08900
H  40.06400 12.12000 34.05900
H  41.40500 12.47200 35.62800
H  41.37300 11.00000 36.46900
H  35.88200 5.37900 30.45000
H  34.77600 6.78000 30.15300
H  35.86800 6.65600 31.63800
H  34.28800 5.96700 26.53000
H  34.24800 6.37800 28.19500
H  35.18500 4.89900 27.55500
H  39.95400 9.88400 24.90200
H  42.68200 8.71400 25.07300
H  39.48200 7.70700 23.97100
H  41.08300 7.11600 24.52200
H  40.90600 8.32600 23.25800
H  42.16500 10.68300 23.77400
H  43.42200 11.09400 24.87000
H  41.28800 12.58600 24.16200
H  42.09400 12.74300 25.71500
H  40.51400 11.86200 25.57800
H  45.49300 12.44500 28.14800
H  46.17600 11.00100 28.90700
H  46.08700 12.46200 29.87300
H  42.57400 12.48600 33.84000
H  44.11500 10.61000 37.15400
H  45.70600 11.29500 36.83700
H  45.29500 9.83000 36.02900
Mg 10.49000 47.74900 26.26800
C  8.68100 47.68100 29.17200
C  13.15200 48.89200 28.10600
C  12.32000 48.07700 23.35100
C  7.73500 46.95900 24.36700
N  10.78500 48.39700 28.37400
C  10.00100 48.10800 29.44000
C  10.61200 48.57900 30.80600
C  11.84700 49.29900 30.26100
C  12.02200 48.73300 28.85000
C  11.75100 50.88300 30.34300
C  10.92300 47.31300 31.74200
C  10.43300 47.47600 33.17400
H  10.48200 46.23900 34.19600
N  12.48800 48.32200 25.78300
C  13.40100 48.72900 26.73200
C  14.68200 48.96800 26.10700
C  14.42300 48.64100 24.70100
C  13.00800 48.32600 24.54200
C  15.83700 49.50500 26.85900
C  15.43300 48.52300 23.57000
O  15.11800 48.04400 22.47100
C  16.84800 48.82800 23.72300
N  10.07800 47.51900 24.12800
C  10.96000 47.79500 23.13800
C  10.39800 47.45200 21.70200
C  8.93000 47.04000 22.08900
C  8.86800 47.19800 23.63100
C  10.48600 48.73800 20.75100
C  8.57000 45.60900 21.66700
C  9.41300 44.44700 22.24500
N  8.60800 47.37400 26.67200
C  7.53500 47.14600 25.76800
C  6.30800 46.92800 26.54600
C  6.72800 47.12800 27.86500
C  8.12300 47.42000 27.88000
C  4.98800 46.71500 25.99300
C  6.23300 47.22000 29.24100
O  5.04800 47.05900 29.65100
C  7.51900 47.65800 30.13800
C  7.67300 46.74000 31.27200
O  8.28600 45.69500 31.31900
O  6.75100 47.06100 32.19100
C  6.37800 46.01700 33.18700
H  13.90400 49.41600 28.70000
H  12.79400 48.16500 22.37200
H  6.80600 46.76200 23.82800
H  9.90500 49.22300 31.32900
H  12.65700 48.93300 30.89200
H  12.13700 51.22600 31.30300
H  10.69500 51.14200 30.42400
H  12.20300 51.52900 29.59000
H  11.98800 47.12800 31.87900
H  10.60400 46.33200 31.38800
H  9.50400 48.03500 33.06700
H  11.22600 48.02600 33.68000
H  15.87800 49.60400 27.94400
H  16.12600 50.46200 26.42500
H  16.54400 48.71200 26.61300
H  17.32400 48.97300 22.75200
H  17.38300 48.00800 24.20100
H  16.86100 49.74500 24.31100
H  10.83600 46.58200 21.21300
H  8.29800 47.75600 21.56400
H  11.07200 48.51100 19.86100
H  10.95800 49.53600 21.32500
H  9.46200 48.98900 20.47400
H  8.67300 45.58800 20.58200
H  7.49200 45.49700 21.78300
H  8.83100 43.87800 22.97000
H  10.22000 44.89100 22.82700
H  9.93600 43.79200 21.54800
H  4.33700 46.18000 26.68400
H  5.07900 46.10600 25.09300
H  4.57300 47.66600 25.65700
H  7.32000 48.63500 30.57900
H  7.06500 45.94500 34.03100
H  6.18900 45.02200 32.78600
H  5.36500 46.30200 33.46900

