158

Mg 23.82800 -7.65400 46.65800
C  26.56100 -5.66600 45.79500
C  22.01300 -6.35400 43.95700
C  21.59100 -10.04400 47.02800
C  26.03400 -9.36700 48.84400
N  24.26100 -6.21100 44.97200
C  25.48500 -5.53000 44.90600
C  25.56900 -4.77600 43.61600
C  24.02500 -4.77400 43.15700
C  23.30300 -5.85400 44.05800
C  23.41200 -3.33900 43.32800
C  26.57700 -5.36800 42.56500
C  27.60500 -4.33900 41.87300
H  27.26400 -3.64100 40.50800
N  21.91700 -7.92900 45.87900
C  21.37200 -7.25700 44.74200
C  20.04500 -7.86300 44.46900
C  19.92500 -8.97600 45.35100
C  21.14700 -9.04500 46.17600
C  19.17900 -7.31400 43.37600
C  18.77100 -9.96100 45.28400
O  17.97200 -9.80700 44.35100
C  18.48100 -11.10500 46.25200
N  23.76200 -9.39200 47.90500
C  22.73100 -10.19600 47.81200
C  22.97500 -11.48600 48.69000
C  24.44400 -11.20000 49.24300
C  24.79500 -9.94700 48.60100
C  21.87300 -11.68000 49.78400
C  25.35500 -12.43200 48.89200
C  24.88700 -13.92200 49.09600
N  25.85700 -7.54300 47.29700
C  26.57500 -8.26000 48.23500
C  27.91900 -7.69300 48.36400
C  27.96300 -6.66000 47.39800
C  26.71800 -6.64700 46.79000
C  28.90300 -8.15700 49.30300
C  28.81600 -5.61600 46.86400
O  29.95400 -5.28800 47.06600
C  27.90400 -4.89000 45.75400
C  27.85600 -3.42700 46.03300
O  27.16800 -2.91500 46.98100
O  28.65900 -2.83300 45.12300
C  28.71700 -1.37100 45.31700
H  21.42300 -5.92100 43.14600
H  20.92500 -10.88600 47.22900
H  26.70100 -9.96900 49.46500
H  25.87500 -3.79500 43.97900
H  24.02100 -5.07500 42.10900
H  23.55800 -2.94500 42.32300
H  23.97200 -2.76500 44.06600
H  22.34900 -3.32000 43.56900
H  26.00600 -5.88100 41.79100
H  27.02800 -6.24100 43.03500
H  28.63100 -4.70400 41.82300
H  27.58300 -3.52300 42.59500
H  19.26500 -6.24700 43.17000
H  18.12200 -7.35400 43.64100
H  19.38000 -7.99600 42.55000
H  18.35600 -10.73600 47.27000
H  19.30100 -11.82200 46.25900
H  17.54900 -11.62600 46.03200
H  23.04600 -12.32700 48.00000
H  24.37000 -11.04200 50.31900
H  21.44500 -12.67400 49.65600
H  21.14600 -10.86700 49.77400
H  22.38700 -11.59800 50.74100
H  26.19600 -12.36500 49.58300
H  25.66500 -12.30400 47.85500
H  24.07300 -14.15000 48.40700
H  24.59900 -14.08600 50.13400
H  25.71200 -14.58100 48.82700
H  29.65800 -7.46400 49.67400
H  29.51400 -8.88400 48.76800
H  28.45100 -8.73400 50.11000
H  28.36900 -4.92000 44.76800
H  29.43600 -1.22600 46.12400
H  27.82500 -0.77900 45.51800
H  29.19400 -1.04200 44.39300
Mg 29.84000 59.06300 39.85100
C  27.19200 57.42600 38.45200
C  31.92400 56.45700 38.95200
C  32.60100 61.06800 40.12200
C  27.82000 62.05700 39.94400
N  29.55000 57.14100 38.75900
C  28.38800 56.62800 38.34600
C  28.48700 55.17900 37.85100
C  29.96300 54.86800 38.41600
C  30.55200 56.22500 38.67300
C  29.90300 54.03900 39.71200
C  28.30800 55.18200 36.27300
C  27.23000 54.31100 35.72000
H  26.32500 54.96200 34.66600
N  31.96200 58.71000 39.74200
C  32.63300 57.62600 39.34400
C  34.02900 57.73800 39.57800
C  34.31100 59.03200 40.00900
C  32.91100 59.65400 39.99500
C  35.01700 56.66400 39.21000
C  35.73000 59.60200 40.32800
O  36.70900 58.88100 40.13500
C  35.91500 60.94800 40.88700
N  30.06000 61.22600 40.14000
C  31.37600 61.71300 40.16900
C  31.29100 63.25900 40.21900
C  29.78300 63.55600 40.38200
C  29.16500 62.21100 40.05800
C  32.09200 63.89600 41.41900
C  29.18500 64.79000 39.57600
C  28.95800 66.07300 40.37600
N  27.85100 59.55600 39.54800
C  27.11400 60.80000 39.67700
C  25.71300 60.49400 39.35300
C  25.70400 59.16900 38.94400
C  27.06200 58.68500 38.97900
C  24.59900 61.58700 39.21900
C  24.81700 58.13000 38.37700
O  23.57300 58.10900 38.18300
C  25.71200 56.89600 38.14000
C  25.43500 55.72200 39.10700
O  25.91700 55.59500 40.25300
O  24.62300 54.82900 38.46500
C  24.36600 53.62600 39.32400
H  32.45900 55.50900 38.86600
H  33.47600 61.72100 40.14300
H  27.22200 62.95800 40.09200
H  27.68400 54.60500 38.31500
H  30.53700 54.27100 37.70600
H  29.19700 54.48900 40.41000
H  30.90500 54.09500 40.13800
H  29.66500 52.97900 39.62400
H  29.27100 55.02800 35.78700
H  28.06400 56.19300 35.94700
H  26.59700 53.94100 36.52700
H  27.75700 53.51100 35.19900
H  35.74800 56.64500 40.01900
H  35.45600 56.67600 38.21300
H  34.47600 55.71800 39.22700
H  36.93800 61.05000 41.25000
H  35.26600 61.21200 41.72200
H  35.76700 61.62000 40.04100
H  31.59800 63.65200 39.25000
H  29.53700 63.74900 41.42600
H  31.55200 64.53800 42.11500
H  33.00000 64.35300 41.02300
H  32.45500 63.06600 42.02500
H  28.30000 64.48600 39.01700
H  29.88200 65.10100 38.79800
H  29.60300 66.86700 39.99800
H  29.26600 65.98500 41.41800
H  27.88000 66.20700 40.46200
H  25.07400 62.56400 39.12900
H  24.00800 61.52500 40.13300
H  23.91900 61.47200 38.37500
H  25.46400 56.58000 37.12700
H  23.82600 52.89100 38.72700
H  23.75800 53.98600 40.15400
H  25.26600 53.17700 39.74300

