158

Mg 24.56500 -7.97800 47.28600
C  27.09800 -5.47900 46.48500
C  22.56200 -6.41500 45.00200
C  22.40200 -10.32400 47.80000
C  26.94500 -9.42600 49.37700
N  24.72300 -6.06100 45.92300
C  25.87700 -5.28000 45.73900
C  25.60400 -4.22600 44.67100
C  24.05100 -4.42100 44.41900
C  23.77200 -5.70900 45.13900
C  23.15200 -3.20600 44.90300
C  26.53300 -4.46100 43.38800
C  27.21400 -3.17900 42.92600
H  26.90700 -2.83000 41.45800
N  22.78500 -8.36400 46.47900
C  22.12900 -7.59900 45.51600
C  20.80000 -8.16400 45.29500
C  20.67400 -9.29800 46.20800
C  21.96200 -9.37400 46.91400
C  19.66400 -7.48700 44.39700
C  19.40600 -10.06400 46.39100
O  18.37800 -9.85900 45.71600
C  19.22700 -11.02000 47.57500
N  24.70300 -9.69200 48.42900
C  23.61000 -10.44600 48.60800
C  23.77100 -11.56400 49.64300
C  25.25700 -11.30400 50.12200
C  25.70600 -10.10900 49.28900
C  22.75300 -11.61500 50.83700
C  26.23200 -12.56200 49.96500
C  27.41900 -12.65800 51.01600
N  26.55400 -7.51000 47.89200
C  27.35600 -8.25300 48.72600
C  28.70900 -7.66200 48.79700
C  28.58800 -6.56400 47.88100
C  27.26400 -6.50700 47.41300
C  29.88100 -8.20500 49.63200
C  29.37800 -5.49700 47.28200
O  30.55800 -5.13500 47.32600
C  28.43200 -4.71800 46.35300
C  28.30100 -3.30400 46.80800
O  28.12900 -2.79500 47.93600
O  28.52800 -2.57100 45.61100
C  28.20400 -1.12200 45.70800
H  21.92300 -5.88500 44.29200
H  21.70600 -11.14700 47.97900
H  27.67000 -9.95200 50.00100
H  25.67300 -3.23200 45.11200
H  23.84100 -4.52500 43.35500
H  23.68500 -2.28600 45.14100
H  22.61000 -3.54400 45.78700
H  22.43200 -2.88600 44.14900
H  26.00600 -4.96800 42.58000
H  27.30200 -5.17800 43.67500
H  28.29400 -3.32000 42.97300
H  27.01400 -2.29400 43.53100
H  18.98700 -8.18100 43.89900
H  20.15300 -6.85600 43.65500
H  19.16300 -6.79700 45.07500
H  19.32800 -10.58800 48.57100
H  19.90400 -11.85200 47.38100
H  18.19800 -11.37600 47.55100
H  23.72100 -12.46600 49.03300
H  25.33400 -10.93100 51.14300
H  21.98800 -10.90700 50.51600
H  23.22400 -11.16700 51.71100
H  22.50500 -12.66100 51.01600
H  26.78500 -12.45600 49.03200
H  25.63200 -13.46100 50.10700
H  27.37100 -13.60600 51.55100
H  27.45600 -11.80700 51.69700
H  28.35900 -12.75000 50.47000
H  30.48900 -7.39200 50.03000
H  30.53800 -8.81500 49.01200
H  29.56800 -8.80500 50.48600
H  28.79300 -4.67600 45.32500
H  28.90200 -0.70000 46.43100
H  27.19800 -0.85100 46.02800
H  28.48600 -0.58400 44.80300
Mg 36.44200 1.00500 29.69200
C  33.99100 2.04800 32.09800
C  38.71900 1.02400 32.18400
C  38.68000 0.45600 27.31200
C  33.95400 1.41000 27.13000
N  36.31800 1.47400 31.90500
C  35.22700 1.78000 32.64900
C  35.54400 1.74600 34.11400
C  37.11300 1.79000 34.19900
C  37.45400 1.37600 32.69300
C  37.68000 3.19200 34.61600
C  34.92900 0.56300 34.91200
C  34.28600 0.79300 36.31400
H  34.64200 2.16500 37.01300
N  38.46600 0.82000 29.68800
C  39.21600 0.76800 30.83800
C  40.57800 0.36200 30.50900
C  40.57500 0.18000 29.09100
C  39.19100 0.50200 28.65200
C  41.71300 0.33000 31.56900
C  41.60900 -0.30200 28.12900
O  41.44700 -0.49200 26.90200
C  42.88900 -0.81100 28.67600
N  36.22300 0.72500 27.54100
C  37.34700 0.60100 26.85600
C  37.13600 0.76700 25.36900
C  35.53800 0.80200 25.23300
C  35.20200 0.95600 26.69700
C  37.77700 2.16300 24.91500
C  34.78900 -0.36100 24.54000
C  34.39500 -1.54800 25.54200
N  34.37500 1.52900 29.61800
C  33.50100 1.58700 28.50700
C  32.19400 2.07900 28.96200
C  32.39300 2.26500 30.37800
C  33.67100 1.93100 30.73800
C  30.92100 2.37500 28.07800
C  31.61900 2.62200 31.54500
O  30.51000 3.01800 31.76500
C  32.70100 2.50700 32.72100
C  32.83400 3.85900 33.36000
O  33.49300 4.80700 32.96000
O  31.99000 3.82900 34.46600
C  31.56800 4.97200 35.18300
H  39.41800 0.78000 32.98700
H  39.41100 0.31500 26.51300
H  33.26700 1.64600 26.31500
H  35.17600 2.70700 34.47300
H  37.39000 1.08200 34.98000
H  37.51600 3.21300 35.69300
H  37.11200 3.93700 34.05900
H  38.72700 3.20000 34.31100
H  35.59700 -0.29000 35.03000
H  34.08400 0.22000 34.31500
H  34.52400 -0.09000 36.90700
H  33.21100 0.74100 36.14300
H  42.60400 0.78000 31.13200
H  41.84800 -0.70500 31.88200
H  41.56400 1.01800 32.40100
H  43.20600 -0.17600 29.50300
H  43.72500 -0.62400 28.00200
H  42.93800 -1.85100 28.99800
H  37.61600 -0.13800 24.99600
H  35.12100 1.69900 24.77700
H  37.07200 2.94200 25.20800
H  37.85100 2.11300 23.82900
H  38.78900 2.27200 25.30500
H  35.24200 -0.78100 23.64200
H  33.83300 0.05800 24.22500
H  34.56900 -2.55400 25.15900
H  33.34800 -1.58700 25.84000
H  35.01500 -1.55200 26.43900
H  30.89900 1.79300 27.15600
H  31.00700 3.40900 27.74500
H  30.06000 2.29300 28.74200
H  32.32500 1.79500 33.45500
H  30.50300 4.92200 35.40800
H  31.69900 5.88300 34.59900
H  32.10100 5.04100 36.13200

