158

Mg -1.48600 16.90300 26.02200
C  -1.74900 14.68000 28.73900
C  -1.89600 19.55000 28.25600
C  -1.71800 19.06100 23.35700
C  -1.66200 14.20900 23.80700
N  -1.77700 17.07900 28.28000
C  -1.74000 16.02200 29.15900
C  -1.63600 16.55500 30.54800
C  -1.97500 18.06600 30.43900
C  -1.93900 18.28200 28.90100
C  -3.37100 18.47000 30.94700
C  -0.22100 16.35400 31.20800
C  -0.07000 15.93500 32.71900
H  -1.11800 16.20200 33.83500
N  -1.62900 19.01100 25.83900
C  -1.85900 19.92600 26.87600
C  -1.91000 21.28100 26.32600
C  -1.70800 21.17100 24.85800
C  -1.68800 19.65500 24.63700
C  -2.07800 22.55400 27.13700
C  -1.51100 22.19600 23.79900
O  -1.33400 21.91500 22.66500
C  -1.48900 23.68000 24.10900
N  -1.78400 16.69300 23.87800
C  -1.72600 17.76700 22.99500
C  -1.88900 17.22000 21.53600
C  -1.58700 15.66500 21.74800
C  -1.70100 15.47100 23.22100
C  -3.31900 17.49200 20.93700
C  -0.18300 15.07000 21.23700
C  1.12100 15.45100 22.01600
N  -1.55200 14.88400 26.21000
C  -1.64800 13.91000 25.19200
C  -1.66400 12.63800 25.88000
C  -1.58300 12.84600 27.19600
C  -1.66000 14.22700 27.39700
C  -1.81800 11.30000 25.18500
C  -1.55300 12.22800 28.52300
O  -1.57200 11.05400 28.82800
C  -1.95200 13.39100 29.49100
C  -1.23300 13.17100 30.79000
O  -0.04500 13.15000 30.92700
O  -2.15800 12.84800 31.74200
C  -1.69300 12.34000 33.02200
H  -1.76300 20.48300 28.80800
H  -1.96300 19.75800 22.55200
H  -1.89100 13.44000 23.06600
H  -2.35800 16.01500 31.16100
H  -1.24500 18.66500 30.98400
H  -3.82200 19.34600 30.48100
H  -3.17500 18.71800 31.99000
H  -4.07400 17.63900 31.00100
H  0.38900 17.24500 31.05900
H  0.36000 15.60300 30.67400
H  0.80500 16.44200 33.12600
H  -0.03300 14.84600 32.75600
H  -2.42900 22.30800 28.13900
H  -2.87400 23.11400 26.64800
H  -1.10600 23.04200 27.07400
H  -0.61500 23.79000 24.75000
H  -2.39600 24.06200 24.57900
H  -1.28500 24.38400 23.30200
H  -1.12600 17.61700 20.86700
H  -2.35700 15.05800 21.27200
H  -4.06000 17.80500 21.67300
H  -3.63800 16.56700 20.45700
H  -3.19800 18.28200 20.19700
H  -0.13000 15.57700 20.27300
H  -0.27900 13.98800 21.14600
H  1.46700 14.50900 22.44100
H  0.79500 16.16500 22.77200
H  1.94500 15.76200 21.37300
H  -2.73500 11.24200 24.59900
H  -1.86900 10.60000 26.02000
H  -0.93400 11.05300 24.59600
H  -3.01300 13.34200 29.73900
H  -1.41800 11.29100 32.91100
H  -2.41700 12.31300 33.83600
H  -0.85200 12.92900 33.38900
Mg 30.93200 59.94700 40.57500
C  27.92700 58.46300 39.22200
C  32.65500 57.29700 39.06700
C  33.73500 61.51600 41.08800
C  29.01600 62.80200 41.37400
N  30.32500 58.12300 39.22900
C  29.08600 57.65300 38.91600
C  29.12200 56.38800 38.00800
C  30.64900 56.02100 38.15600
C  31.30600 57.21600 38.90700
C  31.06500 54.66000 38.79500
C  28.61200 56.70600 36.55200
C  27.62000 55.73800 35.91200
H  26.62200 56.28900 34.85000
N  32.87200 59.45800 40.31600
C  33.40100 58.32400 39.74100
C  34.83300 58.30100 39.82600
C  35.26000 59.49200 40.45800
C  33.91500 60.18100 40.65300
C  35.61800 57.25000 39.07500
C  36.76500 59.99900 40.81400
O  37.78100 59.37500 40.52800
C  36.98800 61.24300 41.64700
N  31.24500 61.86900 41.19400
C  32.59800 62.26800 41.29400
C  32.58500 63.80700 41.55600
C  31.10700 64.12500 41.90400
C  30.40100 62.87900 41.41800
C  33.71800 64.22000 42.60300
C  30.59200 65.49300 41.24200
C  29.73200 66.35900 42.16900
N  28.84900 60.57300 40.28600
C  28.23300 61.72600 40.77100
C  26.73500 61.60300 40.55800
C  26.65200 60.36200 39.88500
C  27.91200 59.74600 39.80300
C  25.71900 62.66400 40.74900
C  25.70400 59.46500 39.15700
O  24.55500 59.70000 38.77900
C  26.51500 58.18900 38.85400
C  25.92800 57.06500 39.57200
O  26.28900 56.64900 40.64200
O  24.92100 56.51400 38.82100
C  24.34500 55.23300 39.23200
H  33.27500 56.54800 38.56900
H  34.62600 62.14200 41.01100
H  28.52200 63.75500 41.57400
H  28.60200 55.58200 38.52500
H  31.05800 56.01600 37.14600
H  31.58700 54.08400 38.03100
H  30.26600 53.98800 39.11000
H  31.74800 54.70700 39.64400
H  29.45100 56.65700 35.85700
H  28.27100 57.73700 36.46200
H  27.06500 55.18700 36.67100
H  28.26100 54.97300 35.47300
H  35.53200 57.38500 37.99700
H  35.17500 56.28400 39.31700
H  36.66600 57.12700 39.35000
H  37.79900 61.18100 42.37200
H  36.10200 61.38700 42.26500
H  37.03900 62.11700 40.99800
H  32.89700 64.11900 40.55900
H  31.03100 64.23600 42.98500
H  34.12100 63.34400 43.11100
H  33.27400 64.84500 43.37900
H  34.54400 64.78900 42.17800
H  30.13900 65.25900 40.27800
H  31.44400 66.15400 41.08600
H  30.18700 67.32700 42.37600
H  29.44200 66.01600 43.16200
H  28.81600 66.62000 41.63800
H  25.94800 63.28700 41.61400
H  24.75500 62.19300 40.94400
H  25.79200 63.26400 39.84200
H  26.37100 58.01000 37.78900
H  23.32000 55.28400 39.60100
H  24.91100 54.67800 39.97900
H  24.36100 54.60300 38.34300

