158

Mg 15.80000 -1.70500 27.24700
C  15.01200 0.52500 29.91000
C  18.18500 -3.26400 29.36900
C  17.49500 -2.92600 24.66500
C  14.24700 0.59400 25.14700
N  16.46200 -1.35800 29.32300
C  15.82600 -0.56800 30.24800
C  16.35300 -0.81300 31.64200
C  17.59600 -1.79000 31.35500
C  17.46600 -2.19800 29.95000
C  18.98700 -1.15000 31.64500
C  15.22800 -1.26300 32.55000
C  15.19000 -0.74500 33.98800
H  16.45600 -0.18200 34.64000
N  17.23600 -3.31100 27.06200
C  18.11300 -3.79800 28.03900
C  18.87700 -4.85500 27.51000
C  18.63600 -4.78500 26.10200
C  17.68100 -3.63800 25.86800
C  19.66600 -5.85400 28.30500
C  19.30600 -5.61600 25.02000
O  19.19400 -5.29500 23.82700
C  20.23500 -6.77000 25.33800
N  15.95100 -1.18600 25.26400
C  16.75700 -1.82300 24.37500
C  16.67500 -1.27200 22.96200
C  15.38900 -0.34700 23.11900
C  15.14100 -0.29200 24.62100
C  17.98100 -0.53000 22.63800
C  14.04400 -0.93700 22.44800
C  13.14500 0.08200 21.59500
N  14.71400 0.18600 27.43800
C  14.03400 0.87600 26.52300
C  13.30400 2.00800 27.12600
C  13.68400 1.91600 28.48400
C  14.54700 0.76100 28.60800
C  12.49400 3.03500 26.50300
C  13.63300 2.58700 29.76800
O  13.12300 3.61800 30.22300
C  14.40700 1.68200 30.78200
C  15.43200 2.54300 31.50200
O  16.54100 2.83100 31.05500
O  14.89000 3.05800 32.64600
C  15.88500 3.84600 33.46700
H  18.95200 -3.79300 29.93900
H  18.04200 -3.24700 23.77600
H  13.57700 1.18700 24.52200
H  16.76100 0.06600 32.14200
H  17.45400 -2.64900 32.01000
H  18.93800 -0.09100 31.90200
H  19.67100 -1.18100 30.79700
H  19.46900 -1.67000 32.47400
H  15.19200 -2.35000 32.61500
H  14.30200 -0.93900 32.07400
H  14.84000 -1.54900 34.63600
H  14.59500 0.16700 34.03000
H  20.73000 -5.81600 28.06900
H  19.30400 -6.85900 28.08600
H  19.51200 -5.69800 29.37200
H  19.65300 -7.60100 25.73500
H  21.03100 -6.46200 26.01700
H  20.68400 -7.02000 24.37700
H  16.62300 -2.12800 22.28900
H  15.61200 0.63100 22.69200
H  17.76400 0.52700 22.49000
H  18.38300 -0.96000 21.72000
H  18.79300 -0.71800 23.34100
H  13.43500 -1.35500 23.24900
H  14.26700 -1.77700 21.79000
H  13.59900 1.07300 21.60000
H  12.14400 0.11500 22.02500
H  13.06500 -0.23300 20.55400
H  11.87900 2.70300 25.66700
H  13.13800 3.81200 26.09100
H  12.05700 3.39900 27.43300
H  13.62400 1.30000 31.43600
H  15.43400 3.81000 34.45800
H  15.84900 4.86000 33.06900
H  16.90500 3.55000 33.22000
Mg 26.77000 49.47600 25.70300
C  24.80000 50.58700 28.25400
C  29.08900 48.59900 27.99900
C  28.88300 48.80300 23.17300
C  24.46400 50.75500 23.43000
N  26.87700 49.65500 27.88900
C  25.97400 50.09300 28.76200
C  26.33200 49.72000 30.19100
C  27.83600 49.48400 30.03600
C  27.95100 49.16400 28.52400
C  28.79100 50.58600 30.46100
C  25.45400 48.59400 30.92300
C  24.85900 48.84100 32.34700
H  25.76600 49.52700 33.39600
N  28.71500 48.72200 25.62300
C  29.54100 48.38900 26.71900
C  30.79600 47.75600 26.25000
C  30.81700 47.83300 24.80000
C  29.47000 48.42000 24.42800
C  31.95200 47.26200 27.10500
C  31.90900 47.54700 23.76900
O  31.67900 47.79100 22.60200
C  33.21500 46.96900 24.28500
N  26.69700 49.74600 23.59400
C  27.69300 49.43200 22.76500
C  27.30500 49.63400 21.28800
C  25.84700 50.17800 21.37500
C  25.59800 50.18100 22.89700
C  28.29300 50.49200 20.43900
C  24.65800 49.41500 20.62400
C  24.00100 50.01500 19.40400
N  25.03700 50.53500 25.81000
C  24.17700 50.97300 24.76500
C  23.07500 51.70000 25.33300
C  23.27500 51.53400 26.74400
C  24.45700 50.78100 26.92800
C  21.92200 52.23000 24.59500
C  22.61900 51.80300 28.02400
O  21.57800 52.39000 28.33100
C  23.62900 51.15800 29.01800
C  23.97400 52.14400 30.11900
O  24.37300 53.27900 29.81300
O  23.89200 51.54700 31.40000
C  24.27400 52.35400 32.55800
H  29.83000 48.31200 28.74700
H  29.47700 48.64100 22.27100
H  23.78500 51.30600 22.77600
H  26.31000 50.68200 30.70300
H  28.07200 48.58500 30.60700
H  29.31900 51.01200 29.60900
H  29.61600 50.06700 30.95000
H  28.23900 51.37600 30.97100
H  26.01400 47.65900 30.89700
H  24.59300 48.36900 30.29500
H  24.79900 47.78200 32.59900
H  23.88400 49.31900 32.25800
H  31.85100 46.18400 26.97700
H  31.75600 47.62700 28.11200
H  32.95100 47.62000 26.85300
H  33.05300 46.03000 24.81500
H  33.76900 47.70600 24.86700
H  33.95200 46.65400 23.54600
H  27.28900 48.62100 20.88500
H  25.77800 51.20900 21.02700
H  29.17400 50.85700 20.96900
H  27.75100 51.40300 20.18600
H  28.57300 49.92800 19.54900
H  23.89000 49.28100 21.38500
H  25.00800 48.41200 20.38000
H  24.12000 49.25900 18.62700
H  24.50800 50.94100 19.13300
H  22.97000 50.17200 19.72000
H  21.63600 51.69600 23.68900
H  22.15800 53.26300 24.34100
H  21.00700 52.25800 25.18600
H  23.07900 50.36900 29.53100
H  24.16200 51.65400 33.38500
H  23.51500 53.13600 32.52600
H  25.29400 52.73800 32.55400

