158

Mg 8.00300 3.07100 27.77000
C  9.34500 1.50000 30.62600
C  5.71100 4.80100 29.71300
C  6.61700 4.23300 24.95000
C  9.64300 0.56300 25.86800
N  7.45500 2.95900 29.91500
C  8.42100 2.56100 30.90400
C  8.02900 3.09600 32.30800
C  6.87300 3.98000 31.93300
C  6.66100 3.98100 30.40800
C  5.46500 3.80600 32.67300
C  9.26200 3.59900 33.10700
C  8.95000 4.66300 34.25900
H  9.53700 4.56700 35.63900
N  6.31800 4.33000 27.38300
C  5.64500 5.01400 28.29700
C  4.78200 5.91800 27.60900
C  5.08900 5.88500 26.24200
C  6.02800 4.80400 26.12900
C  3.89100 6.89000 28.27400
C  4.55200 6.74300 24.98900
O  5.02600 6.61000 23.84200
C  3.54800 7.74200 25.17500
N  8.29700 2.53400 25.70500
C  7.56900 3.20100 24.77900
C  7.69500 2.60600 23.37100
C  8.88400 1.62700 23.67100
C  8.98400 1.55500 25.19900
C  6.39400 1.96000 22.93000
C  10.23800 1.94900 23.02600
C  10.52500 1.50500 21.60800
N  9.40100 1.49100 28.18100
C  9.91700 0.55900 27.26300
C  10.73000 -0.36900 28.04800
C  10.62200 -0.00400 29.34000
C  9.69300 1.08000 29.41200
C  11.37500 -1.58400 27.44700
C  10.94000 -0.33500 30.67600
O  11.68300 -1.14800 31.17600
C  10.27600 0.72000 31.57100
C  9.64500 0.06300 32.71100
O  8.61100 -0.62100 32.73400
O  10.30500 0.42600 33.86400
C  9.69300 -0.22700 35.03900
H  5.17700 5.53300 30.32300
H  6.22300 4.62800 24.01100
H  10.11900 -0.14500 25.18600
H  7.55900 2.25400 32.81600
H  7.24700 4.98000 32.15400
H  4.71500 3.72300 31.88700
H  5.26200 4.60800 33.38300
H  5.51300 2.90500 33.28400
H  10.01100 4.10100 32.49600
H  9.73400 2.74700 33.59700
H  7.87800 4.53700 34.41200
H  9.17900 5.64100 33.83800
H  2.82900 6.67500 28.15700
H  4.07100 7.86900 27.82900
H  4.18100 6.95400 29.32300
H  3.15900 8.21700 24.27400
H  3.89600 8.56100 25.80300
H  2.73100 7.20300 25.65500
H  7.94900 3.35500 22.62100
H  8.57700 0.62800 23.35900
H  5.73500 1.91000 23.79700
H  6.46600 0.90600 22.66300
H  5.99400 2.57300 22.12200
H  11.09400 1.59600 23.60100
H  10.18300 3.03700 23.06100
H  9.80300 0.72100 21.37900
H  11.44700 0.92500 21.65200
H  10.50400 2.35200 20.92300
H  10.56000 -2.19900 27.06700
H  11.87800 -2.17400 28.21300
H  12.10300 -1.32200 26.67900
H  11.10600 1.36000 31.87300
H  10.44700 -0.23600 35.82600
H  9.58200 -1.30200 34.89800
H  8.71400 0.13900 35.34800
Mg -5.77400 26.08100 25.62900
C  -4.31000 26.95200 28.65200
C  -7.70400 23.80900 27.30600
C  -6.90600 24.68600 22.58500
C  -3.30500 27.71600 23.87400
N  -6.07000 25.51200 27.66800
C  -5.36400 26.05800 28.79700
C  -5.85400 25.48900 30.14300
C  -6.81800 24.21700 29.63000
C  -6.87100 24.56100 28.12300
C  -6.30800 22.76600 30.07000
C  -6.58500 26.55100 31.06200
C  -6.14300 26.48300 32.49600
H  -5.58500 25.16700 33.01400
N  -7.11800 24.53000 25.02800
C  -7.88800 23.74700 25.92300
C  -8.85100 22.86100 25.17100
C  -8.70500 23.26700 23.79000
C  -7.51500 24.23100 23.73900
C  -9.77600 21.88700 25.87900
C  -9.38800 22.69100 22.55700
O  -9.19500 23.12300 21.44600
C  -10.34700 21.54800 22.79000
N  -5.21600 26.23400 23.59000
C  -5.78200 25.63100 22.52700
C  -5.11900 26.01200 21.15200
C  -4.08500 27.06300 21.65000
C  -4.19600 27.00900 23.12400
C  -4.51300 24.75500 20.42900
C  -4.33800 28.50800 21.16400
C  -4.59200 28.79600 19.64400
N  -4.27200 27.24300 26.13500
C  -3.36700 27.89900 25.27500
C  -2.52400 28.67900 26.19700
C  -2.79200 28.35700 27.48200
C  -3.90800 27.50500 27.43100
C  -1.48100 29.65000 25.76900
C  -2.33100 28.48300 28.91400
O  -1.40200 29.16100 29.41700
C  -3.40900 27.57800 29.76300
C  -2.61800 26.54200 30.56600
O  -2.27100 25.46400 30.07900
O  -2.34300 26.95700 31.81900
C  -1.44400 26.27000 32.72200
H  -8.38100 23.16300 27.86900
H  -7.13600 24.26000 21.60600
H  -2.42900 28.18900 23.42400
H  -4.90900 25.15100 30.56900
H  -7.83700 24.39200 29.97600
H  -7.00500 22.22500 30.71000
H  -5.40600 22.87600 30.67100
H  -5.85200 22.25800 29.22000
H  -7.66000 26.46100 30.90600
H  -6.43300 27.58300 30.74600
H  -6.92600 26.78600 33.19100
H  -5.34300 27.17900 32.75000
H  -9.62900 20.90200 25.43700
H  -10.82400 22.17200 25.79800
H  -9.43900 21.70500 26.89900
H  -11.20700 21.73600 23.43200
H  -9.88000 20.61300 23.09700
H  -10.70200 21.43400 21.76500
H  -5.94400 26.36600 20.53400
H  -3.11700 26.64100 21.38100
H  -4.92800 24.71800 19.42200
H  -4.76000 23.79000 20.87300
H  -3.44900 24.94500 20.28400
H  -3.43400 29.09100 21.33900
H  -5.05700 29.05900 21.77100
H  -5.58500 29.23900 19.56900
H  -4.50900 27.92300 18.99700
H  -3.87200 29.55200 19.33000
H  -1.75300 30.19700 24.86700
H  -0.51900 29.17100 25.58100
H  -1.26400 30.35900 26.56900
H  -4.03400 28.19700 30.40700
H  -1.38100 25.20000 32.52800
H  -1.92100 26.35500 33.69900
H  -0.42600 26.64900 32.63100

