158

Mg 2.79300 -1.31300 43.87800
C  6.08300 -0.40900 43.31600
C  1.83100 1.42100 42.13800
C  -0.22000 -2.72100 43.74800
C  3.92200 -4.37300 45.45800
N  3.86500 0.39200 42.98900
C  5.22400 0.59200 42.88600
C  5.60100 1.90100 42.19300
C  4.16400 2.50700 41.83100
C  3.15900 1.48400 42.50300
C  3.84100 3.99100 42.10900
C  6.41800 1.59000 40.85400
C  7.32900 2.68200 40.34900
H  7.27500 3.02700 38.86300
N  0.99700 -0.65400 43.03800
C  0.79600 0.48200 42.31800
C  -0.64000 0.53100 41.99100
C  -1.26300 -0.58800 42.60500
C  -0.16400 -1.41400 43.12000
C  -1.20800 1.72200 41.14600
C  -2.74100 -0.87400 42.46700
O  -3.46600 -0.02800 41.95600
C  -3.45200 -2.03900 42.94600
N  2.00900 -3.40000 44.44900
C  0.69500 -3.58800 44.37700
C  0.24300 -4.98400 45.03500
C  1.59900 -5.42800 45.60400
C  2.53900 -4.32400 45.26200
C  -0.92000 -4.83000 46.07000
C  2.23600 -6.88000 45.18100
C  2.83800 -7.71100 46.29100
N  4.63500 -2.32500 44.31600
C  4.97400 -3.53600 45.01100
C  6.42400 -3.65300 45.00800
C  6.89600 -2.45800 44.38400
C  5.76200 -1.68200 43.99600
C  7.22200 -4.72500 45.60700
C  8.15600 -1.72900 43.98200
O  9.34900 -1.93700 44.20500
C  7.64500 -0.38600 43.28500
C  8.28500 0.78500 43.97300
O  8.19300 0.96300 45.16600
O  8.99600 1.66600 43.11500
C  9.54300 2.77900 43.87700
H  1.48500 2.17400 41.42600
H  -1.19900 -3.20400 43.74200
H  4.25200 -5.18200 46.11300
H  6.16800 2.50100 42.90500
H  3.91500 2.34900 40.78200
H  3.07400 4.00100 42.88300
H  3.45900 4.36700 41.15900
H  4.72800 4.54800 42.41100
H  5.64400 1.62700 40.08700
H  6.83200 0.58700 40.95200
H  8.35700 2.59500 40.70000
H  6.80900 3.48400 40.87200
H  -1.20000 1.49100 40.08100
H  -0.54500 2.55300 41.38700
H  -2.23800 2.02200 41.33500
H  -4.52300 -1.84900 43.01700
H  -3.06600 -2.15200 43.95900
H  -3.12000 -2.83800 42.28300
H  -0.10600 -5.66900 44.26200
H  1.56700 -5.38700 46.69300
H  -1.78500 -5.34000 45.64500
H  -1.34600 -3.83100 46.16700
H  -0.71900 -5.19700 47.07600
H  2.98900 -6.70500 44.41300
H  1.49800 -7.43700 44.60300
H  2.32600 -8.66500 46.41700
H  2.75000 -7.20800 47.25400
H  3.90800 -7.90300 46.21400
H  7.42400 -5.56600 44.94300
H  6.69700 -5.07200 46.49700
H  8.21200 -4.43300 45.95900
H  7.98200 -0.27400 42.25400
H  10.35400 3.22500 43.30000
H  9.92400 2.47500 44.85300
H  8.74800 3.47100 44.15300
Mg 8.99600 2.59600 27.31400
C  10.29800 1.01800 30.28300
C  7.16100 4.67600 29.31300
C  7.23400 3.43500 24.70200
C  10.40500 -0.16800 25.58700
N  8.70800 2.72500 29.49200
C  9.44400 2.12500 30.50800
C  9.13800 2.88300 31.83300
C  7.99100 3.89100 31.52500
C  7.88700 3.68600 30.01000
C  6.63500 3.78200 32.26600
C  10.50900 3.62200 32.32500
C  10.50500 4.54900 33.52700
H  10.93300 4.03000 34.96500
N  7.51600 4.02200 27.00600
C  6.91600 4.80300 27.93400
C  6.01500 5.71600 27.26200
C  5.95400 5.30300 25.92400
C  6.98100 4.22700 25.84200
C  5.19700 6.72300 28.02900
C  5.01700 5.79900 24.83800
O  5.17100 5.37400 23.73000
C  4.03900 6.94200 25.08600
N  9.00800 1.87600 25.36600
C  8.05100 2.39300 24.48700
C  8.33200 1.76300 23.16400
C  9.26200 0.56200 23.43100
C  9.56900 0.68000 24.88500
C  7.08800 1.23100 22.32800
C  10.54800 0.56700 22.53400
C  10.55100 -0.66300 21.58700
N  10.15900 0.74400 27.76000
C  10.67000 -0.27400 26.96200
C  11.42400 -1.12900 27.74400
C  11.40300 -0.65200 29.02900
C  10.52000 0.46300 28.97400
C  12.09500 -2.34900 27.16900
C  11.86100 -0.83200 30.39900
O  12.65900 -1.63300 30.86800
C  11.26100 0.31200 31.29800
C  10.60900 -0.47000 32.36300
O  9.56900 -1.14000 32.21200
O  11.27000 -0.20400 33.53900
C  10.77700 -0.88300 34.73100
H  6.69200 5.46500 29.90400
H  6.62200 3.62600 23.81700
H  10.73000 -0.99300 24.95000
H  8.76800 2.07400 32.46200
H  8.37700 4.89300 31.71300
H  6.90600 3.20500 33.15000
H  5.81500 3.31300 31.72300
H  6.29700 4.71800 32.71200
H  10.85600 4.20000 31.46900
H  11.20200 2.79800 32.49500
H  9.44500 4.78800 33.61500
H  11.17400 5.38200 33.31100
H  5.58400 7.01800 29.00400
H  4.27100 6.21800 28.30700
H  4.93300 7.62100 27.47000
H  3.45400 7.15500 24.19100
H  4.52300 7.87500 25.37400
H  3.38500 6.67300 25.91600
H  8.80700 2.55100 22.57900
H  8.87200 -0.42200 23.16900
H  6.33500 1.64100 23.00200
H  7.03100 0.14400 22.27800
H  6.94100 1.71200 21.36200
H  11.42800 0.49300 23.17300
H  10.61300 1.48200 21.94500
H  9.57600 -1.06900 21.32000
H  11.07700 -1.46000 22.11300
H  11.26300 -0.38300 20.81100
H  12.68200 -2.19000 26.26400
H  11.29300 -3.05200 26.94400
H  12.85300 -2.73500 27.85100
H  12.03000 0.95800 31.72200
H  10.27300 -1.84700 34.65600
H  10.25900 -0.11300 35.30200
H  11.64600 -1.08100 35.35900

