158

Mg 48.82400 45.73700 43.34900
C  45.42100 45.94000 42.09500
C  48.99200 42.64400 41.70400
C  52.12400 45.86700 43.61500
C  48.55300 49.07900 44.12900
N  47.34000 44.43600 41.99400
C  46.07700 44.72600 41.64800
C  45.52800 43.67300 40.72100
C  46.50600 42.44100 41.00800
C  47.68600 43.16400 41.64200
C  45.90900 41.25800 41.85200
C  45.50300 44.02600 39.25600
C  44.20400 43.80400 38.49400
H  44.24400 42.72000 37.43600
N  50.29600 44.36500 42.95100
C  50.13400 43.15300 42.31800
C  51.45900 42.51800 42.25800
C  52.40100 43.37600 42.98000
C  51.61000 44.56500 43.30700
C  51.71100 41.09800 41.72100
C  53.79900 43.05500 43.39200
O  54.25000 41.91400 43.15300
C  54.65400 43.98900 44.20100
N  50.09500 47.18900 43.95800
C  51.45100 47.06700 43.94000
C  52.17600 48.41800 44.15400
C  51.00900 49.37900 44.30800
C  49.82700 48.49600 44.05900
C  53.21400 48.46900 45.33000
C  51.06400 50.65600 43.35000
C  50.56200 51.92000 44.09200
N  47.26600 47.24400 43.34000
C  47.31400 48.52700 43.72800
C  46.04800 49.08700 43.68100
C  45.25500 48.11200 42.95300
C  46.03600 46.97700 42.84500
C  45.69200 50.50800 43.97400
C  43.95400 47.87900 42.36200
O  43.02900 48.65100 42.03100
C  44.00800 46.47800 41.76600
C  42.96400 45.60800 42.30600
O  42.27200 44.92100 41.58900
O  42.73900 45.72500 43.68500
C  41.66100 44.77600 44.07700
H  49.12700 41.60900 41.38400
H  53.21000 45.97500 43.64000
H  48.49000 50.13000 44.41600
H  44.52700 43.42300 41.07400
H  46.82600 42.05700 40.04000
H  45.83200 40.31000 41.32100
H  44.90500 41.51600 42.19200
H  46.57100 41.09000 42.70200
H  46.30700 43.58100 38.66800
H  45.63500 45.10800 39.25700
H  43.77900 44.79600 38.34600
H  43.52100 43.33700 39.20400
H  52.63600 41.02200 41.14900
H  50.89200 40.66800 41.14500
H  51.78500 40.36300 42.52300
H  55.04500 44.80200 43.58900
H  55.46700 43.39000 44.61100
H  54.23500 44.34600 45.14100
H  52.71200 48.60000 43.22200
H  50.75300 49.63700 45.33600
H  54.04300 49.08900 44.98900
H  53.64300 47.59200 45.81600
H  52.68200 48.94400 46.15400
H  50.35000 50.52800 42.53700
H  52.00500 50.94400 42.87900
H  51.36900 52.57200 44.42400
H  50.10200 51.75700 45.06700
H  49.88500 52.49600 43.46300
H  46.39400 51.08100 44.58000
H  44.81600 50.50500 44.62200
H  45.53300 50.97500 43.00200
H  43.91700 46.42300 40.68100
H  40.64600 45.11200 43.86800
H  41.68500 44.61000 45.15400
H  41.89700 43.76400 43.74700
Mg 26.68000 50.14000 26.97000
C  24.74500 51.29100 29.61300
C  29.10700 49.10600 29.16400
C  28.78300 49.29200 24.31100
C  24.35400 51.34600 24.71700
N  26.87100 50.28700 29.16800
C  25.99000 50.78000 30.04000
C  26.43000 50.44000 31.52700
C  27.88900 49.96800 31.33400
C  27.99500 49.77800 29.79700
C  29.01700 50.82900 31.86000
C  25.46500 49.38800 32.18500
C  24.54200 50.10000 33.22400
H  24.40700 49.63400 34.74600
N  28.55100 49.17900 26.76100
C  29.43100 48.83000 27.79000
C  30.71300 48.33700 27.28700
C  30.70400 48.46100 25.87500
C  29.24400 49.02000 25.58900
C  31.74700 47.72900 28.11000
C  31.78800 48.18300 24.94800
O  31.59400 48.08700 23.70200
C  33.16400 48.04600 25.49000
N  26.59000 50.32100 24.77600
C  27.52100 49.83500 23.93000
C  27.02200 49.85700 22.42600
C  25.51600 50.38800 22.59200
C  25.42300 50.60000 24.12000
C  27.91800 50.60900 21.44600
C  24.40100 49.36000 22.14000
C  24.17900 48.08700 22.97600
N  24.93300 51.17900 27.09400
C  24.10100 51.64000 26.11600
C  22.93600 52.20300 26.71800
C  23.11100 52.06100 28.14000
C  24.35500 51.40200 28.30000
C  21.85200 52.78800 25.98700
C  22.53800 52.40100 29.42000
O  21.54800 53.04400 29.68100
C  23.57300 51.86400 30.44900
C  23.86000 52.94300 31.38600
O  24.86000 53.63800 31.34400
O  22.86300 53.17800 32.28300
C  23.23100 54.29500 33.24000
H  29.94600 48.94200 29.84300
H  29.38100 48.94300 23.46700
H  23.62000 51.63100 23.96000
H  26.43000 51.35200 32.12300
H  28.01200 48.98900 31.79600
H  29.82000 50.09200 31.88400
H  29.01700 51.28900 32.84800
H  29.11400 51.62500 31.12100
H  26.11900 48.62000 32.59800
H  24.86100 48.86700 31.44200
H  23.56900 49.92400 32.76600
H  24.64100 51.18500 33.26800
H  31.32000 47.53000 29.09300
H  32.49400 48.51700 28.21100
H  32.33200 46.90000 27.71200
H  33.25100 48.77500 26.29500
H  33.85900 48.08000 24.65000
H  33.13200 47.02200 25.86200
H  26.95100 48.83600 22.05100
H  25.47600 51.33200 22.04800
H  27.39400 51.39100 20.89700
H  28.33500 49.82800 20.81000
H  28.77100 50.97900 22.01500
H  24.63200 49.00900 21.13400
H  23.46600 49.90600 22.01200
H  23.16600 48.17100 23.37000
H  24.74500 47.93500 23.89500
H  24.28000 47.17400 22.38900
H  21.80200 52.45100 24.95200
H  22.02400 53.85900 26.09900
H  20.98300 52.48700 26.57200
H  23.02300 51.14800 31.05900
H  23.51300 55.16800 32.65200
H  24.13300 54.03800 33.79500
H  22.30700 54.54100 33.76400

