158

Mg 26.59900 50.40400 27.21300
C  24.63900 51.72200 29.96300
C  29.10700 49.61900 29.59000
C  28.42000 49.39500 24.72800
C  24.26900 51.69500 25.00800
N  26.82400 50.78100 29.53900
C  25.82700 51.18300 30.38400
C  26.33300 51.05600 31.82600
C  27.78000 50.56800 31.64600
C  27.92600 50.27100 30.15000
C  28.96800 51.52100 32.18600
C  25.39700 50.11000 32.65000
C  24.73000 50.51700 33.94100
H  25.69800 50.77300 35.14600
N  28.46100 49.62500 27.11000
C  29.30000 49.28600 28.20300
C  30.42000 48.53400 27.71100
C  30.30700 48.47300 26.27100
C  29.01500 49.18300 26.01300
C  31.59600 47.97600 28.58300
C  31.25100 47.84800 25.20000
O  31.09300 47.96100 23.99400
C  32.43200 46.82500 25.55600
N  26.47100 50.70200 25.11900
C  27.29100 50.03900 24.25800
C  26.89600 50.22400 22.83200
C  25.33400 50.59000 22.97500
C  25.30100 50.98500 24.49800
C  27.79500 51.36300 22.21700
C  24.21800 49.49700 22.64900
C  23.17900 49.91500 21.66600
N  24.75600 51.55600 27.37300
C  23.92200 51.97200 26.35200
C  22.81700 52.51000 26.95900
C  23.00600 52.47100 28.39000
C  24.17500 51.80900 28.59400
C  21.61400 53.07600 26.21200
C  22.42700 52.91900 29.70100
O  21.36600 53.47800 29.95600
C  23.44400 52.36900 30.76400
C  23.88500 53.52100 31.60400
O  24.80900 54.32700 31.29800
O  23.17300 53.57600 32.73600
C  23.65300 54.35400 33.94300
H  29.76000 49.24100 30.38000
H  28.94300 49.04200 23.83600
H  23.56400 52.02900 24.24400
H  26.33600 52.03700 32.30000
H  27.92300 49.58700 32.10000
H  29.75000 51.52400 31.42600
H  29.28300 51.13000 33.15400
H  28.74500 52.57500 32.35600
H  25.89700 49.19800 32.97700
H  24.62900 49.63800 32.03700
H  23.98800 49.72800 34.06500
H  24.29500 51.48800 33.70500
H  31.32500 46.94200 28.80000
H  31.57500 48.38100 29.59500
H  32.59900 48.19500 28.21900
H  33.28800 47.33900 25.99300
H  32.83500 46.23800 24.73000
H  32.06300 46.14100 26.32000
H  27.03000 49.35400 22.18900
H  25.23600 51.51400 22.40400
H  28.30100 51.92800 23.00000
H  27.20200 52.13400 21.72500
H  28.53900 50.88900 21.57600
H  23.69600 49.23700 23.57000
H  24.75400 48.67900 22.16800
H  22.20800 49.44800 21.82500
H  23.41000 49.76700 20.61100
H  22.93900 50.97100 21.79200
H  20.71900 52.68100 26.69200
H  21.59000 52.95700 25.12900
H  21.73600 54.14400 26.39200
H  23.06800 51.69400 31.53400
H  24.59300 54.87200 33.75200
H  23.90600 53.58100 34.66900
H  22.93000 55.02700 34.40400
Mg -5.45400 25.77900 26.42600
C  -4.11600 27.44200 29.12100
C  -7.14600 23.61200 28.59400
C  -6.56900 23.97900 23.76400
C  -3.55600 27.85300 24.19100
N  -5.55100 25.56400 28.61900
C  -5.00600 26.38700 29.51200
C  -5.46000 26.00100 30.97100
C  -6.17400 24.57400 30.68700
C  -6.38700 24.65700 29.17500
C  -5.20900 23.39000 31.07200
C  -6.40700 27.10500 31.52700
C  -6.45000 27.29800 33.04300
H  -5.88800 26.16600 33.92900
N  -6.73000 24.00300 26.17700
C  -7.31300 23.29900 27.17900
C  -8.16600 22.28200 26.63200
C  -8.08900 22.41500 25.22000
C  -7.06100 23.46600 24.97200
C  -9.07300 21.40400 27.48900
C  -8.85200 21.79400 24.16500
O  -8.62600 22.10900 23.03800
C  -9.91300 20.71100 24.49500
N  -4.82900 25.72800 24.31200
C  -5.55500 24.93200 23.41000
C  -5.13800 25.27500 21.91100
C  -4.19100 26.54700 22.04900
C  -4.16900 26.75000 23.59300
C  -4.57900 24.14000 21.01800
C  -4.71100 27.83100 21.19600
C  -5.48100 27.56800 19.91700
N  -4.14000 27.34700 26.58100
C  -3.50800 28.14500 25.54600
C  -2.77400 29.21400 26.19900
C  -2.96300 28.94700 27.62700
C  -3.75300 27.78800 27.77200
C  -1.94300 30.27700 25.65700
C  -2.64100 29.43900 28.94700
O  -1.95200 30.42600 29.32800
C  -3.44100 28.54300 29.97500
C  -2.51300 28.01200 30.97900
O  -1.73500 27.13800 30.72800
O  -2.78200 28.52000 32.23600
C  -2.05500 28.03400 33.38100
H  -7.67900 22.97200 29.30100
H  -6.88900 23.50600 22.83300
H  -3.06800 28.42700 23.40000
H  -4.60700 25.91700 31.64500
H  -7.08800 24.47900 31.27400
H  -5.18100 22.79200 30.16100
H  -5.62500 22.75700 31.85600
H  -4.20400 23.74500 31.29800
H  -7.41300 27.08100 31.10900
H  -6.14100 28.04500 31.04400
H  -7.52800 27.24700 33.19100
H  -6.17700 28.30600 33.35400
H  -8.97500 21.65100 28.54600
H  -9.02400 20.35400 27.20100
H  -10.09900 21.64800 27.21200
H  -9.40700 19.96800 25.11000
H  -10.17100 20.17300 23.58200
H  -10.77900 21.24600 24.88600
H  -6.10600 25.47900 21.45300
H  -3.20100 26.27400 21.68600
H  -3.55600 24.34800 20.70400
H  -5.33100 23.88300 20.27200
H  -4.43600 23.20100 21.55200
H  -3.80200 28.38100 20.95200
H  -5.23800 28.55800 21.81300
H  -6.49900 27.88500 20.14300
H  -5.48700 26.58100 19.45500
H  -5.00700 28.29000 19.25100
H  -1.22000 29.86100 24.95500
H  -1.25200 30.82800 26.29400
H  -2.55200 30.89200 24.99400
H  -4.29700 29.07500 30.38900
H  -2.55200 27.21700 33.90300
H  -1.96200 28.89700 34.03900
H  -1.01800 27.73100 33.23600

