158

Mg 43.37500 5.07200 47.03500
C  40.93100 7.45900 46.96500
C  40.83000 2.63700 46.75800
C  45.68100 2.72100 46.58000
C  45.82000 7.52000 47.21100
N  41.09200 5.04100 46.79200
C  40.32100 6.16800 46.85300
C  38.90100 5.82100 46.88000
C  38.86200 4.26700 46.91600
C  40.34800 3.92900 46.81800
C  38.25000 3.62200 48.21000
C  38.10200 6.36000 45.67500
C  38.71200 6.09300 44.23100
H  38.94500 7.32600 43.23200
N  43.27600 2.98600 46.80200
C  42.13000 2.18600 46.73400
C  42.55200 0.79000 46.70800
C  43.99100 0.73900 46.70800
C  44.40400 2.16000 46.74700
C  41.63800 -0.47100 46.59400
C  44.87000 -0.52200 47.00500
O  44.45800 -1.64000 47.03600
C  46.35300 -0.37600 47.19300
N  45.51700 5.14200 47.09400
C  46.20400 4.03500 46.71500
C  47.76000 4.41900 46.42300
C  47.79800 5.82500 46.88200
C  46.30200 6.21700 47.08100
C  48.84500 3.52400 47.21000
C  48.63100 6.85300 45.97900
C  49.85600 7.43500 46.64900
N  43.37700 7.11300 47.14700
C  44.42600 7.96000 47.19100
C  43.88100 9.35400 47.06600
C  42.50200 9.15600 46.94600
C  42.27800 7.79000 47.10000
C  44.82800 10.54600 46.92900
C  41.36400 9.81500 46.85700
O  41.22100 11.03300 46.69300
C  40.21000 8.78800 46.86700
C  39.29200 9.00900 47.98000
O  39.53800 8.67000 49.14900
O  38.12200 9.63300 47.48800
C  37.14900 9.99200 48.59800
H  40.06900 1.86600 46.89800
H  46.44700 2.00200 46.28200
H  46.57600 8.30800 47.18300
H  38.36900 6.18400 47.75900
H  38.42100 3.96800 45.96500
H  38.86000 2.79700 48.58000
H  37.20400 3.43600 47.96600
H  38.22300 4.38500 48.98700
H  38.02000 7.43900 45.80600
H  37.12000 5.88900 45.67900
H  38.01200 5.47300 43.67100
H  39.62900 5.50900 44.30000
H  41.88500 -1.08000 45.72500
H  40.60900 -0.13100 46.47900
H  41.79600 -1.09700 47.47300
H  46.40500 0.31700 48.03300
H  46.84900 -0.01200 46.29400
H  46.68100 -1.34600 47.56800
H  47.90200 4.25600 45.35500
H  48.20300 5.83200 47.89400
H  49.30900 2.79400 46.54600
H  48.26600 2.94600 47.93000
H  49.67300 4.07200 47.65800
H  48.16600 7.81300 45.75800
H  48.94800 6.36900 45.05500
H  49.92900 8.51900 46.55300
H  50.79100 7.02800 46.26300
H  50.05100 7.14600 47.68100
H  45.64800 10.38900 46.22800
H  45.24900 10.78800 47.90500
H  44.19700 11.39100 46.65500
H  39.69000 8.92700 45.92000
H  36.80800 9.06700 49.06200
H  36.27600 10.46400 48.14600
H  37.69800 10.63200 49.28800
Mg 49.06100 45.81500 43.15200
C  45.63000 45.74900 42.21900
C  49.09400 42.51800 42.28600
C  52.49400 46.06300 42.97000
C  48.80900 49.27500 43.63100
N  47.55000 44.34300 42.23100
C  46.23800 44.50900 41.99000
C  45.42300 43.18900 41.64900
C  46.54700 42.21000 41.88600
C  47.78900 43.06100 42.31200
C  46.28700 41.05600 42.82300
C  44.70700 43.07000 40.23000
C  45.39600 43.76200 39.03000
H  45.24600 42.91700 37.75000
N  50.59800 44.50800 42.59600
C  50.38800 43.17100 42.39500
C  51.62300 42.50800 42.23400
C  52.63600 43.49100 42.37600
C  51.95400 44.74700 42.63700
C  51.77100 41.01000 41.86300
C  54.11100 43.18300 42.33400
O  54.45800 41.98700 42.10100
C  55.09200 44.29900 42.46900
N  50.39100 47.50100 43.14000
C  51.78200 47.27700 43.16200
C  52.52100 48.62900 43.33900
C  51.33200 49.63400 43.56900
C  50.11600 48.77500 43.46000
C  53.67500 48.67000 44.32500
C  51.21700 50.73400 42.50600
C  50.74400 52.15800 42.94700
N  47.48100 47.24800 43.17300
C  47.55300 48.61900 43.38800
C  46.22800 49.17500 43.27700
C  45.41000 48.13300 42.76600
C  46.21600 46.94300 42.76500
C  45.82600 50.68500 43.46600
C  44.12100 47.77700 42.16600
O  43.11500 48.44000 41.95600
C  44.15200 46.21500 41.84200
C  43.07000 45.48600 42.62300
O  42.37900 44.53900 42.30200
O  42.90200 46.12100 43.86900
C  41.94400 45.45600 44.76800
H  49.17700 41.47600 41.97100
H  53.56800 46.22300 43.08400
H  48.64800 50.30000 43.97200
H  44.66500 43.15200 42.43100
H  46.84600 41.83000 40.90900
H  46.53100 40.13900 42.28700
H  45.24800 41.05900 43.15400
H  46.82300 41.26800 43.74800
H  43.64900 43.32600 40.29800
H  44.69200 42.00000 40.02500
H  46.47700 43.71900 39.16000
H  45.06000 44.77800 38.82200
H  51.96400 41.01300 40.79000
H  50.96700 40.32000 42.11800
H  52.64800 40.64700 42.40000
H  55.02100 44.69500 41.45600
H  56.06100 43.80100 42.50400
H  54.95600 44.88800 43.37600
H  52.92600 48.87600 42.35700
H  51.39400 50.01500 44.58800
H  53.38500 49.39700 45.08400
H  54.52200 49.00600 43.72800
H  53.81400 47.68200 44.76500
H  50.46100 50.41600 41.78900
H  52.20800 50.90500 42.08500
H  50.41400 52.13200 43.98600
H  49.89400 52.40300 42.31000
H  51.48900 52.93000 42.75600
H  46.66000 51.26300 43.06800
H  45.75400 50.80200 44.54700
H  44.89400 50.82300 42.91700
H  44.10600 45.87300 40.80800
H  42.07400 45.77400 45.80300
H  42.42400 44.47800 44.74400
H  40.93300 45.49600 44.36300

