158

Mg 46.64400 16.21600 28.39700
C  44.54300 16.17800 31.27300
C  48.83500 18.21900 30.32100
C  47.99800 17.24200 25.66500
C  44.17900 14.58500 26.65300
N  46.65700 17.13600 30.55700
C  45.70300 16.89200 31.51300
C  46.21600 17.40300 32.91800
C  47.56900 18.11500 32.59700
C  47.71400 17.82700 31.05600
C  47.62700 19.66800 32.92800
C  46.48700 16.19100 33.89300
C  46.26900 16.51400 35.43600
H  46.13200 17.98200 35.91900
N  48.31500 17.46300 28.00400
C  49.02100 18.19400 28.95900
C  49.99500 18.94700 28.25100
C  49.73600 18.82100 26.83100
C  48.70100 17.80000 26.73900
C  51.08800 19.69100 29.02100
C  50.39300 19.41800 25.58800
O  50.16200 19.03800 24.42900
C  51.32000 20.57000 25.78700
N  46.16200 15.84600 26.40400
C  46.89500 16.34500 25.43500
C  46.44600 15.93500 24.05800
C  45.49300 14.72200 24.37400
C  45.29800 14.95100 25.87000
C  45.80200 17.13400 23.33800
C  45.96600 13.25400 24.01400
C  45.20900 12.58700 22.87400
N  44.80000 15.44700 28.89100
C  43.90200 14.81500 28.07900
C  42.73200 14.42100 28.75400
C  42.93700 14.92800 30.02900
C  44.26300 15.50100 30.07900
C  41.52000 13.79800 28.21300
C  42.29000 15.06500 31.33700
O  41.21500 14.73900 31.77000
C  43.39700 15.91900 32.18700
C  42.91800 17.22900 32.75200
O  42.78500 18.26600 32.16200
O  42.55900 16.95200 34.02200
C  41.91300 18.10300 34.67900
H  49.60000 18.72200 30.91600
H  48.40500 17.70800 24.76500
H  43.51900 13.89800 26.11900
H  45.52000 18.15000 33.30000
H  48.52000 17.71400 32.95000
H  48.52500 19.90200 33.49900
H  46.80400 19.95800 33.58100
H  47.59000 20.20400 31.98000
H  47.51200 15.82700 33.82400
H  45.92800 15.30000 33.60600
H  47.12900 16.08400 35.94900
H  45.41100 15.99000 35.85800
H  51.85200 19.00800 29.39300
H  50.70900 20.24100 29.88300
H  51.59600 20.39500 28.36200
H  50.97600 21.38000 26.43100
H  51.41700 20.92200 24.76000
H  52.28700 20.14900 26.06200
H  47.32400 15.62300 23.49400
H  44.54200 14.88300 23.86500
H  46.60600 17.74900 22.93200
H  45.23400 17.63100 24.12400
H  45.03400 16.83000 22.62700
H  45.87800 12.53300 24.82700
H  46.98100 13.36700 23.63500
H  44.37100 13.23900 22.62700
H  44.80000 11.59600 23.07000
H  45.91000 12.43500 22.05300
H  41.35700 13.95100 27.14600
H  40.70300 14.42300 28.57400
H  41.47700 12.71100 28.27100
H  43.79800 15.30200 32.99100
H  41.86900 17.85300 35.73900
H  40.88200 18.17700 34.33600
H  42.65900 18.88200 34.52000
Mg 26.99400 50.28700 26.64800
C  24.90000 51.35300 29.28000
C  29.48000 49.86500 28.95000
C  28.97000 49.86600 24.03800
C  24.39300 51.41500 24.36000
N  27.12400 50.61600 28.92700
C  26.13500 50.92900 29.78400
C  26.53800 50.81800 31.22700
C  28.01900 50.27500 31.04000
C  28.26800 50.27700 29.53400
C  29.11900 51.07700 31.78500
C  25.65600 49.97900 32.11600
C  24.96100 50.57500 33.37700
H  24.93700 49.70400 34.70900
N  28.93200 49.88000 26.52800
C  29.82500 49.66000 27.59400
C  31.11800 49.41400 26.99700
C  30.98800 49.50400 25.53200
C  29.54500 49.78500 25.34200
C  32.30000 49.23000 27.89300
C  32.09500 49.35700 24.53800
O  31.88600 49.64600 23.36300
C  33.43500 48.94100 25.03400
N  26.63900 50.46900 24.45000
C  27.63800 50.22900 23.63300
C  27.18700 50.29300 22.18400
C  25.70300 50.66100 22.29100
C  25.52600 50.88100 23.79200
C  28.04900 51.10500 21.19800
C  24.66600 49.65100 21.71700
C  23.81400 49.97700 20.44300
N  25.02100 51.15900 26.70900
C  24.16300 51.57600 25.71500
C  22.98800 52.17600 26.27700
C  23.18500 52.01500 27.73100
C  24.47700 51.47700 27.94600
C  21.94000 53.04100 25.57500
C  22.63300 52.37200 29.02000
O  21.59700 53.01600 29.28500
C  23.65300 51.85800 30.12800
C  23.98500 53.04600 30.93200
O  24.78800 53.90100 30.60900
O  23.15000 53.14500 32.06800
C  23.35600 54.20200 32.96600
H  30.19000 49.52800 29.70900
H  29.59200 49.81400 23.14100
H  23.52900 51.66400 23.74100
H  26.57600 51.84900 31.57900
H  28.08100 49.25700 31.42400
H  29.97800 50.44100 31.99900
H  28.66000 51.43600 32.70600
H  29.33700 51.95300 31.17400
H  26.17900 49.10200 32.49900
H  24.86600 49.54200 31.50400
H  23.89500 50.64800 33.16500
H  25.28100 51.59600 33.58700
H  32.97300 50.02900 27.58100
H  32.73100 48.24200 27.73000
H  32.18300 49.37100 28.96700
H  33.99200 48.59100 24.16500
H  33.44500 48.11200 25.74200
H  33.81800 49.79800 25.58900
H  27.24000 49.34300 21.65100
H  25.49700 51.61700 21.81000
H  27.40600 51.77200 20.62400
H  28.46200 50.43600 20.44300
H  28.92700 51.62400 21.58200
H  23.83900 49.41100 22.38500
H  25.15500 48.74100 21.36700
H  24.14400 50.93200 20.03400
H  22.76800 50.12900 20.70900
H  23.72900 49.26800 19.62000
H  22.50200 53.91100 25.23400
H  21.11800 53.33600 26.22700
H  21.53500 52.44700 24.75500
H  23.22400 51.06300 30.73800
H  24.09800 53.86300 33.69000
H  22.42800 54.41900 33.49500
H  23.76900 55.11200 32.53100

