158

Mg 26.53900 0.04200 28.75300
C  28.32600 -0.51400 31.76800
C  23.66000 0.01700 30.66100
C  24.91100 0.59600 25.91300
C  29.48000 -0.87400 26.86600
N  26.10300 -0.28700 30.89600
C  26.98400 -0.17000 31.99700
C  26.32400 0.12600 33.36000
C  24.78800 -0.03100 33.01800
C  24.84500 -0.10400 31.43400
C  24.04600 -1.20100 33.67700
C  26.73700 1.42200 34.14500
C  27.08000 1.17000 35.60500
H  26.50400 1.97800 36.76900
N  24.49700 0.34900 28.38700
C  23.47000 0.19600 29.24300
C  22.21400 0.55000 28.54100
C  22.59500 0.85100 27.14500
C  24.03600 0.59500 27.07600
C  20.80200 0.56400 29.19400
C  21.75600 1.19500 25.93700
O  22.15400 1.54200 24.85500
C  20.25300 1.32300 26.17200
N  27.11700 -0.12500 26.66400
C  26.27800 0.27800 25.74800
C  26.85600 0.17000 24.28800
C  28.36300 -0.14300 24.61900
C  28.32900 -0.41800 26.12200
C  26.22600 -0.88300 23.27600
C  29.30900 1.07500 24.20500
C  30.77800 0.68700 23.81600
N  28.53900 -0.60200 29.18400
C  29.62400 -0.97400 28.26700
C  30.74100 -1.30400 29.09500
C  30.31300 -1.15700 30.38100
C  28.94500 -0.73500 30.47200
C  32.10700 -1.64100 28.69000
C  30.67600 -1.29000 31.82300
O  31.70500 -1.70100 32.39400
C  29.47200 -0.80100 32.68900
C  29.03500 -1.85500 33.63500
O  28.64500 -2.97700 33.30100
O  29.16300 -1.40000 34.92800
C  29.05500 -2.44900 35.90900
H  22.73300 0.14000 31.22500
H  24.47100 0.91800 24.96700
H  30.29400 -1.20100 26.21600
H  26.42300 -0.76300 33.98300
H  24.33300 0.89800 33.36100
H  24.30200 -2.18800 33.29400
H  23.02400 -0.93600 33.40600
H  24.06500 -1.26100 34.76600
H  25.88900 2.10700 34.15300
H  27.62700 1.78800 33.63300
H  28.16400 1.20900 35.71500
H  26.81400 0.15000 35.88200
H  20.39000 1.55700 29.36900
H  20.88200 0.07800 30.16700
H  20.21000 -0.03900 28.50500
H  19.90400 0.29400 26.26100
H  19.85000 1.75800 25.25800
H  19.88000 1.97500 26.96300
H  26.71500 1.16000 23.85600
H  28.68500 -1.02600 24.06700
H  25.23400 -1.06200 23.69000
H  26.85200 -1.75700 23.09700
H  26.00700 -0.40600 22.32000
H  29.35000 1.80200 25.01600
H  28.79400 1.52600 23.35600
H  30.93000 -0.39100 23.77500
H  31.42900 1.11600 24.57800
H  31.11900 1.07600 22.85600
H  32.65900 -0.77800 28.31800
H  31.96900 -2.45600 27.98000
H  32.53000 -2.16700 29.54600
H  29.62200 0.11500 33.26100
H  29.27500 -2.03500 36.89300
H  29.86700 -3.16200 35.76900
H  28.15100 -3.05800 35.92800
Mg 16.12000 51.41600 24.83400
C  17.45400 50.61000 27.88700
C  13.14600 52.33400 26.66400
C  14.63500 52.44900 22.07300
C  18.70800 50.20700 23.14000
N  15.45600 51.74700 27.10300
C  16.26400 51.30800 28.12400
C  15.68700 51.83000 29.45100
C  14.24100 52.20300 29.07900
C  14.27800 52.10100 27.54000
C  13.16100 51.36500 29.79700
C  16.53700 53.02800 30.11500
C  16.71100 53.08500 31.61800
H  15.55700 52.33100 32.48100
N  14.24900 52.26600 24.39200
C  13.12700 52.56800 25.26500
C  12.05100 53.06200 24.58200
C  12.48900 53.14300 23.17300
C  13.79000 52.61200 23.15200
C  10.74100 53.42700 25.24000
C  11.72700 53.63800 21.94000
O  12.20400 53.84300 20.83800
C  10.35000 54.05900 22.10800
N  16.58000 51.15800 22.79100
C  15.79100 51.69000 21.83800
C  16.43100 51.43600 20.45200
C  17.85800 50.94000 20.87100
C  17.76800 50.81600 22.35400
C  15.83800 50.37500 19.51400
C  18.98200 52.01100 20.50300
C  18.92500 52.52400 19.09000
N  17.76300 50.59700 25.34500
C  18.77500 50.06900 24.54500
C  19.84900 49.51700 25.39700
C  19.31600 49.70000 26.65100
C  18.08700 50.29900 26.58100
C  21.08200 48.90200 24.90800
C  19.68500 49.53600 28.04600
O  20.66500 49.12300 28.61900
C  18.52400 50.11300 28.87900
C  18.07500 49.17800 29.99800
O  17.19400 48.34800 29.90400
O  18.86300 49.42600 31.11200
C  18.36700 48.89200 32.38000
H  12.21100 52.59800 27.16300
H  14.28400 52.96500 21.17800
H  19.65800 49.97900 22.65200
H  15.72700 51.05400 30.21500
H  13.94700 53.23700 29.26100
H  12.33500 52.01300 30.08900
H  13.50300 50.86600 30.70400
H  12.84100 50.56500 29.13000
H  15.94200 53.85300 29.72200
H  17.52800 53.08200 29.66500
H  16.93200 54.07200 32.02400
H  17.66800 52.57700 31.73800
H  10.31700 54.31300 24.76700
H  10.75000 53.69000 26.29800
H  10.13000 52.54200 25.06200
H  9.60800 53.41300 22.57800
H  10.01000 54.34500 21.11200
H  10.46600 54.95900 22.71100
H  16.45500 52.44000 20.03000
H  18.14700 49.97000 20.46800
H  15.24700 49.68800 20.11900
H  16.55800 49.82700 18.90600
H  15.09400 50.78600 18.83200
H  19.90700 51.44100 20.58600
H  18.93600 52.78900 21.26400
H  18.44400 51.79700 18.43600
H  19.98700 52.54600 18.84400
H  18.41900 53.47900 18.95100
H  21.88000 49.64400 24.95000
H  20.87500 48.48500 23.92300
H  21.46700 48.11900 25.56100
H  18.97600 50.95500 29.40200
H  17.59800 49.55800 32.77000
H  19.09200 48.90100 33.19400
H  18.05200 47.85100 32.30900

