158

Mg 35.80700 0.88500 29.44000
C  33.38500 2.09900 31.80900
C  38.11300 0.92700 31.86400
C  37.95400 0.28500 27.03900
C  33.28800 1.46500 26.97600
N  35.75900 1.50000 31.57600
C  34.67800 1.91200 32.34200
C  35.15000 2.01100 33.84000
C  36.67900 1.86200 33.74900
C  36.90600 1.40900 32.33400
C  37.45100 3.13500 34.06600
C  34.46500 0.93300 34.65300
C  34.14400 1.12900 36.12300
H  34.35300 2.50600 36.67000
N  37.78200 0.64000 29.44500
C  38.52200 0.57200 30.57400
C  39.76200 0.02300 30.18200
C  39.81900 -0.20600 28.78000
C  38.47500 0.20200 28.34700
C  40.84200 -0.20600 31.22400
C  40.89200 -0.69600 27.88700
O  40.90200 -0.71600 26.67100
C  42.20200 -1.05800 28.54400
N  35.70800 0.96500 27.30700
C  36.76400 0.60900 26.56700
C  36.28900 0.54900 25.10800
C  34.72000 0.76300 25.11200
C  34.58300 1.11400 26.54200
C  37.01700 1.60200 24.24800
C  33.93900 -0.43400 24.59300
C  32.90400 -0.08100 23.52800
N  33.75900 1.47700 29.35100
C  32.88800 1.76500 28.27700
C  31.60500 2.12500 28.72500
C  31.79100 2.35400 30.10800
C  33.06400 1.95600 30.44500
C  30.38100 2.49700 27.90200
C  31.07900 2.80200 31.22400
O  29.96600 3.26900 31.39500
C  32.09600 2.66800 32.49000
C  32.29300 4.00100 33.16200
O  33.11400 4.87500 32.85100
O  31.45400 4.14100 34.22900
C  31.46900 5.46600 34.91400
H  38.86500 0.92500 32.65700
H  38.64500 -0.14600 26.31100
H  32.46700 1.51000 26.25800
H  34.93400 3.00800 34.22200
H  36.94000 0.99200 34.35200
H  36.83400 4.02000 34.22200
H  38.12800 3.42200 33.26100
H  38.02400 2.88600 34.95900
H  35.11500 0.05900 34.62100
H  33.49400 0.72000 34.20700
H  34.74400 0.44900 36.72800
H  33.09000 0.86800 36.21700
H  41.84500 -0.05800 30.82600
H  40.74200 -1.24700 31.53100
H  40.73700 0.34900 32.15700
H  42.20100 -1.62100 29.47700
H  42.93300 -0.26800 28.71200
H  42.57500 -1.78600 27.82300
H  36.54900 -0.41200 24.66500
H  34.51900 1.69900 24.59200
H  37.00600 1.29400 23.20300
H  38.04100 1.62400 24.62100
H  36.68200 2.60900 24.49800
H  33.41100 -0.83000 25.46000
H  34.57300 -1.21900 24.18100
H  32.18600 0.64000 23.92000
H  32.27200 -0.89600 23.17500
H  33.36600 0.26600 22.60400
H  30.11900 1.56300 27.40500
H  30.63500 3.18000 27.09200
H  29.52000 2.77300 28.51100
H  31.69700 1.92300 33.17800
H  30.41000 5.71200 34.83700
H  32.18800 6.16600 34.48900
H  31.68900 5.32900 35.97300
Mg 47.81300 34.63300 27.59100
C  45.79300 33.10600 29.83800
C  48.16400 37.29700 29.50200
C  49.42800 36.32200 24.99200
C  47.13700 32.02000 25.19800
N  47.01200 35.13600 29.45900
C  46.29100 34.28600 30.28900
C  46.26300 34.89400 31.70700
C  46.65700 36.40100 31.51300
C  47.26800 36.33200 30.07000
C  45.50500 37.45400 31.63400
C  47.28900 34.08700 32.66000
C  46.77500 33.80900 34.07100
H  47.62800 34.57600 35.13600
N  48.83800 36.41700 27.32200
C  48.87000 37.34000 28.31100
C  49.78100 38.35600 27.97400
C  50.30800 38.03400 26.68200
C  49.50000 36.87800 26.26700
C  50.00500 39.60900 28.78500
C  51.29100 38.82800 25.78900
O  51.53700 38.43300 24.64200
C  52.11600 40.04800 26.29100
N  48.04400 34.32300 25.33200
C  48.90700 35.07700 24.61100
C  49.03800 34.54100 23.14800
C  48.33300 33.11200 23.23000
C  47.75100 33.17800 24.65200
C  48.44600 35.39600 22.03000
C  49.44500 31.96000 23.03400
C  50.26500 31.50500 24.32800
N  46.67000 33.01500 27.43500
C  46.62600 31.95200 26.53700
C  45.88000 30.88700 27.09200
C  45.50700 31.28900 28.34300
C  45.97900 32.56300 28.48600
C  45.43800 29.59700 26.42100
C  44.78400 30.97900 29.55600
O  44.27700 29.89900 29.92000
C  44.82100 32.22400 30.43900
C  44.91500 31.79400 31.84300
O  45.85900 31.16100 32.41900
O  43.69900 32.00600 32.51500
C  43.69700 31.56000 33.89100
H  48.24400 38.11400 30.22300
H  49.81800 36.85000 24.12000
H  47.22600 31.08300 24.64400
H  45.23400 34.77300 32.04600
H  47.43700 36.70600 32.21100
H  44.64300 37.16700 32.23600
H  45.17500 37.78200 30.64800
H  45.84200 38.32300 32.19900
H  48.21700 34.65400 32.58800
H  47.63400 33.17100 32.17900
H  46.87100 32.75700 34.34000
H  45.75000 34.11900 34.27300
H  49.71600 40.41200 28.10800
H  51.06900 39.67000 29.01600
H  49.46100 39.69300 29.72600
H  51.48800 40.93800 26.32500
H  52.93500 40.21600 25.59100
H  52.46200 39.90800 27.31500
H  50.11600 34.52800 22.98600
H  47.57300 32.90600 22.47600
H  49.14100 35.54900 21.20400
H  48.20000 36.33100 22.53300
H  47.48100 35.10000 21.62100
H  50.02800 32.25000 22.16000
H  48.99700 31.03000 22.68400
H  49.87900 31.91500 25.26100
H  51.31200 31.80100 24.26000
H  50.37200 30.42100 24.36000
H  45.32900 28.84900 27.20500
H  46.21900 29.36500 25.69700
H  44.47200 29.83200 25.97400
H  43.81400 32.63000 30.34300
H  42.86600 30.85400 33.89000
H  43.51100 32.39200 34.56900
H  44.60200 31.26800 34.42400

