158

Mg 24.09300 -5.73500 45.76200
C  26.34100 -3.39600 44.48100
C  21.70400 -4.70200 43.44600
C  22.34400 -8.75500 46.12900
C  26.74900 -7.18700 47.52600
N  24.11500 -4.32000 44.08100
C  25.16900 -3.42900 43.73200
C  24.75400 -2.48500 42.57400
C  23.18900 -2.73000 42.53600
C  22.97000 -3.97400 43.44600
C  22.26500 -1.52700 42.84400
C  25.51400 -2.86900 41.19700
C  26.22000 -1.78800 40.43100
H  25.61200 -1.30000 39.21500
N  22.23500 -6.55500 44.96900
C  21.42200 -5.91700 44.09200
C  20.21200 -6.66500 43.96100
C  20.33600 -7.87000 44.75700
C  21.69400 -7.77700 45.41000
C  19.05900 -6.16200 43.11100
C  19.38800 -9.02400 44.84700
O  18.34200 -9.08900 44.24900
C  19.50700 -10.14900 45.85600
N  24.44100 -7.65900 46.69300
C  23.62300 -8.69700 46.66900
C  24.22100 -9.96500 47.33700
C  25.58300 -9.45300 47.92400
C  25.64700 -8.04700 47.28500
C  23.23800 -10.72300 48.39300
C  26.79700 -10.40200 47.49800
C  27.64400 -10.81100 48.72900
N  26.13300 -5.40800 46.04500
C  27.07000 -6.01900 46.83800
C  28.31500 -5.30400 46.85100
C  28.06700 -4.19700 45.97900
C  26.76500 -4.38100 45.45600
C  29.63200 -5.71600 47.48500
C  28.66400 -2.99900 45.38500
O  29.74800 -2.52500 45.50100
C  27.57000 -2.46800 44.39200
C  27.14100 -1.03000 44.75700
O  26.10800 -0.65400 45.30700
O  28.14400 -0.13900 44.26400
C  28.05400 1.33600 44.68000
H  20.97200 -4.05900 42.95400
H  21.83100 -9.68900 46.36700
H  27.47400 -7.60200 48.22900
H  25.06800 -1.50400 42.92900
H  22.95000 -3.04600 41.52000
H  22.86400 -0.62700 42.98300
H  21.73700 -1.72000 43.77800
H  21.59800 -1.25300 42.02700
H  24.79500 -3.30700 40.50400
H  26.22200 -3.63900 41.50300
H  27.25300 -2.12200 40.33600
H  26.14700 -0.93900 41.11100
H  19.22100 -6.36600 42.05200
H  18.68600 -5.14000 43.17500
H  18.17400 -6.76800 43.30300
H  19.78900 -9.58100 46.74200
H  20.27800 -10.87100 45.58800
H  18.62100 -10.68600 46.19600
H  24.41900 -10.71100 46.56800
H  25.46900 -9.38400 49.00600
H  23.74500 -11.04100 49.30400
H  22.61800 -11.54600 48.03500
H  22.46700 -9.99600 48.64800
H  27.42100 -9.95700 46.72300
H  26.42600 -11.26800 46.94900
H  28.32800 -9.98500 48.92900
H  28.10700 -11.79100 48.61200
H  27.05000 -10.92400 49.63600
H  29.84700 -6.69600 47.06000
H  29.64300 -6.09800 48.50600
H  30.39600 -4.95800 47.31000
H  28.00100 -2.46600 43.39100
H  28.33300 1.93000 43.81000
H  28.78700 1.54500 45.46000
H  27.01700 1.57200 44.91900
Mg -9.87900 16.83500 41.66900
C  -6.22900 16.57800 41.77700
C  -9.46700 20.33700 41.51700
C  -12.90700 16.77700 40.70700
C  -9.75700 13.26500 41.63700
N  -8.16400 18.23200 41.52500
C  -6.77200 17.90300 41.65200
C  -5.99400 19.15700 41.53800
C  -6.97300 20.24800 42.03000
C  -8.28200 19.59200 41.58900
C  -7.03100 20.55800 43.56200
C  -5.57000 19.34700 40.07900
C  -4.09100 18.83400 39.69500
H  -3.90900 18.03100 38.42300
N  -11.01900 18.36000 41.15800
C  -10.70000 19.71800 41.16900
C  -11.90000 20.37800 40.83200
C  -12.96000 19.41500 40.70800
C  -12.37100 18.07000 40.81500
C  -11.92700 21.93300 40.57700
C  -14.41100 19.71800 40.49400
O  -14.77700 20.82400 40.14100
C  -15.46100 18.66600 40.32300
N  -11.11500 15.17000 41.04100
C  -12.36400 15.51300 40.80100
C  -13.19000 14.24800 40.55700
C  -12.20100 13.07800 41.01300
C  -10.98400 13.83300 41.27900
C  -14.50800 14.26200 41.25400
C  -12.07500 11.97600 40.02100
C  -12.89400 10.67500 40.26700
N  -8.31400 15.15000 41.80900
C  -8.43600 13.78300 41.91500
C  -7.15600 13.11400 42.13300
C  -6.26500 14.18700 42.13400
C  -6.99000 15.38400 41.83300
C  -6.81500 11.72400 42.23300
C  -4.87500 14.58000 42.28000
O  -3.86600 13.97200 42.55900
C  -4.78300 16.10100 42.02000
C  -4.07500 16.80200 43.10200
O  -3.05900 17.46200 42.99400
O  -4.66200 16.63800 44.36100
C  -4.01800 17.22900 45.53500
H  -9.33800 21.42200 41.52900
H  -13.89400 16.71500 40.24200
H  -9.81500 12.19200 41.83300
H  -5.14900 19.12200 42.22600
H  -6.85000 21.15800 41.44200
H  -6.15300 20.32900 44.16600
H  -7.85200 20.05100 44.06700
H  -7.09300 21.62800 43.76400
H  -5.68800 20.41800 39.91200
H  -6.22000 18.72500 39.46300
H  -3.70000 18.32800 40.57700
H  -3.58100 19.78800 39.56200
H  -12.00700 22.47300 41.52000
H  -12.87600 22.30200 40.19000
H  -11.12200 22.35900 39.97900
H  -15.50900 18.06400 39.41600
H  -16.47100 19.07800 40.31100
H  -15.37300 17.99900 41.18000
H  -13.36700 14.25100 39.48100
H  -12.48500 12.63900 41.96900
H  -15.35500 14.39300 40.58100
H  -14.46600 15.05500 42.00000
H  -14.73200 13.33200 41.77600
H  -11.02000 11.73700 39.88600
H  -12.42800 12.34400 39.05700
H  -13.31100 10.71400 41.27400
H  -12.29800 9.77900 40.09500
H  -13.69000 10.57400 39.52900
H  -5.90400 11.62200 42.82400
H  -6.47100 11.39900 41.25100
H  -7.60700 11.03000 42.51300
H  -4.21300 16.22100 41.09800
H  -3.09300 16.66600 45.66000
H  -4.61900 17.12300 46.43800
H  -3.82800 18.29500 45.41100

