158

Mg 1.53500 8.68200 27.25900
C  2.20000 10.51100 30.21000
C  1.19100 5.82400 29.07100
C  1.10700 7.10400 24.39900
C  1.75900 11.81900 25.56100
N  1.86100 8.19400 29.38800
C  1.97600 9.11300 30.50000
C  1.85400 8.38400 31.84900
C  1.69800 6.92400 31.38900
C  1.60400 6.90600 29.85500
C  2.87800 5.92200 31.78100
C  0.69600 8.99900 32.75300
C  1.20100 9.27800 34.23700
H  2.15800 8.22200 34.82600
N  1.20800 6.77300 26.80000
C  1.00100 5.68100 27.65400
C  0.60600 4.51800 26.90000
C  0.62000 4.86400 25.55300
C  1.00700 6.30900 25.51300
C  0.35700 3.18500 27.60000
C  0.32100 4.03700 24.27300
O  0.28000 4.52000 23.13200
C  0.13900 2.52600 24.42300
N  1.44900 9.40500 25.36200
C  1.29500 8.50000 24.33300
C  1.21700 9.16500 22.94400
C  1.07100 10.65600 23.35000
C  1.51500 10.64800 24.86500
C  2.52100 8.83600 22.20800
C  -0.30000 11.25700 23.11500
C  -0.46500 12.22300 21.90500
N  1.94000 10.80600 27.74300
C  2.05100 11.93500 26.95900
C  2.31700 13.08100 27.80800
C  2.54500 12.57200 29.04400
C  2.20600 11.19600 28.97700
C  2.38400 14.53700 27.36000
C  2.90400 12.87900 30.39900
O  3.26700 13.97200 30.86300
C  2.56700 11.59400 31.21500
C  3.65100 11.29100 32.17100
O  4.58900 10.51100 31.98300
O  3.34100 11.99900 33.36700
C  4.32000 11.93100 34.46700
H  1.12700 4.94000 29.70900
H  1.06400 6.60900 23.42700
H  1.62200 12.75700 25.01800
H  2.82300 8.41100 32.34700
H  0.74700 6.49300 31.70200
H  3.71500 5.91800 31.08300
H  2.45600 4.91700 31.75000
H  3.22500 6.07700 32.80200
H  -0.07600 8.23100 32.80500
H  0.38900 9.91200 32.24300
H  0.37900 9.35800 34.94800
H  1.78700 10.19100 34.33800
H  0.74600 2.28900 27.11500
H  -0.70600 3.12300 27.83200
H  0.88500 3.16500 28.55300
H  1.17100 2.21100 24.57400
H  -0.25200 2.12400 23.48800
H  -0.66700 2.40700 25.14700
H  0.34100 8.90400 22.35000
H  1.80800 11.19500 22.75400
H  2.30700 8.29400 21.28700
H  3.21800 8.23200 22.78900
H  3.11500 9.73600 22.04500
H  -0.48400 11.85900 24.00500
H  -1.17900 10.61600 23.05600
H  -1.21300 11.89600 21.18300
H  0.43800 12.25400 21.29600
H  -0.72100 13.22000 22.26400
H  1.77300 15.19400 27.97800
H  2.01200 14.52000 26.33500
H  3.36900 14.96800 27.17400
H  1.61900 11.84600 31.68800
H  3.72300 11.75700 35.36200
H  4.86100 12.87700 34.46400
H  4.94100 11.04200 34.35200
Mg 35.65600 2.18900 30.10400
C  32.95000 3.09600 32.24000
C  37.81800 2.59200 32.84700
C  38.15500 1.73400 28.01200
C  33.31800 2.22500 27.54400
N  35.42100 2.91100 32.34900
C  34.18500 2.95000 32.97800
C  34.44300 3.08200 34.51800
C  36.01400 3.42100 34.59700
C  36.46400 2.94600 33.22600
C  36.39100 4.90100 34.85000
C  34.07200 1.88600 35.32400
C  33.46700 2.09200 36.68600
H  34.17500 3.06400 37.62900
N  37.65300 1.99800 30.45500
C  38.38500 2.10800 31.58700
C  39.80200 1.86300 31.34600
C  39.93900 1.49900 29.94100
C  38.55900 1.74000 29.42900
C  40.85700 1.87400 32.46400
C  41.11700 1.07200 29.06800
O  41.13300 0.95200 27.88000
C  42.42400 0.76600 29.74300
N  35.68000 1.94200 28.06100
C  36.89900 1.80700 27.43500
C  36.71000 1.52200 25.93600
C  35.10900 1.26700 25.86400
C  34.61100 1.81900 27.22900
C  37.07600 2.75700 25.04200
C  34.63000 -0.19100 25.69500
C  33.60300 -0.39800 24.59500
N  33.62300 2.87000 29.82200
C  32.76300 2.77200 28.71000
C  31.31700 3.04400 29.07700
C  31.43500 3.27200 30.46300
C  32.81300 3.04900 30.82300
C  30.12600 3.01200 28.14800
C  30.62300 3.61600 31.64800
O  29.48700 3.83400 31.79900
C  31.57300 3.49200 32.85100
C  31.49200 4.78700 33.50700
O  31.93400 5.81900 33.07900
O  31.09500 4.56700 34.79200
C  31.35200 5.67700 35.69300
H  38.42300 2.70700 33.74900
H  38.95300 1.45900 27.32000
H  32.61100 1.97700 26.74900
H  33.83500 3.82900 35.02900
H  36.32100 2.84800 35.47200
H  35.47100 5.31500 35.26300
H  36.62800 5.52400 33.98700
H  37.10600 5.01300 35.66500
H  34.87100 1.14400 35.34700
H  33.34500 1.36100 34.70500
H  33.47300 1.12800 37.19300
H  32.48500 2.48300 36.41800
H  41.58100 1.06300 32.38900
H  40.41200 1.72900 33.44800
H  41.35300 2.84500 32.47000
H  42.24700 -0.18400 30.24800
H  42.60200 1.69000 30.29400
H  43.14200 0.73000 28.92400
H  37.15600 0.58000 25.61900
H  34.55300 1.92400 25.19500
H  37.20700 3.68000 25.60600
H  36.25100 2.91200 24.34700
H  38.02100 2.66300 24.50700
H  34.30600 -0.69000 26.60800
H  35.51400 -0.70700 25.32000
H  33.24400 0.52400 24.13900
H  32.64100 -0.79100 24.92100
H  33.98500 -1.04200 23.80200
H  29.41600 2.26800 28.51200
H  30.38800 2.63000 27.16200
H  29.78300 4.04500 28.10100
H  31.19800 2.73200 33.53600
H  32.22200 6.27700 35.42700
H  31.52900 5.30100 36.70000
H  30.47700 6.32300 35.61700

