158

Mg 17.29200 -2.58500 28.29600
C  16.48700 -0.25000 30.64700
C  19.09300 -4.32000 30.56900
C  18.57800 -4.43700 25.73100
C  15.88600 -0.45400 25.82900
N  17.73400 -2.24600 30.35700
C  17.22200 -1.34400 31.19700
C  17.68700 -1.55400 32.65800
C  18.68700 -2.72100 32.49700
C  18.49400 -3.10300 31.05000
C  20.27400 -2.43000 32.75600
C  16.43800 -1.90500 33.54200
C  16.28400 -1.20400 34.88200
H  17.53800 -0.64100 35.53400
N  18.48400 -4.25400 28.18900
C  19.13300 -4.83500 29.26900
C  19.83300 -6.04000 28.90200
C  19.70800 -6.06600 27.48700
C  18.93700 -4.87800 27.03800
C  20.61200 -7.05700 29.86500
C  20.29100 -7.00500 26.55900
O  20.20300 -6.85000 25.36000
C  21.00700 -8.20700 27.09500
N  17.35800 -2.39300 26.14600
C  17.96400 -3.29000 25.32000
C  17.76900 -3.02800 23.85200
C  16.79100 -1.81800 23.88600
C  16.65900 -1.54900 25.39200
C  19.04800 -2.63200 23.14800
C  15.49900 -2.04400 23.15000
C  15.02100 -0.82300 22.35100
N  16.33300 -0.70200 28.20600
C  15.77000 0.04400 27.15700
C  15.00700 1.12700 27.69000
C  15.27200 1.05000 29.10300
C  16.05000 -0.04900 29.31900
C  14.15600 2.09100 26.90500
C  15.01400 1.71000 30.40200
O  14.36400 2.67800 30.64700
C  15.83400 0.87500 31.48400
C  16.70000 1.71800 32.38200
O  17.91900 1.82700 32.37300
O  15.88900 2.42300 33.26500
C  16.51500 3.50800 34.02700
H  19.58000 -4.72500 31.45900
H  18.80700 -5.17400 24.95900
H  15.51800 0.20700 25.04100
H  18.23800 -0.63600 32.86300
H  18.39800 -3.52600 33.17200
H  20.76200 -2.01900 31.87200
H  20.79200 -3.30900 33.13800
H  20.34100 -1.64600 33.51100
H  16.36100 -2.98900 33.62700
H  15.59100 -1.69900 32.88800
H  15.72800 -1.83900 35.57200
H  15.57800 -0.38000 34.77500
H  21.66500 -6.78400 29.93300
H  20.50400 -8.12400 29.66700
H  20.19800 -6.83400 30.84800
H  21.62500 -8.56200 26.27000
H  20.35600 -8.95700 27.54300
H  21.74100 -7.95500 27.86000
H  17.49900 -3.94400 23.32700
H  17.30300 -0.98000 23.41400
H  19.62600 -2.04900 23.86600
H  18.98000 -2.01400 22.25200
H  19.62500 -3.54900 23.03500
H  14.76300 -2.38400 23.87800
H  15.68800 -2.78800 22.37600
H  14.08800 -0.41900 22.74400
H  14.95800 -1.14000 21.31100
H  15.77000 -0.03400 22.28200
H  13.98100 3.09200 27.29900
H  13.24000 1.59600 26.58200
H  14.76200 2.22800 26.00900
H  15.12100 0.37000 32.13500
H  17.53800 3.30900 34.34700
H  16.03000 3.54400 35.00200
H  16.40600 4.31700 33.30400
Mg -11.07400 40.51800 40.92600
C  -10.11700 37.14600 40.13500
C  -8.02800 41.46800 39.95400
C  -12.35000 43.59400 40.93900
C  -14.35700 39.16500 41.42300
N  -9.35100 39.35100 40.07200
C  -9.14700 38.03700 39.84500
C  -7.76400 37.74200 39.26500
C  -7.03200 39.11900 39.48400
C  -8.15400 40.03800 39.95200
C  -5.80600 39.17100 40.47800
C  -7.70700 37.26300 37.81800
C  -7.15200 35.87200 37.55800
H  -6.31500 35.78900 36.24600
N  -10.24100 42.38000 40.59900
C  -8.97500 42.51900 40.15900
C  -8.66400 43.96400 40.17000
C  -9.98600 44.59900 40.33600
C  -10.97100 43.50200 40.66400
C  -7.28000 44.59400 39.83200
C  -10.23400 46.11100 40.18000
O  -9.27500 46.71300 39.78100
C  -11.54300 46.76300 40.23200
N  -12.97900 41.22200 41.21100
C  -13.22500 42.59800 41.34800
C  -14.70800 42.91300 41.65400
C  -15.29000 41.45900 41.83800
C  -14.16900 40.54800 41.36800
C  -14.82000 43.83300 42.92000
C  -16.67700 41.27600 41.04500
C  -17.86600 40.74300 41.87900
N  -12.01400 38.56800 41.00000
C  -13.34500 38.17700 41.22400
C  -13.47600 36.74000 41.21600
C  -12.19300 36.30200 40.79700
C  -11.38100 37.41300 40.67400
C  -14.80900 35.92700 41.48500
C  -11.42400 35.15800 40.49000
O  -11.71200 33.95300 40.53000
C  -10.10600 35.68500 40.00700
C  -9.11400 34.86400 40.96000
O  -8.85700 35.03400 42.14400
O  -8.59400 33.82600 40.19200
C  -7.84600 32.86300 40.95600
H  -6.97400 41.72200 39.82200
H  -12.92200 44.52400 40.92900
H  -15.38300 38.87500 41.65800
H  -7.36100 37.02900 39.98400
H  -6.77100 39.40200 38.46400
H  -5.96000 39.89200 41.28000
H  -4.87300 39.46900 40.00000
H  -5.61700 38.19100 40.91800
H  -7.16200 37.97400 37.19700
H  -8.75000 37.26200 37.50200
H  -7.88300 35.07300 37.43800
H  -6.44000 35.65500 38.35400
H  -7.27700 44.93100 38.79600
H  -6.47800 43.89500 40.06500
H  -7.29300 45.53000 40.39100
H  -12.02500 46.48400 41.17000
H  -12.17300 46.74100 39.34300
H  -11.26200 47.79200 40.45800
H  -14.97400 43.39400 40.71200
H  -15.40000 41.07900 42.85300
H  -15.11200 43.36000 43.85700
H  -15.42900 44.72100 42.75100
H  -13.83100 44.26900 43.06400
H  -16.50500 40.61900 40.19300
H  -16.93900 42.20100 40.53100
H  -17.61200 40.17100 42.77100
H  -18.47700 40.19500 41.16100
H  -18.55000 41.54600 42.15200
H  -14.59600 34.91200 41.81900
H  -15.26800 35.65200 40.53600
H  -15.53800 36.40500 42.13900
H  -10.00500 35.36800 38.96900
H  -8.41900 32.57200 41.83600
H  -6.87800 33.25400 41.27000
H  -7.64500 32.00800 40.31000

