158

Mg 2.07400 -0.97500 44.73800
C  5.50100 -0.32800 43.81200
C  1.10900 1.46000 42.61100
C  -1.01200 -2.51400 44.53300
C  3.38000 -4.15900 45.90800
N  3.27100 0.46600 43.42100
C  4.61500 0.58000 43.19300
C  4.80200 1.72700 42.24800
C  3.39100 2.47800 42.01400
C  2.50000 1.40800 42.68200
C  3.41200 3.92800 42.64700
C  5.50800 1.17600 40.97900
C  6.76900 1.87500 40.49000
H  6.76000 2.39500 39.03700
N  0.27500 -0.35100 44.00100
C  0.04200 0.67900 43.14900
C  -1.35900 0.72600 42.89500
C  -1.96900 -0.37500 43.49100
C  -0.89300 -1.17600 44.06200
C  -2.07600 1.79900 42.22200
C  -3.44800 -0.64100 43.56000
O  -4.22800 0.10200 42.99200
C  -4.13300 -1.78200 44.29100
N  1.30500 -3.04500 45.21700
C  -0.03300 -3.37200 45.00600
C  -0.36200 -4.74800 45.62900
C  1.10900 -5.35100 45.94600
C  1.99000 -4.15800 45.63600
C  -1.34000 -4.70200 46.87100
C  1.45900 -6.71300 45.27800
C  2.32800 -7.64900 46.16300
N  4.05300 -1.98600 45.02100
C  4.35100 -3.21500 45.62900
C  5.75900 -3.41700 45.68200
C  6.31200 -2.28600 45.00400
C  5.20000 -1.50500 44.61200
C  6.50100 -4.60500 46.33200
C  7.53500 -1.61900 44.49500
O  8.69400 -1.86000 44.64100
C  7.02500 -0.26800 43.74500
C  7.62600 0.83600 44.60400
O  7.42300 0.97900 45.85300
O  8.34900 1.70300 43.76100
C  8.24000 3.13600 43.94300
H  0.79200 2.23200 41.90800
H  -1.97300 -2.99200 44.73600
H  3.84100 -5.04000 46.36100
H  5.48500 2.37300 42.79900
H  3.10400 2.51000 40.96200
H  3.29700 4.74100 41.93000
H  4.24400 4.12700 43.32300
H  2.57000 3.99900 43.33600
H  4.84600 1.10600 40.11600
H  5.76700 0.14200 41.20300
H  7.57100 1.13800 40.52700
H  7.00400 2.67700 41.18900
H  -1.52300 2.47000 41.56500
H  -2.71700 2.43000 42.83800
H  -2.74200 1.30000 41.51800
H  -5.19300 -1.53200 44.31500
H  -3.85300 -1.85600 45.34200
H  -3.95900 -2.76600 43.85600
H  -0.69300 -5.41200 44.83000
H  1.28700 -5.48200 47.01400
H  -1.60500 -3.72100 47.26400
H  -1.03900 -5.31500 47.72100
H  -2.18200 -5.29500 46.51300
H  1.79100 -6.43400 44.27800
H  0.53700 -7.22200 44.99900
H  3.18600 -7.97800 45.57700
H  1.71200 -8.48700 46.48900
H  2.75500 -7.18300 47.05200
H  6.55800 -4.47200 47.41300
H  7.54100 -4.62200 46.00700
H  6.01300 -5.56300 46.15400
H  7.33600 -0.17900 42.70400
H  7.65900 3.39800 44.82700
H  7.69700 3.54800 43.09200
H  9.20200 3.64800 43.92200
Mg 24.89200 -6.51500 47.94900
C  27.31700 -4.32400 46.81800
C  22.64600 -5.23600 45.60700
C  22.96500 -9.15200 48.69100
C  27.48700 -8.06300 50.12100
N  25.00800 -4.90200 46.52100
C  26.06900 -4.12400 46.17600
C  25.68700 -3.12800 45.09600
C  24.17800 -3.34900 44.85200
C  23.89500 -4.54600 45.76700
C  23.24400 -2.07700 45.05400
C  26.57900 -3.22400 43.78700
C  27.39800 -1.99400 43.31700
H  27.01500 -1.50100 41.89400
N  22.98600 -7.04600 47.24500
C  22.24800 -6.40400 46.35700
C  20.97600 -7.10000 46.29700
C  21.04500 -8.28600 47.10100
C  22.37200 -8.20200 47.73000
C  19.89500 -6.60000 45.36700
C  19.87700 -9.33300 47.29400
O  18.89200 -9.34200 46.57200
C  19.98600 -10.50500 48.31500
N  25.14700 -8.26500 49.27900
C  24.15600 -9.10900 49.41200
C  24.35000 -10.23300 50.44000
C  25.77800 -9.85600 50.94900
C  26.19500 -8.66700 50.06700
C  23.24500 -10.37400 51.49900
C  26.74000 -11.10500 50.95800
C  27.10000 -11.57400 52.36600
N  26.99000 -6.30100 48.45200
C  27.81700 -6.92100 49.35900
C  29.06800 -6.15900 49.36000
C  28.90900 -5.13600 48.41700
C  27.66500 -5.31700 47.80300
C  30.40200 -6.54800 50.18800
C  29.55500 -3.96100 47.86300
O  30.67000 -3.51300 48.07300
C  28.55700 -3.47900 46.77500
C  28.19100 -2.04700 47.18800
O  27.41600 -1.77200 48.06900
O  28.91700 -1.12700 46.38100
C  28.59300 0.28700 46.72300
H  22.02000 -4.91300 44.77300
H  22.34600 -10.01000 48.96400
H  28.24600 -8.36200 50.84700
H  25.74400 -2.17700 45.62600
H  23.96500 -3.70400 43.84400
H  23.25500 -1.54500 44.10300
H  23.70900 -1.44300 45.80900
H  22.23100 -2.26700 45.40800
H  25.85200 -3.34200 42.98400
H  27.07900 -4.19100 43.73100
H  28.46000 -2.24100 43.31100
H  27.24200 -1.15000 43.98900
H  19.93600 -5.51000 45.38800
H  18.91400 -6.91000 45.72600
H  20.16600 -6.93400 44.36600
H  20.67100 -11.19000 47.81500
H  18.95700 -10.86600 48.29800
H  20.27500 -10.11400 49.29100
H  24.34100 -11.16100 49.86900
H  25.51900 -9.42000 51.91400
H  23.66300 -10.30000 52.50200
H  22.70400 -11.32100 51.52200
H  22.48200 -9.60200 51.39200
H  27.60200 -10.88600 50.32900
H  26.18200 -11.90000 50.46400
H  26.80600 -10.97300 53.22600
H  28.18200 -11.55100 52.49300
H  26.84700 -12.62300 52.52000
H  30.26100 -6.14200 51.18900
H  31.26300 -6.24200 49.59300
H  30.45900 -7.63500 50.22700
H  28.95200 -3.42900 45.76000
H  28.84200 0.31600 47.78400
H  27.51200 0.40800 46.66000
H  29.00600 0.96300 45.97500

