158

Mg 48.27400 16.36200 29.25900
C  46.17400 15.91200 32.18900
C  50.40000 18.17600 31.33000
C  50.12100 16.86700 26.62000
C  45.76900 14.94200 27.41300
N  48.23900 17.01600 31.56500
C  47.32900 16.67200 32.52900
C  47.74700 17.16100 33.84900
C  49.01300 18.06800 33.55700
C  49.24200 17.83600 32.07200
C  48.73900 19.46900 33.94800
C  48.00300 15.90200 34.70900
C  48.29100 16.23400 36.20500
H  47.99500 17.61500 36.76700
N  50.10500 17.35800 29.02900
C  50.88900 17.96600 29.99500
C  52.18500 18.28900 29.34100
C  52.07200 18.00500 27.94500
C  50.72300 17.42600 27.77200
C  53.32000 18.78500 30.13500
C  53.12000 18.25100 26.78000
O  52.96800 17.83100 25.63800
C  54.41700 18.92700 27.17700
N  47.95400 16.02700 27.38000
C  48.89300 16.31800 26.42300
C  48.44000 15.99700 24.98400
C  47.12900 15.14100 25.21900
C  46.93500 15.34500 26.76600
C  48.16800 17.17100 24.04800
C  47.17500 13.66900 24.81900
C  46.38600 13.33600 23.51900
N  46.31800 15.61700 29.63200
C  45.48300 15.06800 28.78200
C  44.33100 14.59000 29.42400
C  44.59300 14.87100 30.81700
C  45.81700 15.54200 30.88200
C  43.10100 13.99000 28.73600
C  44.06200 14.73300 32.18000
O  43.10900 14.09300 32.60000
C  45.07800 15.35600 33.10600
C  44.29600 16.42200 33.93600
O  43.84300 17.46500 33.44800
O  44.10500 16.01800 35.19900
C  43.26600 16.93300 36.04700
H  51.23100 18.72100 31.78400
H  50.66700 17.12000 25.70800
H  45.07600 14.24100 26.94200
H  46.87000 17.57000 34.34900
H  49.94800 17.73900 34.01100
H  47.81300 19.59900 34.50700
H  48.62700 19.99600 33.00000
H  49.57000 19.97700 34.43700
H  48.86400 15.35200 34.33000
H  47.11900 15.26900 34.63300
H  49.35400 16.04600 36.35600
H  47.62800 15.64600 36.84000
H  53.47700 18.19900 31.04100
H  53.06200 19.80000 30.44000
H  54.33000 18.79900 29.72500
H  54.17200 19.92900 27.53100
H  54.95900 19.10000 26.24700
H  55.08100 18.30600 27.77800
H  49.38000 15.52800 24.69300
H  46.24000 15.60600 24.79400
H  48.16500 18.09100 24.63200
H  47.24300 17.05100 23.48600
H  48.98800 17.05200 23.33900
H  46.65300 13.13900 25.61500
H  48.19200 13.32800 24.62500
H  46.07500 14.21900 22.96100
H  45.47800 12.79500 23.78700
H  46.97600 12.76700 22.80100
H  43.41900 13.34400 27.91700
H  42.66800 14.85100 28.22700
H  42.47100 13.42600 29.42300
H  45.35100 14.51700 33.74600
H  43.63500 17.95400 35.94300
H  43.55800 16.62500 37.05100
H  42.20000 16.78900 35.87200
Mg -6.06900 25.51200 27.19700
C  -4.58000 26.72000 30.14300
C  -7.84100 23.43300 28.82400
C  -7.22200 24.32900 24.26100
C  -3.84200 27.67100 25.41900
N  -6.15300 25.06800 29.22000
C  -5.49200 25.63000 30.37500
C  -6.09100 25.19600 31.67100
C  -6.97300 23.98100 31.26500
C  -7.00300 24.17300 29.70800
C  -6.38700 22.57700 31.57600
C  -6.87700 26.35300 32.44500
C  -6.63100 26.56200 33.94300
H  -5.94200 25.45800 34.78300
N  -7.38100 24.10900 26.61400
C  -8.07500 23.36200 27.47300
C  -8.99900 22.46600 26.82700
C  -8.81700 22.67100 25.43700
C  -7.79700 23.72500 25.39000
C  -9.87600 21.50400 27.50100
C  -9.45800 21.91500 24.27200
O  -9.30400 22.26800 23.12900
C  -10.25000 20.64600 24.41500
N  -5.59700 25.95500 25.14600
C  -6.19300 25.26600 24.16100
C  -5.51600 25.54000 22.78300
C  -4.62600 26.74600 23.18300
C  -4.67300 26.82200 24.66600
C  -4.78100 24.29500 22.23500
C  -5.24400 28.05300 22.50300
C  -6.51100 28.68000 22.99000
N  -4.49600 26.90200 27.65100
C  -3.67700 27.66700 26.85100
C  -2.82400 28.56000 27.65900
C  -3.24300 28.29500 28.99900
C  -4.13000 27.19300 28.89200
C  -1.83600 29.68000 27.10000
C  -3.00700 28.62000 30.32700
O  -2.29300 29.47300 30.82000
C  -3.91900 27.60400 31.18400
C  -3.02000 26.97100 32.17500
O  -2.66000 25.75800 32.09200
O  -2.95500 27.76500 33.30400
C  -2.29500 27.21200 34.48700
H  -8.42200 22.87200 29.56000
H  -7.71400 23.93400 23.36900
H  -3.19200 28.35000 24.86200
H  -5.28000 24.81800 32.29300
H  -7.97200 23.86700 31.68700
H  -5.65700 22.79600 32.35500
H  -5.95600 22.18800 30.65300
H  -7.08400 21.85700 32.00400
H  -7.95000 26.21800 32.30700
H  -6.78500 27.35100 32.01800
H  -7.62400 26.66900 34.37900
H  -5.96500 27.41700 34.06500
H  -9.70100 20.45900 27.24400
H  -10.93400 21.71500 27.34500
H  -9.69800 21.57800 28.57400
H  -11.03800 20.81800 25.14800
H  -9.68000 19.80900 24.81900
H  -10.52300 20.33900 23.40500
H  -6.14200 25.82700 21.93800
H  -3.56200 26.56200 23.02900
H  -5.15800 23.38400 22.70000
H  -3.69400 24.35800 22.29200
H  -4.97100 24.09800 21.18000
H  -5.54300 27.75000 21.49900
H  -4.43900 28.78700 22.44500
H  -7.30000 28.56400 22.24700
H  -6.38900 29.69500 23.36900
H  -6.96200 28.06300 23.76800
H  -0.83900 29.27300 26.92700
H  -1.71600 30.52700 27.77600
H  -2.29900 30.04300 26.18300
H  -4.62600 28.31700 31.60800
H  -1.67500 27.90500 35.05600
H  -1.48400 26.49600 34.35500
H  -3.04300 26.90100 35.21700

