158

Mg 46.70000 16.32600 28.46300
C  44.64700 15.51400 31.22500
C  48.47400 18.18500 30.40100
C  48.69100 16.63400 25.84000
C  44.45300 14.36100 26.47900
N  46.63700 16.74700 30.55300
C  45.69600 16.37500 31.53300
C  46.13100 16.94000 32.89800
C  47.18000 17.95900 32.50000
C  47.51000 17.56300 31.13600
C  46.72400 19.47600 32.41600
C  46.67100 15.77700 33.77600
C  46.58500 16.02000 35.27400
H  47.96300 16.01600 36.04000
N  48.40900 17.35100 28.20700
C  49.01600 18.10300 29.13200
C  50.26600 18.65600 28.63300
C  50.37900 18.18400 27.27900
C  49.18600 17.29800 27.07300
C  51.18300 19.58700 29.42800
C  51.47300 18.48400 26.25600
O  51.49600 17.91500 25.19100
C  52.62600 19.44000 26.59200
N  46.54800 15.50700 26.48400
C  47.57100 15.86100 25.62100
C  47.24800 15.44400 24.23100
C  45.86400 14.75300 24.40600
C  45.56800 14.86400 25.87600
C  47.26400 16.60400 23.24100
C  45.77500 13.34400 23.83300
C  46.39000 12.15500 24.70200
N  44.85600 15.20000 28.76900
C  44.11900 14.46300 27.84100
C  43.03200 13.87800 28.52300
C  43.22600 14.16800 29.86700
C  44.34200 14.98900 29.93700
C  41.85700 13.28300 27.81900
C  42.66600 14.09400 31.23200
O  41.65600 13.53900 31.64500
C  43.62400 14.85500 32.15500
C  42.86700 15.90300 32.96200
O  42.65100 17.07200 32.63200
O  42.38100 15.41100 34.18900
C  41.49600 16.27900 35.04400
H  49.10200 18.75500 31.08900
H  49.38200 16.72300 25.00000
H  43.78600 13.80500 25.81700
H  45.29100 17.40500 33.41500
H  48.08500 17.99100 33.10700
H  47.34000 20.10800 33.05600
H  45.75700 19.48200 32.91700
H  46.68400 19.95500 31.43700
H  47.67500 15.55800 33.41300
H  46.19000 14.81800 33.58400
H  45.95400 15.23100 35.68400
H  46.12300 17.00200 35.37100
H  52.18600 19.17400 29.53400
H  50.65700 19.77900 30.36300
H  51.28600 20.54900 28.92500
H  52.24400 20.36800 27.01500
H  53.11500 19.63600 25.63800
H  53.18500 18.98600 27.41000
H  48.04700 14.72000 24.07200
H  45.07900 15.30300 23.88700
H  46.65400 17.41700 23.63300
H  46.83400 16.30000 22.28700
H  48.30300 16.89800 23.08900
H  46.45300 13.34300 22.97900
H  44.75500 13.17600 23.48500
H  47.24800 11.70400 24.20200
H  45.67000 11.33900 24.76300
H  46.79800 12.41600 25.67900
H  42.29400 12.43000 27.30100
H  41.29100 13.97300 27.19200
H  41.23200 13.01200 28.67000
H  44.05000 14.11400 32.83200
H  42.23400 16.91000 35.53800
H  40.73900 15.85100 35.70100
H  40.94600 16.85000 34.29600
Mg -0.08200 43.94800 24.84500
C  1.97800 43.24600 27.54400
C  -2.55400 42.78900 26.59900
C  -1.88800 43.78400 21.93900
C  2.72900 44.73500 22.90700
N  -0.23000 43.32400 26.87200
C  0.69600 43.18700 27.87300
C  0.10800 42.86000 29.19700
C  -1.39900 42.52600 28.79800
C  -1.40700 42.82500 27.31000
C  -1.78200 40.98900 29.12600
C  0.18700 44.02500 30.31900
C  0.94800 43.73300 31.58300
H  0.90300 42.25100 32.23300
N  -1.98100 43.47600 24.39300
C  -2.89400 42.99700 25.20900
C  -4.18600 42.74500 24.51200
C  -4.03500 43.19500 23.21700
C  -2.59800 43.54800 23.11900
C  -5.38400 42.28300 25.28300
C  -5.05400 43.30700 22.05000
O  -4.78500 43.74500 20.91200
C  -6.48300 42.81000 22.36200
N  0.33600 44.14000 22.67900
C  -0.54600 44.11300 21.69200
C  0.06200 44.63500 20.36100
C  1.44100 45.12200 20.78500
C  1.53500 44.71300 22.26300
C  0.07000 43.57900 19.19000
C  1.63000 46.67800 20.56900
C  0.62900 47.59800 21.44800
N  1.95800 43.99000 25.14000
C  2.99100 44.36500 24.26700
C  4.23200 44.33200 24.93700
C  3.91400 43.85900 26.18000
C  2.49300 43.69600 26.30400
C  5.58200 44.79700 24.42600
C  4.45000 43.49100 27.45500
O  5.57900 43.54000 27.91700
C  3.25900 43.03900 28.43500
C  3.51300 41.68500 28.88400
O  3.15300 40.67300 28.29800
O  4.01200 41.69600 30.13700
C  4.36000 40.45200 30.78900
H  -3.41800 42.39600 27.13900
H  -2.48900 43.81000 21.02800
H  3.54200 45.16100 22.31500
H  0.68400 41.97900 29.48000
H  -2.17000 43.17800 29.21000
H  -0.95000 40.49800 29.63100
H  -2.14000 40.34800 28.32100
H  -2.64400 40.98800 29.79300
H  -0.81200 44.29600 30.66000
H  0.64800 44.89500 29.85200
H  0.68900 44.50200 32.31000
H  2.00500 43.92900 31.39900
H  -5.88000 43.21100 25.56800
H  -5.17100 41.80300 26.23700
H  -6.00300 41.51800 24.81500
H  -6.80900 43.42000 23.20500
H  -6.45400 41.73500 22.53800
H  -7.24700 42.90500 21.59000
H  -0.52000 45.50700 20.06300
H  2.13500 44.61700 20.11300
H  0.57900 44.08500 18.36900
H  -0.91100 43.17300 18.94400
H  0.78500 42.87000 19.60800
H  1.48600 46.83600 19.50000
H  2.67200 46.85600 20.83500
H  0.11600 48.17900 20.68200
H  1.21700 48.31900 22.01600
H  -0.12700 47.00600 21.96500
H  6.22700 45.20400 25.20500
H  5.41800 45.51800 23.62600
H  6.03000 43.94900 23.90700
H  3.24000 43.73300 29.27600
H  3.67800 39.65500 30.49500
H  4.32500 40.56200 31.87300
H  5.30900 40.04300 30.44200

