158

Mg -11.07700 38.98200 42.37500
C  -8.79700 36.23100 41.63400
C  -9.02200 41.09700 40.74900
C  -13.55400 41.13200 42.55500
C  -13.34500 36.44600 43.58500
N  -9.18500 38.59200 41.25600
C  -8.46600 37.44100 40.97700
C  -7.31900 37.74800 39.97300
C  -7.33200 39.34200 39.84500
C  -8.60400 39.72800 40.62900
C  -6.12900 40.01500 40.58000
C  -7.41900 36.95600 38.66500
C  -6.14600 36.32900 38.13500
H  -5.47200 37.20400 37.10600
N  -11.18200 40.82900 41.93400
C  -10.20400 41.58600 41.34300
C  -10.57700 42.94000 41.35500
C  -11.87400 43.01700 41.83900
C  -12.26700 41.64600 42.18500
C  -9.68700 44.03800 40.89700
C  -12.68800 44.24700 42.08500
O  -12.14900 45.34000 41.89800
C  -14.16200 44.31400 42.54700
N  -13.18800 38.74100 42.94400
C  -14.03900 39.86700 42.87700
C  -15.48600 39.50500 43.15800
C  -15.46300 37.95400 43.50700
C  -13.90800 37.73200 43.45400
C  -16.02200 40.40000 44.29400
C  -16.24000 37.07800 42.40600
C  -16.75000 35.76300 42.87500
N  -11.10200 36.88200 42.80900
C  -12.00600 36.08400 43.36100
C  -11.47100 34.75900 43.54900
C  -10.22700 34.76800 42.89400
C  -9.99700 36.09100 42.45000
C  -12.06800 33.53300 44.23600
C  -9.00200 33.95300 42.59200
O  -8.75900 32.79400 42.89900
C  -8.17100 34.88300 41.63500
C  -6.74300 34.81300 42.16200
O  -5.94300 33.83100 41.89900
O  -6.52100 35.98100 42.84600
C  -5.12700 36.01800 43.45400
H  -8.57200 41.91900 40.18900
H  -14.39100 41.83200 42.58200
H  -13.95000 35.57700 43.85200
H  -6.42200 37.48900 40.53500
H  -7.43600 39.72800 38.83100
H  -5.39900 39.23800 40.80400
H  -6.29600 40.46000 41.56100
H  -5.78800 40.86600 39.99000
H  -7.68500 37.70000 37.91400
H  -8.11900 36.12100 38.70500
H  -6.38100 35.33800 37.74600
H  -5.51300 36.13200 39.00000
H  -9.87600 44.94200 41.47600
H  -9.81800 44.30700 39.84900
H  -8.62000 43.81700 40.93600
H  -14.41300 45.37300 42.61800
H  -14.29100 44.03200 43.59200
H  -14.73700 43.76300 41.80300
H  -16.01800 39.55000 42.20800
H  -15.98300 37.78900 44.45100
H  -16.00100 39.83800 45.22700
H  -17.04100 40.74900 44.12500
H  -15.39100 41.26400 44.50200
H  -15.63300 36.93800 41.51200
H  -17.04700 37.70200 42.02200
H  -16.33000 35.62500 43.87100
H  -16.26900 35.02000 42.23900
H  -17.83800 35.72200 42.81700
H  -12.30800 33.99600 45.19300
H  -11.48900 32.62100 44.38500
H  -13.02900 33.33000 43.76500
H  -8.23500 34.54400 40.60100
H  -4.43100 36.66100 42.91600
H  -4.69400 35.01800 43.48200
H  -5.26800 36.33200 44.48800
Mg -5.65600 25.85000 26.20200
C  -4.30600 26.98500 29.28400
C  -7.82200 23.82800 28.13800
C  -6.54400 24.36800 23.36100
C  -3.20800 27.75900 24.50800
N  -6.03800 25.41100 28.40900
C  -5.31800 25.97800 29.43000
C  -5.83800 25.59000 30.79800
C  -6.87200 24.44400 30.42500
C  -6.99400 24.63800 28.87600
C  -6.43900 23.00200 30.73000
C  -6.48500 26.86700 31.49400
C  -6.42700 27.13400 32.98400
H  -6.17700 25.88500 33.90400
N  -7.04400 24.34900 25.81400
C  -7.80400 23.62700 26.76200
C  -8.64100 22.64800 25.99000
C  -8.23500 22.78700 24.58800
C  -7.22800 23.83700 24.54400
C  -9.51500 21.71600 26.69100
C  -8.80400 22.02700 23.33300
O  -8.34100 22.20500 22.19800
C  -9.85900 20.93500 23.45600
N  -4.90600 26.01900 24.23800
C  -5.57200 25.40500 23.25900
C  -4.94300 25.74700 21.82700
C  -4.03600 26.93700 22.23400
C  -3.98100 26.84700 23.74600
C  -4.20100 24.51500 21.20800
C  -4.64700 28.30300 21.84100
C  -3.66100 29.48500 21.69200
N  -4.10900 27.12800 26.72800
C  -3.18300 27.82200 25.93000
C  -2.32800 28.64500 26.77700
C  -2.75200 28.27800 28.13400
C  -3.82200 27.45600 28.02500
C  -1.15200 29.50900 26.37100
C  -2.44000 28.54000 29.53400
O  -1.63600 29.35300 30.03200
C  -3.48100 27.78700 30.32500
C  -2.66200 26.99100 31.34600
O  -2.28900 25.82000 31.16600
O  -2.69400 27.61900 32.53200
C  -2.14600 26.81600 33.64000
H  -8.65200 23.39900 28.70200
H  -6.70600 23.91900 22.37900
H  -2.59200 28.55600 24.08500
H  -5.02500 25.13900 31.36700
H  -7.85100 24.64700 30.85900
H  -5.63900 22.98300 31.47000
H  -6.10200 22.64000 29.75900
H  -7.27100 22.43900 31.15300
H  -7.48900 26.89500 31.06900
H  -6.04300 27.73800 31.01100
H  -7.37100 27.58500 33.29000
H  -5.64200 27.87800 33.12200
H  -10.55300 22.04300 26.62500
H  -9.39300 21.56200 27.76300
H  -9.29900 20.71200 26.32800
H  -10.36400 20.95100 22.49000
H  -10.60400 21.14000 24.22500
H  -9.36300 19.98900 23.67000
H  -5.77600 26.06500 21.20100
H  -3.06600 26.83700 21.74700
H  -4.16500 23.75700 21.99000
H  -3.16600 24.81100 21.03700
H  -4.68400 24.12600 20.31100
H  -5.36900 28.32600 22.65700
H  -5.23800 28.23900 20.92700
H  -3.87600 30.13200 22.54300
H  -4.00900 30.00800 20.80100
H  -2.60100 29.24200 21.62600
H  -1.44000 30.50700 26.70300
H  -1.05400 29.30900 25.30400
H  -0.26200 29.20400 26.92100
H  -4.08100 28.49500 30.89700
H  -1.11300 26.56900 33.39200
H  -2.62000 25.84000 33.74400
H  -2.21100 27.35100 34.58700

