158

Mg 2.31500 -0.74400 43.42500
C  5.57300 0.28300 42.97700
C  1.37300 2.05700 41.51500
C  -0.91500 -1.85000 43.49300
C  3.38500 -3.76800 44.59300
N  3.32700 0.97000 42.27600
C  4.66300 1.13200 42.31100
C  5.08900 2.23900 41.41000
C  3.77900 2.97300 41.05300
C  2.75400 1.94900 41.64100
C  3.68400 4.40800 41.66300
C  5.91200 1.67600 40.15600
C  6.91000 2.72100 39.61900
H  6.62600 3.06100 38.15500
N  0.53700 0.05500 42.89000
C  0.35100 1.20100 42.01900
C  -1.09500 1.25800 41.76200
C  -1.76000 0.26300 42.47700
C  -0.71200 -0.56900 42.99800
C  -1.73200 2.31300 40.96100
C  -3.33200 0.13600 42.53200
O  -4.09800 0.94100 41.94400
C  -3.86200 -0.93200 43.26700
N  1.38500 -2.67500 43.80000
C  0.04700 -2.83700 43.93000
C  -0.31100 -4.29500 44.28000
C  1.06600 -4.83200 44.86800
C  2.02400 -3.67200 44.43600
C  -1.51600 -4.45200 45.30400
C  1.49900 -6.23600 44.36700
C  1.63200 -6.45300 42.86500
N  4.07300 -1.55200 43.86400
C  4.39200 -2.84300 44.38400
C  5.79400 -2.94700 44.54200
C  6.33600 -1.74900 44.00400
C  5.22100 -0.92300 43.66300
C  6.60800 -4.20100 44.85000
C  7.55400 -1.06800 43.66600
O  8.70700 -1.41900 43.67300
C  7.09200 0.26300 42.97800
C  7.56900 1.33900 43.81200
O  7.56500 1.38600 45.03800
O  8.13600 2.36000 43.05600
C  8.80900 3.48100 43.81000
H  0.99200 2.97900 41.07000
H  -1.90200 -2.29600 43.63300
H  3.68400 -4.75300 44.95700
H  5.83500 2.81900 41.95400
H  3.67900 2.97500 39.96700
H  4.62000 4.63400 42.17400
H  2.75500 4.48700 42.22700
H  3.53400 5.04500 40.79100
H  5.16300 1.52600 39.37800
H  6.37400 0.69800 40.29200
H  7.88300 2.33900 39.93100
H  6.66300 3.62300 40.17700
H  -2.10500 1.89700 40.02500
H  -0.98300 3.07200 40.73600
H  -2.50000 2.91000 41.45300
H  -4.94800 -0.87300 43.33700
H  -3.33200 -0.97000 44.21800
H  -3.71900 -1.83600 42.67400
H  -0.50100 -4.92300 43.40900
H  0.96100 -4.92200 45.94900
H  -2.28900 -5.03500 44.80300
H  -1.87400 -3.47400 45.62700
H  -1.11900 -5.00900 46.15300
H  0.80900 -6.97900 44.76800
H  2.41100 -6.45400 44.92300
H  2.70200 -6.55200 42.68100
H  1.20400 -5.64800 42.26700
H  1.09000 -7.34100 42.54100
H  5.97300 -4.87800 45.42100
H  7.45900 -3.96700 45.49100
H  6.93400 -4.71900 43.94800
H  7.50700 0.26100 41.97000
H  8.45100 4.45700 43.48500
H  9.87300 3.39300 43.58700
H  8.68600 3.38900 44.89000
Mg -11.18600 17.30900 42.20200
C  -7.92400 18.30600 42.24800
C  -12.14300 20.64500 41.94500
C  -14.51500 16.36500 41.93300
C  -10.27900 13.95700 41.99300
N  -10.16000 19.21900 42.17300
C  -8.83000 19.37000 42.13900
C  -8.39400 20.86700 42.02800
C  -9.71900 21.61700 42.28600
C  -10.76900 20.43800 42.12100
C  -9.72200 22.43800 43.56800
C  -7.77900 21.15000 40.64700
C  -6.38100 21.84800 40.78300
H  -5.35700 21.14800 39.87800
N  -13.01300 18.36400 41.83300
C  -13.20000 19.72600 41.76400
C  -14.55600 20.06100 41.50100
C  -15.28200 18.80400 41.56900
C  -14.25000 17.75000 41.73600
C  -15.15000 21.48000 41.23300
C  -16.78300 18.73400 41.46900
O  -17.46400 19.76000 41.59100
C  -17.46200 17.45900 41.36200
N  -12.27100 15.52200 41.78600
C  -13.59100 15.33700 42.02100
C  -14.03700 13.93300 42.13800
C  -12.72900 13.15900 42.05300
C  -11.67500 14.28700 41.95500
C  -14.86200 13.64400 43.35400
C  -12.70000 12.23000 40.68600
C  -12.62200 10.68900 40.94100
N  -9.43600 16.28800 42.15700
C  -9.15400 14.92300 42.07000
C  -7.76200 14.73400 42.11800
C  -7.19100 16.06100 42.14500
C  -8.28200 16.93500 42.25600
C  -7.03700 13.47300 42.16500
C  -5.97500 16.77800 42.13800
O  -4.83200 16.28600 42.01800
C  -6.36400 18.30300 42.35400
C  -5.83600 18.82800 43.64400
O  -6.11800 18.41000 44.77800
O  -4.91900 19.76600 43.32500
C  -4.12000 20.36100 44.44000
H  -12.55800 21.63000 41.72400
H  -15.57700 16.11400 41.98000
H  -9.99100 12.90800 41.89600
H  -7.79400 21.24400 42.85700
H  -10.04600 22.28200 41.48700
H  -9.07600 23.28800 43.35200
H  -9.43000 21.84000 44.43200
H  -10.76600 22.73600 43.66400
H  -8.43100 21.80700 40.07100
H  -7.69100 20.29600 39.97500
H  -6.05200 21.84400 41.82200
H  -6.45200 22.91100 40.55200
H  -16.11500 21.51300 40.72800
H  -14.32700 21.93900 40.68500
H  -15.25600 21.93600 42.21700
H  -18.39100 17.64500 40.82400
H  -17.49300 17.00400 42.35200
H  -16.87500 16.79100 40.73100
H  -14.75600 13.76000 41.33700
H  -12.62100 12.57000 42.96400
H  -14.77500 14.50400 44.01800
H  -14.59900 12.77700 43.96000
H  -15.89000 13.50500 43.01900
H  -11.87500 12.53800 40.04400
H  -13.59200 12.30600 40.06500
H  -12.55100 10.58400 42.02300
H  -11.76800 10.31200 40.37800
H  -13.43800 10.11500 40.50300
H  -5.99000 13.60200 42.43900
H  -7.10200 12.96200 41.20400
H  -7.55300 12.84200 42.88800
H  -5.83800 18.72400 41.49700
H  -3.50700 21.12900 43.96900
H  -3.43600 19.65000 44.90500
H  -4.77400 20.78300 45.20300

