158

Mg 16.93600 -1.64100 28.29500
C  15.99000 0.54600 31.05200
C  18.79800 -3.47500 30.55100
C  18.61600 -2.97300 25.72900
C  15.90000 1.08500 26.15300
N  17.36700 -1.35200 30.52300
C  16.85500 -0.48200 31.45200
C  17.33900 -0.80900 32.83600
C  18.36200 -2.06500 32.60800
C  18.17200 -2.32900 31.08900
C  19.87100 -1.90400 32.93200
C  16.25800 -0.99700 33.89500
C  16.52700 -0.44900 35.27500
H  17.91800 0.01900 35.68500
N  18.30800 -3.19600 28.12100
C  18.89300 -3.88100 29.19600
C  19.63900 -5.02800 28.60400
C  19.59600 -4.85700 27.22100
C  18.75400 -3.65800 26.96100
C  20.28200 -6.07800 29.43000
C  20.17600 -5.71800 26.14100
O  20.02400 -5.46800 24.89900
C  21.05100 -6.89700 26.49100
N  17.14500 -1.05800 26.23300
C  18.00600 -1.73900 25.41200
C  18.05600 -1.16000 24.01100
C  17.04800 0.07300 24.11500
C  16.72300 0.06900 25.60300
C  19.41300 -0.77200 23.49900
C  15.82200 0.05800 23.18400
C  14.69600 -0.90500 23.57800
N  15.90800 0.23300 28.54800
C  15.58600 1.13500 27.56700
C  14.79600 2.25900 28.22300
C  15.03700 2.05200 29.58600
C  15.66400 0.82400 29.72600
C  14.08600 3.32300 27.49100
C  14.70800 2.58800 30.91800
O  14.11900 3.56200 31.18000
C  15.37800 1.66400 31.92600
C  16.34800 2.51400 32.73300
O  17.46900 2.82400 32.35700
O  15.78800 2.89400 33.88000
C  16.56800 3.95900 34.60900
H  19.33100 -4.03500 31.32300
H  19.08300 -3.42800 24.85300
H  15.61500 1.93600 25.53100
H  18.00100 0.03200 33.04700
H  18.01900 -3.00100 33.04800
H  20.17000 -2.62800 33.68900
H  20.01500 -0.90100 33.33500
H  20.51400 -2.01200 32.05900
H  16.27100 -2.08400 33.96500
H  15.36600 -0.62700 33.38900
H  16.21700 -1.23900 35.95900
H  15.93300 0.46400 35.32100
H  20.31600 -5.87400 30.50000
H  21.22500 -6.43700 29.01700
H  19.61300 -6.93300 29.34100
H  21.92300 -6.42600 26.94400
H  21.30600 -7.34600 25.53200
H  20.63400 -7.66900 27.13800
H  17.68500 -1.87400 23.27600
H  17.58300 0.97600 23.82400
H  20.10100 -0.84000 24.34200
H  19.41100 0.24400 23.10300
H  19.75400 -1.61600 22.90000
H  16.08100 -0.24400 22.16900
H  15.47200 1.08800 23.24200
H  13.81200 -0.35600 23.90300
H  14.91700 -1.58300 24.40300
H  14.36700 -1.53800 22.75300
H  14.23600 4.28000 27.99100
H  13.00600 3.21900 27.59600
H  14.44300 3.46600 26.47100
H  14.64600 1.18900 32.57900
H  16.73200 4.76700 33.89600
H  17.56100 3.63800 34.92300
H  16.04400 4.40100 35.45600
Mg 55.00800 23.38200 44.09800
C  52.90100 26.28200 43.68700
C  52.38200 21.46300 43.06400
C  57.13500 21.04800 44.14400
C  57.61400 25.81300 44.75300
N  52.87700 23.93000 43.35600
C  52.24400 25.06400 43.30800
C  50.84900 24.86100 42.83600
C  50.58300 23.35100 43.12800
C  52.06300 22.83700 43.16600
C  49.73300 23.11300 44.44000
C  50.78800 25.18500 41.31100
C  49.39700 25.64200 40.76800
H  48.79600 24.65300 39.75700
N  54.75900 21.45500 43.73500
C  53.65700 20.79900 43.27900
C  53.92300 19.39100 43.27900
C  55.36700 19.23200 43.51100
C  55.83500 20.58900 43.83600
C  52.91600 18.23100 43.05300
C  56.08500 17.90400 43.42500
O  55.57300 16.87100 43.16600
C  57.49200 17.83100 43.64900
N  57.10000 23.49300 44.36400
C  57.67000 22.28500 44.48400
C  59.06500 22.50300 45.06100
C  59.17900 24.02600 45.28800
C  57.93100 24.47300 44.64800
C  59.50300 21.79900 46.30100
C  60.48200 24.64000 44.69600
C  61.25100 25.39200 45.67000
N  55.26800 25.55600 44.27100
C  56.36400 26.37300 44.59800
C  55.88900 27.81800 44.72500
C  54.57500 27.77900 44.34000
C  54.24900 26.38800 44.11600
C  56.70600 29.13000 44.86300
C  53.43700 28.62700 44.05600
O  53.37000 29.85600 44.04300
C  52.31200 27.69300 43.56900
C  52.06100 28.08300 42.07600
O  52.88600 28.34900 41.21200
O  50.71700 28.35800 42.03400
C  50.42000 29.31400 41.01100
H  51.57300 20.80700 42.73700
H  57.84900 20.22200 44.18700
H  58.41000 26.55700 44.83300
H  50.11600 25.44300 43.39500
H  50.08600 22.95900 42.24100
H  49.24200 24.02000 44.79400
H  50.28400 22.72700 45.29700
H  49.03500 22.29200 44.28000
H  50.95300 24.30700 40.68600
H  51.56700 25.88200 41.00400
H  49.71600 26.52800 40.21800
H  48.76400 25.95600 41.59800
H  53.31300 17.65900 42.21400
H  51.92100 18.61300 42.82200
H  52.88100 17.63200 43.96300
H  58.01100 18.41400 42.88800
H  57.94500 16.84000 43.69000
H  57.55800 18.32300 44.61900
H  59.65900 22.12300 44.23000
H  59.03600 24.25100 46.34500
H  60.46100 21.29800 46.16400
H  58.86800 20.92700 46.45500
H  59.59600 22.32000 47.25400
H  60.35500 25.21300 43.77700
H  61.12900 23.78100 44.51800
H  62.26100 25.50700 45.27600
H  61.32700 24.95400 46.66600
H  60.84700 26.38800 45.85100
H  56.07800 29.76600 45.48700
H  56.90000 29.56000 43.88000
H  57.66000 28.77800 45.25500
H  51.37100 27.71400 44.11900
H  51.00200 30.21200 41.21800
H  49.35900 29.54200 41.11700
H  50.67900 29.00600 39.99800

