158

Mg 28.16000 56.41500 40.28300
C  25.97300 53.84300 39.60200
C  30.91300 54.43300 39.46600
C  30.16400 59.09100 40.42100
C  25.29500 58.49400 40.50800
N  28.33200 54.45000 39.55300
C  27.30400 53.57200 39.32700
C  27.80700 52.26300 38.67200
C  29.37400 52.34700 38.93300
C  29.58300 53.88100 39.39700
C  29.93000 51.32000 39.90600
C  27.46700 52.12500 37.14800
C  26.89800 53.36600 36.39000
H  26.76600 53.21700 34.82900
N  30.26200 56.73000 40.09200
C  31.21200 55.81200 39.77200
C  32.51700 56.45400 39.83200
C  32.38600 57.79000 40.21800
C  30.89500 57.96800 40.31700
C  33.74500 55.64300 39.60500
C  33.54100 58.74200 40.41000
O  34.74000 58.50000 40.28900
C  33.21100 60.04500 40.94800
N  27.75800 58.51600 40.34200
C  28.76600 59.40300 40.52000
C  28.21400 60.83000 40.87600
C  26.70300 60.66300 40.64200
C  26.54600 59.14700 40.56000
C  28.69200 61.30500 42.29500
C  26.10900 61.53100 39.55600
C  26.14400 63.05300 39.83900
N  26.06500 56.23200 40.16400
C  25.04000 57.17000 40.29500
C  23.72300 56.52200 40.13800
C  23.99900 55.19100 39.86100
C  25.45800 55.07800 39.89800
C  22.36900 57.17500 40.06800
C  23.47300 53.85100 39.66300
O  22.31400 53.41700 39.57900
C  24.78100 52.92400 39.50200
C  24.74900 51.83800 40.57300
O  24.13300 50.81300 40.45300
O  25.45400 52.18800 41.68200
C  25.37300 51.32300 42.87500
H  31.78700 53.81000 39.26800
H  30.71500 60.02600 40.53500
H  24.45000 59.16600 40.67100
H  27.38900 51.39200 39.17500
H  29.80700 52.19900 37.94400
H  29.09100 50.83600 40.40700
H  30.46600 51.78400 40.73400
H  30.45500 50.52400 39.37700
H  26.66200 51.39000 37.16800
H  28.36200 51.67100 36.72300
H  27.45000 54.25300 36.70000
H  25.88600 53.51500 36.76600
H  33.57100 55.06900 38.69500
H  33.68600 54.96300 40.45500
H  34.67000 56.21100 39.50600
H  32.62000 60.03900 41.86400
H  32.64000 60.52800 40.15500
H  34.06400 60.71100 41.07400
H  28.62200 61.47000 40.09400
H  26.11700 60.95400 41.51300
H  29.76900 61.42800 42.41300
H  28.41200 60.59200 43.07100
H  28.18200 62.23600 42.54000
H  25.16800 61.11800 39.19400
H  26.72400 61.28700 38.69000
H  26.60400 63.32500 40.78800
H  25.11900 63.42600 39.84000
H  26.74000 63.61500 39.12000
H  21.61400 56.66900 39.46500
H  22.54100 58.13800 39.58700
H  21.93900 57.23200 41.06800
H  24.95800 52.44000 38.54100
H  25.99000 50.47000 42.59200
H  24.41100 50.86100 43.09700
H  25.64200 51.82300 43.80500
Mg 35.52500 48.05300 25.11500
C  36.07500 46.01100 27.93800
C  33.93100 50.32400 27.01700
C  34.87900 49.66700 22.21200
C  36.90500 45.34800 23.17000
N  35.20600 48.21500 27.32800
C  35.59300 47.29700 28.33000
C  35.15200 47.90400 29.68100
C  34.30300 49.17900 29.35000
C  34.43300 49.22600 27.82600
C  32.84500 49.04900 29.88100
C  36.35500 48.13000 30.65600
C  36.00400 48.12600 32.17400
H  34.57600 47.91900 32.66400
N  34.65900 49.83400 24.71900
C  34.06800 50.62800 25.61400
C  33.72900 51.87300 24.95800
C  33.93900 51.70500 23.54500
C  34.52700 50.33700 23.44300
C  33.26700 53.06400 25.69600
C  33.67800 52.56200 22.38800
O  33.75100 52.13700 21.23200
C  33.24300 53.90800 22.62500
N  35.74300 47.50700 22.97700
C  35.48200 48.45400 22.03000
C  35.98500 47.96900 20.62500
C  36.55700 46.47600 20.92100
C  36.42400 46.39800 22.45500
C  34.87700 48.03200 19.54000
C  38.05700 46.38700 20.46300
C  38.98900 47.48800 21.16700
N  36.29000 46.09500 25.45200
C  36.82400 45.17300 24.54700
C  37.28700 44.03700 25.36200
C  36.93200 44.29800 26.68800
C  36.43700 45.56000 26.66000
C  37.95100 42.75100 24.87500
C  36.84900 43.65600 27.98500
O  37.24000 42.59100 28.36900
C  36.38500 44.82800 28.89400
C  35.23200 44.34500 29.67600
O  34.14400 44.04100 29.23700
O  35.59500 44.41800 31.03600
C  34.43100 43.95100 31.91300
H  33.32900 51.06100 27.55100
H  34.76600 50.24000 21.28900
H  37.49000 44.62900 22.59200
H  34.46300 47.19700 30.14300
H  34.68400 50.14800 29.67000
H  32.65800 49.79200 30.65600
H  32.65000 48.04800 30.26700
H  32.17100 49.27600 29.05500
H  36.89500 48.97600 30.23200
H  37.12600 47.36300 30.58000
H  36.45800 48.99400 32.65200
H  36.43800 47.24100 32.63900
H  32.18500 53.02500 25.57600
H  33.69700 53.98200 25.29300
H  33.43200 53.09300 26.77300
H  34.15000 54.42700 22.93200
H  32.34300 53.90000 23.24000
H  32.86600 54.37000 21.71200
H  36.80000 48.61500 20.29800
H  36.00800 45.69600 20.39400
H  34.08100 48.66100 19.94000
H  34.43600 47.05100 19.35800
H  35.15100 48.50000 18.59500
H  38.00600 46.65500 19.40800
H  38.40200 45.35300 20.45700
H  38.44700 47.96100 21.98600
H  39.35900 48.22300 20.45200
H  39.81900 46.98700 21.66700
H  38.42500 43.03600 23.93500
H  37.11400 42.07400 24.70400
H  38.68500 42.20900 25.47300
H  37.25700 45.17700 29.44700
H  34.55500 42.88600 32.11000
H  33.45000 44.37300 31.69500
H  34.76300 44.49500 32.79800

