158

Mg 30.16400 58.20900 39.99200
C  27.41000 56.30300 38.74700
C  32.21800 55.54300 39.04700
C  32.76500 60.17500 40.34900
C  28.03100 61.00000 40.18400
N  29.77700 56.20300 39.06400
C  28.56000 55.53700 38.76900
C  28.68000 54.01000 38.48800
C  30.21000 53.83200 38.75800
C  30.79500 55.26800 38.90400
C  30.48700 52.87200 39.94600
C  28.09600 53.57100 37.10700
C  28.87500 54.05600 35.83600
H  28.14800 54.67300 34.56900
N  32.29200 57.88400 39.79300
C  32.87100 56.72400 39.37000
C  34.25600 56.96100 39.42700
C  34.50500 58.35000 39.69700
C  33.17600 58.89300 40.05600
C  35.32500 55.87900 39.18400
C  35.89900 59.07200 39.69600
O  36.97900 58.48500 39.46700
C  35.96700 60.55100 40.18400
N  30.40200 60.28000 40.15200
C  31.57900 60.84200 40.44400
C  31.50300 62.31300 40.60000
C  29.98600 62.58500 40.71000
C  29.39800 61.23700 40.33800
C  32.27600 62.88200 41.84700
C  29.34800 63.81600 39.92700
C  28.19300 64.50500 40.72600
N  28.14300 58.59100 39.59300
C  27.42400 59.84800 39.77300
C  26.02400 59.58800 39.39400
C  25.99600 58.24300 39.03000
C  27.30600 57.68300 39.13400
C  24.85200 60.47700 39.45500
C  25.08100 57.19600 38.63500
O  23.88700 57.17600 38.47800
C  25.95300 55.89800 38.51600
C  25.44200 55.02400 39.65900
O  25.25200 55.35200 40.80400
O  25.18900 53.72100 39.16200
C  24.65300 52.75800 40.17800
H  32.94100 54.73800 38.89500
H  33.54700 60.92000 40.51100
H  27.33000 61.83600 40.14400
H  28.00600 53.65200 39.26600
H  30.68100 53.58600 37.80600
H  30.75200 53.54400 40.76200
H  31.26700 52.11800 39.83600
H  29.51200 52.51600 40.27600
H  27.03600 53.79000 36.97700
H  28.04000 52.48400 37.04300
H  29.40300 53.18300 35.45200
H  29.60200 54.75800 36.24400
H  36.27000 56.20500 38.74900
H  34.98800 55.05700 38.55300
H  35.59600 55.52800 40.18000
H  35.52500 60.62900 41.17700
H  35.37000 61.12800 39.47600
H  36.97100 60.96000 40.07200
H  31.95100 62.69500 39.68300
H  29.95600 62.66000 41.79700
H  33.24400 63.20300 41.46200
H  32.39700 62.19600 42.68500
H  31.77800 63.72600 42.32400
H  28.83900 63.31600 39.10300
H  30.06700 64.59200 39.66500
H  27.34800 64.70900 40.06900
H  28.52000 65.41200 41.23600
H  27.83300 63.87700 41.54100
H  24.79600 61.00500 38.50400
H  24.91000 61.28900 40.18100
H  24.02500 59.79700 39.66000
H  25.67200 55.47300 37.55300
H  24.11300 51.99300 39.62000
H  23.87600 53.17300 40.82100
H  25.36800 52.24200 40.81800
Mg -11.69900 39.05800 41.79800
C  -9.92000 36.25900 40.64500
C  -9.32700 41.06100 40.50000
C  -13.77200 41.67000 42.45400
C  -14.26300 36.78200 42.71600
N  -10.01300 38.66000 40.47100
C  -9.41100 37.48200 40.18400
C  -8.11700 37.71900 39.36800
C  -7.82800 39.21400 39.59300
C  -9.12600 39.66600 40.26500
C  -6.50100 39.61300 40.21200
C  -8.20800 37.06700 37.96200
C  -6.96700 36.13600 37.65600
H  -6.08000 36.55600 36.58000
N  -11.49100 41.10100 41.59500
C  -10.43300 41.71100 41.05200
C  -10.61900 43.14700 41.27500
C  -11.87000 43.39000 41.87000
C  -12.49900 41.99900 41.97900
C  -9.56600 44.09400 40.81500
C  -12.35000 44.71100 42.30500
O  -11.67500 45.71000 41.97500
C  -13.58600 45.02000 42.99900
N  -13.79900 39.16900 42.20100
C  -14.38300 40.39200 42.50200
C  -15.79500 40.16000 43.01000
C  -16.03400 38.62200 42.74000
C  -14.60200 38.11700 42.52000
C  -16.18400 40.64600 44.46900
C  -17.00100 38.23200 41.62000
C  -18.10100 37.32500 42.09600
N  -12.16900 36.87400 41.65900
C  -13.09100 36.16200 42.32300
C  -12.73200 34.76400 42.34300
C  -11.54000 34.70200 41.64300
C  -11.15600 36.03000 41.28700
C  -13.48700 33.62500 43.04500
C  -10.45900 33.82100 41.14000
O  -10.34500 32.63200 41.12700
C  -9.43400 34.82100 40.36000
C  -8.13600 34.56200 40.99600
O  -7.80200 34.99900 42.11700
O  -7.34700 33.78700 40.10400
C  -6.07000 33.38100 40.60800
H  -8.42400 41.62400 40.25400
H  -14.36300 42.55100 42.71500
H  -14.84000 36.03000 43.25800
H  -7.42600 37.08300 39.92200
H  -7.82400 39.83400 38.69600
H  -6.61200 40.21000 41.11700
H  -5.96500 40.27600 39.53300
H  -5.89000 38.75500 40.49400
H  -8.24300 37.77600 37.13500
H  -9.13700 36.50500 38.06100
H  -7.41300 35.14500 37.57100
H  -6.39400 35.99400 38.57200
H  -8.59100 43.72400 41.13200
H  -9.73100 45.14800 41.03900
H  -9.65500 44.17500 39.73100
H  -14.45300 44.53900 42.54700
H  -13.92500 46.05600 43.00300
H  -13.54300 44.62800 44.01600
H  -16.48100 40.64700 42.31700
H  -16.45300 38.31600 43.69900
H  -15.33700 41.13400 44.95100
H  -16.56400 39.77100 44.99700
H  -17.00400 41.36300 44.42300
H  -16.43500 37.66600 40.88000
H  -17.51000 39.13500 41.28300
H  -19.03900 37.76600 42.43500
H  -17.74500 36.70400 42.91800
H  -18.34500 36.80100 41.17200
H  -13.01300 32.64600 42.96700
H  -14.51900 33.56100 42.69900
H  -13.48900 33.85300 44.11100
H  -9.51000 34.48000 39.32700
H  -5.75600 34.03700 41.41900
H  -5.28800 33.35500 39.84900
H  -6.22700 32.37500 40.99600

