158

Mg 2.27100 -1.75800 44.51600
C  5.39800 -0.74700 43.76400
C  0.99700 0.93000 42.71100
C  -0.87200 -3.25000 44.74100
C  3.59300 -4.71200 46.11700
N  3.08000 -0.14700 43.21200
C  4.42600 0.10000 43.17100
C  4.72400 1.34600 42.35100
C  3.27600 2.03900 42.25400
C  2.38300 0.87100 42.71800
C  3.19800 3.43200 43.11000
C  5.38500 0.93300 40.97000
C  6.21100 2.06600 40.39000
H  6.71400 1.92100 38.92000
N  0.35000 -1.25400 43.84000
C  0.03700 -0.08300 43.16600
C  -1.35500 -0.09200 42.86600
C  -1.92300 -1.29000 43.43900
C  -0.80700 -2.00300 44.04800
C  -2.01700 0.98800 41.95800
C  -3.41200 -1.59400 43.37800
O  -4.22800 -0.72200 43.01800
C  -3.99000 -2.88500 43.91200
N  1.46200 -3.76100 45.26200
C  0.13600 -4.03600 45.26600
C  -0.09000 -5.41900 45.94800
C  1.30200 -5.83500 46.57900
C  2.22000 -4.79300 45.91200
C  -1.27900 -5.58700 46.93000
C  1.70000 -7.32200 46.35500
C  2.18700 -8.10100 47.61600
N  4.10400 -2.63200 44.93500
C  4.48100 -3.73600 45.59800
C  5.97300 -3.72000 45.67900
C  6.37700 -2.56700 45.01500
C  5.21700 -1.95900 44.49700
C  6.77400 -4.73700 46.38700
C  7.45800 -1.80200 44.69500
O  8.70100 -1.85300 44.82100
C  6.88700 -0.48800 44.03600
C  6.91100 0.61300 45.05300
O  6.18400 0.75400 46.02700
O  7.93700 1.45400 44.69900
C  7.89700 2.72700 45.40900
H  0.58700 1.80600 42.20400
H  -1.81500 -3.80000 44.76900
H  4.00500 -5.56200 46.66300
H  5.43400 2.03600 42.80700
H  3.02000 2.38600 41.25300
H  4.20300 3.74100 43.39700
H  2.63000 3.22800 44.01800
H  2.64800 4.19600 42.56100
H  4.50700 0.86000 40.32700
H  5.97300 0.01500 40.96500
H  7.16200 2.11400 40.92200
H  5.67800 3.01000 40.50800
H  -1.25600 1.65200 41.54800
H  -2.77100 1.54900 42.51100
H  -2.42200 0.58000 41.03200
H  -5.07800 -2.93200 43.87600
H  -3.74700 -2.90000 44.97500
H  -3.52900 -3.76200 43.45700
H  -0.29600 -6.15000 45.16600
H  1.26500 -5.57500 47.63700
H  -2.11600 -4.90400 46.78500
H  -1.05200 -5.64300 47.99500
H  -1.69700 -6.58300 46.77800
H  2.49600 -7.26100 45.61300
H  0.84100 -7.85700 45.94900
H  2.51400 -7.37800 48.36300
H  2.95900 -8.79700 47.28700
H  1.38500 -8.71200 48.03000
H  7.13900 -5.65800 45.93100
H  6.20200 -5.07100 47.25300
H  7.69100 -4.27500 46.75400
H  7.40400 -0.22700 43.11300
H  8.40900 3.47000 44.79700
H  8.43400 2.57900 46.34600
H  6.93800 3.23300 45.51400
Mg 35.10700 2.59300 29.81100
C  32.73900 3.69600 32.29100
C  37.56300 2.95300 32.14200
C  37.42400 2.16500 27.30300
C  32.56400 3.05800 27.42800
N  35.11100 3.40900 31.87400
C  34.09000 3.65600 32.74300
C  34.45900 3.66900 34.24300
C  36.03400 3.64200 34.09800
C  36.29800 3.35900 32.60200
C  36.68400 4.96400 34.57500
C  33.94100 2.36600 34.92900
C  33.83100 2.34900 36.50600
H  34.41800 3.55800 37.25300
N  37.15300 2.38200 29.71700
C  38.00700 2.54200 30.84400
C  39.36200 2.18400 30.34300
C  39.34200 1.95600 28.93400
C  37.92200 2.21700 28.60200
C  40.51300 2.29100 31.26800
C  40.50800 1.71600 27.98200
O  40.40300 1.67700 26.74700
C  41.93600 1.57000 28.50400
N  34.94500 2.52100 27.65100
C  36.05700 2.31700 26.86300
C  35.67700 2.40400 25.34100
C  34.14200 2.57500 25.42700
C  33.81400 2.77700 26.92900
C  36.30800 3.59300 24.49000
C  33.34400 1.39700 24.90700
C  33.69000 -0.01800 25.31700
N  33.02800 3.21600 29.81300
C  32.16000 3.30000 28.75900
C  30.82800 3.70900 29.29300
C  31.07800 3.83200 30.70600
C  32.37600 3.46900 30.97400
C  29.70200 3.97700 28.35500
C  30.35400 4.09700 31.92100
O  29.25900 4.59100 32.14700
C  31.40500 3.93100 33.04100
C  31.53700 5.10200 33.90100
O  31.84300 6.24700 33.61400
O  31.02600 4.80800 35.19800
C  30.96300 5.79400 36.24900
H  38.32600 3.08700 32.91100
H  38.11500 1.93800 26.48800
H  31.74000 3.09600 26.71400
H  34.07000 4.56000 34.73500
H  36.51200 2.88500 34.71900
H  36.94500 5.51500 33.67100
H  37.53300 4.94800 35.25900
H  35.96100 5.67500 34.97500
H  34.58800 1.56800 34.56500
H  32.94200 2.09500 34.58600
H  34.26500 1.38300 36.76100
H  32.80100 2.21600 36.83800
H  41.26500 2.94900 30.83300
H  40.87000 1.27300 31.42200
H  40.24600 2.73500 32.22700
H  42.06800 1.39500 29.57100
H  42.48600 2.43800 28.13700
H  42.23600 0.71900 27.89200
H  35.88300 1.42300 24.91300
H  33.88400 3.43900 24.81500
H  36.66400 3.18900 23.54200
H  37.12500 3.98000 25.10000
H  35.60600 4.38800 24.24200
H  33.46100 1.50000 23.82800
H  32.26200 1.51500 24.96900
H  34.05000 -0.59200 24.46300
H  32.76400 -0.46300 25.68200
H  34.46900 0.05100 26.07600
H  29.07800 3.08400 28.32600
H  29.89400 4.23000 27.31300
H  29.13800 4.84900 28.68600
H  31.01500 3.05600 33.56100
H  30.02900 6.35100 36.17200
H  31.84300 6.43700 36.25500
H  30.99100 5.19700 37.16100

