158

Mg 30.38900 57.96900 40.09300
C  27.67800 55.78200 39.29400
C  32.57600 55.39800 38.96900
C  32.93900 60.07500 40.22000
C  28.08300 60.39100 40.66700
N  30.13700 55.88600 39.13300
C  28.95400 55.20700 39.00700
C  29.23300 53.81700 38.48000
C  30.80800 53.72000 38.54100
C  31.19500 55.09700 38.94500
C  31.39800 52.66700 39.53900
C  28.69400 53.51900 37.05800
C  28.92200 54.56500 35.92000
H  27.71700 54.82600 34.93200
N  32.47000 57.67000 39.76800
C  33.12800 56.62700 39.28500
C  34.53200 56.95800 39.10500
C  34.69100 58.26000 39.62900
C  33.29700 58.73700 39.88800
C  35.62100 56.01400 38.63700
C  36.06300 59.00700 39.89400
O  37.13800 58.41000 39.91400
C  36.01000 60.50900 40.30500
N  30.47800 60.02400 40.35100
C  31.66200 60.73500 40.32300
C  31.40500 62.28800 40.48500
C  29.91900 62.34800 40.76100
C  29.42100 60.84000 40.56900
C  32.22500 62.90600 41.67800
C  29.15400 63.42900 39.97000
C  28.75500 64.64000 40.76300
N  28.28200 58.09500 40.17900
C  27.49700 59.14600 40.49100
C  26.09000 58.84900 40.35300
C  26.10800 57.50400 39.87800
C  27.47400 57.11000 39.80500
C  24.89900 59.79000 40.54000
C  25.29600 56.39600 39.38700
O  24.07700 56.33100 39.23900
C  26.22000 55.21400 39.09100
C  26.00800 54.08600 40.08000
O  26.76900 53.66900 40.87100
O  24.71400 53.60200 39.86500
C  24.33700 52.51700 40.79600
H  33.23800 54.58500 38.66400
H  33.65400 60.88200 40.39700
H  27.36900 61.20100 40.83200
H  28.88800 53.14300 39.26500
H  31.36200 53.61200 37.60800
H  32.03900 51.91200 39.08300
H  30.62400 52.03300 39.97300
H  31.86500 53.22400 40.35200
H  27.64100 53.23600 37.09300
H  29.25300 52.69700 36.61000
H  29.79800 54.19800 35.38500
H  29.20400 55.54300 36.30800
H  36.44200 56.46500 38.07900
H  35.34600 55.26600 37.89400
H  35.98200 55.42400 39.47900
H  35.46200 61.12700 39.59400
H  37.00000 60.87600 40.57300
H  35.44700 60.48500 41.23800
H  31.59400 62.80500 39.54400
H  29.69800 62.44700 41.82400
H  32.85500 63.69300 41.26400
H  32.80900 62.16900 42.22900
H  31.53500 63.35800 42.39100
H  28.25000 63.11000 39.45300
H  29.69200 63.69800 39.06100
H  29.55600 65.35300 40.95800
H  28.50100 64.23900 41.74400
H  27.95400 65.26500 40.36900
H  24.45000 59.96900 39.56400
H  25.24700 60.68700 41.05300
H  24.15200 59.28700 41.15400
H  26.07100 54.83700 38.07900
H  23.26000 52.35000 40.79300
H  24.60300 52.82700 41.80700
H  24.89300 51.63500 40.48000
Mg -0.13800 44.30600 26.41900
C  2.25500 44.38500 29.10400
C  -2.50400 43.33000 28.73200
C  -2.07900 43.13900 23.88300
C  2.44700 44.74300 24.20100
N  -0.07900 43.87800 28.69700
C  0.98300 44.07400 29.55000
C  0.44800 44.03100 30.96400
C  -0.99200 43.39200 30.83800
C  -1.23200 43.60000 29.31600
C  -1.04800 41.87500 31.27300
C  0.47200 45.36400 31.80600
C  1.02200 45.10400 33.26800
H  0.52200 43.88000 34.07900
N  -2.09300 43.59600 26.30700
C  -2.87800 43.22900 27.35400
C  -4.20800 42.87200 26.83600
C  -4.11700 42.84000 25.42900
C  -2.75200 43.22700 25.14500
C  -5.41000 42.50400 27.69800
C  -5.15100 42.34700 24.35000
O  -4.86400 42.27700 23.18100
C  -6.57700 42.01700 24.77500
N  0.07300 43.91800 24.37800
C  -0.79600 43.41200 23.55700
C  -0.13900 43.11300 22.17100
C  1.06200 44.12700 22.13800
C  1.22400 44.29000 23.66500
C  0.27000 41.61100 21.96800
C  0.82600 45.40800 21.34300
C  1.70300 45.73000 20.11400
N  1.93400 44.50100 26.55200
C  2.84700 44.69200 25.54700
C  4.22200 44.90300 26.10300
C  3.95700 44.75300 27.48700
C  2.59600 44.52300 27.75300
C  5.49200 45.16400 25.36600
C  4.69400 44.76000 28.81900
O  5.88700 44.84700 29.07100
C  3.54800 44.54200 29.86000
C  4.01900 43.26200 30.60900
O  4.49600 42.27800 30.15600
O  3.84300 43.49600 31.95800
C  4.09800 42.30000 32.85700
H  -3.18600 42.99700 29.51800
H  -2.62400 42.83800 22.98600
H  3.16400 44.98100 23.41200
H  1.09600 43.31100 31.46400
H  -1.74800 43.94300 31.39700
H  -0.11400 41.55300 31.73200
H  -1.45300 41.29200 30.44600
H  -1.86300 41.84400 31.99600
H  -0.54000 45.75700 31.90000
H  1.00800 46.20600 31.36700
H  0.76300 46.02500 33.78900
H  2.10300 45.24600 33.25800
H  -6.24800 43.20100 27.69100
H  -5.15200 42.34800 28.74500
H  -5.87900 41.60300 27.30100
H  -7.17600 41.87000 23.87600
H  -7.03900 42.72700 25.46100
H  -6.42800 41.03700 25.22700
H  -0.88500 43.30800 21.40100
H  1.94700 43.62700 21.74300
H  0.08900 40.93800 22.80700
H  1.32300 41.47100 21.72200
H  -0.39900 41.20000 21.21300
H  0.87700 46.31900 21.93900
H  -0.18800 45.37700 20.94400
H  1.01500 45.61200 19.27700
H  2.59200 45.10000 20.11900
H  2.15500 46.71800 20.02400
H  5.37800 46.06800 24.76800
H  5.82400 44.28400 24.81600
H  6.23700 45.28200 26.15400
H  3.52100 45.30800 30.63400
H  3.49100 41.42600 32.62100
H  3.75700 42.51400 33.87000
H  5.18700 42.27500 32.88900

