158

Mg 17.48100 -0.72900 27.81400
C  16.59800 1.12100 30.64900
C  19.30600 -2.91000 29.92900
C  19.15300 -2.09200 25.09100
C  16.04500 1.65200 25.78600
N  17.97100 -0.78700 30.04100
C  17.40100 0.00100 30.99600
C  17.82200 -0.42000 32.39400
C  18.80800 -1.62700 32.13900
C  18.61500 -1.84800 30.61800
C  20.28100 -1.39800 32.48100
C  16.59900 -0.67600 33.44900
C  16.93200 -0.54400 34.91300
H  18.25700 0.06600 35.32000
N  18.90600 -2.41900 27.59100
C  19.49200 -3.19900 28.52900
C  20.23300 -4.27500 27.90700
C  20.11700 -4.04600 26.55400
C  19.39800 -2.83100 26.30700
C  20.92600 -5.27200 28.70500
C  20.76000 -4.81100 25.34100
O  20.53100 -4.55200 24.16300
C  21.73400 -5.98000 25.65500
N  17.58500 -0.32100 25.71200
C  18.24000 -1.08700 24.80700
C  17.85300 -0.62200 23.36800
C  16.80500 0.44500 23.58700
C  16.82100 0.67000 25.12100
C  19.17200 -0.17500 22.50800
C  15.45500 0.13900 23.02700
C  14.39900 -0.67900 23.89600
N  16.48600 1.04400 28.09000
C  15.85300 1.86400 27.15100
C  15.11700 2.92600 27.82600
C  15.37600 2.67500 29.27100
C  16.22400 1.48900 29.33800
C  14.31200 4.02600 27.17700
C  15.05600 3.08300 30.62400
O  14.24600 3.96700 30.97100
C  15.95400 2.19300 31.51200
C  16.86100 3.01100 32.33400
O  18.04200 3.18100 32.13800
O  16.09500 3.62800 33.27500
C  16.86200 4.47200 34.24400
H  19.75000 -3.48000 30.74800
H  19.53000 -2.42200 24.12100
H  15.50600 2.36800 25.16100
H  18.36200 0.43000 32.81000
H  18.32500 -2.48300 32.61300
H  20.64600 -2.37800 32.78800
H  20.42900 -0.52200 33.11200
H  20.87700 -1.16500 31.59900
H  16.29300 -1.67600 33.14300
H  15.85000 0.09900 33.29000
H  16.76100 -1.47000 35.46300
H  16.18400 0.09300 35.38400
H  21.99600 -5.07100 28.64900
H  20.68100 -6.25300 28.29800
H  20.81100 -5.12400 29.77900
H  21.19400 -6.81200 26.10700
H  22.49500 -5.66100 26.36700
H  22.07900 -6.24500 24.65500
H  17.47300 -1.44900 22.76800
H  17.13900 1.35900 23.09700
H  20.02600 -0.27100 23.17900
H  19.02900 0.88100 22.27800
H  19.38900 -0.69200 21.57300
H  15.54700 -0.48700 22.14000
H  15.01400 1.10700 22.78900
H  13.52600 -0.14500 24.27000
H  14.88200 -1.04500 24.80200
H  13.96900 -1.48900 23.30600
H  14.11400 3.99000 26.10600
H  14.71300 4.96000 27.57100
H  13.33900 3.89500 27.65100
H  15.13300 1.80600 32.11700
H  16.17500 5.25800 34.55700
H  17.62700 5.01900 33.69200
H  17.22600 4.07400 35.19100
Mg 26.47800 49.79800 25.95800
C  24.20900 50.93200 28.47100
C  28.60700 48.78100 28.45100
C  28.64900 48.78800 23.65600
C  24.28600 50.96000 23.62800
N  26.46600 50.01800 28.13100
C  25.41700 50.38000 29.02600
C  25.85300 50.26400 30.50900
C  27.23100 49.49600 30.43100
C  27.46500 49.51300 28.93100
C  28.31800 50.12500 31.30100
C  24.72600 49.75400 31.42800
C  25.07800 48.84300 32.63600
H  25.76200 49.62800 33.84100
N  28.40800 48.93900 26.00400
C  29.03400 48.48400 27.12800
C  30.18400 47.71100 26.67700
C  30.25300 47.79300 25.30500
C  29.11400 48.58300 24.93600
C  31.14000 46.98100 27.67300
C  31.24900 47.23200 24.35900
O  31.27400 47.33100 23.16600
C  32.39800 46.45200 24.98900
N  26.50300 50.03400 23.97000
C  27.44400 49.37900 23.20500
C  27.02500 49.26700 21.69200
C  25.49300 49.61500 21.85200
C  25.43300 50.24900 23.20500
C  27.73000 50.34900 20.82100
C  24.56400 48.27000 21.72200
C  23.93200 48.12400 20.28400
N  24.69200 50.88900 26.02900
C  23.93000 51.29000 24.93900
C  22.70800 51.81200 25.41400
C  22.72500 51.73000 26.77800
C  23.96400 51.16000 27.11400
C  21.59400 52.32400 24.59300
C  22.07800 51.91800 28.01800
O  21.04500 52.43500 28.21600
C  23.03600 51.43300 29.17500
C  23.31300 52.56600 30.12400
O  24.28400 53.35100 30.08300
O  22.41500 52.57700 31.14000
C  22.77000 53.42900 32.34000
H  29.30100 48.31500 29.15300
H  29.31900 48.57500 22.82000
H  23.40200 51.23500 23.04900
H  26.13200 51.28600 30.76700
H  27.10500 48.44300 30.68300
H  29.22100 50.23100 30.69900
H  28.63700 49.36000 32.00900
H  28.26800 51.15500 31.65400
H  24.04000 49.20000 30.78800
H  24.17400 50.62300 31.78400
H  25.70300 48.01000 32.31400
H  24.14000 48.36400 32.91600
H  32.19000 47.23900 27.53500
H  30.95000 45.93500 27.43300
H  30.87300 47.07400 28.72600
H  33.12000 46.13800 24.23500
H  31.86400 45.63800 25.48000
H  33.05900 47.03700 25.62900
H  27.27400 48.25400 21.37700
H  25.11000 50.34400 21.13800
H  27.15400 51.11500 20.30100
H  28.18600 49.86600 19.95700
H  28.47900 50.86000 21.42600
H  23.81000 48.28100 22.50900
H  25.24500 47.43000 21.86000
H  24.11100 47.09000 19.99100
H  24.44400 48.69000 19.50600
H  22.87100 48.36100 20.20900
H  21.04200 51.45100 24.24500
H  22.08800 52.78000 23.73500
H  20.95300 53.03400 25.11500
H  22.65900 50.60700 29.77700
H  22.89000 54.49100 32.12700
H  23.77000 53.11000 32.63200
H  22.18800 53.20100 33.23300

