158

Mg -2.87000 17.82000 27.32100
C  -2.90000 15.61600 29.93900
C  -3.17200 20.42900 29.34900
C  -3.06100 19.72400 24.46600
C  -2.69300 14.84100 25.13000
N  -3.06700 17.95700 29.39400
C  -2.89000 16.99500 30.31800
C  -3.15500 17.53900 31.74900
C  -3.26600 19.06800 31.53700
C  -3.18800 19.16800 29.98500
C  -4.55900 19.71800 32.07700
C  -2.06100 17.09500 32.77800
C  -1.80500 17.91000 34.03400
H  -1.87400 17.20400 35.40000
N  -2.92200 19.81100 26.96100
C  -3.02600 20.73900 27.92800
C  -3.19800 22.09100 27.33100
C  -2.93000 21.85700 25.91200
C  -3.01900 20.38400 25.70600
C  -3.41200 23.41400 28.13200
C  -2.53400 22.86400 24.81900
O  -2.43800 22.53500 23.65700
C  -2.22300 24.31900 25.19100
N  -3.04000 17.31600 25.10500
C  -3.14700 18.31800 24.16000
C  -3.25500 17.67500 22.69700
C  -3.03800 16.17300 22.95200
C  -2.93300 16.07600 24.47000
C  -4.43000 18.08000 21.87700
C  -1.73300 15.52900 22.32000
C  -0.45300 15.92100 22.85600
N  -2.89700 15.63900 27.44800
C  -2.63600 14.61700 26.49800
C  -2.67800 13.33800 27.17600
C  -2.87900 13.68800 28.52400
C  -2.85500 15.07000 28.64200
C  -2.62200 11.99800 26.52100
C  -3.12800 13.14100 29.79900
O  -3.17300 11.91900 30.16800
C  -2.99200 14.39200 30.77600
C  -1.80100 14.25200 31.58900
O  -0.67800 14.66600 31.27200
O  -2.13900 13.29300 32.55400
C  -1.06600 12.93500 33.48700
H  -2.96200 21.30400 29.96800
H  -3.00800 20.25900 23.51600
H  -2.45100 13.91300 24.60800
H  -4.08100 17.08100 32.09600
H  -2.45300 19.62600 32.00000
H  -5.25800 20.02200 31.29800
H  -4.26200 20.47900 32.79800
H  -5.10700 19.03100 32.72100
H  -1.13600 17.05600 32.20200
H  -2.39100 16.11200 33.11300
H  -2.59500 18.66000 34.00200
H  -0.84700 18.35800 33.77100
H  -3.94800 24.10700 27.48300
H  -2.52600 24.01200 28.34500
H  -3.94600 23.23400 29.06500
H  -3.11300 24.86200 25.51000
H  -2.06700 24.70900 24.18500
H  -1.34800 24.58000 25.78700
H  -2.36900 18.18000 22.31100
H  -3.88100 15.67800 22.47000
H  -4.93500 17.19700 21.48600
H  -4.30000 18.58700 20.92100
H  -5.13300 18.68400 22.45000
H  -1.65000 15.70100 21.24700
H  -1.82200 14.45800 22.50100
H  -0.13000 14.94500 23.21700
H  -0.52400 16.68200 23.63300
H  0.24800 16.23100 22.08100
H  -3.46600 11.94100 25.83400
H  -2.71300 11.10500 27.13900
H  -1.66200 11.87700 26.01800
H  -3.96300 14.35600 31.26900
H  -0.09300 13.13400 33.03700
H  -1.15800 11.91900 33.87000
H  -1.14200 13.61300 34.33800
Mg 47.85300 24.47900 27.90000
C  48.62600 26.80300 30.40100
C  47.30700 22.22200 30.45500
C  47.27000 22.27200 25.57600
C  48.81400 26.83400 25.54700
N  48.12200 24.50900 30.19200
C  48.26600 25.61900 30.96500
C  48.05000 25.29600 32.46900
C  47.57500 23.77200 32.44400
C  47.77600 23.41400 30.99500
C  48.33700 22.87300 33.47100
C  47.01100 26.29200 33.12300
C  46.41700 25.91400 34.45600
H  46.53100 27.09300 35.41900
N  47.25400 22.59000 28.04400
C  47.09900 21.78600 29.14000
C  46.80900 20.40000 28.68300
C  46.61700 20.42500 27.27000
C  47.05900 21.82500 26.90200
C  46.59500 19.27200 29.66000
C  46.06600 19.30400 26.27000
O  45.91800 19.53400 25.12400
C  45.79900 17.98700 26.81400
N  48.04500 24.60400 25.76800
C  47.63300 23.49400 25.04100
C  47.82400 23.81300 23.46200
C  48.04300 25.34000 23.55000
C  48.31800 25.65800 25.00800
C  48.84000 22.88000 22.80300
C  47.01100 26.27200 22.81300
C  45.61000 26.47900 23.35300
N  48.68100 26.46500 27.92300
C  48.93700 27.29300 26.85900
C  49.46100 28.55300 27.43900
C  49.39400 28.39900 28.84100
C  48.82700 27.10600 29.09800
C  49.87100 29.82400 26.73100
C  49.69900 29.00100 30.08200
O  50.28200 29.98200 30.33100
C  49.11000 28.06100 31.18600
C  50.15400 27.73800 32.19700
O  51.04400 26.89100 32.04400
O  49.99800 28.53300 33.34900
C  50.66000 28.08200 34.59300
H  47.11300 21.61900 31.34400
H  47.17700 21.51200 24.79700
H  49.22800 27.51700 24.80300
H  48.99300 25.42900 32.99900
H  46.52400 23.67900 32.71400
H  49.30500 22.52100 33.11400
H  47.65600 22.06500 33.73800
H  48.50100 23.47300 34.36600
H  46.20800 26.43400 32.40000
H  47.54300 27.23100 33.27600
H  46.75300 24.94300 34.81900
H  45.35200 25.90500 34.22100
H  47.00900 19.61300 30.60900
H  46.95500 18.35900 29.18600
H  45.54600 19.18000 29.94200
H  46.55400 17.61300 27.50400
H  45.70900 17.42100 25.88700
H  44.77200 17.95800 27.18000
H  46.94600 23.80800 22.81600
H  48.92400 25.58000 22.95500
H  48.90700 21.95000 23.36800
H  49.70600 23.54200 22.77900
H  48.59600 22.57800 21.78500
H  46.81800 25.89200 21.81000
H  47.53800 27.22600 22.79500
H  45.71100 26.57800 24.43400
H  44.89300 25.71300 23.05800
H  45.34400 27.48200 23.01900
H  48.93200 30.37400 26.67600
H  50.16700 29.64100 25.69800
H  50.64000 30.41500 27.22900
H  48.33900 28.65400 31.67900
H  50.31700 27.06500 34.78500
H  50.37200 28.71200 35.43500
H  51.74600 28.11900 34.51500

