158

Mg 0.77400 8.70200 26.38200
C  1.34400 10.49000 29.48900
C  0.39700 5.94800 28.28400
C  0.25700 7.12600 23.52100
C  1.08900 11.72900 24.73900
N  1.03600 8.18200 28.62600
C  1.09900 9.11300 29.72100
C  0.96400 8.33800 31.00300
C  0.98500 6.84200 30.69100
C  0.80100 6.96600 29.12100
C  2.29300 6.12100 31.18900
C  -0.30600 8.73900 31.83400
C  -0.27500 8.56700 33.40700
H  0.98400 8.04000 34.12300
N  0.49300 6.77900 25.89500
C  0.26900 5.80400 26.80100
C  -0.00100 4.57200 26.10700
C  0.00200 4.81900 24.71700
C  0.28700 6.29900 24.64300
C  -0.21900 3.19800 26.84900
C  -0.21200 3.90800 23.56500
O  -0.15700 4.26800 22.39300
C  -0.28900 2.47700 23.75400
N  0.70700 9.31100 24.42300
C  0.52300 8.51700 23.41600
C  0.58600 9.26600 22.10800
C  0.36200 10.80200 22.55900
C  0.75200 10.61200 24.01000
C  1.87500 8.98600 21.47200
C  -1.11200 11.31600 22.48300
C  -1.42200 12.67100 21.81700
N  1.12000 10.70800 26.89400
C  1.30000 11.77000 26.07000
C  1.61000 12.98000 26.86000
C  1.68500 12.53300 28.21000
C  1.28700 11.13000 28.15400
C  1.96200 14.31600 26.29600
C  2.02000 12.93500 29.56200
O  2.39500 14.01200 29.95000
C  1.58100 11.63300 30.54800
C  2.66600 11.49400 31.56700
O  3.66900 10.71700 31.43200
O  2.43700 12.34800 32.60900
C  3.29700 12.20900 33.71900
H  0.17900 5.09800 28.93200
H  -0.00700 6.73500 22.53600
H  1.23600 12.66500 24.19500
H  1.81000 8.62100 31.62900
H  0.19600 6.29200 31.20300
H  2.04400 5.32900 31.89600
H  3.02400 6.71200 31.74100
H  2.86700 5.64500 30.39400
H  -1.08900 8.10700 31.41500
H  -0.52500 9.77200 31.56300
H  -1.09600 7.90000 33.66900
H  -0.56600 9.55900 33.75400
H  -0.14500 2.30100 26.23400
H  -1.26300 3.28800 27.15000
H  0.30000 2.97900 27.78200
H  -1.18100 2.29800 24.35500
H  0.71500 2.22700 24.09600
H  -0.40700 2.08300 22.74500
H  -0.28700 8.88800 21.57500
H  1.08200 11.47500 22.09400
H  2.45700 8.22000 21.98500
H  2.56600 9.81800 21.33900
H  1.72600 8.57300 20.47500
H  -1.53800 11.41900 23.48100
H  -1.73900 10.52700 22.06800
H  -1.81800 12.47600 20.82000
H  -0.65500 13.44000 21.91400
H  -2.23600 13.15800 22.35500
H  2.87300 14.25200 25.70100
H  2.08500 14.97800 27.15300
H  1.08100 14.50700 25.68400
H  0.64800 11.92600 31.03000
H  4.25500 12.71400 33.59600
H  3.55500 11.17100 33.93200
H  2.82700 12.54900 34.64200
Mg 5.89300 53.46300 40.84200
C  5.16600 50.10500 40.75400
C  9.11600 52.88300 40.00000
C  6.18800 56.80500 39.99800
C  2.49800 53.97900 41.51000
N  6.89500 51.66700 40.09700
C  6.44400 50.41300 40.36200
C  7.55200 49.35200 40.10900
C  8.83800 50.28800 40.28300
C  8.25900 51.69500 40.10400
C  9.69400 50.15900 41.61200
C  7.39000 48.56900 38.75500
C  6.58500 49.17100 37.56900
H  7.34200 49.88000 36.42500
N  7.47900 54.73500 40.08800
C  8.68500 54.27500 39.90100
C  9.55700 55.37700 39.53700
C  8.77700 56.57700 39.48600
C  7.42600 56.11200 39.86100
C  10.99300 55.05400 39.07300
C  9.23900 57.95300 39.09000
O  10.35000 58.11800 38.64100
C  8.38200 59.19300 39.19800
N  4.48100 55.18000 40.80800
C  4.88400 56.44700 40.40800
C  3.71100 57.47000 40.69600
C  2.53100 56.51600 41.06900
C  3.17300 55.15000 41.06500
C  4.02600 58.67500 41.72900
C  1.26600 56.59900 40.23600
C  0.05900 57.01400 41.05400
N  4.14500 52.29600 41.07300
C  2.89600 52.69300 41.46500
C  2.13600 51.46200 41.91000
C  3.08200 50.43500 41.58100
C  4.11100 51.00000 40.96200
C  0.85100 51.43700 42.68300
C  3.21700 48.98300 41.68500
O  2.54300 48.11900 42.32200
C  4.58100 48.69300 40.98900
C  4.21300 47.85600 39.83900
O  3.57100 48.22700 38.84100
O  4.71700 46.61400 40.08100
C  4.51200 45.71300 38.91400
H  10.15300 52.55400 39.90400
H  6.25300 57.88200 39.83000
H  1.44200 54.19500 41.68200
H  7.63400 48.62700 40.92000
H  9.56400 50.11500 39.48900
H  9.59900 51.08400 42.18000
H  10.75800 49.92200 41.59600
H  9.24400 49.32200 42.14600
H  7.02200 47.56700 38.97600
H  8.42800 48.43300 38.44900
H  5.90200 49.92600 37.95700
H  6.04100 48.39000 37.03700
H  11.08700 54.00800 38.78300
H  11.76600 55.37300 39.77300
H  11.10700 55.55600 38.11200
H  8.93300 60.08800 38.90900
H  8.04100 59.26100 40.23100
H  7.57900 59.12100 38.46400
H  3.55200 57.92800 39.72000
H  2.35100 56.71100 42.12600
H  5.00700 58.41100 42.12400
H  3.28300 58.80400 42.51500
H  4.17800 59.58900 41.15500
H  0.95000 55.67900 39.74300
H  1.37900 57.41600 39.52500
H  0.17800 56.76800 42.10900
H  -0.82600 56.56500 40.60200
H  -0.17900 58.04100 40.77600
H  0.59100 50.55300 43.26600
H  0.00300 51.64400 42.03000
H  1.10100 52.29600 43.30600
H  5.24800 48.09800 41.61200
H  4.64700 46.24500 37.97300
H  3.46400 45.43100 38.81500
H  5.02500 44.76400 39.07200

