158

Mg 40.18900 9.45900 29.65900
C  42.31800 10.37500 32.30100
C  37.99300 8.34500 32.02400
C  38.34400 8.29000 27.16700
C  42.98600 9.71400 27.49900
N  40.21500 9.16100 31.98300
C  41.10800 9.80200 32.79800
C  40.69900 9.72800 34.28200
C  39.23800 8.94000 34.15700
C  39.12600 8.76300 32.61600
C  39.14400 7.56600 34.89400
C  40.54000 11.06600 35.01100
C  41.39400 11.23200 36.28500
H  40.55400 11.73500 37.55400
N  38.37300 8.53900 29.62200
C  37.60500 8.17400 30.68500
C  36.36100 7.57600 30.18600
C  36.40000 7.67200 28.72100
C  37.71900 8.21600 28.42700
C  35.34600 6.93700 31.13700
C  35.36000 7.28500 27.67200
O  35.58100 7.32200 26.47200
C  33.98800 6.77500 28.14600
N  40.66400 8.92300 27.67200
C  39.62600 8.62700 26.81600
C  40.08900 8.54200 25.33400
C  41.48500 9.25400 25.36400
C  41.76500 9.24200 26.94500
C  40.15100 7.05000 24.77800
C  41.38300 10.68100 24.76000
C  40.21900 11.51800 25.12100
N  42.21200 10.01600 29.77100
C  43.20100 10.06100 28.83600
C  44.43800 10.56400 29.45300
C  43.99300 10.82900 30.74200
C  42.68700 10.35700 30.93500
C  45.71800 10.85200 28.73800
C  44.45700 11.35000 32.02800
O  45.54100 11.73600 32.33600
C  43.38600 11.03600 33.09300
C  44.08500 10.14300 34.05300
O  44.19200 8.94300 33.86200
O  44.44900 10.78700 35.18600
C  45.03300 10.01400 36.27100
H  37.27700 8.08700 32.80700
H  37.79300 7.90300 26.30700
H  43.76200 9.93400 26.76300
H  41.47100 9.12000 34.75500
H  38.33600 9.45300 34.49100
H  38.98800 6.85000 34.08800
H  38.25700 7.67100 35.51900
H  40.07900 7.36600 35.41800
H  39.49000 11.20500 35.27000
H  40.84300 11.93400 34.42700
H  42.22500 11.91600 36.10800
H  41.90700 10.30000 36.52100
H  34.41300 7.46400 30.93800
H  35.50000 7.21600 32.18000
H  35.38700 5.86000 30.97900
H  33.43400 7.51700 28.72100
H  34.25600 5.97100 28.83200
H  33.32600 6.30800 27.41700
H  39.38300 9.14800 24.76600
H  42.24000 8.82800 24.70400
H  41.18700 6.76400 24.59600
H  39.51900 6.72500 23.95100
H  39.81300 6.45200 25.62400
H  41.41900 10.70600 23.67100
H  42.27700 11.19300 25.11700
H  40.45900 12.40500 25.70700
H  39.47000 11.14100 25.81800
H  39.72200 11.95100 24.25300
H  46.03100 10.07200 28.04400
H  46.50300 11.05500 29.46700
H  45.62900 11.71100 28.07200
H  43.10800 12.01400 33.48600
H  45.57300 10.59300 37.02000
H  45.66200 9.17900 35.96500
H  44.13200 9.56500 36.68900
Mg 29.16100 57.90800 41.33200
C  26.40900 55.90900 40.21900
C  31.24200 55.74600 39.63300
C  31.64100 60.18000 41.35200
C  26.86700 60.28700 42.54300
N  28.82400 56.07100 40.04600
C  27.63500 55.39600 39.65000
C  27.89000 54.15300 38.88400
C  29.41800 53.96300 39.23000
C  29.85000 55.39300 39.62300
C  29.76300 52.97400 40.32800
C  27.45000 54.22400 37.39900
C  28.34700 54.60000 36.16800
H  27.61100 55.27100 34.97000
N  31.23900 57.89300 40.75200
C  31.90700 56.88200 40.14200
C  33.28400 57.23700 40.00200
C  33.44300 58.55100 40.39000
C  32.08100 58.95700 40.86900
C  34.25300 56.21200 39.38600
C  34.70300 59.33500 40.29800
O  35.67200 58.84500 39.70500
C  34.79200 60.71900 40.72100
N  29.19800 59.93500 41.89600
C  30.40200 60.56600 41.91100
C  30.16200 62.04000 42.45300
C  28.62500 62.07800 42.88400
C  28.17300 60.70500 42.35500
C  31.14500 62.64200 43.54500
C  27.89800 63.27100 42.23600
C  26.98500 64.05600 43.10700
N  27.06800 57.99300 41.63400
C  26.29600 59.06600 42.12700
C  24.88600 58.66400 42.11200
C  24.90000 57.44200 41.37000
C  26.26300 57.13800 41.00700
C  23.75400 59.53400 42.55000
C  24.03600 56.49100 40.64200
O  22.83500 56.36800 40.51400
C  25.00200 55.43200 39.94900
C  24.68700 54.08600 40.39200
O  24.55500 53.73900 41.59800
O  24.45600 53.24900 39.21500
C  23.69000 52.05700 39.42700
H  31.91000 54.93600 39.33400
H  32.41600 60.94900 41.34600
H  26.11700 60.96000 42.96400
H  27.36700 53.37600 39.44200
H  29.86300 53.63500 38.29100
H  30.64400 52.37600 40.09300
H  28.91100 52.33000 40.54800
H  29.92300 53.61900 41.19200
H  26.65000 54.96400 37.35900
H  27.01100 53.27200 37.10100
H  28.75300 53.63800 35.85600
H  29.16100 55.21700 36.54800
H  35.28500 56.40800 39.67500
H  33.96900 56.16000 38.33500
H  34.06500 55.23200 39.82500
H  34.15400 61.34400 40.09500
H  35.80300 61.08100 40.53300
H  34.48200 60.72100 41.76600
H  30.23700 62.68200 41.57600
H  28.48800 62.03000 43.96400
H  30.57400 63.19700 44.28900
H  31.70500 63.34100 42.92300
H  31.82000 61.98700 44.09500
H  27.43500 62.91000 41.31800
H  28.66700 63.97600 41.92000
H  27.03700 65.13300 42.94500
H  27.48400 63.95500 44.07100
H  25.96900 63.66100 43.11300
H  23.94600 60.57800 42.30300
H  23.43800 59.23700 43.55000
H  22.93600 59.27900 41.87500
H  24.75600 55.52000 38.89100
H  23.62300 51.82300 40.49000
H  24.34900 51.31900 38.96900
H  22.64400 52.10600 39.12400

