158

Mg 49.24100 46.24400 41.77500
C  45.87000 46.58100 40.72600
C  49.07200 42.93500 40.32200
C  52.31200 45.88700 42.60900
C  49.32500 49.64400 42.48800
N  47.70100 44.97500 40.60300
C  46.41300 45.36600 40.31200
C  45.57500 44.31000 39.57400
C  46.52400 43.00800 39.85700
C  47.88000 43.66400 40.25600
C  46.00400 42.02200 40.82500
C  45.60300 44.76300 38.09000
C  44.25600 45.01500 37.45800
H  44.01100 44.64600 36.03000
N  50.51300 44.70000 41.46600
C  50.28300 43.50100 40.84600
C  51.57900 42.82500 40.76900
C  52.49400 43.54400 41.57500
C  51.80900 44.80700 41.93000
C  51.78500 41.55000 39.94400
C  53.87600 43.05300 41.96300
O  54.31400 42.00800 41.43000
C  54.73400 43.79400 42.96500
N  50.64000 47.65200 42.19700
C  51.81500 47.19500 42.73600
C  52.79400 48.25200 43.26200
C  51.89300 49.48100 43.06600
C  50.55200 48.93300 42.55400
C  53.29700 48.06600 44.69300
C  52.44500 50.56200 42.09400
C  52.59000 51.99500 42.72600
N  47.88500 47.81100 41.74000
C  48.06700 49.14300 42.08600
C  46.76900 49.85900 41.88600
C  45.86100 48.84300 41.46000
C  46.60200 47.63900 41.30800
C  46.60800 51.32000 42.06800
C  44.54800 48.61200 41.01800
O  43.58900 49.31500 40.95600
C  44.49900 47.12500 40.55100
C  43.35400 46.59900 41.31900
O  43.37500 46.08700 42.45500
O  42.20700 46.73600 40.54200
C  41.01400 45.98400 41.02700
H  49.12600 42.04500 39.69200
H  53.37800 45.85600 42.84500
H  49.45000 50.72800 42.54200
H  44.64700 44.18800 40.13200
H  46.80300 42.51000 38.92800
H  45.69600 41.11700 40.30200
H  45.16000 42.45500 41.36200
H  46.76500 41.67100 41.52100
H  46.13400 43.99200 37.53100
H  46.26900 45.61500 37.95100
H  44.04900 46.08300 37.53300
H  43.45500 44.71800 38.13500
H  51.29900 41.62700 38.97200
H  51.57800 40.63600 40.50100
H  52.84000 41.44700 39.69100
H  54.18700 44.04300 43.87500
H  55.23500 44.71000 42.65200
H  55.49100 43.07600 43.27800
H  53.60200 48.21900 42.53100
H  51.68200 49.99300 44.00500
H  54.15900 47.41500 44.84200
H  52.44000 47.71200 45.26600
H  53.64900 49.00400 45.12000
H  51.66500 50.71500 41.34800
H  53.30900 50.24000 41.51400
H  53.39700 52.22200 43.42300
H  51.64300 52.28800 43.18000
H  52.71700 52.63600 41.85400
H  47.19200 51.78500 41.27400
H  46.85500 51.64400 43.07900
H  45.55900 51.58600 41.93600
H  44.24400 47.21500 39.49500
H  40.80500 46.11900 42.08800
H  41.16000 44.90800 40.93700
H  40.16100 46.35600 40.45800
Mg -11.68100 38.99300 41.89400
C  -9.55400 36.28800 41.02900
C  -9.76700 41.01900 39.96600
C  -14.07200 41.33400 42.19500
C  -13.91100 36.54600 43.19200
N  -9.93400 38.67100 40.59200
C  -9.20500 37.58100 40.43900
C  -7.90800 37.80100 39.62200
C  -7.93600 39.38900 39.31900
C  -9.30400 39.72400 40.00700
C  -6.65700 40.04500 39.90400
C  -7.92100 36.91400 38.27900
C  -6.82900 35.88400 38.28300
H  -5.68300 36.05700 37.32200
N  -11.81400 40.97300 41.38300
C  -10.91800 41.62300 40.60900
C  -11.28600 43.05000 40.58300
C  -12.47200 43.16500 41.30300
C  -12.84000 41.80200 41.65000
C  -10.39300 44.14700 39.98800
C  -13.28300 44.40300 41.68200
O  -12.93400 45.51100 41.35100
C  -14.59800 44.27000 42.59900
N  -13.61800 39.00000 42.65700
C  -14.44100 40.11400 42.63900
C  -15.91600 39.74800 42.96000
C  -15.79500 38.22700 43.39400
C  -14.37500 37.88000 43.07700
C  -16.53800 40.60000 44.05700
C  -16.85700 37.22700 42.73500
C  -18.06900 36.91800 43.69200
N  -11.65700 36.79400 42.21000
C  -12.66500 36.02200 42.76400
C  -12.16000 34.62500 42.73900
C  -10.91900 34.68900 42.17000
C  -10.72800 36.03000 41.74400
C  -12.83100 33.40200 43.24900
C  -9.79300 33.95100 41.79400
O  -9.47400 32.79400 41.98200
C  -8.95100 34.90200 40.88200
C  -7.56800 34.72600 41.53800
O  -6.79800 33.76200 41.39200
O  -7.21900 35.91200 42.09200
C  -5.95000 35.90700 42.77800
H  -9.15700 41.57800 39.25400
H  -14.94900 41.98500 42.20900
H  -14.66300 35.92600 43.68400
H  -7.07000 37.52900 40.26400
H  -7.99200 39.81800 38.31900
H  -5.87900 39.87900 39.15900
H  -6.45500 39.53800 40.84700
H  -6.86400 41.10000 40.08400
H  -7.70200 37.73100 37.59200
H  -8.83700 36.45100 37.91300
H  -7.32500 34.91900 38.17200
H  -6.39700 35.83900 39.28300
H  -10.86300 44.93300 39.39700
H  -9.75200 43.67100 39.24600
H  -9.73300 44.60000 40.72700
H  -14.86000 45.22200 43.06000
H  -14.44100 43.64100 43.47600
H  -15.46900 43.89200 42.06400
H  -16.54500 39.73500 42.06900
H  -15.88500 38.26600 44.48000
H  -16.95600 39.96900 44.84100
H  -17.29000 41.19300 43.53600
H  -15.92200 41.37300 44.51600
H  -16.33300 36.31500 42.45000
H  -17.37100 37.49300 41.81100
H  -18.19400 37.70700 44.43400
H  -17.85300 35.95800 44.16000
H  -19.02300 36.89600 43.16400
H  -12.59300 32.53300 42.63500
H  -13.91400 33.49900 43.16700
H  -12.41500 33.18500 44.23300
H  -9.02700 34.54200 39.85600
H  -6.12000 36.74000 43.45900
H  -5.10900 36.08000 42.10600
H  -5.78400 34.95600 43.28500

