158

Mg 24.79400 -4.49900 46.14300
C  26.90200 -2.28400 44.48000
C  22.35500 -3.79100 43.72400
C  22.98300 -7.16900 47.15200
C  27.52600 -5.75900 47.99400
N  24.65600 -3.18700 44.39000
C  25.60300 -2.37000 43.91300
C  25.13600 -1.49600 42.75200
C  23.60400 -1.74200 42.86200
C  23.47000 -2.99200 43.68500
C  22.73500 -0.68500 43.50500
C  25.76600 -1.87700 41.41800
C  26.32500 -0.74700 40.40600
H  26.26200 -1.15100 38.93800
N  22.94400 -5.33600 45.56900
C  22.09700 -4.91900 44.54700
C  20.89800 -5.67300 44.55800
C  21.03800 -6.75300 45.50600
C  22.34300 -6.48900 46.11100
C  19.80300 -5.44800 43.65000
C  19.98400 -7.83700 45.79800
O  19.00400 -8.04300 45.07100
C  20.17400 -8.91200 46.81100
N  25.24600 -6.37500 47.32800
C  24.25900 -7.16500 47.76800
C  24.78000 -8.22600 48.75800
C  26.26700 -7.78500 49.04600
C  26.41700 -6.60400 48.01000
C  23.90900 -8.55400 50.00100
C  27.31000 -8.91300 48.94500
C  28.45200 -8.79500 49.96500
N  26.76600 -4.10600 46.35700
C  27.73800 -4.61900 47.20500
C  28.94400 -3.87300 47.06900
C  28.72100 -3.04500 45.98800
C  27.38600 -3.15600 45.58100
C  30.30300 -4.13600 47.64300
C  29.30200 -2.06600 45.15000
O  30.41600 -1.62600 45.19300
C  28.24700 -1.54500 44.09600
C  28.12600 -0.07600 44.24100
O  27.43100 0.40600 45.09700
O  28.83300 0.56800 43.30500
C  28.91400 2.02900 43.39600
H  21.55100 -3.42400 43.08200
H  22.52700 -8.08900 47.52400
H  28.25400 -5.89400 48.79700
H  25.34000 -0.45400 42.99600
H  23.08500 -1.96200 41.92900
H  21.91700 -0.39900 42.84400
H  23.24400 0.24000 43.77500
H  22.31700 -1.09200 44.42600
H  25.06100 -2.41800 40.78600
H  26.64800 -2.48300 41.62400
H  27.36600 -0.52500 40.64400
H  25.69200 0.12500 40.57100
H  18.88700 -5.05400 44.08800
H  19.49700 -6.33300 43.09200
H  20.07600 -4.81800 42.80300
H  19.36100 -9.63700 46.76600
H  20.42500 -8.59000 47.82200
H  21.08800 -9.42000 46.50500
H  24.81500 -9.18800 48.24700
H  26.23700 -7.31800 50.03000
H  23.39200 -7.64400 50.30500
H  24.54300 -8.82200 50.84600
H  23.20500 -9.35900 49.79000
H  27.79400 -8.88400 47.96900
H  26.82300 -9.88600 49.01100
H  28.48500 -7.97100 50.67800
H  29.40600 -8.64600 49.46000
H  28.53100 -9.74100 50.50200
H  30.90300 -4.79700 47.01700
H  30.21200 -4.68300 48.58200
H  30.74300 -3.16600 47.87400
H  28.70900 -1.73000 43.12600
H  28.84300 2.56400 42.44900
H  29.75800 2.30700 44.02800
H  28.08800 2.28100 44.06100
Mg 0.72900 42.68900 25.92700
C  2.13700 42.63800 28.97100
C  -1.99100 41.02800 27.12700
C  -0.40800 42.14900 22.71900
C  3.80000 43.72700 24.57200
N  0.14100 42.00500 27.80800
C  0.86500 42.21200 28.91200
C  0.05200 41.80700 30.14500
C  -1.33200 41.26300 29.55800
C  -1.01500 41.38900 28.03100
C  -1.75700 39.80900 30.10300
C  -0.08700 42.88200 31.20100
C  0.41500 42.45400 32.62100
H  -0.41900 42.66600 33.87600
N  -1.00400 41.84000 25.09500
C  -1.97500 41.21900 25.75800
C  -2.99700 40.81300 24.85900
C  -2.60300 41.27700 23.54500
C  -1.28100 41.72800 23.69600
C  -4.27000 40.25800 25.37300
C  -3.36500 41.06700 22.22500
O  -2.83600 41.33300 21.11400
C  -4.72100 40.38400 22.15600
N  1.57700 42.92100 23.99300
C  0.85200 42.70700 22.85900
C  1.60900 43.15100 21.58300
C  2.83900 43.88700 22.22300
C  2.78100 43.54900 23.68800
C  1.96100 42.04600 20.58100
C  2.86800 45.45500 21.92800
C  4.09500 45.85000 21.12800
N  2.66300 43.05400 26.61200
C  3.82200 43.48300 25.95700
C  4.92500 43.62800 26.92400
C  4.27400 43.30100 28.10100
C  2.92400 42.98800 27.84600
C  6.36200 43.93400 26.59400
C  4.48300 43.16500 29.55900
O  5.49800 43.38300 30.24500
C  3.10400 42.73000 30.11100
C  3.32200 41.44200 30.83700
O  3.00000 40.32800 30.44600
O  3.93900 41.68400 32.05700
C  4.20900 40.52100 32.90000
H  -2.88800 40.66700 27.63500
H  -0.68500 41.93600 21.68500
H  4.69500 44.06100 24.04400
H  0.64900 40.94300 30.43500
H  -2.23600 41.84200 29.74200
H  -1.64600 39.13100 29.25700
H  -2.79900 39.68500 30.40000
H  -1.03500 39.55100 30.87800
H  -1.07900 43.33200 31.24500
H  0.54100 43.71300 30.87800
H  1.28300 43.11300 32.64100
H  0.89500 41.47500 32.63600
H  -5.04000 41.01800 25.23800
H  -4.26500 39.92800 26.41200
H  -4.68300 39.44800 24.77200
H  -4.53600 39.37800 22.53400
H  -4.98600 40.32200 21.10000
H  -5.42700 41.05200 22.65000
H  0.89800 43.83700 21.12300
H  3.73000 43.40700 21.82100
H  1.61400 41.06300 20.89900
H  3.00900 41.95400 20.29300
H  1.26600 42.18800 19.75300
H  2.92000 46.05800 22.83500
H  2.04700 45.77600 21.28600
H  4.75000 46.39700 21.80600
H  3.89200 46.56100 20.32700
H  4.65300 45.01800 20.69800
H  6.48300 44.61500 25.75200
H  6.96800 43.04800 26.40400
H  6.89700 44.38100 27.43200
H  2.80000 43.50100 30.81800
H  5.09600 40.20200 32.35400
H  3.42700 39.76200 32.90200
H  4.46000 40.79500 33.92500

