158

Mg 2.44100 -0.84900 43.23500
C  5.87200 0.01600 43.13200
C  1.71800 2.13000 41.83900
C  -0.74700 -1.98700 42.81700
C  3.47500 -4.13200 43.97800
N  3.74800 0.71800 42.43100
C  5.06200 0.96900 42.57000
C  5.40400 2.33800 42.08800
C  4.01300 3.13600 42.29800
C  3.08700 1.95500 42.19400
C  3.83800 4.00500 43.63000
C  5.78700 2.40500 40.54800
C  5.64000 1.10400 39.72900
H  6.38200 1.02400 38.41300
N  0.68800 -0.02000 42.40900
C  0.62300 1.26400 41.86300
C  -0.72800 1.56200 41.53000
C  -1.43900 0.39800 41.89500
C  -0.55000 -0.58600 42.40500
C  -1.17700 2.87700 40.91600
C  -2.99000 0.31800 41.88000
O  -3.64500 1.22500 41.35200
C  -3.70800 -0.73300 42.46200
N  1.47900 -2.80700 43.56100
C  0.13700 -3.03600 43.25200
C  -0.15000 -4.51500 43.03800
C  1.22500 -5.11100 43.45000
C  2.13400 -3.94700 43.67500
C  -1.39100 -5.04800 43.90300
C  1.72200 -6.12700 42.34800
C  1.72600 -7.63000 42.59200
N  4.26800 -1.88100 43.65400
C  4.48800 -3.16200 43.97500
C  5.87700 -3.34100 44.34300
C  6.51700 -2.12000 43.99800
C  5.49700 -1.24700 43.57500
C  6.65300 -4.60100 44.71800
C  7.79800 -1.39200 43.85300
O  8.96100 -1.70100 44.03300
C  7.37200 0.07100 43.28400
C  7.72500 1.19600 44.20000
O  8.55200 2.01900 43.95900
O  6.99500 1.15800 45.36500
C  7.21000 2.23800 46.28200
H  1.41800 3.14600 41.57700
H  -1.68800 -2.42000 42.47300
H  3.75900 -5.18300 44.06400
H  6.20800 2.71500 42.72000
H  3.88300 3.78200 41.43000
H  3.44600 5.01200 43.49000
H  4.72800 3.83700 44.23700
H  2.97500 3.59500 44.15400
H  6.76100 2.84500 40.33300
H  5.12400 3.11600 40.05500
H  4.59400 0.80200 39.66800
H  6.10100 0.31800 40.32800
H  -1.69400 2.68500 39.97600
H  -0.34300 3.55800 40.75200
H  -1.89100 3.42300 41.53300
H  -3.39100 -0.89400 43.49200
H  -3.77300 -1.62700 41.84100
H  -4.77700 -0.54000 42.54700
H  -0.31400 -4.60400 41.96500
H  1.15300 -5.70100 44.36300
H  -1.88000 -4.18300 44.35000
H  -1.13700 -5.71000 44.73200
H  -2.02700 -5.67700 43.28000
H  2.73100 -5.89600 42.00500
H  1.03400 -6.11600 41.50300
H  2.78200 -7.86900 42.71700
H  1.35700 -8.21800 41.75200
H  1.13600 -7.94600 43.45300
H  6.86100 -4.81200 45.76700
H  7.63200 -4.63500 44.23900
H  6.08300 -5.45500 44.35200
H  7.89300 0.25300 42.34400
H  6.41700 2.16700 47.02600
H  7.10500 3.17000 45.72700
H  8.14200 2.17600 46.84300
Mg 0.49700 7.65900 26.45300
C  1.39000 9.93300 29.09000
C  0.89000 5.13900 28.63200
C  0.37500 5.49100 23.83700
C  1.11500 10.32700 24.24500
N  0.90200 7.61100 28.70800
C  1.17200 8.60700 29.55300
C  1.33900 8.06000 30.95500
C  1.33900 6.50900 30.70400
C  1.07000 6.37000 29.22400
C  2.70400 5.77300 31.09400
C  0.34700 8.67600 32.03100
C  0.96000 9.18000 33.33500
H  2.15900 8.53400 33.86000
N  0.35400 5.65200 26.27700
C  0.51500 4.75100 27.31700
C  0.44600 3.44800 26.79600
C  0.33500 3.50500 25.38500
C  0.36900 4.92400 25.06700
C  0.33700 2.29600 27.81600
C  0.22200 2.41700 24.31800
O  -0.01000 2.64300 23.11100
C  0.50100 0.98900 24.69200
N  0.78000 7.87500 24.41400
C  0.57400 6.82100 23.52500
C  0.61900 7.34100 22.09600
C  0.54700 8.87800 22.25300
C  0.85800 9.05300 23.71900
C  1.97100 6.90100 21.42000
C  -0.85700 9.37400 21.84700
C  -0.78100 10.64600 20.97200
N  1.19000 9.71300 26.58700
C  1.38400 10.65900 25.59900
C  1.81200 11.95200 26.22500
C  1.79000 11.64800 27.55900
C  1.45700 10.29400 27.76500
C  1.82400 13.22100 25.51100
C  1.86400 12.32200 28.85000
O  2.18700 13.46600 29.00600
C  1.65700 11.15700 29.91100
C  2.95500 11.21500 30.75900
O  3.92500 10.49600 30.51100
O  2.72300 12.07500 31.84500
C  3.87500 12.28100 32.76200
H  1.08200 4.22700 29.20000
H  0.35200 4.79000 23.00100
H  1.24200 11.18600 23.58200
H  2.33400 8.38700 31.25700
H  0.57900 5.96400 31.26200
H  3.42400 6.37500 31.64800
H  3.22100 5.28200 30.27000
H  2.38300 4.96900 31.75600
H  -0.43100 7.95900 32.29700
H  -0.26000 9.39200 31.47600
H  0.19300 9.03400 34.09600
H  1.14200 10.24800 33.21600
H  0.14700 1.35500 27.30100
H  -0.47400 2.46800 28.52300
H  1.29300 2.24000 28.33700
H  -0.47400 0.63400 25.02800
H  1.28700 1.06500 25.44200
H  0.73800 0.39300 23.81000
H  -0.23400 6.90600 21.57600
H  1.33800 9.40600 21.72000
H  2.62300 7.74400 21.19200
H  1.77200 6.40100 20.47300
H  2.47200 6.20000 22.08800
H  -1.35900 9.67100 22.76800
H  -1.49600 8.64700 21.34600
H  -1.68800 10.84200 20.40000
H  0.09000 10.75500 20.32600
H  -0.69800 11.51200 21.62800
H  0.92800 13.43800 24.93000
H  2.61400 13.29100 24.76300
H  1.94600 14.01300 26.25000
H  0.77500 11.37500 30.51300
H  3.51800 12.89600 33.58800
H  4.65100 12.82200 32.21900
H  4.19400 11.35900 33.24700

