158

Mg 24.36200 -4.67100 46.25400
C  26.41800 -2.23100 44.98500
C  21.81000 -3.66300 44.16600
C  22.70300 -7.63900 46.85600
C  26.97300 -5.73200 48.47100
N  24.22200 -3.24200 44.54700
C  25.18500 -2.27800 44.25000
C  24.66600 -1.29600 43.16800
C  23.07700 -1.53600 43.36200
C  23.03300 -2.90900 44.08500
C  22.37100 -0.37400 44.14000
C  25.34900 -1.73100 41.80700
C  25.53100 -0.59600 40.79100
H  25.76100 -0.92300 39.32400
N  22.54900 -5.44800 45.65000
C  21.59900 -4.88400 44.84200
C  20.43300 -5.68900 44.67500
C  20.67000 -6.82900 45.54600
C  22.03300 -6.65600 46.11000
C  19.25700 -5.31200 43.80400
C  19.61700 -7.88700 45.82300
O  18.55600 -7.83400 45.24100
C  19.84300 -8.97300 46.84400
N  24.69100 -6.42900 47.48300
C  23.88800 -7.52500 47.62600
C  24.55300 -8.62700 48.44300
C  25.78700 -7.86600 49.10500
C  25.87400 -6.57600 48.27900
C  23.67400 -9.37200 49.48000
C  27.08600 -8.62400 49.33500
C  27.57900 -8.79500 50.77000
N  26.24700 -4.05600 46.73100
C  27.16800 -4.47600 47.70600
C  28.33400 -3.59800 47.68900
C  28.09600 -2.74700 46.57800
C  26.80400 -3.05500 46.07100
C  29.56600 -3.54700 48.71400
C  28.70600 -1.62900 45.82000
O  29.77200 -1.01400 45.83000
C  27.58700 -1.28400 44.76300
C  27.23000 0.16500 45.05900
O  26.23000 0.53600 45.69300
O  28.13800 1.07000 44.35000
C  27.68800 2.47300 44.20100
H  20.88400 -3.20600 43.81200
H  22.34000 -8.66700 46.78900
H  27.79600 -5.98500 49.14200
H  24.87900 -0.25000 43.38700
H  22.70900 -1.48400 42.33800
H  22.07500 -0.62100 45.16000
H  21.50300 -0.06900 43.55500
H  23.01700 0.48200 44.33300
H  24.82100 -2.55300 41.32300
H  26.30100 -2.14000 42.14500
H  26.32300 0.05300 41.16500
H  24.64900 0.04500 40.79300
H  19.19100 -6.03000 42.98700
H  19.23100 -4.29100 43.42200
H  18.35600 -5.32100 44.41700
H  18.86700 -9.41900 47.03700
H  20.20100 -8.53100 47.77400
H  20.60400 -9.54300 46.31000
H  24.91000 -9.36300 47.72400
H  25.40600 -7.58400 50.08600
H  23.46800 -10.41100 49.22600
H  22.72500 -8.83800 49.52500
H  24.05600 -9.28800 50.49800
H  27.83700 -8.13500 48.71500
H  27.06900 -9.62100 48.89400
H  28.43500 -8.15200 50.97900
H  27.77100 -9.84400 50.99300
H  26.84100 -8.38200 51.45800
H  30.44500 -3.85900 48.15000
H  29.36900 -4.38300 49.38500
H  29.83700 -2.60500 49.18900
H  27.96600 -1.27300 43.74100
H  27.22000 2.83700 45.11600
H  27.11100 2.79100 43.33200
H  28.70700 2.84200 44.08900
Mg 36.44300 50.16600 24.66700
C  36.71500 48.00500 27.37700
C  34.96200 52.44900 26.51200
C  35.51500 51.80800 21.84200
C  37.42300 47.44900 22.53800
N  35.94600 50.21900 26.76400
C  36.18700 49.29100 27.74600
C  35.74900 49.87100 29.10700
C  34.95500 51.19100 28.70800
C  35.27400 51.34200 27.20800
C  33.42500 51.25800 29.19300
C  37.05300 50.15100 29.90000
C  37.07300 49.83900 31.45900
H  35.66900 49.86000 32.13800
N  35.66300 51.99100 24.24500
C  35.12400 52.81800 25.13500
C  34.77200 54.09000 24.58000
C  34.99500 53.95400 23.15600
C  35.42300 52.51700 23.04100
C  34.31600 55.37300 25.38700
C  34.96300 54.99300 22.09400
O  35.21900 54.74500 20.87200
C  34.63100 56.44900 22.49600
N  36.25300 49.58800 22.48400
C  36.03000 50.58700 21.57500
C  36.32800 50.04700 20.18100
C  36.94600 48.59300 20.39100
C  36.91600 48.51800 21.90400
C  35.15100 50.05000 19.20500
C  38.36200 48.39500 19.76600
C  38.64000 47.03100 19.17000
N  37.03000 48.21700 24.90300
C  37.36400 47.19300 23.94600
C  37.79100 46.03800 24.65800
C  37.53200 46.32500 25.94100
C  37.07600 47.63100 26.08700
C  38.37500 44.83600 24.10800
C  37.59200 45.72400 27.30400
O  37.97400 44.64800 27.60400
C  37.15600 46.82900 28.24000
C  36.18000 46.24800 29.15500
O  35.04200 45.95700 28.85200
O  36.68200 46.07200 30.40300
C  35.75600 45.53800 31.40400
H  34.34500 53.17100 27.05100
H  35.43700 52.38300 20.91700
H  37.94000 46.65400 21.99600
H  35.07700 49.19700 29.63900
H  35.37100 51.99300 29.31800
H  32.80500 51.53300 28.34000
H  33.39300 52.10900 29.87400
H  33.12300 50.32600 29.67100
H  37.32500 51.20100 29.79600
H  37.90400 49.61600 29.47800
H  37.73800 50.61400 31.84000
H  37.63300 48.92100 31.63700
H  35.02400 56.16300 25.63700
H  33.93800 55.24500 26.40100
H  33.45900 55.85700 24.91800
H  33.62100 56.54300 22.89500
H  34.76800 57.00000 21.56600
H  35.33900 56.88500 23.20200
H  37.04200 50.73700 19.73300
H  36.29200 47.80500 20.01800
H  34.26500 50.37700 19.74900
H  34.87400 49.03800 18.91100
H  35.24000 50.72300 18.35300
H  39.04100 48.65600 20.57700
H  38.43200 49.18900 19.02200
H  37.84600 46.29200 19.27400
H  39.57200 46.70500 19.63200
H  38.64400 47.30300 18.11500
H  39.07100 44.95500 23.27700
H  37.61800 44.14000 23.74700
H  38.96300 44.28200 24.83900
H  38.06300 46.99700 28.82100
H  34.91600 46.17400 31.68300
H  36.39500 45.45700 32.28400
H  35.30800 44.60200 31.07200

