158

Mg 2.39600 -2.19200 44.18500
C  5.91400 -1.55100 43.80000
C  1.71500 0.48300 42.17400
C  -0.66900 -3.45600 43.65600
C  3.33600 -5.32200 45.61000
N  3.74800 -0.83400 43.04900
C  5.11400 -0.65800 43.11400
C  5.48200 0.55500 42.33200
C  4.04700 1.40300 42.10900
C  3.08100 0.25500 42.44200
C  3.85600 2.62400 43.13100
C  6.18500 0.09000 40.99700
C  7.50600 0.83400 40.64600
H  7.46000 1.69100 39.33900
N  0.71500 -1.44100 43.13700
C  0.63700 -0.29300 42.42700
C  -0.67600 -0.13600 41.99600
C  -1.49700 -1.23500 42.41600
C  -0.51600 -2.12600 43.10700
C  -1.12900 1.02200 41.18500
C  -2.89900 -1.50900 42.03700
O  -3.52900 -0.71000 41.37000
C  -3.69300 -2.74800 42.48100
N  1.51500 -4.08700 44.41200
C  0.22700 -4.38700 44.19000
C  -0.22500 -5.82900 44.61800
C  1.13500 -6.43600 45.07300
C  2.03400 -5.21900 45.12600
C  -1.22000 -5.94600 45.84900
C  1.70200 -7.69200 44.23400
C  1.61400 -9.09400 45.01300
N  4.23400 -3.15400 44.86400
C  4.45200 -4.43300 45.44900
C  5.83100 -4.53000 45.86900
C  6.43900 -3.45100 45.27400
C  5.40600 -2.63300 44.62000
C  6.52800 -5.65600 46.64300
C  7.70700 -2.67500 45.07100
O  8.83300 -2.90000 45.51100
C  7.37300 -1.38900 44.11700
C  7.70800 -0.12600 44.86000
O  7.07900 0.16700 45.83100
O  8.69600 0.60500 44.33100
C  9.00700 1.88900 44.94600
H  1.71300 1.49800 41.76900
H  -1.65100 -3.93000 43.59100
H  3.62600 -6.28900 46.02600
H  6.21700 1.08400 42.93900
H  4.01500 1.69700 41.06000
H  2.88400 2.71000 43.61600
H  3.99500 3.56000 42.59000
H  4.55500 2.62200 43.96600
H  5.37100 0.19800 40.28000
H  6.29500 -0.99300 41.04600
H  8.31100 0.10000 40.61300
H  7.76000 1.60100 41.37800
H  -1.66500 0.76100 40.27200
H  -0.24900 1.58300 40.87200
H  -1.64000 1.72600 41.84100
H  -4.74200 -2.64600 42.20600
H  -3.58300 -2.80300 43.56500
H  -3.29100 -3.60200 41.93500
H  -0.58000 -6.42600 43.77800
H  1.11500 -6.85100 46.08000
H  -1.37700 -5.03100 46.42100
H  -0.90100 -6.76500 46.49400
H  -2.20100 -6.30300 45.53500
H  2.73900 -7.63500 43.90300
H  1.16300 -7.84700 43.30000
H  1.01000 -8.92600 45.90500
H  2.56900 -9.43300 45.41500
H  1.16000 -9.86000 44.38500
H  7.61200 -5.54400 46.68500
H  6.38300 -6.62000 46.15600
H  6.33400 -5.72700 47.71300
H  7.94400 -1.31800 43.19200
H  8.10300 2.42500 45.23600
H  9.58300 2.43500 44.19900
H  9.64200 1.72800 45.81700
Mg 47.45000 45.69200 43.18100
C  44.25400 44.36100 42.78800
C  48.76700 42.42900 43.28700
C  50.51500 46.95100 43.22900
C  46.13600 48.97900 42.73000
N  46.67800 43.69000 42.94600
C  45.25800 43.37800 42.90800
C  45.00900 41.73400 42.99200
C  46.48900 41.21300 43.26200
C  47.38000 42.55000 43.19500
C  46.73300 40.23500 44.41100
C  44.21300 40.89900 41.84200
C  44.60700 41.38700 40.42400
H  44.94000 40.35800 39.34100
N  49.38200 44.79000 43.16400
C  49.65900 43.44600 43.28000
C  51.06600 43.29100 43.13300
C  51.65900 44.61000 43.25400
C  50.54000 45.54900 43.27600
C  51.79800 42.00300 43.05300
C  53.18700 44.93300 43.36000
O  54.03600 44.02500 43.36300
C  53.66100 46.31500 43.58300
N  48.16900 47.62900 43.05300
C  49.46500 47.87000 43.17000
C  49.80700 49.38600 42.92300
C  48.47900 49.96900 42.45800
C  47.51600 48.75400 42.76000
C  50.37300 49.90600 44.28100
C  48.38800 50.58900 40.98700
C  48.52900 52.09000 40.95300
N  45.51300 46.55000 42.77000
C  45.15500 47.93000 42.71200
C  43.66300 47.96000 42.53100
C  43.27200 46.53700 42.47700
C  44.42000 45.79700 42.75100
C  42.76300 49.10700 42.36400
C  42.22800 45.57500 42.18700
O  41.09600 45.74000 41.74600
C  42.81600 44.20500 42.45700
C  42.07100 43.47500 43.48400
O  41.41900 42.46100 43.24700
O  42.30200 43.88000 44.75100
C  41.84200 42.90800 45.78100
H  49.21900 41.44300 43.41400
H  51.47300 47.47200 43.17000
H  45.77900 49.97600 42.46200
H  44.38200 41.53600 43.86200
H  46.92400 40.80300 42.35100
H  47.15600 40.89700 45.16700
H  47.38500 39.40900 44.12600
H  45.72500 39.96100 44.72000
H  43.15400 41.10100 42.00300
H  44.26100 39.82100 42.00100
H  45.43000 42.09900 40.47800
H  43.68900 41.80600 40.01400
H  52.08400 41.71800 44.06500
H  52.58800 42.05700 42.30400
H  51.15400 41.20000 42.69300
H  53.34900 46.88300 42.70600
H  54.74800 46.36000 43.64800
H  53.23700 46.68800 44.51500
H  50.58500 49.55100 42.17700
H  48.26700 50.65400 43.27900
H  51.16800 49.19000 44.48800
H  49.70400 49.91500 45.14100
H  50.89700 50.82400 44.01700
H  47.45500 50.34400 40.48000
H  49.15400 49.99900 40.48200
H  48.11400 52.27100 39.96200
H  49.59200 52.32800 40.98900
H  47.96100 52.48800 41.79300
H  41.99000 48.94800 43.11600
H  42.24700 49.11100 41.40400
H  43.30100 50.05400 42.31700
H  42.85300 43.63700 41.52800
H  40.77000 42.71500 45.73500
H  42.17400 43.38500 46.70300
H  42.30900 41.94600 45.57000

