158

Mg 47.13000 16.27100 27.05100
C  45.05000 15.88300 29.84900
C  49.43600 17.87000 29.10400
C  48.86900 17.13600 24.30300
C  44.72700 14.85600 24.98800
N  47.21300 16.85300 29.26600
C  46.26200 16.51200 30.22200
C  46.78300 16.90100 31.63500
C  48.09500 17.68100 31.29800
C  48.33000 17.40700 29.81000
C  47.98200 19.17100 31.63700
C  46.93300 15.66400 32.60100
C  46.15400 15.71900 33.92800
H  45.98900 17.15200 34.53200
N  48.97400 17.18700 26.75200
C  49.85400 17.68600 27.72700
C  51.07200 18.11800 27.11300
C  50.92800 17.87400 25.75000
C  49.51600 17.36700 25.49900
C  52.25100 18.67500 27.84700
C  51.91000 18.20700 24.61400
O  51.69600 17.90800 23.46300
C  53.09700 19.01300 24.81000
N  46.79200 16.09600 24.97600
C  47.64200 16.56700 24.09400
C  47.13600 16.35300 22.70900
C  46.06400 15.35600 22.87400
C  45.82200 15.39800 24.35100
C  46.80600 17.69100 21.91900
C  46.13700 13.90500 22.23600
C  44.76600 13.21900 21.94500
N  45.32100 15.50100 27.34000
C  44.49000 14.86600 26.37800
C  43.28900 14.31000 27.09200
C  43.50700 14.79300 28.43500
C  44.73600 15.43100 28.55800
C  41.91800 13.66600 26.66000
C  42.87400 14.66200 29.75000
O  41.75900 14.27000 30.13500
C  43.86900 15.40200 30.73900
C  43.05500 16.43000 31.43400
O  42.49900 17.39400 30.97500
O  43.10400 16.20700 32.82900
C  42.14900 17.05500 33.49700
H  50.16600 18.30300 29.79000
H  49.30700 17.46000 23.35700
H  44.00700 14.33000 24.35800
H  45.89800 17.45100 31.95400
H  48.87800 17.24800 31.92000
H  47.11700 19.20400 32.30000
H  47.90700 19.78800 30.74300
H  48.82100 19.38400 32.29900
H  47.95800 15.34700 32.79500
H  46.51800 14.74100 32.19800
H  46.79200 15.14300 34.59800
H  45.17900 15.24200 33.83300
H  52.44500 19.59700 27.29800
H  53.10600 18.00000 27.88300
H  51.88900 18.99200 28.82500
H  52.90900 20.00000 25.23300
H  53.52800 19.07200 23.81000
H  53.89600 18.55700 25.39400
H  47.90400 15.84700 22.12500
H  45.12700 15.75600 22.48300
H  45.78900 17.74800 21.53100
H  47.41300 17.75900 21.01700
H  46.99600 18.57000 22.53500
H  46.63100 13.28600 22.98500
H  46.83500 13.96100 21.40100
H  44.85100 12.94000 20.89500
H  43.94100 13.87600 22.22000
H  44.69300 12.28500 22.50200
H  42.01700 12.58200 26.59300
H  41.65400 13.97600 25.64900
H  41.22700 14.00200 27.43200
H  44.20900 14.76000 31.55200
H  41.17300 16.57500 33.43600
H  41.95700 18.08500 33.19600
H  42.38400 17.06900 34.56100
Mg 42.26500 41.41600 26.98300
C  41.40300 43.64200 29.53800
C  42.67700 38.88300 29.20900
C  43.13800 39.58000 24.41800
C  41.51000 44.17900 24.71900
N  41.94100 41.22200 29.08200
C  41.66600 42.27600 29.99200
C  41.68200 41.80900 31.42000
C  42.01100 40.26800 31.29800
C  42.24800 40.08200 29.77800
C  43.29800 39.90600 32.11800
C  40.35200 41.99000 32.24800
C  40.44000 42.40500 33.68100
H  39.34400 41.99300 34.71600
N  42.94900 39.55500 26.84600
C  42.97600 38.61900 27.80800
C  43.37500 37.35400 27.30000
C  43.56900 37.49900 25.89700
C  43.22400 38.95500 25.62400
C  43.48400 36.17100 28.16900
C  44.03800 36.52100 24.89800
O  44.22200 36.76300 23.66100
C  44.28600 35.16200 25.41700
N  42.40000 41.92700 24.91200
C  42.71700 40.91000 24.10800
C  42.60200 41.36400 22.66600
C  41.79800 42.74800 22.77200
C  41.86600 42.96300 24.20100
C  43.97100 41.56300 22.05400
C  40.35300 42.78700 22.19400
C  39.35100 41.91200 22.87400
N  41.81400 43.52200 27.06700
C  41.61500 44.46600 26.08100
C  41.28100 45.76000 26.67900
C  41.18000 45.51200 28.04800
C  41.49900 44.11500 28.21400
C  41.15600 47.05200 25.97300
C  40.83300 46.03700 29.30300
O  40.44800 47.16100 29.65200
C  40.99000 44.89800 30.35400
C  41.98700 45.36500 31.38700
O  43.19500 45.05100 31.39100
O  41.22000 45.89200 32.46100
C  42.03200 46.09100 33.69300
H  42.83300 38.18400 30.03300
H  43.27900 39.05700 23.47000
H  41.13700 44.92000 24.00900
H  42.49800 42.42100 31.80600
H  41.21500 39.65600 31.72300
H  43.54400 40.80500 32.68300
H  44.04100 39.54900 31.40600
H  43.25500 39.06800 32.81400
H  39.85000 41.02500 32.32300
H  39.69900 42.63800 31.66400
H  40.59600 43.47600 33.55100
H  41.36600 41.98800 34.07700
H  44.51400 35.81700 28.14000
H  42.76800 35.45100 27.77100
H  43.32400 36.27500 29.24200
H  44.97000 35.08600 26.26200
H  44.55700 34.47600 24.61500
H  43.30700 34.90400 25.82200
H  42.04400 40.59000 22.13900
H  42.30000 43.54800 22.22800
H  44.73900 40.93200 22.50200
H  44.20200 42.60100 22.29600
H  43.88400 41.45700 20.97300
H  40.38800 42.52900 21.13500
H  40.00000 43.81700 22.16500
H  39.76300 41.46300 23.77800
H  38.98100 41.11400 22.23000
H  38.49500 42.50400 23.19800
H  40.11200 47.34700 25.87100
H  41.49000 47.13900 24.93900
H  41.69400 47.83900 26.50100
H  40.01000 44.63000 30.74900
H  42.99900 46.52800 33.44500
H  42.23000 45.10600 34.11600
H  41.56800 46.75300 34.42400

