158

Mg 2.49400 -0.36100 43.43800
C  5.93700 -0.00000 43.45400
C  2.14600 2.62900 41.78400
C  -0.86800 -1.21400 42.91200
C  3.02900 -3.64500 44.60800
N  3.89600 1.15100 42.75500
C  5.27000 1.03800 42.76400
C  5.92000 2.27600 42.07200
C  4.60000 3.18100 41.81900
C  3.45800 2.27000 42.09000
C  4.51100 4.51000 42.59800
C  6.73300 1.99200 40.75600
C  6.04500 1.08500 39.68700
H  5.74200 1.62400 38.28500
N  0.84300 0.68100 42.57700
C  0.93000 1.90800 42.01700
C  -0.41200 2.27500 41.67500
C  -1.31200 1.14700 41.93900
C  -0.46500 0.07900 42.44000
C  -0.77100 3.65100 41.23200
C  -2.80300 1.18400 41.53200
O  -3.39300 2.16900 41.04900
C  -3.62800 -0.07600 41.71500
N  1.27500 -2.14100 43.55800
C  -0.08000 -2.24700 43.39800
C  -0.58500 -3.58700 43.83800
C  0.71400 -4.45800 43.89100
C  1.72200 -3.34100 44.01700
C  -1.36200 -3.55400 45.19900
C  1.01200 -5.31900 42.67300
C  1.54200 -6.72900 43.01100
N  4.16600 -1.58600 44.06300
C  4.17000 -2.84800 44.59300
C  5.48700 -3.15600 45.09300
C  6.25800 -2.08600 44.60100
C  5.37500 -1.16000 44.04400
C  6.03100 -4.38900 45.85200
C  7.63900 -1.55100 44.40700
O  8.75900 -2.03200 44.74500
C  7.50000 -0.23100 43.68800
C  8.24900 0.86700 44.33500
O  9.14600 1.56700 43.85900
O  7.79100 1.03100 45.62000
C  8.54800 2.09500 46.34700
H  2.00200 3.55600 41.22500
H  -1.93600 -1.44100 42.92600
H  3.13400 -4.68600 44.92100
H  6.54900 2.74700 42.82700
H  4.65300 3.46700 40.76800
H  3.45800 4.73400 42.76900
H  4.96800 5.33700 42.05300
H  4.96900 4.35000 43.57400
H  7.58900 1.43900 41.14400
H  7.09500 2.94000 40.35700
H  5.11300 0.63100 40.02500
H  6.85100 0.35700 39.59300
H  -0.77300 3.80400 40.15200
H  -0.04900 4.27800 41.75500
H  -1.74700 3.97400 41.59400
H  -3.68400 -0.34000 42.77200
H  -3.36800 -0.92200 41.07800
H  -4.58700 0.14800 41.25000
H  -1.24700 -3.97200 43.06200
H  0.82700 -5.09100 44.77100
H  -0.96600 -4.13900 46.02900
H  -2.31700 -3.98000 44.89400
H  -1.46900 -2.56300 45.64200
H  1.56000 -4.78000 41.90000
H  0.10300 -5.58600 42.13300
H  2.37400 -6.83000 42.31500
H  0.93100 -7.62100 42.87100
H  1.97200 -6.68400 44.01100
H  5.71500 -4.23400 46.88400
H  7.11200 -4.48800 45.75000
H  5.54000 -5.23000 45.36200
H  7.85200 -0.29900 42.65800
H  9.55500 1.73700 46.56200
H  8.13200 2.14600 47.35400
H  8.37000 3.01800 45.79500
Mg 41.25700 41.38400 27.00000
C  40.18900 43.66700 29.56900
C  42.18800 39.24800 29.52000
C  42.61500 39.61600 24.65300
C  40.70100 43.99800 24.70200
N  41.42500 41.58400 29.29800
C  40.74200 42.51800 30.11300
C  40.84300 42.08200 31.64300
C  41.60300 40.65500 31.56600
C  41.77900 40.49000 30.03700
C  42.94000 40.33800 32.26200
C  39.45700 41.99800 32.41900
C  39.43800 41.68300 33.87300
H  38.84900 42.75700 34.83000
N  42.17000 39.70200 27.06200
C  42.37500 38.85600 28.10200
C  42.98300 37.64300 27.61800
C  43.02100 37.69700 26.26700
C  42.65300 39.06500 25.92700
C  43.30900 36.46700 28.59900
C  43.32100 36.59500 25.25600
O  43.40900 36.78300 24.04900
C  43.62700 35.21200 25.70700
N  41.55500 41.69300 24.90200
C  42.22700 40.83200 24.10800
C  42.27900 41.27500 22.62000
C  41.55400 42.67300 22.76800
C  41.22900 42.78100 24.18000
C  43.71900 41.28500 22.11000
C  40.45100 43.00100 21.73000
C  38.91300 42.66300 22.02100
N  40.42200 43.34400 27.02300
C  40.32500 44.31000 26.03100
C  39.75900 45.55500 26.56100
C  39.74500 45.32200 27.94300
C  40.23600 43.99000 28.16900
C  39.37500 46.76600 25.88000
C  39.39200 45.97400 29.15800
O  38.97000 47.10700 29.37900
C  39.67300 44.96100 30.21200
C  40.50400 45.50200 31.32500
O  41.68700 45.84600 31.28200
O  39.63200 45.65600 32.46200
C  40.13400 46.44900 33.59200
H  42.53200 38.57100 30.30400
H  43.07500 39.00000 23.87800
H  40.55700 44.69200 23.87100
H  41.38200 42.71900 32.34400
H  40.84100 39.92900 31.85000
H  42.62400 39.49000 32.87000
H  43.16100 41.17700 32.92200
H  43.72100 39.98600 31.58800
H  38.92100 41.13300 32.02700
H  39.08200 42.99700 32.19900
H  40.47000 41.43400 34.12100
H  38.75500 40.84700 34.02000
H  42.98900 36.59500 29.63400
H  44.39100 36.33600 28.60600
H  42.84900 35.52600 28.29900
H  43.75900 34.55400 24.84800
H  42.82900 34.84500 26.35300
H  44.52100 35.25200 26.32900
H  41.62600 40.65100 22.00900
H  42.28600 43.47600 22.68500
H  43.81500 40.57600 21.28700
H  44.48500 41.01800 22.83700
H  44.12100 42.27500 21.89700
H  40.65400 42.41500 20.83300
H  40.63500 44.04700 21.48300
H  38.58500 42.05900 21.17500
H  38.29200 43.54900 21.88600
H  38.88400 42.15200 22.98300
H  38.46000 47.05400 26.39700
H  38.96000 46.47500 24.91500
H  40.08900 47.58300 25.77500
H  38.70700 44.77700 30.68200
H  40.57400 45.80900 34.35700
H  39.32300 47.09700 33.92200
H  40.96600 47.11700 33.36900

