158

Mg 26.05600 -0.25400 29.56600
C  28.19500 -0.52700 32.37400
C  23.53100 0.32300 31.70400
C  24.15100 -0.11200 26.89300
C  28.72000 -1.52100 27.62300
N  25.90900 -0.16600 31.77500
C  26.91200 -0.11600 32.68800
C  26.43900 0.33800 34.08100
C  24.90200 0.41200 33.91500
C  24.76200 0.21900 32.37000
C  24.05800 -0.65200 34.71800
C  27.14300 1.67800 34.45300
C  28.07300 1.56300 35.71600
H  27.88900 2.57900 36.87400
N  24.08900 0.11100 29.33300
C  23.16100 0.32900 30.31400
C  21.88500 0.57300 29.74700
C  21.97600 0.40000 28.36300
C  23.43600 0.10000 28.09200
C  20.69800 1.02800 30.62100
C  20.89300 0.44100 27.25600
O  21.17800 0.12500 26.08900
C  19.59900 1.09400 27.54000
N  26.41300 -0.66000 27.51500
C  25.46800 -0.45800 26.63100
C  26.00500 -0.69500 25.12300
C  27.44200 -1.12100 25.41400
C  27.59500 -1.11600 26.90500
C  25.13400 -1.69400 24.19600
C  28.52400 -0.26000 24.66200
C  28.56500 1.26800 24.86900
N  28.04100 -0.84500 29.89000
C  28.98100 -1.33500 29.01200
C  30.28600 -1.49500 29.69700
C  30.00400 -1.12700 31.03300
C  28.63900 -0.82900 31.07300
C  31.52300 -1.94700 29.10700
C  30.58200 -0.96400 32.35600
O  31.65400 -1.25400 32.82100
C  29.47000 -0.57600 33.24900
C  29.41200 -1.58100 34.31900
O  28.88000 -2.67300 34.25700
O  30.09800 -1.17100 35.43200
C  30.23600 -2.01800 36.64500
H  22.74200 0.58100 32.41400
H  23.47800 -0.00600 26.04000
H  29.63800 -1.71700 27.06600
H  26.76800 -0.40400 34.80800
H  24.55100 1.34800 34.35000
H  24.64700 -1.05700 35.54100
H  23.70900 -1.48800 34.11200
H  23.13000 -0.22300 35.09600
H  26.42700 2.48200 34.62500
H  27.75900 2.03200 33.62700
H  29.10200 1.70900 35.39000
H  28.07400 0.50900 35.99100
H  20.45200 2.07000 30.42000
H  20.88300 1.07700 31.69400
H  19.86700 0.35800 30.39500
H  19.55200 2.10200 27.95200
H  19.01300 0.45000 28.19600
H  19.05000 1.17500 26.60200
H  25.98900 0.25200 24.58200
H  27.60900 -2.15100 25.09800
H  24.21100 -1.84900 24.75500
H  25.58000 -2.67300 24.02500
H  24.80200 -1.22500 23.26900
H  28.22300 -0.26000 23.61400
H  29.48700 -0.72200 24.88000
H  27.87000 1.63400 25.62500
H  28.15000 1.75400 23.98600
H  29.61200 1.56100 24.94400
H  32.33200 -1.64400 29.77100
H  31.55400 -1.60200 28.07300
H  31.56500 -3.03600 29.14900
H  29.85100 0.40700 33.52500
H  29.64900 -1.53800 37.42700
H  31.25400 -2.08700 37.02900
H  29.95000 -3.05000 36.44400
Mg 26.21000 50.24200 26.19600
C  24.13100 51.51100 28.47900
C  28.65800 49.65400 28.57900
C  28.38300 49.52300 23.70700
C  23.93600 51.50800 23.57600
N  26.35100 50.39400 28.29400
C  25.37700 51.05000 29.06600
C  25.75500 50.95400 30.55800
C  27.31300 50.68700 30.52500
C  27.46200 50.13200 29.07500
C  28.22700 51.87200 30.97600
C  24.92500 49.81500 31.30900
C  24.17400 50.22400 32.61100
H  24.41500 49.36600 33.81700
N  28.13900 49.49500 26.19700
C  28.94000 49.30400 27.26400
C  30.18600 48.72400 26.76500
C  30.22200 48.76900 25.37500
C  28.90600 49.29900 25.07600
C  31.26400 48.19500 27.72100
C  31.33400 48.36200 24.40500
O  31.32900 48.65700 23.21200
C  32.57600 47.53800 24.71000
N  26.20300 50.62700 23.97400
C  27.22800 50.14100 23.24600
C  27.05800 50.41000 21.71900
C  25.53400 50.77700 21.70100
C  25.17700 51.04400 23.14300
C  27.93700 51.59100 21.25400
C  24.52500 49.72900 21.11500
C  23.35100 50.24000 20.17800
N  24.41500 51.29100 26.00600
C  23.55800 51.77100 24.94200
C  22.27400 52.10800 25.49300
C  22.48900 51.99400 26.87400
C  23.77400 51.55100 27.09600
C  21.18400 52.53100 24.60300
C  21.85300 52.36800 28.11000
O  20.72500 52.85800 28.25500
C  22.88100 51.91800 29.22100
C  23.00700 53.05800 30.21600
O  23.57000 54.15000 30.01100
O  22.34700 52.67900 31.28600
C  22.42800 53.57400 32.48500
H  29.36900 49.41300 29.37200
H  29.15700 49.36100 22.95400
H  23.25100 51.81400 22.78300
H  25.56800 51.93000 31.00500
H  27.56600 49.89000 31.22400
H  28.71200 52.27200 30.08500
H  28.98200 51.60700 31.71500
H  27.68600 52.69800 31.43700
H  25.60600 48.98600 31.50300
H  24.12700 49.36100 30.72200
H  23.10300 50.32100 32.43500
H  24.44500 51.25100 32.85600
H  32.19800 48.70000 27.47400
H  31.49500 47.15000 27.51200
H  31.06300 48.50600 28.74600
H  33.27100 48.11700 25.31700
H  33.02900 47.33000 23.74000
H  32.35600 46.65300 25.30700
H  27.27300 49.57500 21.05300
H  25.41800 51.72300 21.17200
H  27.29100 52.41100 20.93900
H  28.49600 51.31100 20.36100
H  28.56900 51.91400 22.08200
H  24.16800 49.07800 21.91300
H  25.17200 49.15700 20.45000
H  23.25500 49.63500 19.27700
H  23.54100 51.27000 19.87400
H  22.37500 50.22200 20.66300
H  20.31200 52.22900 25.18300
H  21.09900 52.16700 23.57900
H  21.22400 53.61900 24.55500
H  22.39200 51.10900 29.76400
H  23.15500 54.37500 32.35200
H  22.78000 52.95400 33.30900
H  21.40200 53.86500 32.71000

