158

Mg -1.60500 17.78300 27.48400
C  -1.84900 15.75400 30.33000
C  -1.93600 20.53800 29.64900
C  -1.95100 19.79200 24.81100
C  -1.71700 14.89100 25.50200
N  -1.78000 18.14100 29.79800
C  -1.80400 17.09000 30.67100
C  -1.93000 17.70700 32.07900
C  -1.95100 19.26000 31.85000
C  -1.77000 19.33900 30.32600
C  -3.19700 19.89600 32.51500
C  -0.85400 17.21100 33.12300
C  -0.17600 18.20500 34.07800
H  0.05700 17.66900 35.53600
N  -1.86800 19.87100 27.24800
C  -1.97200 20.82700 28.24900
C  -1.98000 22.12700 27.59300
C  -2.18100 21.93800 26.14900
C  -1.99400 20.45500 26.05800
C  -2.02200 23.45300 28.34800
C  -2.41500 22.93500 24.99000
O  -2.51000 22.58000 23.78500
C  -2.35100 24.46400 25.33200
N  -1.69600 17.40100 25.44400
C  -1.89500 18.36500 24.57400
C  -1.77600 17.76600 23.13800
C  -1.61100 16.23600 23.34700
C  -1.75100 16.14800 24.91500
C  -2.89400 18.21100 22.11400
C  -0.39500 15.55200 22.58700
C  0.99700 16.23100 22.84600
N  -1.84200 15.76800 27.83800
C  -1.84600 14.68200 26.94000
C  -2.00400 13.43700 27.61200
C  -2.01300 13.78900 28.96100
C  -1.83200 15.22000 29.02200
C  -2.04900 12.05600 27.02000
C  -2.26500 13.35700 30.39300
O  -2.44100 12.26600 30.84900
C  -1.91900 14.55500 31.26700
C  -0.61300 14.20100 31.95200
O  0.42000 13.87000 31.42900
O  -0.84100 14.02700 33.31200
C  0.27900 13.45700 34.13600
H  -1.95300 21.39900 30.32000
H  -2.07100 20.31100 23.85700
H  -1.65000 14.08200 24.77200
H  -2.83400 17.26500 32.49800
H  -1.07500 19.75100 32.27300
H  -3.73600 20.36700 31.69300
H  -2.78200 20.55300 33.27900
H  -3.77700 19.12400 33.02300
H  -0.03200 16.69100 32.63100
H  -1.22300 16.44300 33.80300
H  -0.71200 19.15300 34.13400
H  0.84800 18.28900 33.71400
H  -1.61400 23.28300 29.34400
H  -3.03800 23.84000 28.42900
H  -1.39800 24.18000 27.82800
H  -2.57000 25.06400 24.44800
H  -1.34400 24.68300 25.68800
H  -3.08600 24.86400 26.03000
H  -0.84100 18.21800 22.80800
H  -2.54900 15.86200 22.93800
H  -2.38800 18.68800 21.27400
H  -3.67000 18.82200 22.57400
H  -3.49800 17.43300 21.64600
H  -0.63500 15.77400 21.54700
H  -0.47500 14.46900 22.68500
H  0.89000 17.21600 23.30000
H  1.63700 16.21700 21.96300
H  1.50400 15.60900 23.58400
H  -1.16400 12.07200 26.38400
H  -2.98000 11.95100 26.46200
H  -1.77000 11.30500 27.75800
H  -2.60200 14.69900 32.10400
H  1.26400 13.69900 33.73700
H  0.05400 12.39000 34.15600
H  0.23700 13.81200 35.16600
Mg 36.80600 49.42900 24.75400
C  36.91700 47.37500 27.66800
C  35.78900 52.06200 26.75500
C  36.36400 51.05500 22.04600
C  37.26200 46.46500 22.83400
N  36.33700 49.67400 26.97300
C  36.54900 48.75200 27.98800
C  36.27800 49.36600 29.39200
C  35.76000 50.80800 29.02200
C  36.01700 50.87600 27.46900
C  34.24300 51.08600 29.33400
C  37.57000 49.33500 30.17600
C  37.50100 49.06000 31.67500
H  36.17700 49.01900 32.34600
N  36.22500 51.31000 24.46500
C  35.81700 52.30300 25.36800
C  35.47200 53.44600 24.66800
C  35.70800 53.21600 23.25800
C  36.09700 51.79900 23.22400
C  34.96500 54.73500 25.32100
C  35.40200 54.18400 22.09300
O  35.37900 53.86900 20.90200
C  35.03500 55.63400 22.32600
N  36.83800 48.81900 22.69400
C  36.62500 49.67200 21.78500
C  36.84100 49.16400 20.33200
C  37.19600 47.67600 20.67000
C  37.16700 47.62800 22.14900
C  35.59100 49.39700 19.41800
C  38.62300 47.21300 20.10300
C  39.87100 47.19700 20.94400
N  37.11900 47.37900 25.13600
C  37.30100 46.31900 24.25900
C  37.51300 45.08500 24.99600
C  37.34000 45.44800 26.34900
C  37.06100 46.84100 26.40000
C  37.72700 43.67200 24.40300
C  37.26600 44.94300 27.71600
O  37.28200 43.79400 28.12300
C  37.03400 46.18300 28.58800
C  35.84100 45.91300 29.31900
O  34.73200 46.12300 28.92400
O  36.17100 45.40900 30.52400
C  35.19100 45.04600 31.42800
H  35.52200 52.95600 27.32200
H  36.29800 51.66500 21.14300
H  37.45200 45.51700 22.32800
H  35.44100 48.83600 29.84500
H  36.38700 51.56100 29.49900
H  33.80300 50.37500 30.03300
H  33.77500 51.13300 28.35100
H  34.15800 52.08200 29.76900
H  38.23500 50.15800 29.91600
H  38.16400 48.51500 29.77200
H  38.02300 49.90900 32.11700
H  38.06200 48.14000 31.84000
H  34.19700 55.02500 24.60400
H  35.76400 55.46900 25.41500
H  34.53400 54.61400 26.31500
H  35.73100 56.08800 23.03300
H  33.96900 55.73800 22.52500
H  35.02100 56.12000 21.35100
H  37.66400 49.64600 19.80500
H  36.34600 47.04800 20.40500
H  34.69600 49.52500 20.02700
H  35.43600 48.57200 18.72200
H  35.83100 50.29400 18.84800
H  38.83900 47.95000 19.33000
H  38.52400 46.30200 19.51300
H  39.61100 47.29900 21.99800
H  40.41000 48.10800 20.68800
H  40.40900 46.27400 20.72600
H  36.82100 43.08700 24.24000
H  38.30900 43.13800 25.15400
H  38.47200 43.76100 23.61200
H  37.80600 46.39600 29.32800
H  35.48100 45.69500 32.25300
H  35.17800 43.97100 31.61200
H  34.18300 45.34100 31.13500

