158

Mg 1.86600 -1.42200 42.16900
C  5.38100 -0.83300 41.78800
C  1.24800 1.47200 40.58000
C  -1.30300 -2.37900 41.82100
C  2.71300 -4.57000 43.37300
N  3.20400 0.10000 41.35100
C  4.53400 0.22000 41.42900
C  4.97500 1.57300 40.78500
C  3.63700 2.32800 40.69000
C  2.57200 1.27300 40.91000
C  3.48500 3.65100 41.58000
C  5.81400 1.53500 39.42900
C  5.74000 0.22100 38.57900
H  5.36500 0.27200 37.12600
N  0.19200 -0.56200 41.30100
C  0.13300 0.61200 40.71700
C  -1.22400 0.93400 40.34600
C  -2.01100 -0.13600 40.73200
C  -1.07500 -1.09000 41.34700
C  -1.56800 2.13200 39.54000
C  -3.50800 -0.28400 40.63400
O  -4.18000 0.54700 40.04200
C  -4.34100 -1.43500 41.18300
N  0.86800 -3.32500 42.55000
C  -0.50500 -3.37400 42.43100
C  -1.00600 -4.86900 42.64400
C  0.35100 -5.52800 43.30000
C  1.41300 -4.39500 43.17500
C  -2.39200 -5.08500 43.34800
C  0.70400 -6.83600 42.58400
C  0.93900 -7.98200 43.58500
N  3.67100 -2.48200 42.71500
C  3.84600 -3.75700 43.14300
C  5.23000 -4.08600 43.23300
C  5.87300 -2.95400 42.70000
C  4.87700 -1.99900 42.38100
C  5.78300 -5.38600 43.64200
C  7.15500 -2.38200 42.44900
O  8.34200 -2.76600 42.66500
C  6.90800 -0.99600 41.76000
C  7.58400 0.00900 42.52200
O  8.48700 0.70900 42.07900
O  7.17000 0.04700 43.81600
C  7.69900 1.20400 44.55600
H  0.93200 2.46100 40.24000
H  -2.30800 -2.75800 41.62300
H  3.07200 -5.54500 43.71100
H  5.66100 1.98000 41.52700
H  3.56600 2.64100 39.64800
H  4.21000 4.38300 41.22500
H  3.53000 3.37700 42.63400
H  2.48100 4.05100 41.43500
H  6.84300 1.58700 39.78500
H  5.61400 2.39200 38.78500
H  5.03800 -0.35600 39.18000
H  6.71700 -0.26200 38.57100
H  -0.76200 2.82600 39.29900
H  -2.31000 2.68700 40.11500
H  -2.06000 1.72700 38.65600
H  -5.39400 -1.23500 40.98900
H  -4.11000 -1.42500 42.24900
H  -4.07200 -2.40200 40.76000
H  -1.07500 -5.13500 41.58900
H  0.15200 -5.74900 44.34800
H  -2.13200 -5.74500 44.17500
H  -3.22200 -5.55800 42.82300
H  -2.69600 -4.07900 43.63800
H  1.60900 -6.67000 41.99900
H  -0.08900 -7.25400 41.96500
H  1.99800 -8.23100 43.51200
H  0.29100 -8.78900 43.24600
H  0.75300 -7.63400 44.60200
H  6.84100 -5.26200 43.87300
H  5.58000 -6.11700 42.85900
H  5.24700 -5.80200 44.49500
H  7.32500 -0.99600 40.75200
H  7.34100 1.15700 45.58400
H  7.38700 2.16400 44.14200
H  8.77800 1.29700 44.67900
Mg -4.62600 25.50200 25.08100
C  -3.25200 27.00500 28.09700
C  -6.69600 23.66800 27.06600
C  -5.91700 24.18600 22.35200
C  -2.45900 27.47000 23.32300
N  -4.77200 25.30700 27.31400
C  -4.19900 25.99200 28.35500
C  -4.73500 25.60400 29.73200
C  -5.57000 24.27300 29.35300
C  -5.76700 24.40400 27.79500
C  -4.96700 22.91400 29.79300
C  -5.57500 26.77300 30.41700
C  -6.43700 26.39100 31.63400
H  -6.01800 25.32800 32.64600
N  -6.08400 24.05200 24.76000
C  -6.86000 23.39200 25.68000
C  -7.74700 22.47400 24.97600
C  -7.65600 22.75700 23.59100
C  -6.52200 23.71900 23.50600
C  -8.65400 21.52200 25.69400
C  -8.43000 22.17400 22.39500
O  -8.06900 22.45900 21.28900
C  -9.52200 21.28300 22.61000
N  -4.13300 25.70000 23.12600
C  -4.90200 25.15300 22.16600
C  -4.28800 25.50600 20.77600
C  -3.24400 26.59600 21.01100
C  -3.26400 26.60000 22.57700
C  -3.56400 24.25500 20.06200
C  -3.59000 27.98600 20.43700
C  -2.44400 28.87300 19.95900
N  -3.09100 26.91400 25.60700
C  -2.32800 27.64900 24.74100
C  -1.55800 28.60800 25.43300
C  -1.85000 28.44700 26.81200
C  -2.79200 27.35700 26.86000
C  -0.59700 29.64400 24.83500
C  -1.54400 28.74700 28.16800
O  -0.71200 29.58000 28.61600
C  -2.42400 27.74400 29.07000
C  -1.56900 26.93600 29.91200
O  -0.53400 26.41000 29.55400
O  -2.04900 27.00200 31.24500
C  -1.17100 26.25500 32.18300
H  -7.30600 23.03600 27.71500
H  -6.37900 23.89000 21.40800
H  -1.79500 28.07500 22.70300
H  -3.95700 25.55600 30.49400
H  -6.57600 24.30800 29.76900
H  -5.17000 22.15100 29.04100
H  -5.41500 22.55100 30.71800
H  -3.88100 22.96600 29.87600
H  -6.31300 27.05300 29.66500
H  -4.99200 27.68400 30.55200
H  -7.41000 26.02200 31.30900
H  -6.67200 27.31200 32.16700
H  -8.34200 20.52100 25.39800
H  -9.69000 21.64500 25.37500
H  -8.63500 21.66600 26.77400
H  -9.27300 20.42500 23.23400
H  -9.89900 21.02500 21.62100
H  -10.31700 21.80900 23.13800
H  -5.14700 25.76400 20.15600
H  -2.29600 26.24100 20.60800
H  -3.93200 23.26100 20.31700
H  -2.48700 24.32000 20.21500
H  -3.83600 24.36000 19.01200
H  -4.08100 28.60600 21.18800
H  -4.29700 27.86100 19.61600
H  -2.75900 29.22900 18.97800
H  -1.61600 28.17700 19.82000
H  -2.12000 29.62200 20.68100
H  -0.49600 29.60700 23.75000
H  0.44500 29.64500 25.15300
H  -0.96500 30.64200 25.07600
H  -3.04600 28.28000 29.78700
H  -0.64800 26.88000 32.90700
H  -0.52600 25.49100 31.74900
H  -1.95100 25.73600 32.74100

