158

Mg -2.34900 16.97600 27.25400
C  -2.91900 14.82200 29.86200
C  -3.28000 19.55600 29.19900
C  -2.11400 18.98900 24.52000
C  -2.10300 14.17500 25.11300
N  -3.00500 17.14300 29.20500
C  -2.98000 16.18100 30.17400
C  -3.33000 16.66500 31.61500
C  -3.47500 18.25900 31.28700
C  -3.35700 18.31400 29.80100
C  -4.71000 19.00400 31.96900
C  -2.30600 16.35100 32.76100
C  -2.20500 17.40300 33.89600
H  -1.70500 17.02900 35.31600
N  -2.54100 19.03100 26.90900
C  -2.90100 19.91400 27.87500
C  -2.69100 21.23200 27.38800
C  -2.12600 21.09600 26.03200
C  -2.24300 19.63900 25.72100
C  -3.06800 22.58000 28.09000
C  -1.63600 22.05400 25.03200
O  -1.16900 21.78600 23.91900
C  -1.61900 23.50700 25.26000
N  -2.38200 16.62500 25.16300
C  -2.17300 17.63200 24.23000
C  -2.28700 17.04200 22.78100
C  -2.13100 15.53200 23.00900
C  -2.16600 15.40200 24.55800
C  -3.58900 17.38900 21.95700
C  -0.87900 14.85000 22.32300
C  0.44200 15.14200 22.93300
N  -2.48500 14.88200 27.39200
C  -2.33800 13.88700 26.47200
C  -2.49600 12.65000 27.12800
C  -2.74700 12.94800 28.43600
C  -2.70700 14.33600 28.59100
C  -2.27600 11.28800 26.48000
C  -3.15900 12.41000 29.76900
O  -3.36600 11.28100 30.17200
C  -3.28500 13.58400 30.70200
C  -2.35500 13.37800 31.83200
O  -1.18300 13.43500 31.75800
O  -3.08500 13.06100 32.93800
C  -2.36100 12.76100 34.15800
H  -3.42100 20.38700 29.89400
H  -2.07200 19.62500 23.63300
H  -1.82700 13.28900 24.53700
H  -4.24800 16.13100 31.86100
H  -2.56100 18.73800 31.63900
H  -4.46200 19.92500 32.49700
H  -5.12300 18.37600 32.75800
H  -5.49300 19.28800 31.26600
H  -1.32200 16.09100 32.37000
H  -2.75300 15.48900 33.25500
H  -3.11800 17.99600 33.95700
H  -1.42900 17.99400 33.40900
H  -3.67000 23.11800 27.35800
H  -2.23100 23.17600 28.45400
H  -3.73800 22.31200 28.90700
H  -2.61900 23.92300 25.38300
H  -1.01300 24.00800 24.50500
H  -1.22700 23.72300 26.25300
H  -1.36500 17.41600 22.33600
H  -2.98000 14.96400 22.62700
H  -4.16600 18.11700 22.52700
H  -4.19200 16.54100 21.63100
H  -3.27200 17.86500 21.02900
H  -0.87500 15.06100 21.25300
H  -1.03000 13.78100 22.47600
H  0.22500 15.86700 23.71800
H  1.06700 15.70900 22.24300
H  1.01100 14.35000 23.41900
H  -3.18300 11.21300 25.88000
H  -2.17000 10.38300 27.07900
H  -1.44800 11.28800 25.77200
H  -4.31600 13.51800 31.05100
H  -2.93200 11.98200 34.66300
H  -2.25100 13.66200 34.76200
H  -1.38000 12.31900 33.98300
Mg -5.54500 24.66600 26.16500
C  -4.26700 26.31700 29.11200
C  -7.90700 23.20000 28.01200
C  -6.39200 23.07400 23.37100
C  -3.15300 26.59500 24.39300
N  -5.96500 24.63000 28.30400
C  -5.35200 25.40200 29.32500
C  -6.10300 25.18900 30.67300
C  -7.22600 24.11700 30.29700
C  -7.05100 24.02800 28.75100
C  -7.00300 22.67400 31.01000
C  -6.89600 26.46200 31.20100
C  -6.78900 26.64700 32.79700
H  -6.16400 25.50600 33.59900
N  -6.90800 23.26600 25.74600
C  -7.84700 22.81600 26.63600
C  -8.73100 21.92000 25.98500
C  -8.30400 21.85300 24.65300
C  -7.14600 22.76800 24.52100
C  -9.89800 21.27500 26.70100
C  -8.81200 20.93200 23.59600
O  -8.24300 20.89100 22.50200
C  -9.87700 19.87100 23.86600
N  -4.94400 24.89300 24.17700
C  -5.41400 24.02200 23.18800
C  -4.60000 24.28400 21.97200
C  -3.89300 25.67700 22.17800
C  -3.94400 25.71300 23.68800
C  -3.66100 23.07300 21.65500
C  -4.67500 26.86400 21.57500
C  -3.98800 27.61300 20.40000
N  -3.89700 25.96700 26.61300
C  -3.07700 26.65400 25.77000
C  -2.31600 27.64000 26.45500
C  -2.73200 27.43900 27.79100
C  -3.63000 26.44400 27.87400
C  -1.31200 28.60700 25.88200
C  -2.44600 27.97100 29.04900
O  -1.60200 28.76500 29.47900
C  -3.46900 27.29400 29.96100
C  -2.72500 26.59900 31.10500
O  -2.13000 25.59700 31.02500
O  -2.77700 27.47300 32.14900
C  -2.10200 27.00600 33.34600
H  -8.71900 22.81000 28.63000
H  -6.66100 22.40200 22.55300
H  -2.55200 27.23900 23.74600
H  -5.31000 24.71700 31.25400
H  -8.24600 24.48200 30.42400
H  -7.92400 22.40800 31.53000
H  -6.17000 22.60200 31.70900
H  -6.75700 21.89000 30.29500
H  -7.94500 26.44000 30.90500
H  -6.56600 27.33400 30.63600
H  -7.79800 26.90400 33.11700
H  -6.16500 27.49800 33.07200
H  -10.69400 21.38000 25.96300
H  -10.13600 21.73300 27.66100
H  -9.76700 20.20700 26.87000
H  -10.80900 20.41600 24.01300
H  -9.46200 19.36300 24.73600
H  -9.90000 19.18000 23.02300
H  -5.30000 24.45200 21.15300
H  -2.86000 25.62800 21.83400
H  -3.86900 22.26400 22.35600
H  -2.65000 23.40400 21.89000
H  -3.82800 22.66900 20.65700
H  -4.79300 27.69800 22.26600
H  -5.64700 26.55600 21.19000
H  -3.58900 28.55900 20.76800
H  -4.74500 27.70600 19.62200
H  -3.22300 26.92800 20.03600
H  -0.73100 28.97100 26.72900
H  -1.85500 29.41200 25.38600
H  -0.68700 28.10800 25.14100
H  -4.16600 27.90700 30.53200
H  -1.37900 27.75100 33.67700
H  -1.67700 26.00400 33.39500
H  -2.80000 27.09100 34.17900

