158

Mg 1.69500 8.62000 26.34100
C  1.90300 10.77500 29.07100
C  2.15600 6.02300 28.23400
C  2.33600 6.79900 23.44800
C  1.78700 11.53900 24.28000
N  2.11300 8.47300 28.47600
C  1.89900 9.41200 29.43300
C  1.91400 8.73700 30.86900
C  2.16800 7.32300 30.56500
C  2.22100 7.22700 28.98100
C  3.41500 6.63300 31.29200
C  0.60000 9.11500 31.68400
C  0.47800 9.21500 33.17700
H  1.61100 8.70700 34.08800
N  2.09200 6.65800 25.92700
C  2.13300 5.72000 26.88400
C  2.22200 4.41400 26.25300
C  2.41300 4.65100 24.83700
C  2.27800 6.11100 24.68100
C  2.26900 3.08700 27.05500
C  2.57900 3.61000 23.74400
O  2.49700 3.87000 22.54100
C  2.76300 2.25600 24.08700
N  1.98200 9.09800 24.22300
C  2.05600 8.13400 23.23700
C  2.00000 8.67800 21.78100
C  1.68200 10.19400 22.10600
C  1.80900 10.29700 23.61700
C  3.25600 8.23700 21.01300
C  0.30700 10.74700 21.61900
C  0.21500 11.94700 20.64200
N  1.82300 10.73800 26.57000
C  1.85300 11.74800 25.66200
C  1.83800 13.02500 26.35500
C  1.95200 12.67400 27.74600
C  1.94000 11.29200 27.79000
C  1.98200 14.41900 25.74500
C  2.12600 13.24500 29.10500
O  2.35500 14.33700 29.57900
C  2.23800 11.94700 30.00000
C  3.52900 11.92200 30.69200
O  4.62500 11.83900 30.12800
O  3.46200 12.06100 32.08200
C  4.58700 11.70400 32.82800
H  2.15800 5.14300 28.88100
H  2.32800 6.18200 22.54700
H  1.63200 12.43000 23.66700
H  2.83100 9.15800 31.28000
H  1.25600 6.80200 30.85700
H  2.95900 5.95400 32.01200
H  4.11600 7.28400 31.81400
H  4.07000 6.03600 30.65800
H  -0.24000 8.53800 31.29900
H  0.34100 10.11200 31.32800
H  -0.49200 8.80800 33.46200
H  0.57300 10.27000 33.43300
H  1.85000 3.35500 28.02400
H  3.24900 2.61000 27.03000
H  1.62100 2.36800 26.55300
H  2.99600 1.56600 23.27600
H  1.87700 1.91000 24.62000
H  3.60900 2.22000 24.77400
H  1.13500 8.10400 21.44900
H  2.54900 10.60700 21.58900
H  3.98000 7.62600 21.55100
H  3.80000 9.05100 20.53400
H  2.83200 7.59200 20.24400
H  -0.12200 11.23800 22.49200
H  -0.40900 9.97600 21.33500
H  1.18400 12.02100 20.14900
H  0.19900 12.93800 21.09500
H  -0.51600 11.93400 19.83400
H  1.66700 14.52800 24.70700
H  3.05300 14.62000 25.78600
H  1.45400 15.07000 26.44000
H  1.32400 12.12100 30.56900
H  5.50000 12.29700 32.77600
H  4.92000 10.69700 32.57700
H  4.29900 11.74700 33.87800
Mg -10.07100 40.65500 42.97700
C  -8.64100 37.59300 42.13200
C  -7.44000 42.21700 41.30900
C  -11.75500 43.55700 43.23400
C  -12.78600 38.95600 44.39900
N  -8.33700 39.99800 41.67300
C  -7.97200 38.64600 41.44800
C  -6.66400 38.58700 40.67300
C  -6.19700 40.09500 40.68500
C  -7.44300 40.81500 41.13800
C  -4.98200 40.40900 41.49600
C  -7.00400 38.10500 39.24100
C  -6.39800 36.79900 38.66600
H  -5.23300 37.10600 37.59100
N  -9.61300 42.59100 42.46400
C  -8.47900 43.04200 41.82900
C  -8.53500 44.44400 41.56100
C  -9.81900 44.87600 42.16200
C  -10.48800 43.66800 42.67200
C  -7.53200 45.26300 40.70200
C  -10.29000 46.33900 41.97000
O  -9.50500 47.20700 41.60700
C  -11.75000 46.68900 42.28400
N  -12.05300 41.20200 43.48500
C  -12.52400 42.43400 43.59500
C  -13.88300 42.50200 44.24600
C  -14.18300 41.02000 44.52700
C  -12.92000 40.32300 44.14900
C  -13.86800 43.29700 45.52700
C  -15.33400 40.40700 43.80400
C  -16.60800 40.18200 44.67300
N  -10.60100 38.66100 43.34200
C  -11.66300 38.16500 44.00400
C  -11.54500 36.72000 44.04500
C  -10.32400 36.43300 43.35800
C  -9.82400 37.66100 42.88300
C  -12.40700 35.73700 44.77500
C  -9.37400 35.44800 42.86400
O  -9.32200 34.22800 42.89500
C  -8.27000 36.16600 42.07800
C  -6.92600 35.89100 42.72200
O  -6.46100 36.44600 43.63900
O  -6.27700 34.92600 41.92700
C  -4.86500 34.82700 41.93400
H  -6.46900 42.63700 41.03800
H  -12.39500 44.43900 43.30600
H  -13.61000 38.45500 44.91200
H  -6.02200 37.87600 41.19300
H  -6.06100 40.44800 39.66300
H  -4.40400 41.17700 40.98300
H  -4.30000 39.55900 41.53000
H  -5.29600 40.73000 42.48900
H  -6.72200 38.86500 38.51100
H  -8.08300 37.96000 39.18600
H  -7.20300 36.23300 38.19700
H  -5.96200 36.20600 39.47000
H  -6.77400 44.68600 40.17200
H  -7.04000 45.96500 41.37500
H  -8.14100 45.61700 39.87000
H  -11.84800 46.86000 43.35600
H  -12.36500 45.85200 41.95500
H  -12.01400 47.45400 41.55400
H  -14.54100 43.08900 43.60500
H  -14.18800 40.82000 45.59900
H  -14.76800 42.94000 46.02800
H  -13.97700 44.38100 45.48000
H  -12.94300 43.18800 46.09300
H  -15.07400 39.45700 43.33600
H  -15.54600 40.94800 42.88300
H  -16.59000 40.91000 45.48500
H  -16.51900 39.16500 45.05500
H  -17.54300 40.28800 44.12300
H  -13.39200 35.66300 44.31400
H  -12.54200 35.97100 45.83100
H  -11.91500 34.76500 44.73600
H  -8.27200 35.75000 41.07100
H  -4.57100 34.14300 41.13800
H  -4.43900 34.30500 42.79000
H  -4.35900 35.78600 41.82500

