158

Mg 46.89700 16.31900 28.25400
C  45.03100 15.85200 31.16800
C  49.23800 17.99200 30.02200
C  48.30600 17.26500 25.30400
C  44.37900 14.69300 26.58200
N  46.99400 16.94400 30.34300
C  46.24800 16.51500 31.38700
C  46.89900 16.82900 32.76100
C  48.18200 17.71600 32.33700
C  48.14100 17.48800 30.82300
C  48.02400 19.18900 32.74500
C  47.15100 15.52600 33.60900
C  46.75300 15.53200 35.16900
H  46.34300 16.84600 35.85300
N  48.51100 17.48500 27.71500
C  49.43600 18.01400 28.62800
C  50.56300 18.59800 27.92800
C  50.30700 18.47900 26.58500
C  48.98200 17.73800 26.46900
C  51.61100 19.38000 28.72900
C  51.23100 18.88300 25.38700
O  50.92900 18.61400 24.20700
C  52.60100 19.52900 25.59200
N  46.39200 16.10100 26.26600
C  47.16000 16.53300 25.17600
C  46.64700 15.91200 23.86000
C  45.29500 15.34800 24.30900
C  45.38900 15.32200 25.82800
C  46.61100 16.92300 22.66400
C  44.96100 13.97500 23.75100
C  45.65100 12.72400 24.22100
N  45.09100 15.34200 28.71900
C  44.19000 14.68400 27.92800
C  43.04900 14.27500 28.70400
C  43.39900 14.64800 30.00500
C  44.59800 15.33400 29.96300
C  41.93400 13.60200 28.24900
C  42.93300 14.64800 31.36200
O  41.82500 14.22400 31.72900
C  43.98600 15.41300 32.13100
C  43.36600 16.54500 32.85900
O  43.36700 17.69100 32.46000
O  42.95100 16.14100 34.09800
C  42.29900 17.16500 34.96700
H  50.11700 18.26700 30.60900
H  48.76700 17.33400 24.31600
H  43.61500 14.17900 25.99500
H  46.12900 17.44800 33.22100
H  49.10700 17.35300 32.78600
H  46.99800 19.42000 33.03500
H  48.32700 19.93900 32.01400
H  48.70000 19.35000 33.58500
H  48.21300 15.29100 33.54400
H  46.65000 14.70700 33.09200
H  47.57400 15.05400 35.70300
H  45.86400 14.92500 35.34000
H  52.36600 19.85500 28.10200
H  52.08800 18.71300 29.44700
H  51.08300 20.19400 29.22600
H  53.28200 18.88200 26.14500
H  52.62800 20.40000 26.24700
H  53.02000 19.71000 24.60200
H  47.30000 15.09400 23.55300
H  44.50300 16.05500 24.06100
H  47.48600 16.67600 22.06300
H  46.69400 17.97500 22.93700
H  45.66600 16.75900 22.14600
H  45.03400 14.02800 22.66500
H  43.90300 13.85600 23.98300
H  45.35300 12.44600 25.23200
H  46.72600 12.90100 24.23600
H  45.46300 11.95700 23.46900
H  41.84700 13.79000 27.17900
H  41.07700 14.08400 28.71900
H  41.97000 12.57100 28.60100
H  44.37400 14.70500 32.86300
H  42.78000 18.14200 34.92100
H  42.04300 16.75400 35.94300
H  41.36300 17.31600 34.42900
Mg 9.36700 47.99800 26.17600
C  7.11400 48.69100 28.69000
C  11.86600 49.49400 28.07300
C  11.53700 47.89500 23.49800
C  6.79900 47.21000 24.09500
N  9.43400 48.92500 28.19800
C  8.40100 49.06000 29.06200
C  8.97600 49.50800 30.43200
C  10.36600 50.13600 30.10500
C  10.55600 49.49300 28.71800
C  10.50500 51.73300 30.05200
C  8.93500 48.38300 31.45200
C  8.23500 48.93300 32.75700
H  8.16000 47.95500 34.04600
N  11.40000 48.50300 25.91000
C  12.23900 49.01700 26.79300
C  13.62100 48.82900 26.25700
C  13.53100 48.47200 24.91400
C  12.09700 48.22900 24.72600
C  14.87400 49.09400 27.10200
C  14.66500 48.33500 23.87700
O  14.49500 47.98900 22.71500
C  16.10300 48.47300 24.23300
N  9.18700 47.70000 24.06600
C  10.19400 47.67800 23.18100
C  9.79400 47.17600 21.76700
C  8.25200 46.85500 21.99700
C  8.06100 47.25800 23.47200
C  9.98400 48.15700 20.67300
C  7.89600 45.28700 21.68500
C  6.62400 45.01300 20.91100
N  7.37200 47.90100 26.38000
C  6.43100 47.50300 25.43400
C  5.15100 47.63000 26.04500
C  5.39900 48.06300 27.34800
C  6.73900 48.32700 27.44700
C  3.86900 47.46600 25.40000
C  4.75000 48.43300 28.59300
O  3.54300 48.34900 28.84800
C  5.85300 48.78000 29.58000
C  5.87000 47.66000 30.50700
O  6.42100 46.57200 30.40200
O  5.05100 47.94400 31.59700
C  4.64500 46.86700 32.53400
H  12.70600 49.89200 28.64500
H  12.17000 47.60400 22.65700
H  5.93600 46.89600 23.50500
H  8.34500 50.31400 30.80700
H  11.08400 49.67100 30.78000
H  10.89200 52.02600 29.07600
H  11.40600 51.94500 30.62700
H  9.55200 52.21200 30.27800
H  9.91300 48.07500 31.82300
H  8.48600 47.49900 30.99900
H  7.16000 49.04200 32.61700
H  8.66400 49.88600 33.06700
H  14.61900 49.09200 28.16200
H  15.07700 50.13400 26.84400
H  15.64100 48.36900 26.83400
H  16.44500 47.58600 24.76600
H  16.21600 49.35800 24.85900
H  16.59600 48.64000 23.27500
H  10.32900 46.23000 21.68100
H  7.56800 47.45500 21.39700
H  9.32200 48.04200 19.81500
H  10.86700 47.89600 20.08900
H  10.18200 49.17200 21.02000
H  7.82400 44.75300 22.63200
H  8.72800 44.90600 21.09400
H  6.91300 44.73900 19.89600
H  5.95900 45.87600 20.87300
H  6.07000 44.24500 21.45300
H  3.99800 46.77100 24.57100
H  3.42600 48.40800 25.07700
H  3.25200 46.99500 26.16600
H  5.78000 49.72200 30.12500
H  4.82300 47.26700 33.53300
H  5.31300 46.01200 32.43300
H  3.58500 46.66100 32.38600

