158

Mg -10.55000 37.75000 41.40600
C  -8.28600 35.05200 40.99700
C  -8.26500 39.75700 39.54700
C  -12.86900 40.20900 41.22300
C  -12.83800 35.56500 42.65200
N  -8.54400 37.38000 40.22400
C  -7.85400 36.19000 40.31900
C  -6.57000 36.30300 39.39700
C  -6.42400 37.86100 39.18600
C  -7.81900 38.40100 39.70000
C  -5.23200 38.62300 39.85200
C  -6.64600 35.51100 38.02100
C  -5.36900 34.79800 37.53200
H  -4.57100 35.57100 36.47100
N  -10.50500 39.70900 40.66900
C  -9.47800 40.34300 39.89700
C  -9.87000 41.76200 39.79300
C  -11.14200 41.96800 40.42000
C  -11.58500 40.58600 40.79200
C  -9.00600 42.76400 39.04500
C  -11.92300 43.28200 40.45600
O  -11.38900 44.35800 40.10900
C  -13.39500 43.32100 40.62800
N  -12.66100 37.83500 41.65800
C  -13.37700 38.96300 41.58300
C  -14.74400 38.76000 42.24700
C  -14.74200 37.25500 42.76700
C  -13.33400 36.86000 42.41000
C  -15.16800 39.63000 43.49100
C  -15.76100 36.40700 42.07200
C  -16.79500 35.53800 42.83200
N  -10.62600 35.69900 41.86000
C  -11.58100 34.93700 42.43900
C  -11.12700 33.57000 42.54800
C  -9.84700 33.59700 41.99900
C  -9.62200 34.93400 41.62500
C  -11.74200 32.37000 43.18600
C  -8.73000 32.81000 41.73500
O  -8.51500 31.64000 41.97400
C  -7.66200 33.62600 41.01500
C  -6.29600 33.48600 41.83200
O  -5.55300 32.53100 41.69100
O  -6.03600 34.65000 42.49200
C  -4.84400 34.59200 43.33100
H  -7.62600 40.46800 39.02000
H  -13.55700 41.03700 41.40500
H  -13.54700 34.86400 43.09800
H  -5.73100 35.92600 39.98200
H  -6.31300 38.00000 38.11100
H  -4.61500 37.82700 40.26900
H  -5.43600 39.34100 40.64600
H  -4.83900 39.19000 39.00700
H  -7.11300 36.18000 37.29800
H  -7.37500 34.70700 38.12300
H  -5.56200 33.78400 37.18400
H  -4.72900 34.77700 38.41500
H  -8.13300 42.29500 38.59200
H  -8.66000 43.42000 39.84400
H  -9.48600 43.31600 38.23700
H  -13.67900 43.17700 41.67100
H  -13.90900 42.63700 39.95300
H  -13.65300 44.35500 40.40100
H  -15.40400 38.87700 41.38700
H  -14.81600 37.10900 43.84400
H  -15.51500 40.55300 43.02700
H  -14.28500 40.12200 43.90000
H  -15.95000 39.27100 44.16000
H  -15.16400 35.76300 41.42600
H  -16.48100 37.04700 41.56300
H  -16.59300 35.45500 43.90000
H  -16.75400 34.50300 42.49200
H  -17.83100 35.80800 42.63000
H  -12.82800 32.42800 43.11600
H  -11.51800 32.25100 44.24600
H  -11.50300 31.42700 42.69400
H  -7.33000 33.21500 40.06100
H  -4.42600 35.55700 43.61900
H  -3.94600 34.14600 42.90400
H  -5.13200 34.05300 44.23400
Mg -12.13700 16.29500 41.51200
C  -9.07600 14.54700 41.20500
C  -10.69300 18.92100 39.78400
C  -15.07800 17.73400 41.42600
C  -13.62300 13.30800 42.85000
N  -10.06500 16.69200 40.71600
C  -8.98800 15.82100 40.72200
C  -7.83000 16.34400 39.95600
C  -8.33100 17.81900 39.70700
C  -9.77000 17.82600 40.01300
C  -7.60600 18.92100 40.58400
C  -7.62600 15.49000 38.73500
C  -6.19600 15.20400 38.37400
H  -5.49700 15.99300 37.37500
N  -12.75400 18.11900 40.86600
C  -12.05900 19.08700 40.12800
C  -12.84300 20.22100 39.78300
C  -14.05300 19.92500 40.29900
C  -14.00600 18.57900 40.98400
C  -12.32800 21.42800 39.02100
C  -15.27200 20.81100 40.18800
O  -15.28600 21.88800 39.63400
C  -16.57100 20.61600 40.95900
N  -14.12200 15.60200 41.93500
C  -15.17300 16.41100 41.85900
C  -16.45100 15.63300 42.20300
C  -15.99100 14.35400 42.85400
C  -14.45700 14.42100 42.57100
C  -17.48200 16.34800 43.06900
C  -16.55900 12.99700 42.28900
C  -16.79900 12.04000 43.38500
N  -11.64200 14.31900 41.89200
C  -12.27000 13.24800 42.48900
C  -11.33000 12.18600 42.58500
C  -10.12800 12.65400 42.14600
C  -10.28500 13.96800 41.80300
C  -11.67500 10.79400 43.00000
C  -8.72200 12.21600 42.01900
O  -8.07300 11.24200 42.33600
C  -8.07900 13.45300 41.39400
C  -6.97000 13.81500 42.22800
O  -7.09500 14.00400 43.45700
O  -5.75400 13.75300 41.58800
C  -4.45300 14.09500 42.20300
H  -10.28000 19.75200 39.20800
H  -16.05400 18.17800 41.22000
H  -14.00000 12.36800 43.25900
H  -6.91200 16.34000 40.54300
H  -8.26700 18.17000 38.67700
H  -8.28600 19.22500 41.38000
H  -7.34500 19.75400 39.93100
H  -6.62100 18.65400 40.96600
H  -7.96600 16.02200 37.84600
H  -8.15500 14.53900 38.67700
H  -6.23100 14.20200 37.94700
H  -5.55700 15.16600 39.25600
H  -12.79000 22.36300 39.33800
H  -12.54800 21.33400 37.95700
H  -11.26700 21.48500 39.26200
H  -17.04000 19.78900 40.42500
H  -17.29500 21.43000 40.93400
H  -16.27400 20.47600 41.99900
H  -16.88700 15.52400 41.21000
H  -16.19400 14.36800 43.92500
H  -17.77900 15.97700 44.05000
H  -18.38600 16.46400 42.47200
H  -17.18300 17.38300 43.23500
H  -15.73400 12.59700 41.69900
H  -17.39600 13.13900 41.60500
H  -16.46200 12.38800 44.36100
H  -16.29700 11.09600 43.17600
H  -17.83700 11.71500 43.45600
H  -11.83200 10.20500 42.09700
H  -12.61600 10.74800 43.54800
H  -10.97600 10.28100 43.66100
H  -7.68800 13.09500 40.44200
H  -4.33200 15.16700 42.36100
H  -3.65000 13.93700 41.48300
H  -4.32600 13.50600 43.11100

