158

Mg 2.20800 -1.00300 44.72800
C  5.64400 -0.20000 43.96800
C  1.36600 1.57600 42.76500
C  -0.80200 -2.33800 44.56100
C  3.56500 -4.07200 46.09900
N  3.43500 0.49500 43.47600
C  4.76700 0.69000 43.39700
C  5.12400 2.00800 42.76900
C  3.70300 2.70400 42.71900
C  2.76400 1.54200 43.04700
C  3.41900 3.85700 43.70300
C  5.79500 1.78700 41.35000
C  6.93900 2.68400 40.91800
H  6.79600 3.34600 39.51100
N  0.48200 -0.36800 43.97900
C  0.32500 0.69100 43.13500
C  -1.04500 0.85400 42.69500
C  -1.72500 -0.27800 43.17400
C  -0.66500 -1.04300 43.92000
C  -1.63300 1.96600 41.80400
C  -3.11500 -0.55000 43.05500
O  -3.87300 0.12300 42.40300
C  -3.80600 -1.57300 43.82800
N  1.53500 -3.01500 45.08100
C  0.16300 -3.16600 45.27500
C  -0.24800 -4.44800 45.98600
C  1.19600 -5.08300 46.16600
C  2.20700 -3.96400 45.86400
C  -1.12700 -4.27700 47.29900
C  1.59900 -6.27800 45.25900
C  1.81500 -7.61200 46.04800
N  4.20700 -1.92200 45.14400
C  4.56800 -3.06800 45.87400
C  5.98500 -3.14900 46.00200
C  6.42900 -1.99900 45.28000
C  5.31500 -1.34400 44.77000
C  6.75400 -4.27800 46.70200
C  7.61900 -1.34100 44.85900
O  8.81500 -1.68500 44.84800
C  7.18500 -0.01300 44.10200
C  7.47100 1.10100 45.04400
O  6.69200 1.61100 45.77800
O  8.76200 1.54700 44.93100
C  9.36400 2.79600 45.53700
H  1.13200 2.48100 42.20100
H  -1.73200 -2.90900 44.58400
H  3.81200 -5.00500 46.60800
H  5.78000 2.62300 43.38500
H  3.63700 3.03100 41.68200
H  3.23700 3.43700 44.69300
H  2.63700 4.52800 43.34800
H  4.22600 4.54200 43.96400
H  5.03900 1.84400 40.56800
H  6.27500 0.80900 41.33100
H  7.82100 2.06000 40.77400
H  7.12500 3.52800 41.58200
H  -2.07000 1.72000 40.83600
H  -0.86900 2.73700 41.70400
H  -2.42900 2.34300 42.44600
H  -4.88500 -1.42100 43.80800
H  -3.36400 -1.52800 44.82400
H  -3.64500 -2.56100 43.39500
H  -0.83200 -5.02400 45.26800
H  1.37700 -5.30300 47.21800
H  -2.00500 -3.63200 47.31500
H  -0.55000 -3.96700 48.17100
H  -1.66400 -5.21800 47.41500
H  2.58100 -6.16800 44.80000
H  0.96500 -6.40600 44.38200
H  2.79600 -8.02200 45.80600
H  0.91600 -8.18000 45.80700
H  1.80300 -7.51300 47.13300
H  6.11500 -5.13900 46.50800
H  6.92900 -4.15300 47.77000
H  7.73400 -4.46800 46.26300
H  7.62800 0.13200 43.11700
H  8.57100 3.49000 45.81500
H  10.21000 3.31500 45.08500
H  9.85500 2.51600 46.46900
Mg 24.56800 -5.77300 46.14300
C  26.67200 -3.64400 44.54400
C  22.02900 -4.64500 44.20800
C  22.79500 -8.60700 46.98600
C  27.35900 -7.14200 47.95100
N  24.43400 -4.20500 44.56600
C  25.41800 -3.47600 44.06000
C  24.91600 -2.44600 43.05700
C  23.30700 -2.67100 43.15800
C  23.24600 -3.95000 44.02200
C  22.46800 -1.50200 43.67100
C  25.56300 -2.61500 41.67000
C  25.70900 -1.28600 40.92900
H  25.10800 -1.21800 39.44800
N  22.59400 -6.47800 45.71900
C  21.69200 -5.83400 44.87600
C  20.51300 -6.63100 44.78600
C  20.73700 -7.82000 45.53300
C  22.08300 -7.73900 46.09900
C  19.30100 -6.27300 43.96800
C  19.68300 -8.90600 45.72800
O  18.64900 -8.84700 45.10000
C  19.86100 -10.05900 46.64900
N  24.96400 -7.62400 47.24700
C  24.12200 -8.61700 47.47600
C  24.69700 -9.75000 48.37300
C  26.10200 -9.20200 48.75000
C  26.17400 -7.89300 47.86100
C  23.78000 -10.02000 49.58800
C  27.39800 -10.11900 48.70200
C  28.14800 -10.20200 49.95200
N  26.61400 -5.36700 46.32800
C  27.61100 -5.95800 47.16700
C  28.83700 -5.25500 46.96900
C  28.57700 -4.30700 45.88000
C  27.15400 -4.50900 45.51800
C  30.13100 -5.54200 47.71800
C  29.16200 -3.28600 45.02000
O  30.27600 -2.76100 45.14600
C  27.96300 -2.85900 44.06200
C  27.85800 -1.35200 44.24500
O  27.23700 -0.70300 45.07600
O  28.81800 -0.82900 43.37200
C  28.68900 0.68500 43.18100
H  21.16600 -4.19700 43.71100
H  22.27800 -9.49700 47.35200
H  28.17300 -7.60400 48.51300
H  25.29800 -1.49600 43.43000
H  22.84100 -2.83100 42.18600
H  21.89000 -1.19600 42.79900
H  23.08500 -0.75700 44.17300
H  21.72500 -1.87000 44.37800
H  24.79900 -3.07900 41.04500
H  26.41400 -3.29600 41.69900
H  26.75900 -0.99400 40.91800
H  25.08200 -0.53800 41.41400
H  19.05700 -7.06100 43.25600
H  19.37900 -5.28600 43.51300
H  18.35400 -6.16600 44.49700
H  19.81900 -9.80000 47.70700
H  20.76600 -10.60100 46.37300
H  18.94500 -10.61200 46.44300
H  24.79100 -10.72700 47.89800
H  26.07300 -8.74400 49.73900
H  24.25600 -9.64200 50.49300
H  23.65900 -11.10300 49.59100
H  22.89700 -9.41700 49.37500
H  28.07100 -9.78400 47.91200
H  27.06600 -11.07800 48.30500
H  29.07300 -9.66900 49.73500
H  28.22400 -11.24900 50.24400
H  27.62300 -9.68800 50.75700
H  30.83200 -4.73400 47.50700
H  30.52800 -6.46100 47.28800
H  29.91000 -5.61300 48.78300
H  28.17000 -2.94000 42.99500
H  27.60900 0.82300 43.13100
H  28.96300 1.02600 42.18200
H  29.04100 1.26300 44.03500

