158

Mg 1.71400 -2.82700 45.40700
C  5.10900 -2.92700 44.66800
C  1.41700 -0.15500 43.04700
C  -1.62300 -3.24400 45.33300
C  2.14200 -5.90800 47.14300
N  3.09300 -1.63600 44.08400
C  4.45500 -1.90300 43.92700
C  5.09900 -0.90000 42.88000
C  4.00100 0.13700 42.69400
C  2.75600 -0.60900 43.22600
C  4.16100 1.53900 43.28400
C  5.62200 -1.67100 41.56900
C  7.09400 -1.41300 41.10700
H  7.34900 -0.87700 39.70500
N  0.17800 -1.70200 44.54500
C  0.24800 -0.67900 43.61200
C  -1.08900 -0.18400 43.31900
C  -1.96200 -1.08400 43.85700
C  -1.14900 -2.06300 44.66100
C  -1.32200 0.97100 42.38500
C  -3.44900 -1.11200 43.63500
O  -3.85400 -0.20500 42.93800
C  -4.34200 -2.13300 44.24000
N  0.51200 -4.33000 46.08300
C  -0.85500 -4.20800 46.05100
C  -1.54600 -5.44100 46.72900
C  -0.33000 -6.17100 47.31500
C  0.85300 -5.49600 46.78000
C  -2.60400 -5.07500 47.83900
C  -0.33500 -7.67600 47.23800
C  0.40300 -8.40600 46.11500
N  3.28200 -4.15000 45.92600
C  3.33900 -5.28700 46.70100
C  4.68800 -5.74000 46.83000
C  5.41800 -4.79300 46.08900
C  4.48800 -3.84600 45.53600
C  5.24300 -6.91600 47.59600
C  6.74300 -4.49500 45.59700
O  7.86000 -5.04800 45.78800
C  6.60700 -3.22800 44.69500
C  7.37700 -2.14100 45.20600
O  7.36100 -1.71900 46.35000
O  7.96100 -1.40800 44.18300
C  8.58800 -0.09000 44.34400
H  1.30200 0.73900 42.43100
H  -2.69000 -3.46900 45.38800
H  2.05800 -6.72200 47.86600
H  5.94100 -0.43500 43.39400
H  3.79800 0.42700 41.66400
H  4.86700 1.41900 44.10600
H  3.19900 1.89700 43.65200
H  4.61200 2.22700 42.57000
H  4.91400 -1.42000 40.78000
H  5.41900 -2.72600 41.75200
H  7.70000 -2.31300 41.20600
H  7.43500 -0.67000 41.82800
H  -1.66200 0.65700 41.39800
H  -0.42000 1.58200 42.35400
H  -2.12300 1.56000 42.83200
H  -4.14800 -3.09000 43.75600
H  -5.34200 -1.80900 43.95000
H  -4.41500 -2.21300 45.32400
H  -1.97200 -6.09100 45.96500
H  -0.28200 -5.99400 48.39000
H  -2.82800 -4.01100 47.90500
H  -2.18600 -5.43600 48.77900
H  -3.58700 -5.50600 47.65100
H  -1.34100 -8.06800 47.38900
H  0.17700 -7.98800 48.14900
H  -0.30400 -9.08200 45.63400
H  1.22800 -8.99800 46.51000
H  0.85500 -7.74900 45.37100
H  4.77700 -7.84400 47.26300
H  4.84900 -6.83900 48.60900
H  6.31200 -6.70800 47.55900
H  7.00200 -3.43500 43.70100
H  9.26000 -0.07800 45.20200
H  7.80000 0.63200 44.56000
H  9.25700 0.23400 43.54700
Mg 47.16100 25.50100 28.82400
C  47.76400 27.86600 31.34200
C  45.95700 23.31500 31.21500
C  46.80300 23.26100 26.45300
C  48.74600 27.75600 26.60200
N  46.73100 25.63700 31.02600
C  47.10200 26.69100 31.87500
C  46.90000 26.31100 33.32200
C  46.40700 24.80800 33.17200
C  46.29000 24.61800 31.67500
C  47.30400 23.76600 33.90600
C  45.86800 27.18000 34.07400
C  45.58700 26.73100 35.54300
H  45.71600 27.79400 36.63500
N  46.35900 23.62000 28.78500
C  45.95900 22.85700 29.86300
C  45.52500 21.53000 29.40600
C  45.61200 21.57300 28.03200
C  46.24200 22.87900 27.67600
C  44.89400 20.45500 30.32500
C  45.44600 20.45700 26.94200
O  45.40400 20.76500 25.75100
C  45.22200 19.05500 27.26100
N  47.61600 25.56200 26.86300
C  47.36600 24.49100 26.12700
C  47.91100 24.68300 24.65800
C  48.21800 26.23000 24.60100
C  48.12000 26.58900 26.08700
C  49.12100 23.78000 24.25300
C  47.11500 27.01700 23.90700
C  45.63100 26.83600 24.36100
N  48.06900 27.39300 28.91200
C  48.69700 28.14100 27.91400
C  49.33500 29.31700 28.48400
C  48.98500 29.26900 29.83300
C  48.16700 28.07900 30.03800
C  50.10800 30.32700 27.71000
C  49.03300 29.86400 31.15100
O  49.62300 30.87400 31.55100
C  48.27400 29.02900 32.15100
C  49.22000 28.57700 33.15700
O  50.14600 27.83900 33.04600
O  48.76400 29.02100 34.37600
C  49.67900 28.77700 35.45700
H  45.68500 22.55100 31.94600
H  46.79500 22.60200 25.58200
H  49.19200 28.37900 25.82300
H  47.80900 26.33100 33.92200
H  45.39100 24.85100 33.56400
H  48.08900 24.29200 34.44900
H  47.72300 23.03100 33.21800
H  46.66500 23.24200 34.61800
H  44.94600 27.10100 33.49700
H  46.18600 28.22000 34.00000
H  46.27800 25.89600 35.66200
H  44.57800 26.31800 35.52500
H  44.91500 20.75500 31.37200
H  45.48800 19.55700 30.15300
H  43.88700 20.17300 30.01700
H  46.23100 18.76600 27.55400
H  44.85600 18.56900 26.35600
H  44.47900 18.99000 28.05500
H  47.02600 24.49100 24.05000
H  49.17500 26.34600 24.09100
H  49.25300 22.90000 24.88100
H  50.07100 24.31000 24.17400
H  48.99900 23.29500 23.28400
H  47.18100 26.65300 22.88200
H  47.33200 28.08400 23.87000
H  45.08400 26.46300 23.49500
H  45.24800 27.82700 24.60400
H  45.38000 26.16300 25.18100
H  49.52300 30.73500 26.88600
H  51.08300 29.91000 27.45700
H  50.32300 31.17500 28.36100
H  47.31700 29.43100 32.48400
H  50.63900 29.27000 35.30200
H  49.74300 27.71900 35.70900
H  49.20100 29.20100 36.34000

