158

Mg -1.84400 17.41700 26.71400
C  -2.26700 15.16300 29.53900
C  -2.51200 19.92500 29.01200
C  -1.65900 19.38700 24.32000
C  -1.77600 14.59600 24.69100
N  -2.56400 17.48400 28.99500
C  -2.54500 16.46500 29.93700
C  -2.75900 17.01500 31.36800
C  -2.96200 18.57000 31.13200
C  -2.68700 18.69900 29.60400
C  -4.37100 19.00400 31.60500
C  -1.54300 16.67200 32.31300
C  -1.52900 17.43800 33.64200
H  -1.44100 16.67800 34.98300
N  -1.94300 19.38100 26.67800
C  -2.19600 20.26500 27.67900
C  -2.06800 21.65100 27.15800
C  -1.85300 21.52400 25.76500
C  -1.82800 20.04700 25.48300
C  -2.22000 22.86900 28.05400
C  -1.63200 22.58700 24.67600
O  -1.57900 22.32400 23.49400
C  -1.48900 23.98600 25.05200
N  -1.54900 17.04800 24.71200
C  -1.56200 18.07900 23.89000
C  -1.20500 17.67300 22.41700
C  -1.01000 16.11700 22.60500
C  -1.43100 15.86100 24.07700
C  -2.31300 18.00900 21.31700
C  0.39500 15.56000 22.27900
C  1.47000 15.38100 23.40900
N  -1.88900 15.37700 26.97600
C  -1.87600 14.33600 26.04500
C  -2.05600 13.04200 26.62300
C  -2.17600 13.34300 27.99100
C  -2.02600 14.75400 28.19100
C  -2.15200 11.68400 26.04600
C  -2.25500 12.73600 29.29500
O  -2.34800 11.54600 29.59400
C  -2.29000 13.83200 30.29700
C  -1.00600 13.64100 31.15200
O  -0.05100 14.31300 30.86900
O  -1.09900 12.73500 32.15900
C  -0.11400 12.81700 33.24100
H  -2.34900 20.74400 29.71500
H  -1.54500 19.98900 23.41600
H  -1.89700 13.71400 24.05800
H  -3.61300 16.54400 31.85500
H  -2.24300 19.17800 31.68100
H  -4.99600 18.12200 31.74000
H  -4.83100 19.69300 30.89700
H  -4.36800 19.63100 32.49700
H  -0.62000 16.98200 31.82100
H  -1.53700 15.60600 32.53900
H  -2.50200 17.92500 33.56700
H  -0.81800 18.26300 33.62800
H  -1.20300 23.14200 28.33500
H  -2.93500 22.63700 28.84300
H  -2.79300 23.60200 27.48600
H  -2.43000 24.40300 25.41200
H  -1.12700 24.48500 24.15400
H  -0.71500 24.13800 25.80500
H  -0.32900 18.11700 21.94500
H  -1.66500 15.59100 21.91100
H  -3.10300 17.26800 21.44200
H  -1.93500 17.90500 20.30000
H  -2.81600 18.97100 21.42200
H  0.76200 16.21100 21.48500
H  0.25200 14.63800 21.71500
H  0.98800 15.22500 24.37400
H  2.29800 16.07900 23.53800
H  1.96800 14.45700 23.11700
H  -1.48900 11.63100 25.18300
H  -3.15800 11.58000 25.63800
H  -1.83500 10.96700 26.80400
H  -3.11700 13.64500 30.98200
H  0.86600 13.23600 33.01200
H  0.10400 11.80400 33.57900
H  -0.51600 13.47100 34.01500
Mg 50.11400 46.43600 42.44400
C  46.59700 46.69300 41.31700
C  50.17900 43.28500 41.00000
C  53.39400 46.48800 42.49000
C  49.81500 49.76600 43.37900
N  48.57300 45.11300 41.45600
C  47.27700 45.46500 41.07300
C  46.68300 44.27300 40.27300
C  47.67800 43.11900 40.45100
C  48.92200 43.89500 41.02500
C  47.13900 41.92500 41.30100
C  46.40300 44.79400 38.88000
C  44.93900 44.49800 38.32200
H  44.85600 43.65400 37.14400
N  51.59900 45.07100 41.79500
C  51.38100 43.86400 41.24700
C  52.63200 43.13900 41.21000
C  53.63100 44.06600 41.49500
C  52.89800 45.27400 41.95100
C  52.77400 41.62000 40.84800
C  55.08700 43.77200 41.50400
O  55.40700 42.58400 41.50600
C  56.13700 44.77200 41.64900
N  51.46200 47.98500 42.80500
C  52.78800 47.70300 42.85700
C  53.49400 48.96400 43.32100
C  52.33500 49.93100 43.84000
C  51.07800 49.20300 43.26100
C  54.49000 48.76200 44.48600
C  52.57300 51.41800 43.41400
C  52.01400 52.54200 44.30400
N  48.48500 47.94900 42.60400
C  48.53300 49.26800 43.05900
C  47.22200 49.92900 42.87400
C  46.47200 48.90700 42.20700
C  47.23900 47.73900 42.11300
C  46.80600 51.33900 43.16300
C  45.10900 48.60400 41.58500
O  44.16000 49.36500 41.34500
C  45.21500 47.16300 41.01100
C  44.24600 46.28100 41.80600
O  44.50000 45.66100 42.80600
O  42.99800 46.34000 41.26400
C  42.03600 45.35100 41.78500
H  50.06300 42.28100 40.58500
H  54.47200 46.55200 42.65400
H  49.88600 50.82500 43.63900
H  45.74100 43.89800 40.67500
H  47.81100 42.75400 39.43200
H  47.04500 41.00100 40.73000
H  46.10000 42.06600 41.59900
H  47.75200 41.86500 42.20000
H  47.11000 44.44300 38.12800
H  46.55400 45.87300 38.83600
H  44.45400 45.47300 38.26400
H  44.31700 44.09900 39.12400
H  53.39300 41.75400 39.96100
H  51.91700 41.05200 40.48600
H  53.34800 41.04300 41.57300
H  55.66000 45.67900 41.27900
H  56.88200 44.45100 40.92000
H  56.53900 44.79900 42.66200
H  54.03200 49.44500 42.50400
H  52.14800 49.89800 44.91400
H  54.59400 49.67700 45.06900
H  55.43000 48.31700 44.16100
H  54.00600 47.94100 45.01600
H  52.04500 51.55200 42.47000
H  53.63000 51.64000 43.26400
H  51.38400 53.20800 43.71400
H  52.76500 53.16600 44.78700
H  51.38400 52.15800 45.10700
H  46.03100 51.67300 42.47300
H  47.66700 52.00800 43.19100
H  46.38600 51.41600 44.16500
H  44.87100 47.26900 39.98200
H  41.75700 44.70400 40.95300
H  41.05700 45.71500 42.09800
H  42.51500 44.59800 42.41100

