158

Mg 40.84200 9.27900 29.22800
C  42.46300 10.76600 31.96700
C  38.54400 7.99900 31.45600
C  39.12300 8.07100 26.60300
C  43.38000 10.41400 27.28000
N  40.60300 9.38300 31.44700
C  41.38500 10.06100 32.39900
C  40.77000 10.02500 33.77400
C  39.67300 8.90900 33.54100
C  39.54900 8.74300 32.02700
C  40.01300 7.61800 34.30800
C  40.19500 11.26800 34.45300
C  39.76300 11.21600 35.92800
H  40.24300 12.41700 36.77100
N  39.00500 8.22800 29.05900
C  38.23900 7.79600 30.05000
C  37.03300 7.17100 29.52700
C  37.06400 7.40900 28.08300
C  38.43600 7.94900 27.83400
C  36.00200 6.60200 30.40500
C  36.02300 7.15700 27.07400
O  36.19400 7.26100 25.86900
C  34.73800 6.79200 27.50400
N  41.24400 9.11900 27.28000
C  40.39900 8.63100 26.37300
C  41.01800 8.61400 24.94200
C  42.31900 9.49300 25.19700
C  42.32600 9.78600 26.67600
C  41.12300 7.16800 24.35600
C  42.41000 10.83900 24.37600
C  41.56500 12.09300 24.87900
N  42.63000 10.20600 29.51100
C  43.52500 10.62000 28.60900
C  44.55600 11.39800 29.23700
C  44.17200 11.54800 30.55600
C  42.97500 10.80800 30.70500
C  45.77000 11.87000 28.47700
C  44.56000 12.02600 31.86400
O  45.57400 12.67800 32.17200
C  43.38200 11.59700 32.86100
C  44.01000 10.82500 33.98800
O  44.90700 10.06600 33.86400
O  43.58000 11.22300 35.13800
C  44.15300 10.80700 36.40000
H  37.80400 7.56200 32.12900
H  38.63400 7.65400 25.72000
H  44.15000 10.92800 26.70200
H  41.45700 9.64900 34.53300
H  38.75200 9.30500 33.97000
H  41.03100 7.65000 34.69600
H  39.99900 6.76300 33.63100
H  39.30200 7.41700 35.11000
H  39.37900 11.59100 33.80600
H  40.91600 12.05700 34.23600
H  39.97700 10.24700 36.37900
H  38.68600 11.33400 36.04100
H  36.52100 6.24600 31.29400
H  35.50500 5.73700 29.96600
H  35.27400 7.39500 30.57900
H  34.63200 5.70700 27.52700
H  33.99400 7.09100 26.76600
H  34.41000 7.27400 28.42400
H  40.30400 9.20300 24.36600
H  43.15000 8.84000 24.92800
H  40.65100 7.19900 23.37400
H  40.62800 6.44600 25.00500
H  42.18600 6.93000 24.40400
H  42.20100 10.70700 23.31400
H  43.45600 11.13000 24.47700
H  40.95000 11.67000 25.67300
H  41.10900 12.37600 23.93000
H  42.22500 12.89400 25.21000
H  46.24200 11.05500 27.92900
H  46.46100 12.16800 29.26500
H  45.59000 12.65500 27.74300
H  42.98600 12.54100 33.23600
H  45.22000 10.61900 36.27900
H  43.68000 9.88300 36.73100
H  43.87800 11.53900 37.15900
Mg -1.49900 34.23300 27.05000
C  -3.35500 32.42800 29.49000
C  -0.36100 36.27100 29.45400
C  -0.08500 36.22700 24.65900
C  -3.08100 32.37000 24.54900
N  -1.77900 34.32200 29.22400
C  -2.54400 33.45100 30.02900
C  -2.28700 33.82400 31.50900
C  -1.56900 35.20500 31.47700
C  -1.26300 35.33400 30.00600
C  -2.37400 36.44000 32.16300
C  -1.57700 32.66700 32.30400
C  -2.35100 32.13100 33.52500
H  -1.73400 32.26900 34.90100
N  -0.20100 35.85000 27.02300
C  0.14600 36.53400 28.15000
C  1.00300 37.59200 27.84700
C  1.02600 37.67700 26.42100
C  0.22200 36.56700 25.92900
C  1.62400 38.43700 28.93300
C  1.62800 38.69100 25.49700
O  1.33600 38.85400 24.34400
C  2.71200 39.57300 25.99500
N  -1.83600 34.41600 24.92900
C  -0.93300 35.17200 24.15200
C  -1.16300 34.98800 22.66900
C  -1.78200 33.56800 22.66700
C  -2.32900 33.43100 24.09700
C  -1.98300 36.09300 21.81800
C  -0.89900 32.37200 22.19600
C  -1.53800 31.43900 21.14000
N  -2.91800 32.71900 26.95300
C  -3.45700 32.10900 25.85200
C  -4.42200 31.17100 26.26900
C  -4.40300 31.24700 27.67700
C  -3.43000 32.17300 28.04100
C  -5.15100 30.06700 25.41800
C  -5.06400 30.75200 28.93100
O  -5.97500 29.99700 29.16800
C  -4.40500 31.50500 30.18700
C  -5.42200 32.37300 30.81900
O  -6.03100 33.26900 30.26300
O  -5.58300 31.86300 32.07600
C  -6.65600 32.45700 32.94600
H  -0.15000 37.00800 30.23300
H  0.38800 36.81500 23.86900
H  -3.38200 31.65800 23.77900
H  -3.30900 33.95400 31.86400
H  -0.62000 35.21300 32.01300
H  -3.19400 36.12200 32.80600
H  -2.79000 37.10800 31.40900
H  -1.73200 37.05500 32.79300
H  -0.53400 32.92600 32.48600
H  -1.48100 31.83800 31.60300
H  -2.61700 31.08900 33.34900
H  -3.34300 32.58000 33.48500
H  0.90600 39.15200 29.33500
H  2.53200 38.84500 28.49000
H  1.84700 37.77300 29.76800
H  3.59500 38.99800 26.27500
H  2.38900 40.36300 26.67200
H  3.01200 40.22000 25.17000
H  -0.15100 34.93200 22.26900
H  -2.58700 33.58900 21.93200
H  -2.79900 35.63900 21.25500
H  -1.32600 36.64700 21.14800
H  -2.47600 36.78800 22.49800
H  -0.46400 31.77800 23.00000
H  -0.05300 32.68400 21.58300
H  -1.56200 30.40600 21.48700
H  -0.97200 31.38700 20.21000
H  -2.56000 31.75800 20.93600
H  -6.20000 30.10900 25.71100
H  -4.68000 29.14400 25.75500
H  -5.03000 30.18700 24.34200
H  -3.95900 30.80500 30.89200
H  -7.02800 33.37300 32.48700
H  -6.21100 32.87600 33.84800
H  -7.57800 31.89900 33.10900

