158

Mg 16.55000 -2.37900 28.78000
C  15.32400 -0.00500 31.09800
C  18.76700 -3.59000 31.18400
C  18.07600 -3.91500 26.39000
C  14.67700 -0.62200 26.38000
N  16.95800 -1.77900 30.91700
C  16.32200 -0.89400 31.66500
C  16.71600 -1.04400 33.18900
C  18.08000 -1.74300 33.05300
C  17.95100 -2.44500 31.60500
C  19.32200 -0.82400 33.06400
C  15.68100 -1.87600 34.13600
C  15.34100 -1.36400 35.60800
H  16.36400 -0.51600 36.32200
N  17.98700 -3.81600 28.82300
C  18.81500 -4.13500 29.84900
C  19.68100 -5.27400 29.36400
C  19.55000 -5.35000 27.93000
C  18.48100 -4.33900 27.66300
C  20.60000 -6.07700 30.35800
C  20.25200 -6.28100 26.93600
O  19.96600 -6.28400 25.73100
C  21.33000 -7.29900 27.28800
N  16.52700 -2.11900 26.67000
C  17.20900 -2.90900 25.88500
C  17.06000 -2.54900 24.39900
C  15.74700 -1.77000 24.50000
C  15.61600 -1.47200 25.90700
C  18.35600 -1.75000 23.87400
C  14.48200 -2.36300 23.76800
C  13.84100 -1.47300 22.69500
N  15.27500 -0.65600 28.69500
C  14.54200 -0.10500 27.63400
C  13.65900 0.94500 28.14400
C  13.95800 1.07600 29.50700
C  14.99300 0.10500 29.74900
C  12.69800 1.74900 27.23800
C  13.57800 1.74100 30.72100
O  12.77200 2.67700 30.85500
C  14.52900 1.02200 31.78700
C  15.27700 2.14600 32.38800
O  15.87500 2.94500 31.69300
O  15.07600 2.35800 33.71400
C  15.70800 3.48100 34.43800
H  19.47000 -3.99100 31.91600
H  18.43500 -4.42800 25.49500
H  14.00300 -0.31000 25.58000
H  16.88600 -0.04700 33.59400
H  18.06800 -2.45600 33.87700
H  19.89000 -0.83000 32.13400
H  19.98500 -1.12700 33.87500
H  19.06400 0.21100 33.28800
H  15.95300 -2.93000 34.19500
H  14.72900 -1.94200 33.60800
H  15.09900 -2.19600 36.27000
H  14.42100 -0.78100 35.56300
H  21.27900 -6.77100 29.86300
H  19.86300 -6.73000 30.82600
H  21.02100 -5.36500 31.06700
H  22.11200 -6.78900 27.85000
H  21.77700 -7.65800 26.36000
H  20.90600 -8.12400 27.85900
H  16.91400 -3.48400 23.85700
H  15.83500 -0.80400 24.00300
H  18.85700 -1.29700 24.72900
H  18.07100 -0.91100 23.23800
H  19.07700 -2.37100 23.34100
H  13.80500 -2.73900 24.53500
H  14.80200 -3.30600 23.32500
H  13.08500 -2.10800 22.23300
H  14.66500 -1.07500 22.10300
H  13.15000 -0.80300 23.20700
H  12.27800 0.93800 26.64300
H  13.30900 2.38500 26.59700
H  11.91200 2.24000 27.81200
H  13.72000 0.59100 32.37800
H  15.94000 4.31500 33.77600
H  16.64300 3.12400 34.87000
H  14.97900 3.89300 35.13500
Mg 17.34100 52.57500 26.83300
C  19.63700 51.04600 28.94700
C  15.45200 53.30900 29.67500
C  15.07100 53.87700 24.88500
C  19.11500 51.46200 24.04800
N  17.53100 52.09700 29.05600
C  18.53100 51.50900 29.69300
C  18.33500 51.58100 31.23400
C  16.84400 51.97300 31.35200
C  16.60500 52.54500 29.97100
C  15.79500 50.87100 31.78700
C  19.29900 52.62200 31.85100
C  19.31300 52.69000 33.46400
H  18.24200 51.96900 34.27400
N  15.56200 53.57400 27.26300
C  14.95400 53.81300 28.48200
C  13.76600 54.62200 28.28100
C  13.67700 54.75500 26.81500
C  14.83000 54.02700 26.24300
C  12.77500 55.12800 29.34800
C  12.70100 55.51400 25.96300
O  12.66100 55.57100 24.73700
C  11.70200 56.31100 26.64900
N  17.05600 52.42300 24.79900
C  16.08100 53.18000 24.22500
C  16.16200 53.10100 22.64400
C  17.55800 52.39700 22.41500
C  17.92000 52.08700 23.81200
C  14.98600 52.32600 22.02200
C  18.64900 53.33400 21.88200
C  19.75400 52.80100 21.02400
N  19.00600 51.44500 26.50800
C  19.64100 51.09700 25.32500
C  20.79900 50.29600 25.72900
C  20.82600 50.22800 27.13200
C  19.73900 51.08000 27.52900
C  21.78800 49.64400 24.84100
C  21.58200 49.73700 28.30100
O  22.57900 48.95600 28.43200
C  20.71000 50.12900 29.42800
C  20.26100 48.96100 30.22200
O  19.75800 47.96000 29.73100
O  20.44500 49.25700 31.54300
C  20.19700 48.13500 32.36700
H  14.88700 53.50600 30.58800
H  14.61700 54.51800 24.12700
H  19.79300 51.14000 23.25400
H  18.52500 50.60600 31.68300
H  16.70800 52.84800 31.98700
H  14.97800 51.32200 32.34900
H  16.35000 50.14200 32.37800
H  15.44400 50.41100 30.86300
H  19.04200 53.56000 31.35800
H  20.26800 52.25700 31.51300
H  19.22100 53.76700 33.60700
H  20.33000 52.47100 33.78900
H  12.50900 56.18400 29.30200
H  13.27100 54.95500 30.30400
H  11.87600 54.52200 29.23800
H  10.97600 55.75200 27.23900
H  11.15200 56.97100 25.97600
H  12.26300 57.01200 27.26700
H  16.27400 54.04600 22.11200
H  17.40700 51.50200 21.81200
H  14.75500 51.45200 22.63100
H  15.42600 52.03800 21.06700
H  14.06700 52.89900 21.90000
H  19.17500 53.88500 22.66100
H  18.25000 54.11100 21.22900
H  19.80000 53.38400 20.10500
H  19.58200 51.76600 20.72900
H  20.72000 52.82000 21.52800
H  22.54400 49.12100 25.42600
H  22.24800 50.47400 24.30400
H  21.39700 48.85900 24.19400
H  21.41200 50.69700 30.03800
H  19.19700 48.20100 32.79400
H  20.85100 48.17400 33.23900
H  20.39400 47.14200 31.96300

