158

Mg 8.60000 47.84700 27.31900
C  7.03100 47.65600 30.32200
C  11.74600 48.22200 29.09100
C  10.34200 48.58200 24.52300
C  5.57900 48.06300 25.68000
N  9.32200 47.98400 29.52700
C  8.45200 47.86400 30.56800
C  9.19100 47.99000 31.87200
C  10.69200 48.36600 31.44900
C  10.62800 48.15000 29.88800
C  11.24900 49.74000 31.94800
C  9.09300 46.76400 32.81300
C  8.96600 47.03600 34.31200
H  9.53300 45.99100 35.26100
N  10.79200 48.06500 26.83000
C  11.86700 48.18100 27.63100
C  13.06400 48.35700 26.83200
C  12.63500 48.26800 25.49600
C  11.15400 48.32800 25.54600
C  14.43900 48.70700 27.55500
C  13.50500 48.25300 24.30600
O  13.11300 48.27100 23.14300
C  15.08200 48.20700 24.48300
N  8.08200 48.20600 25.42200
C  8.95800 48.64200 24.43100
C  8.16000 48.99400 23.21700
C  6.73000 48.31600 23.47700
C  6.77800 48.07100 24.94400
C  8.02200 50.49500 22.92900
C  6.51900 47.05500 22.60400
C  5.40500 47.21200 21.51000
N  6.65000 47.78500 27.79500
C  5.49400 47.86400 27.02000
C  4.32700 47.74000 27.90800
C  4.88800 47.60300 29.19700
C  6.29200 47.69000 29.07000
C  2.83000 47.67000 27.51400
C  4.57100 47.49600 30.58100
O  3.49700 47.42700 31.13900
C  5.92100 47.56900 31.37800
C  5.91800 46.19800 32.04400
O  5.79900 45.12500 31.42100
O  5.95900 46.31800 33.37500
C  6.33900 45.08500 34.10400
H  12.64800 48.45500 29.66100
H  10.82700 48.81600 23.57300
H  4.69500 48.03900 25.03900
H  8.79000 48.89700 32.32600
H  11.35500 47.59900 31.85000
H  11.10500 50.48500 31.16600
H  12.29500 49.53500 32.17700
H  10.75800 50.07600 32.86200
H  9.95300 46.13100 32.59600
H  8.32500 46.07400 32.46300
H  7.90700 47.22100 34.49000
H  9.51600 47.94800 34.54500
H  14.30400 49.10800 28.56000
H  14.90500 49.40100 26.85500
H  14.91500 47.72900 27.63300
H  15.26900 47.44600 25.24000
H  15.51500 49.13900 24.84600
H  15.51100 47.87700 23.53700
H  8.63900 48.47800 22.38500
H  5.87900 48.97300 23.29500
H  8.73800 50.76000 22.15100
H  8.17600 51.07200 23.84100
H  7.03100 50.70300 22.52700
H  6.13100 46.22500 23.19400
H  7.45900 46.65900 22.21900
H  4.49500 46.83300 21.97500
H  5.67400 46.68800 20.59300
H  5.39700 48.26100 21.21400
H  2.35000 47.11500 28.32000
H  2.70000 47.10500 26.59100
H  2.41900 48.67900 27.46600
H  5.93800 48.40100 32.08300
H  6.49900 45.22000 35.17400
H  7.18800 44.52800 33.70900
H  5.44200 44.46800 34.04200
Mg -4.29600 24.69100 26.59200
C  -3.21000 26.77500 29.13900
C  -5.65200 22.59800 28.91300
C  -5.51000 22.80100 24.15200
C  -3.17200 27.03200 24.26300
N  -4.40900 24.75800 28.81100
C  -3.93300 25.66700 29.66600
C  -4.37400 25.25200 31.12500
C  -4.87200 23.78400 31.08300
C  -5.08100 23.69500 29.52300
C  -3.77300 22.76800 31.54800
C  -5.52100 26.22600 31.64100
C  -5.57400 26.58800 33.10500
H  -4.95200 25.54000 34.00700
N  -5.35600 22.89700 26.58000
C  -5.78200 22.19900 27.57400
C  -6.49600 20.95800 27.14300
C  -6.46700 21.01600 25.70800
C  -5.78300 22.27100 25.42900
C  -7.18000 20.03000 28.14000
C  -6.97600 20.02100 24.66900
O  -6.79200 20.06200 23.43400
C  -7.84600 18.88100 25.24600
N  -4.19200 24.89200 24.46300
C  -4.73400 23.90700 23.72200
C  -4.71400 24.25400 22.19400
C  -4.10700 25.72000 22.16200
C  -3.88600 25.94600 23.66000
C  -3.98800 23.21900 21.32500
C  -5.02800 26.78700 21.63000
C  -4.92700 26.95000 20.09500
N  -3.38400 26.51200 26.61500
C  -2.94200 27.36900 25.59500
C  -2.20700 28.47600 26.13600
C  -2.25000 28.28400 27.56000
C  -3.01900 27.12100 27.79000
C  -1.47400 29.44500 25.41300
C  -1.81000 28.73200 28.86600
O  -1.06400 29.65300 29.16200
C  -2.49600 27.81300 29.91800
C  -1.40200 27.42700 30.82000
O  -0.61700 26.50500 30.60900
O  -1.60600 27.90000 32.08800
C  -0.84100 27.24300 33.14300
H  -5.90100 21.87700 29.69400
H  -5.99100 22.28700 23.31700
H  -2.81200 27.83900 23.62200
H  -3.53600 25.37400 31.81100
H  -5.83400 23.59800 31.56100
H  -3.74400 21.95100 30.82600
H  -4.06000 22.30000 32.48900
H  -2.74500 23.12800 31.49600
H  -6.54500 25.92900 31.41300
H  -5.46700 27.14000 31.04900
H  -6.57700 26.63200 33.52900
H  -5.05100 27.54200 33.16400
H  -6.83500 20.11100 29.17100
H  -6.98400 18.99100 27.87500
H  -8.23600 20.27600 28.02700
H  -8.13300 18.29500 24.37300
H  -8.76600 19.38200 25.54900
H  -7.42100 18.27300 26.04500
H  -5.75000 24.33600 21.86500
H  -3.19400 25.63500 21.57300
H  -4.73100 22.73700 20.68900
H  -3.40700 22.57800 21.98800
H  -3.25000 23.66900 20.66100
H  -4.82200 27.71700 22.16000
H  -6.05800 26.55400 21.90000
H  -4.29100 26.18800 19.64500
H  -4.51400 27.92500 19.83500
H  -5.90100 26.87700 19.61300
H  -1.02700 29.10400 24.48000
H  -0.70600 29.87900 26.05300
H  -2.05900 30.32800 25.15200
H  -3.22500 28.30300 30.56400
H  0.19800 27.56700 33.19600
H  -0.86600 26.15400 33.18900
H  -1.34600 27.55300 34.05700

