158

Mg 41.05100 40.89900 26.87500
C  40.40400 43.39700 29.11400
C  42.16500 38.79900 29.33700
C  41.83100 38.74500 24.44200
C  40.71200 43.35700 24.18700
N  41.26700 41.04900 29.00800
C  40.80900 42.15400 29.74900
C  41.05000 41.90600 31.26900
C  41.58900 40.46200 31.28100
C  41.74500 40.06700 29.82300
C  42.90200 40.30200 31.98800
C  39.74800 42.10200 32.21100
C  39.99100 42.01700 33.78000
H  39.18400 42.93500 34.65600
N  41.81300 38.98700 26.93100
C  42.22500 38.29000 28.03300
C  42.59200 36.94600 27.60500
C  42.56000 36.98800 26.16400
C  42.00600 38.28800 25.77000
C  43.01200 35.83000 28.49000
C  43.00600 35.81800 25.22100
O  43.04800 35.98400 23.96600
C  43.27400 34.45100 25.75600
N  40.97300 40.95600 24.60600
C  41.39300 39.91100 23.89000
C  41.39500 40.04000 22.36600
C  40.88200 41.58200 22.33800
C  40.83700 42.01800 23.78100
C  42.70700 39.64300 21.62000
C  39.45200 41.76400 21.65700
C  38.31300 41.37300 22.55700
N  40.67700 42.99500 26.61700
C  40.58800 43.85400 25.52900
C  40.31600 45.15100 26.06000
C  40.18900 45.03500 27.43500
C  40.40700 43.71700 27.70100
C  40.24200 46.43000 25.23800
C  39.94400 45.70200 28.66800
O  39.67300 46.85200 29.00900
C  40.13600 44.69000 29.83500
C  41.38600 45.18600 30.52700
O  42.47900 45.23600 29.98900
O  41.16700 45.47900 31.89800
C  42.29000 45.89400 32.72900
H  42.35400 38.13200 30.18000
H  41.97000 37.95100 23.70500
H  40.63800 44.11300 23.40100
H  41.76500 42.69600 31.50000
H  40.80700 39.88200 31.77100
H  42.70200 39.66500 32.85000
H  43.22000 41.29500 32.30400
H  43.69700 39.87800 31.37500
H  39.06500 41.32000 31.88000
H  39.21900 42.98100 31.84300
H  41.06900 42.00100 33.94400
H  39.66200 40.99000 33.93800
H  42.30800 35.00200 28.57700
H  43.09000 36.21900 29.50500
H  43.97000 35.34800 28.29400
H  42.60200 34.09300 26.53500
H  44.16900 34.57600 26.36500
H  43.33300 33.74800 24.92500
H  40.62600 39.43800 21.88300
H  41.61200 42.11200 21.72600
H  43.51900 39.24500 22.22800
H  43.07900 40.54200 21.13000
H  42.49200 38.91300 20.83900
H  39.57400 41.11400 20.79000
H  39.31700 42.81700 21.41100
H  38.60900 41.04400 23.55300
H  37.73400 40.61700 22.02700
H  37.72300 42.28700 22.62100
H  39.93000 46.25200 24.20900
H  41.24800 46.85000 25.23600
H  39.55400 47.03100 25.83300
H  39.19100 44.84400 30.35700
H  42.27200 45.39300 33.69700
H  42.21700 46.97800 32.82000
H  43.22000 45.49800 32.32100
Mg 9.51300 47.03500 26.24900
C  7.21800 46.82800 28.83700
C  11.78400 48.02800 28.34300
C  11.53600 47.62400 23.61100
C  6.80600 46.73200 24.01500
N  9.48700 47.45000 28.44100
C  8.49200 47.17000 29.31500
C  8.94300 47.39500 30.77500
C  10.37000 47.97400 30.60000
C  10.60600 47.88400 29.04300
C  10.52700 49.41600 31.20300
C  8.75700 46.12300 31.75300
C  9.76100 45.97500 32.91100
H  9.16200 45.46500 34.24900
N  11.43900 47.47700 26.05400
C  12.27700 47.86500 27.04200
C  13.60200 47.94700 26.51700
C  13.54900 47.73600 25.08000
C  12.11200 47.64500 24.86700
C  14.79200 47.96700 27.43800
C  14.64300 47.65600 24.03100
O  14.40600 47.49000 22.82600
C  16.07200 47.45900 24.53200
N  9.20300 47.13000 24.10600
C  10.22500 47.44700 23.23800
C  9.77300 47.36700 21.75900
C  8.24200 47.15100 21.88200
C  8.06300 47.02600 23.41700
C  10.11900 48.71700 21.07300
C  7.68400 45.89900 21.04600
C  6.44500 46.27000 20.21200
N  7.43000 46.93200 26.35200
C  6.47500 46.67300 25.39000
C  5.22900 46.47900 25.95300
C  5.44400 46.50200 27.30900
C  6.83500 46.78200 27.53900
C  3.90700 46.37900 25.32200
C  4.78900 46.32100 28.61200
O  3.69600 45.98600 29.00300
C  6.00500 46.56700 29.68300
C  6.01100 45.37100 30.46800
O  6.76200 44.40900 30.37100
O  5.27700 45.51800 31.58400
C  5.16900 44.44900 32.63900
H  12.61300 47.95900 29.05100
H  12.15700 47.75300 22.72300
H  5.92200 46.52800 23.40800
H  8.19300 48.11700 31.09700
H  11.11400 47.31500 31.04900
H  10.99700 49.29300 32.17900
H  9.55100 49.79300 31.50800
H  10.98100 50.19500 30.59100
H  8.85400 45.23000 31.13600
H  7.77600 46.13300 32.22900
H  10.39500 46.82600 33.16000
H  10.42700 45.17300 32.59200
H  15.30800 48.91300 27.26900
H  15.61000 47.30500 27.15500
H  14.56600 47.92900 28.50400
H  16.78000 47.29500 23.72000
H  16.11800 46.61700 25.22200
H  16.38500 48.36500 25.05200
H  10.26300 46.63300 21.11900
H  7.65700 48.04200 21.65400
H  9.19500 49.23600 20.82000
H  10.67800 48.57000 20.14900
H  10.71200 49.30400 21.77500
H  7.29600 45.16800 21.75600
H  8.40200 45.53000 20.31400
H  6.41100 45.64400 19.32000
H  6.41500 47.34200 20.02000
H  5.49200 46.04800 20.69200
H  4.06900 45.78000 24.42600
H  3.62100 47.38400 25.01100
H  3.11000 45.96300 25.93700
H  5.71300 47.38500 30.34100
H  5.23700 43.48700 32.12900
H  4.16400 44.48700 33.05800
H  5.97700 44.50500 33.36800

