158

Mg -11.07700 38.98200 42.37500
C  -8.79700 36.23100 41.63400
C  -9.02200 41.09700 40.74900
C  -13.55400 41.13200 42.55500
C  -13.34500 36.44600 43.58500
N  -9.18500 38.59200 41.25600
C  -8.46600 37.44100 40.97700
C  -7.31900 37.74800 39.97300
C  -7.33200 39.34200 39.84500
C  -8.60400 39.72800 40.62900
C  -6.12900 40.01500 40.58000
C  -7.41900 36.95600 38.66500
C  -6.14600 36.32900 38.13500
H  -5.47200 37.20400 37.10600
N  -11.18200 40.82900 41.93400
C  -10.20400 41.58600 41.34300
C  -10.57700 42.94000 41.35500
C  -11.87400 43.01700 41.83900
C  -12.26700 41.64600 42.18500
C  -9.68700 44.03800 40.89700
C  -12.68800 44.24700 42.08500
O  -12.14900 45.34000 41.89800
C  -14.16200 44.31400 42.54700
N  -13.18800 38.74100 42.94400
C  -14.03900 39.86700 42.87700
C  -15.48600 39.50500 43.15800
C  -15.46300 37.95400 43.50700
C  -13.90800 37.73200 43.45400
C  -16.02200 40.40000 44.29400
C  -16.24000 37.07800 42.40600
C  -16.75000 35.76300 42.87500
N  -11.10200 36.88200 42.80900
C  -12.00600 36.08400 43.36100
C  -11.47100 34.75900 43.54900
C  -10.22700 34.76800 42.89400
C  -9.99700 36.09100 42.45000
C  -12.06800 33.53300 44.23600
C  -9.00200 33.95300 42.59200
O  -8.75900 32.79400 42.89900
C  -8.17100 34.88300 41.63500
C  -6.74300 34.81300 42.16200
O  -5.94300 33.83100 41.89900
O  -6.52100 35.98100 42.84600
C  -5.12700 36.01800 43.45400
H  -8.57200 41.91900 40.18900
H  -14.39100 41.83200 42.58200
H  -13.95000 35.57700 43.85200
H  -6.42200 37.48900 40.53500
H  -7.43600 39.72800 38.83100
H  -5.39900 39.23800 40.80400
H  -6.29600 40.46000 41.56100
H  -5.78800 40.86600 39.99000
H  -7.68500 37.70000 37.91400
H  -8.11900 36.12100 38.70500
H  -6.38100 35.33800 37.74600
H  -5.51300 36.13200 39.00000
H  -9.87600 44.94200 41.47600
H  -9.81800 44.30700 39.84900
H  -8.62000 43.81700 40.93600
H  -14.41300 45.37300 42.61800
H  -14.29100 44.03200 43.59200
H  -14.73700 43.76300 41.80300
H  -16.01800 39.55000 42.20800
H  -15.98300 37.78900 44.45100
H  -16.00100 39.83800 45.22700
H  -17.04100 40.74900 44.12500
H  -15.39100 41.26400 44.50200
H  -15.63300 36.93800 41.51200
H  -17.04700 37.70200 42.02200
H  -16.33000 35.62500 43.87100
H  -16.26900 35.02000 42.23900
H  -17.83800 35.72200 42.81700
H  -12.30800 33.99600 45.19300
H  -11.48900 32.62100 44.38500
H  -13.02900 33.33000 43.76500
H  -8.23500 34.54400 40.60100
H  -4.43100 36.66100 42.91600
H  -4.69400 35.01800 43.48200
H  -5.26800 36.33200 44.48800
Mg 1.15800 43.39800 26.97000
C  3.74600 43.09200 29.25400
C  -1.21700 43.00200 29.35200
C  -1.13000 42.94100 24.49100
C  3.70300 43.45500 24.35800
N  1.25700 42.89300 29.07700
C  2.37400 43.06100 29.76800
C  2.02400 43.11900 31.25500
C  0.49700 42.86200 31.32400
C  0.13100 42.98800 29.83500
C  0.06800 41.52400 31.83100
C  2.41400 44.50500 31.91100
C  2.02300 44.59000 33.38300
H  1.66300 43.27400 34.14300
N  -0.90900 42.95800 26.90500
C  -1.70400 42.97100 28.00600
C  -3.08300 42.70900 27.55300
C  -3.11800 42.61700 26.13900
C  -1.67200 42.82900 25.78500
C  -4.24200 42.55300 28.53500
C  -4.27500 42.35000 25.20000
O  -4.12100 42.24700 24.00800
C  -5.65800 42.09000 25.71600
N  1.29400 43.25700 24.75000
C  0.18000 43.08600 23.97000
C  0.47300 43.17300 22.50000
C  2.01300 43.44800 22.44400
C  2.40600 43.42300 23.90900
C  -0.04000 42.06400 21.59400
C  2.51200 44.80800 21.81600
C  1.96800 46.11100 22.47100
N  3.27800 43.31500 26.84200
C  4.16300 43.34700 25.68000
C  5.53000 43.28200 26.21600
C  5.40900 43.20800 27.61900
C  4.06500 43.22700 27.92900
C  6.75900 43.45100 25.45400
C  6.16500 43.14600 28.80100
O  7.37400 43.14500 28.90100
C  5.04800 43.16000 29.94900
C  5.32900 42.01600 30.95500
O  4.99600 40.86500 30.68700
O  5.60700 42.49900 32.27600
C  5.51500 41.50100 33.27700
H  -1.99700 43.11700 30.10700
H  -1.89900 42.87000 23.71900
H  4.40800 43.51100 23.52600
H  2.54000 42.22500 31.60300
H  -0.00100 43.68000 31.84500
H  -0.53400 40.98300 31.10200
H  -0.65500 41.48300 32.64600
H  0.95300 40.92000 32.02800
H  1.67200 45.10400 31.38300
H  3.41700 44.89000 31.72700
H  1.20400 45.30700 33.43500
H  2.96700 44.75900 33.90100
H  -3.85300 42.45600 29.54800
H  -4.51400 41.51400 28.34900
H  -5.12800 43.16000 28.35000
H  -5.97700 42.94500 26.31400
H  -5.67600 41.15800 26.28000
H  -6.27100 41.88500 24.83800
H  -0.08400 44.02200 22.10400
H  2.59300 42.61800 22.04000
H  -0.58100 41.33400 22.19600
H  0.75600 41.70000 20.94400
H  -0.74600 42.50900 20.89300
H  2.23100 44.76800 20.76400
H  3.59500 44.79500 21.69500
H  1.36700 46.59800 21.70400
H  2.81500 46.75200 22.71900
H  1.37100 45.89500 23.35800
H  6.68800 44.34000 24.82700
H  7.13700 42.63700 24.83500
H  7.49900 43.69300 26.21700
H  5.26100 44.11500 30.43000
H  4.50100 41.10300 33.23800
H  5.75900 41.94000 34.24500
H  6.11600 40.60300 33.13300

