158

Mg 44.27800 5.23700 47.35300
C  42.16600 8.20700 47.34700
C  41.33500 3.50600 47.14400
C  46.11300 2.77000 46.90700
C  47.00200 7.50200 47.16500
N  42.06100 5.87100 47.24800
C  41.42200 7.06800 47.19100
C  39.88200 6.94700 47.02500
C  39.68500 5.39700 46.94800
C  41.15300 4.86900 47.18300
C  38.64900 4.81400 47.91300
C  39.09800 7.73100 45.88900
C  39.85100 8.09700 44.57100
H  39.07700 7.59900 43.28400
N  43.78700 3.38200 47.01400
C  42.57900 2.82900 47.05700
C  42.77000 1.43900 46.75600
C  44.13300 1.14600 46.64000
C  44.78000 2.46200 46.78400
C  41.55500 0.48700 46.75300
C  44.81700 -0.21200 46.37700
O  44.11500 -1.21000 46.35800
C  46.16500 -0.37100 46.16800
N  46.30100 5.18500 46.97600
C  46.84500 3.93800 47.00100
C  48.40800 3.94500 46.97600
C  48.62200 5.48800 47.17300
C  47.22500 6.14900 47.11400
C  49.00900 3.09600 48.07300
C  49.44800 6.01400 45.97300
C  50.96600 5.78700 46.09700
N  44.59000 7.39700 47.38600
C  45.75900 8.11300 47.28700
C  45.50000 9.51600 47.30200
C  44.09200 9.57300 47.35700
C  43.55300 8.30100 47.43900
C  46.50100 10.63800 46.95800
C  42.96900 10.55100 47.37800
O  42.91500 11.74200 47.26500
C  41.67300 9.65500 47.19000
C  40.55100 10.02100 48.15000
O  40.41200 9.67400 49.27700
O  39.80300 11.07700 47.64200
C  38.86800 11.76100 48.57300
H  40.45200 2.88000 47.00000
H  46.80500 1.92900 46.82100
H  47.82100 8.22500 47.16300
H  39.52700 7.39200 47.95400
H  39.50600 5.19600 45.89200
H  37.88100 5.58800 47.91900
H  39.09000 4.75400 48.90800
H  38.24500 3.88000 47.52300
H  38.72900 8.66100 46.32200
H  38.21600 7.13300 45.66200
H  40.89900 7.80300 44.63100
H  39.80400 9.17800 44.43600
H  41.63400 -0.37400 46.09000
H  40.76000 0.95700 46.17500
H  41.26800 0.30200 47.78800
H  46.56300 0.25800 45.37200
H  46.51900 -1.37100 45.91800
H  46.81300 -0.18100 47.02400
H  48.62900 3.59300 45.96800
H  49.09300 5.65300 48.14200
H  48.21100 2.70500 48.70400
H  49.61900 3.69500 48.75000
H  49.45500 2.18800 47.66800
H  49.26400 7.08000 45.83800
H  49.13700 5.50100 45.06300
H  51.30700 4.99100 45.43400
H  51.30100 5.51900 47.09900
H  51.49100 6.72700 45.93200
H  46.04300 11.57500 47.27200
H  46.69400 10.58300 45.88700
H  47.43400 10.50000 47.50400
H  41.21900 9.89000 46.22700
H  39.50700 11.96900 49.43100
H  38.03200 11.17900 48.96100
H  38.47600 12.64800 48.07600
Mg -1.52000 33.42900 27.20600
C  -3.63200 32.06300 29.79600
C  -0.15400 35.39600 29.68300
C  -0.21400 35.39400 24.88500
C  -3.34800 31.62600 24.94800
N  -1.83800 33.61100 29.54500
C  -2.67500 32.95600 30.33600
C  -2.41600 33.33000 31.78600
C  -1.49100 34.63600 31.71600
C  -1.14500 34.56300 30.23100
C  -2.12400 36.04000 32.05800
C  -1.73300 32.11200 32.54700
C  -2.54000 31.49200 33.67600
H  -1.81000 31.27900 34.99000
N  -0.13200 35.10900 27.30400
C  0.30300 35.72800 28.37200
C  1.26600 36.72600 27.91700
C  1.21100 36.85800 26.52100
C  0.23600 35.76500 26.17500
C  2.12400 37.46800 28.94100
C  1.83300 37.84300 25.52100
O  1.54300 37.78000 24.34400
C  2.67200 38.94000 26.04600
N  -1.72300 33.44600 25.19700
C  -1.01800 34.37200 24.42600
C  -1.33700 34.25100 22.93400
C  -2.10000 32.88400 22.93100
C  -2.37000 32.50300 24.42100
C  -2.13600 35.46000 22.34400
C  -1.31600 31.87300 22.08500
C  0.06200 31.50300 22.59900
N  -3.04300 32.07500 27.30900
C  -3.76700 31.48000 26.30700
C  -4.83200 30.63400 26.77000
C  -4.80000 30.81200 28.15400
C  -3.73800 31.74300 28.44500
C  -5.78300 29.83200 25.88100
C  -5.43400 30.38600 29.35900
O  -6.27700 29.47200 29.52500
C  -4.75600 31.16900 30.50300
C  -5.85900 31.90800 31.30700
O  -6.81300 32.43400 30.83500
O  -5.64100 31.68400 32.63300
C  -6.59800 32.14100 33.56300
H  0.33200 35.95300 30.48700
H  0.12200 36.03400 24.06700
H  -3.87400 31.16700 24.10800
H  -3.36000 33.61200 32.25200
H  -0.55700 34.69600 32.27500
H  -2.53100 36.66500 31.26300
H  -1.34100 36.64000 32.52300
H  -2.93800 35.88900 32.76800
H  -0.75000 32.39000 32.92700
H  -1.49900 31.38100 31.77300
H  -2.68500 30.46400 33.34300
H  -3.42800 32.07700 33.91400
H  3.11400 37.42200 28.48700
H  2.17400 36.91300 29.87800
H  1.92400 38.52500 29.11300
H  3.04500 39.49600 25.18600
H  3.49800 38.64700 26.69400
H  2.14100 39.67500 26.65200
H  -0.40500 34.09400 22.39100
H  -3.08000 32.94500 22.45900
H  -3.00600 35.16400 21.75800
H  -1.60400 36.11500 21.65500
H  -2.44300 35.99800 23.24100
H  -1.18400 32.14000 21.03700
H  -2.04700 31.06500 22.05900
H  0.46600 32.08200 23.43000
H  0.84300 31.51800 21.83900
H  0.07800 30.43200 22.80000
H  -6.79300 30.23900 25.83000
H  -5.77000 28.86200 26.37800
H  -5.41700 29.71800 24.86100
H  -4.23000 30.43700 31.11500
H  -6.11400 32.42200 34.49900
H  -7.35500 31.40900 33.84400
H  -7.11000 33.06600 33.29800

