158

Mg 35.06500 3.48300 29.30100
C  32.64200 4.37600 31.71700
C  37.27300 2.93500 31.85900
C  37.19500 2.31600 27.07100
C  32.69100 3.96700 26.87500
N  34.94000 3.79200 31.48200
C  33.87800 4.22900 32.29300
C  34.28200 4.24800 33.80300
C  35.84800 4.10100 33.75600
C  36.10600 3.62200 32.25500
C  36.66900 5.36500 33.99700
C  33.62600 3.17700 34.73400
C  33.26900 3.56700 36.23700
H  34.06800 4.83700 36.69500
N  36.99800 2.74800 29.42900
C  37.69400 2.47200 30.58600
C  38.95700 1.84500 30.27600
C  39.01000 1.62900 28.82100
C  37.68900 2.20200 28.37200
C  40.08400 1.61100 31.27200
C  40.09600 1.06000 27.88300
O  39.98900 1.10400 26.64300
C  41.36400 0.49400 28.32700
N  34.93700 3.14000 27.28400
C  36.03400 2.80300 26.55400
C  35.81100 3.06700 25.00900
C  34.25100 3.25800 24.96600
C  33.93200 3.46300 26.45900
C  36.50000 4.32500 24.49900
C  33.46500 2.11800 24.29500
C  32.96000 0.94500 25.03700
N  33.04100 4.09900 29.22600
C  32.23300 4.25500 28.13700
C  30.97000 4.83300 28.58200
C  31.08100 4.77800 30.00500
C  32.38300 4.31600 30.30400
C  29.85900 5.19400 27.66000
C  30.34600 4.93900 31.26800
O  29.16600 5.23300 31.43400
C  31.33800 4.65000 32.40700
C  31.41600 5.90000 33.23100
O  31.88000 6.97800 32.90300
O  30.85800 5.70600 34.52600
C  30.80600 6.88400 35.38900
H  37.81000 2.62100 32.75700
H  37.82400 1.87000 26.29800
H  31.92700 4.07400 26.10100
H  34.03500 5.24900 34.15700
H  36.14000 3.37300 34.51200
H  37.00600 5.72800 33.02600
H  37.55800 5.09100 34.56600
H  36.12500 6.19400 34.45000
H  34.19500 2.25700 34.87000
H  32.77900 2.75300 34.19400
H  33.62100 2.73200 36.84300
H  32.20000 3.64300 36.43300
H  39.59300 1.54100 32.24300
H  40.65200 2.53800 31.35100
H  40.61800 0.67000 31.13800
H  42.04800 1.14700 28.87000
H  41.90600 0.39300 27.38700
H  41.15100 -0.50400 28.71000
H  36.13200 2.13900 24.53600
H  34.06100 4.16800 24.39600
H  35.92800 5.16700 24.10800
H  37.05100 3.78100 23.73200
H  37.19700 4.67100 25.26300
H  34.08500 1.78800 23.46200
H  32.59100 2.62500 23.88800
H  33.38100 0.96900 26.04200
H  33.34000 -0.01000 24.67600
H  31.87300 0.86900 25.08200
H  29.12100 5.76100 28.22800
H  29.36900 4.24300 27.45100
H  30.14900 5.57300 26.68000
H  30.98700 3.88700 33.10100
H  31.76200 7.40600 35.43700
H  30.50800 6.47000 36.35200
H  30.10300 7.63600 35.03100
Mg 53.09000 25.02100 43.28100
C  50.77600 27.52600 42.71300
C  50.88700 22.68100 41.99800
C  55.64300 22.74600 42.81300
C  55.54200 27.43600 44.09500
N  51.09800 25.10300 42.45900
C  50.24700 26.20500 42.43700
C  48.87600 25.89800 41.93000
C  48.85900 24.25000 41.91000
C  50.33500 23.97800 42.21200
C  47.97100 23.65700 43.11900
C  48.45800 26.38000 40.48100
C  49.54700 26.29300 39.36400
H  49.33700 25.55200 38.08400
N  53.23200 22.95800 42.59000
C  52.19900 22.13500 42.27500
C  52.64300 20.82800 41.95200
C  54.01200 20.81700 42.05300
C  54.35100 22.21000 42.58800
C  51.72500 19.66900 41.52600
C  54.94800 19.65400 41.88200
O  54.54200 18.58700 41.49200
C  56.46400 19.73200 42.14800
N  55.23700 25.15600 43.49600
C  56.06600 24.03200 43.23500
C  57.64000 24.41200 43.55200
C  57.43500 25.86900 44.10800
C  55.96200 26.21800 43.83300
C  58.37300 23.43900 44.53100
C  58.54100 26.78200 43.50400
C  59.39700 27.55500 44.60000
N  53.16600 27.07100 43.45600
C  54.20000 27.92100 43.83200
C  53.58700 29.19800 44.14300
C  52.33900 29.10300 43.56200
C  52.08000 27.79100 43.25400
C  54.29300 30.43900 44.65900
C  51.05400 29.78400 43.37100
O  50.73200 30.93800 43.56800
C  50.04500 28.76700 42.76300
C  49.57500 29.38500 41.44800
O  50.31000 29.55100 40.41300
O  48.20400 29.66400 41.51800
C  47.56300 30.16000 40.33300
H  50.10100 21.99700 41.67200
H  56.52900 22.11400 42.71800
H  56.27700 28.11800 44.52800
H  48.20700 26.21100 42.73100
H  48.47000 23.79800 40.99800
H  47.62700 24.48600 43.73700
H  48.55600 22.93000 43.68300
H  47.12400 23.15300 42.65500
H  48.05900 27.39400 40.44400
H  47.59300 25.78100 40.19600
H  50.40500 25.78800 39.80800
H  49.87200 27.25400 38.96600
H  52.00500 19.27400 40.54900
H  50.71500 20.01000 41.29800
H  51.70900 18.79400 42.17600
H  56.95500 18.79900 41.87400
H  56.61600 20.12700 43.15200
H  56.79600 20.49600 41.44400
H  58.18700 24.33900 42.61200
H  57.58600 25.95700 45.18400
H  57.78000 22.54300 44.71800
H  58.50600 23.97300 45.47200
H  59.33600 23.18400 44.09000
H  58.07800 27.54000 42.87100
H  59.20400 26.24600 42.82500
H  59.08600 28.59900 44.55000
H  60.46900 27.41600 44.46000
H  59.17400 27.37700 45.65200
H  55.08600 30.69800 43.95800
H  54.74000 30.18100 45.62000
H  53.55100 31.23100 44.75300
H  49.15000 28.65200 43.37400
H  47.52900 29.41200 39.54000
H  48.16100 31.01900 40.02800
H  46.56500 30.52100 40.58300

