158

Mg 48.41400 34.74800 26.55600
C  46.78700 33.46700 29.51100
C  48.93200 37.67200 28.48000
C  49.36500 36.34800 23.84000
C  47.41600 32.03100 24.93700
N  48.04500 35.41800 28.77200
C  47.39400 34.67300 29.79400
C  47.65500 35.32500 31.11700
C  47.76400 36.81000 30.55100
C  48.33700 36.66000 29.17000
C  46.54500 37.75400 30.56700
C  48.99000 34.76900 31.72900
C  48.97400 34.70800 33.32000
H  47.99800 35.55700 34.01000
N  49.12200 36.70500 26.21300
C  49.29700 37.73500 27.12500
C  50.01300 38.80800 26.52400
C  50.23700 38.41000 25.17000
C  49.52600 37.11800 24.95400
C  50.54300 40.04400 27.31000
C  50.95400 39.19000 24.07200
O  51.03100 38.74600 22.92200
C  51.47700 40.55700 24.33700
N  48.08500 34.35800 24.55300
C  48.86300 35.02500 23.63900
C  48.96800 34.21900 22.31000
C  48.21400 32.87000 22.66700
C  47.98700 33.08500 24.14500
C  48.43800 35.03300 21.03700
C  48.98300 31.51900 22.22100
C  50.48400 31.39100 22.62800
N  47.18900 33.13700 27.00500
C  46.94400 32.01200 26.23200
C  46.24700 30.97300 26.98700
C  46.01000 31.57600 28.27200
C  46.70300 32.86600 28.24000
C  45.82500 29.58600 26.64500
C  45.40300 31.49900 29.54500
O  44.76300 30.57200 30.01300
C  45.72900 32.82500 30.31700
C  45.86200 32.62200 31.73100
O  46.91000 32.32100 32.30000
O  44.61900 32.66700 32.31000
C  44.53000 31.95400 33.57600
H  48.91800 38.58900 29.07400
H  49.80800 36.76800 22.93500
H  47.22600 31.11700 24.36900
H  46.77900 35.27900 31.76400
H  48.46500 37.29400 31.23100
H  46.09800 37.85500 29.57800
H  46.80300 38.78100 30.82800
H  45.83700 37.29200 31.25500
H  49.89700 35.28000 31.40500
H  49.11100 33.73700 31.40000
H  49.94200 35.02600 33.70500
H  48.76800 33.69400 33.66400
H  51.62100 39.99100 27.46700
H  49.89700 40.15800 28.18100
H  50.30300 41.00700 26.85900
H  50.74500 41.19000 24.84000
H  51.82100 40.96700 23.38700
H  52.39000 40.44400 24.92200
H  50.03500 34.09500 22.12900
H  47.25900 32.88800 22.14200
H  48.20900 36.02000 21.44000
H  47.50400 34.69800 20.58500
H  49.21500 35.18600 20.28800
H  48.87700 31.40100 21.14200
H  48.42800 30.66300 22.60500
H  51.07300 31.35300 21.71200
H  50.73300 30.48900 23.18700
H  50.82100 32.27500 23.16900
H  46.32400 29.48000 25.68200
H  44.76300 29.34500 26.68900
H  46.40700 28.90500 27.26600
H  44.89200 33.51800 30.22900
H  44.74700 30.91100 33.34700
H  43.52800 31.96900 34.00400
H  45.14400 32.39900 34.35900
Mg 26.66100 50.10900 26.71800
C  24.65400 51.15400 29.32300
C  28.90300 49.06700 29.12000
C  28.69400 49.18000 24.25100
C  24.24400 51.11800 24.45700
N  26.74000 50.11800 29.02200
C  25.78900 50.59200 29.86600
C  25.99800 50.10000 31.29500
C  27.51600 49.68700 31.30400
C  27.74900 49.60200 29.74000
C  28.48300 50.71900 31.92800
C  24.97700 49.17200 31.86600
C  24.37600 49.40500 33.25500
H  24.54600 48.52100 34.48000
N  28.52300 49.28100 26.71200
C  29.35300 48.94000 27.76500
C  30.62100 48.48700 27.29200
C  30.56600 48.58600 25.84700
C  29.22200 49.00700 25.51200
C  31.66300 47.99400 28.23700
C  31.63700 48.43300 24.90600
O  31.47700 48.52900 23.72800
C  33.03800 48.13200 25.32900
N  26.51200 50.21300 24.63400
C  27.44000 49.67600 23.83100
C  27.00100 49.73200 22.31800
C  25.54900 50.34700 22.46300
C  25.38200 50.56200 23.91900
C  27.96600 50.56100 21.44900
C  24.36400 49.56400 21.86300
C  23.63900 48.48700 22.56500
N  24.89400 51.01400 26.78900
C  23.96000 51.36800 25.82700
C  22.89200 52.03800 26.44700
C  23.09700 51.97200 27.82200
C  24.36100 51.36600 27.95900
C  21.76200 52.64100 25.68200
C  22.50200 52.33300 29.06600
O  21.49900 52.99300 29.33200
C  23.44600 51.61400 30.07800
C  23.90800 52.53600 31.18300
O  24.84400 53.30600 31.08300
O  23.04900 52.40400 32.22600
C  23.30500 53.42700 33.34400
H  29.58300 48.73300 29.90600
H  29.23500 48.77600 23.39300
H  23.43300 51.44700 23.80300
H  26.01100 51.01800 31.88300
H  27.66300 48.69600 31.73400
H  28.70700 50.50000 32.97200
H  28.05900 51.67700 31.62900
H  29.46300 50.73500 31.45000
H  25.54500 48.25300 32.01200
H  24.20500 49.05900 31.10400
H  23.32700 49.63700 33.07300
H  24.81500 50.33600 33.61400
H  31.67900 48.64900 29.10800
H  32.71400 47.99700 27.94700
H  31.35800 47.05600 28.70100
H  33.31900 48.70100 26.21500
H  33.72300 48.30200 24.49900
H  32.95900 47.06600 25.54500
H  26.94300 48.71000 21.94200
H  25.65800 51.39100 22.17000
H  28.44300 49.85800 20.76500
H  28.76700 50.96900 22.06500
H  27.54200 51.34900 20.82600
H  24.65800 49.06900 20.93700
H  23.60200 50.29400 21.59200
H  23.70500 47.52200 22.06300
H  22.57400 48.69700 22.66300
H  23.98000 48.34800 23.59100
H  21.36000 51.88800 25.00400
H  21.93600 53.59200 25.17700
H  21.04800 52.84200 26.48000
H  22.94500 50.81700 30.62900
H  22.31200 53.73200 33.67300
H  23.89600 54.28900 33.03500
H  23.82800 52.82800 34.09000

