158

Mg 0.29000 7.21200 26.09500
C  0.89400 9.25700 28.93800
C  0.65800 4.41900 28.21700
C  0.25000 5.25500 23.37500
C  0.33700 10.09300 24.02600
N  0.76600 6.86900 28.40000
C  0.97300 7.89400 29.26000
C  1.08300 7.26500 30.66500
C  1.31700 5.67300 30.40900
C  0.91200 5.64300 28.94900
C  2.80100 5.22000 30.73400
C  -0.14800 7.57300 31.49900
C  0.08600 7.86800 32.96300
H  1.32700 7.23700 33.59100
N  0.36400 5.08900 25.79000
C  0.43400 4.17900 26.82000
C  0.33900 2.87500 26.20700
C  0.41300 3.06000 24.79200
C  0.33300 4.47500 24.57600
C  0.13600 1.58300 26.98700
C  0.39400 2.04300 23.66200
O  0.37900 2.31800 22.46600
C  0.47100 0.52200 23.98200
N  0.26900 7.62200 24.01200
C  0.14800 6.62300 23.10900
C  -0.25400 7.24100 21.70200
C  -0.21900 8.70900 21.92600
C  0.04700 8.83100 23.44100
C  0.73100 6.81400 20.60200
C  -1.43200 9.52700 21.51300
C  -1.14500 10.49300 20.33900
N  0.62200 9.21100 26.39800
C  0.56500 10.29800 25.45100
C  0.80000 11.50100 26.13800
C  0.91000 11.18400 27.54100
C  0.79600 9.76800 27.63500
C  0.90700 12.89500 25.49200
C  1.05600 11.71900 28.90800
O  1.30500 12.84300 29.22400
C  0.99000 10.49200 29.88100
C  2.14700 10.61600 30.73300
O  3.32500 10.53200 30.32300
O  1.77200 10.93400 32.05600
C  2.82600 10.96700 33.06800
H  0.73400 3.54800 28.87100
H  0.13600 4.61800 22.49500
H  0.32400 11.02400 23.45600
H  2.06100 7.61400 30.99500
H  0.66100 5.09000 31.05500
H  3.38800 5.95300 31.28700
H  3.35000 4.88900 29.85200
H  2.64700 4.37200 31.40100
H  -0.82200 6.72700 31.63600
H  -0.67200 8.41900 31.05500
H  -0.78500 7.46700 33.48000
H  0.19700 8.94100 33.11900
H  -0.76600 1.07300 26.64700
H  -0.07600 1.65700 28.05400
H  1.05100 1.00400 26.86700
H  0.91000 0.01800 23.12100
H  -0.58000 0.24300 24.06100
H  1.12600 0.38400 24.84200
H  -1.29200 6.95000 21.54600
H  0.64300 9.20600 21.48100
H  1.71800 6.74800 21.06000
H  0.64600 7.58200 19.83400
H  0.55900 5.77700 20.31400
H  -1.73800 10.07400 22.40500
H  -2.26400 8.91200 21.16900
H  -2.08000 10.71500 19.82500
H  -0.55000 10.02900 19.55200
H  -0.66400 11.42000 20.65200
H  -0.15200 13.14900 25.43500
H  1.42500 12.87100 24.53400
H  1.36800 13.61900 26.16400
H  0.17100 10.68300 30.57400
H  2.84800 12.00800 33.39100
H  3.76800 10.52500 32.74200
H  2.36900 10.33100 33.82600
Mg 47.93800 35.48800 28.77200
C  46.04300 33.30200 30.85400
C  47.40700 37.97200 31.20000
C  49.01700 37.81300 26.67600
C  47.39100 33.21500 26.07500
N  46.87400 35.55500 30.81700
C  46.38000 34.50700 31.50200
C  46.32400 34.91700 33.00700
C  46.18400 36.44900 32.96100
C  46.83900 36.69200 31.57400
C  44.83800 37.08600 33.29400
C  47.65200 34.22800 33.64400
C  47.58700 33.85500 35.16700
H  46.56400 34.65500 35.91200
N  48.54800 37.50000 29.01900
C  48.22800 38.33100 30.07200
C  48.91800 39.62400 29.84000
C  49.46300 39.54400 28.51300
C  48.93500 38.26400 27.97000
C  49.00500 40.61200 30.94900
C  50.53700 40.45200 27.94000
O  51.14700 40.17900 26.88100
C  51.04600 41.74800 28.67000
N  48.17000 35.48200 26.53800
C  48.70700 36.57900 25.98600
C  48.83900 36.27400 24.49800
C  48.52500 34.75000 24.34300
C  48.02100 34.44600 25.71400
C  47.94300 37.14700 23.58300
C  49.68800 33.78800 24.00700
C  50.78400 33.47600 25.00600
N  47.01900 33.67400 28.47800
C  46.91700 32.78200 27.33800
C  46.25800 31.56100 27.72300
C  46.00600 31.62500 29.13500
C  46.43500 33.01700 29.51300
C  46.01300 30.34400 26.87500
C  45.38600 30.99500 30.33100
O  44.77000 29.96700 30.47100
C  45.42900 31.99500 31.43700
C  45.95200 31.48000 32.77700
O  47.10500 31.02900 33.03100
O  44.95000 31.45100 33.70900
C  45.26700 30.90800 34.99900
H  47.13800 38.71100 31.95800
H  49.37400 38.45900 25.87100
H  47.35400 32.48600 25.26300
H  45.50300 34.44200 33.54300
H  46.88800 36.68100 33.76000
H  44.32000 37.65600 32.52300
H  44.99100 37.74400 34.14900
H  44.04000 36.41400 33.60900
H  48.54300 34.83800 33.49400
H  47.88200 33.34900 33.04200
H  48.56100 34.10700 35.58500
H  47.41700 32.81100 35.43000
H  48.73400 41.62300 30.64400
H  50.06500 40.58700 31.20500
H  48.34900 40.31700 31.76800
H  51.99100 42.05800 28.22400
H  51.23900 41.61400 29.73400
H  50.33000 42.55800 28.53600
H  49.89100 36.45800 24.27800
H  47.73200 34.58900 23.61300
H  47.49800 37.97600 24.13300
H  47.09900 36.62500 23.13200
H  48.62400 37.37500 22.76300
H  50.20100 34.26900 23.17400
H  49.24800 32.82900 23.73300
H  51.65200 33.24400 24.38700
H  50.34100 32.73200 25.66700
H  50.98400 34.32700 25.65700
H  45.26400 30.46400 26.09200
H  45.60500 29.52300 27.46600
H  46.88000 29.97500 26.32800
H  44.37500 32.17500 31.64900
H  44.40500 30.39800 35.42800
H  45.54500 31.74200 35.64300
H  46.04900 30.14900 34.96200

