158

Mg 16.14600 51.16400 26.04900
C  18.36600 50.33600 28.61600
C  13.49200 51.24900 28.23900
C  13.96700 51.16000 23.32500
C  18.72200 50.35800 23.76300
N  15.93600 50.82100 28.12900
C  17.02700 50.69500 28.96300
C  16.67000 51.04800 30.38800
C  15.11400 50.90900 30.31600
C  14.79700 51.04900 28.81000
C  14.61300 49.64800 31.07800
C  17.21200 52.41400 30.95200
C  17.42900 52.48100 32.52600
H  16.56900 51.51900 33.43500
N  14.09200 51.37200 25.82300
C  13.18900 51.41100 26.91100
C  11.84700 51.42500 26.30400
C  11.95000 51.42200 24.86600
C  13.34900 51.34300 24.64500
C  10.65800 51.52200 27.22200
C  10.79300 51.35200 23.87900
O  11.00200 51.35900 22.64000
C  9.39200 51.13000 24.38700
N  16.32700 50.70300 23.85000
C  15.28900 50.97400 22.96800
C  15.82000 50.99200 21.55400
C  17.37300 50.94600 21.73600
C  17.48600 50.56600 23.17300
C  15.18500 49.79900 20.62800
C  18.18400 52.23100 21.32400
C  19.21400 52.08400 20.17100
N  18.14500 50.54800 26.15700
C  19.10100 50.33300 25.16600
C  20.35600 49.90600 25.80400
C  20.09300 49.97100 27.17800
C  18.74900 50.34900 27.31000
C  21.55000 49.57200 25.12500
C  20.72900 49.74100 28.48400
O  21.86400 49.32700 28.84200
C  19.57900 50.15100 29.55400
C  19.46000 48.98300 30.42900
O  19.26800 47.85400 30.06100
O  19.54700 49.37800 31.71000
C  19.37300 48.31700 32.65000
H  12.75000 51.21600 29.04000
H  13.35300 51.30900 22.43400
H  19.49200 50.22100 23.00100
H  17.10200 50.29500 31.04700
H  14.69800 51.70800 30.92900
H  13.81400 49.96600 31.74800
H  15.43300 49.19700 31.63700
H  14.22900 49.05100 30.25100
H  16.62400 53.27300 30.62800
H  18.16100 52.61700 30.45600
H  17.24300 53.53200 32.75000
H  18.51200 52.38200 32.60800
H  10.05200 50.61800 27.16000
H  9.98800 52.36100 27.03200
H  10.87700 51.63000 28.28400
H  8.93200 51.93900 24.95500
H  9.44500 50.21100 24.97100
H  8.82100 50.83300 23.50700
H  15.43800 51.93300 21.15900
H  17.81700 50.13500 21.16000
H  14.46600 49.20700 21.19500
H  16.02300 49.21900 20.24200
H  14.73300 50.25700 19.74800
H  18.56800 52.86500 22.12300
H  17.54800 52.94900 20.80600
H  18.68700 52.41100 19.27400
H  19.54400 51.04500 20.16500
H  20.05600 52.77000 20.25500
H  21.39400 48.60100 24.65500
H  22.50700 49.58400 25.64800
H  21.76800 50.23200 24.28600
H  19.75600 51.06400 30.12200
H  20.26700 47.70400 32.54000
H  18.44000 47.75400 32.69500
H  19.51100 48.84700 33.59200
Mg -0.91700 33.52400 26.67100
C  -2.48500 31.97900 29.52200
C  0.68900 35.45300 28.80500
C  -0.14100 35.31500 24.03500
C  -2.78800 31.31900 24.63000
N  -0.96700 33.65100 28.95100
C  -1.57400 32.97400 29.91500
C  -1.08200 33.18500 31.30100
C  -0.06800 34.40000 31.12100
C  -0.05300 34.57000 29.53000
C  -0.30000 35.71600 31.98900
C  -0.43700 31.93800 31.98200
C  -1.06100 31.55700 33.38100
H  -0.26000 32.09100 34.66500
N  0.12400 35.21400 26.50800
C  0.76700 35.85800 27.46300
C  1.53500 36.92500 26.91500
C  1.23300 36.91700 25.53600
C  0.37100 35.75400 25.31300
C  2.37600 37.83900 27.77000
C  1.71400 37.80000 24.43300
O  1.36400 37.73000 23.24600
C  2.66000 38.84600 24.84400
N  -1.65800 33.49800 24.55800
C  -0.99900 34.26800 23.66800
C  -1.47500 33.91500 22.27600
C  -2.09500 32.51500 22.46900
C  -2.22300 32.41000 23.96200
C  -2.42100 34.92800 21.67900
C  -1.23600 31.27300 21.95000
C  0.22200 31.07100 22.30500
N  -2.32700 31.95400 26.97700
C  -2.94700 31.14800 26.02900
C  -3.75200 30.24500 26.72400
C  -3.68400 30.54300 28.09400
C  -2.73800 31.58000 28.23300
C  -4.77400 29.29400 26.10200
C  -4.19900 30.28800 29.46400
O  -5.00900 29.49600 29.82800
C  -3.34800 31.14800 30.46500
C  -4.33200 31.91400 31.22800
O  -5.07200 32.82300 30.75900
O  -4.29400 31.62700 32.52900
C  -5.23900 32.43400 33.28800
H  1.46500 35.89600 29.43200
H  0.08700 35.82100 23.09500
H  -3.07900 30.52900 23.93400
H  -1.94000 33.49500 31.89900
H  0.98400 34.14100 31.24600
H  -0.66800 36.46600 31.29000
H  0.68600 36.03900 32.32400
H  -0.90500 35.53000 32.87700
H  0.60600 32.17500 32.19100
H  -0.50400 31.10600 31.28000
H  -1.04300 30.47500 33.50800
H  -2.04400 32.00700 33.52000
H  3.44700 37.67300 27.88600
H  2.03600 37.82300 28.80600
H  2.02100 38.80900 27.42200
H  2.94500 39.43000 23.96900
H  3.58800 38.35300 25.13400
H  2.20100 39.52600 25.56200
H  -0.65100 33.81200 21.57100
H  -3.06800 32.47600 21.97800
H  -1.94000 35.83300 21.30700
H  -3.12500 35.18100 22.47300
H  -3.03300 34.49000 20.89100
H  -1.25600 31.44100 20.87300
H  -1.80100 30.36500 22.16300
H  0.47600 31.90200 22.96300
H  0.84100 31.22700 21.42200
H  0.30800 30.13600 22.85900
H  -4.82400 29.33000 25.01300
H  -5.81600 29.48800 26.35300
H  -4.59200 28.29800 26.50600
H  -2.80000 30.44800 31.09600
H  -6.27000 32.08300 33.23500
H  -5.20200 33.49800 33.05400
H  -5.05800 32.34600 34.35900

