158

Mg 1.90400 7.71800 26.55100
C  2.49100 9.51000 29.45900
C  2.01200 4.85100 28.37700
C  2.07100 6.20800 23.67400
C  2.39400 10.83100 24.71600
N  2.03000 7.25900 28.82000
C  2.35200 8.13700 29.81100
C  2.35200 7.39700 31.18900
C  2.27600 5.91100 30.68500
C  2.08900 5.99700 29.18600
C  3.49800 5.00900 31.02900
C  1.09900 7.88600 32.05900
C  1.39800 7.97900 33.57600
H  2.36000 7.06100 34.09700
N  1.94400 5.77600 26.09200
C  1.89300 4.72200 26.96000
C  1.98800 3.54600 26.15100
C  1.86200 3.90500 24.81600
C  1.98900 5.38400 24.79500
C  2.06400 2.17700 26.77300
C  1.77100 2.99900 23.64400
O  1.71200 3.46600 22.53500
C  1.91800 1.45500 23.78800
N  1.89900 8.42100 24.40400
C  2.00900 7.53100 23.45200
C  2.34700 8.21500 22.08100
C  2.08800 9.69700 22.39900
C  2.10600 9.69500 23.93400
C  3.76300 7.86600 21.60900
C  0.71900 10.36000 21.95300
C  0.93800 11.76200 21.33600
N  2.38200 9.68500 26.89200
C  2.50200 10.86900 26.11000
C  2.80800 11.99800 26.94600
C  2.88500 11.53700 28.22700
C  2.54400 10.14700 28.20000
C  2.83000 13.54400 26.57500
C  3.10000 11.92800 29.59700
O  3.56600 12.98400 30.04800
C  2.68800 10.66100 30.47800
C  3.81100 10.40300 31.37600
O  4.63800 9.55500 31.17700
O  3.79500 11.36800 32.40400
C  4.94500 11.40500 33.36300
H  2.07400 3.88600 28.88400
H  2.27600 5.62000 22.77700
H  2.54200 11.74400 24.13400
H  3.29300 7.61400 31.69400
H  1.47400 5.39000 31.20900
H  4.30500 5.58900 31.47600
H  3.92200 4.37400 30.25100
H  3.18500 4.37100 31.85600
H  0.22400 7.28800 31.80700
H  0.82100 8.89200 31.74500
H  0.48600 7.88400 34.16500
H  1.77500 8.96400 33.85000
H  2.23400 2.23400 27.84800
H  2.80300 1.47300 26.38900
H  1.04700 1.78900 26.71900
H  2.89400 1.12700 24.14500
H  1.71200 1.09200 22.78100
H  1.02500 1.14400 24.33000
H  1.66600 7.96300 21.26800
H  2.87400 10.24100 21.87500
H  3.97600 6.79800 21.57200
H  4.47300 8.32400 22.29800
H  3.84900 8.30900 20.61700
H  0.00800 10.55500 22.75600
H  0.22400 9.79500 21.16300
H  1.12500 11.60500 20.27400
H  1.83700 12.26800 21.68700
H  0.10600 12.45100 21.48000
H  3.01300 13.57600 25.50100
H  3.72700 13.95300 27.04100
H  1.94600 14.13600 26.81100
H  1.73300 10.82200 30.97900
H  4.79900 10.85400 34.29300
H  5.03900 12.45700 33.63400
H  5.83800 11.08000 32.83000
Mg 34.49000 49.41000 25.47400
C  34.65800 47.63800 28.58000
C  33.17200 52.07800 27.18400
C  34.01000 50.74200 22.52100
C  34.98400 46.31900 23.83800
N  33.94200 49.75600 27.58800
C  34.23700 48.93400 28.71600
C  34.04300 49.65800 30.03400
C  33.38200 51.01500 29.58000
C  33.50600 50.97100 28.05800
C  31.95200 51.29600 30.10500
C  35.24200 49.79300 31.02600
C  35.05300 49.42600 32.53700
H  33.55500 49.58600 33.11700
N  33.75300 51.20100 24.95000
C  33.21900 52.16200 25.77700
C  32.71500 53.25000 24.96600
C  33.12200 52.96200 23.60500
C  33.68700 51.59200 23.67000
C  31.69000 54.20700 25.55200
C  32.83200 53.76500 22.32400
O  33.25300 53.43100 21.22300
C  31.89400 54.96800 22.44600
N  34.40200 48.60000 23.40600
C  34.24300 49.39400 22.35500
C  34.44800 48.73400 20.94600
C  34.79300 47.28700 21.47400
C  34.74300 47.38200 23.01500
C  33.28500 48.72500 19.92800
C  36.22800 46.93900 21.05900
C  37.47400 47.55900 21.78600
N  34.86300 47.37600 26.02900
C  35.01700 46.20600 25.26900
C  35.22000 45.08800 26.12300
C  35.07400 45.55400 27.41200
C  34.86900 46.95800 27.30400
C  35.60500 43.66800 25.65700
C  35.17000 45.21500 28.81700
O  35.35900 44.15100 29.40400
C  34.81000 46.51000 29.58700
C  33.51700 46.16100 30.33300
O  32.42700 46.15400 29.79000
O  33.75200 45.74500 31.62500
C  32.52800 45.61700 32.44500
H  32.78100 52.94600 27.71800
H  33.84600 51.30800 21.60100
H  35.18800 45.31200 23.46700
H  33.28300 49.00500 30.46300
H  33.97400 51.79400 30.06100
H  31.47100 50.36600 30.40600
H  31.26400 51.75700 29.39700
H  31.95200 51.86600 31.03400
H  35.55800 50.83600 31.03200
H  36.00100 49.15600 30.57200
H  35.64900 50.14100 33.10400
H  35.47100 48.47800 32.87500
H  30.82400 54.47800 24.94900
H  32.13400 55.13200 25.92100
H  31.24200 53.79300 26.45500
H  32.26700 55.60600 23.24700
H  30.89100 54.55700 22.56500
H  32.01600 55.52200 21.51600
H  35.30000 49.15600 20.41300
H  34.10000 46.46800 21.28000
H  32.36500 49.05800 20.40700
H  33.25900 47.73100 19.48100
H  33.51700 49.31400 19.04100
H  36.42500 47.14600 20.00700
H  36.18200 45.85800 21.18500
H  37.27500 48.61200 21.98600
H  38.32100 47.51600 21.10200
H  37.69500 47.02600 22.71100
H  36.45300 43.30500 26.23800
H  35.87200 43.61900 24.60100
H  34.80300 42.97400 25.90900
H  35.51900 46.62900 30.40600
H  32.24200 44.56500 32.46900
H  31.70000 46.25300 32.13300
H  32.77100 45.87500 33.47600

