158

Mg 7.85500 3.23500 27.37500
C  9.37300 1.96100 30.16300
C  6.01600 5.34300 29.41200
C  6.17100 4.06800 24.67400
C  9.21500 0.38900 25.56300
N  7.88300 3.73900 29.50400
C  8.58400 3.04900 30.40900
C  8.28900 3.54100 31.84800
C  7.25700 4.71500 31.55800
C  7.07400 4.61200 30.05300
C  5.87800 4.67800 32.32300
C  9.55900 3.90400 32.74800
C  9.33900 4.82300 33.98000
H  10.27600 4.90500 35.23000
N  6.50800 4.66400 27.03500
C  5.79600 5.38600 28.01700
C  4.88200 6.27600 27.34700
C  5.05700 6.02700 25.92800
C  5.95600 4.90300 25.80800
C  3.96600 7.30500 27.94700
C  4.55100 6.83900 24.79400
O  4.94300 6.63600 23.60800
C  3.63000 7.93500 24.92900
N  7.90000 2.43700 25.31100
C  7.03300 3.03300 24.40700
C  7.06800 2.26400 23.06500
C  8.15600 1.18600 23.33800
C  8.43100 1.30500 24.78400
C  5.70900 1.76000 22.59100
C  9.37700 1.25900 22.41900
C  9.69200 0.09200 21.44600
N  9.03200 1.58000 27.71300
C  9.51700 0.56100 26.90900
C  10.37900 -0.37400 27.63800
C  10.32800 0.16100 28.93100
C  9.48700 1.28800 28.94000
C  11.11000 -1.58800 27.15200
C  10.75500 -0.03700 30.31600
O  11.45300 -0.92600 30.77800
C  10.17400 1.12500 31.10000
C  9.41700 0.51200 32.19900
O  8.28700 0.04700 32.14100
O  10.04900 0.69000 33.43500
C  9.39900 0.30900 34.65100
H  5.28100 5.96400 29.92900
H  5.55200 4.37000 23.82700
H  9.60900 -0.44500 24.97900
H  7.74400 2.87900 32.52000
H  7.74500 5.67600 31.72600
H  5.54900 5.66600 32.64500
H  5.93000 4.25500 33.32600
H  4.93900 4.38500 31.85200
H  10.29300 4.43700 32.14400
H  10.08700 3.00700 33.07300
H  8.40500 4.48800 34.43200
H  9.32100 5.84500 33.60000
H  4.30700 8.28900 27.62700
H  4.01200 7.21200 29.03200
H  3.01800 6.99700 27.50600
H  4.16100 8.69900 25.49700
H  2.72300 7.71400 25.49100
H  3.30200 8.43200 24.01600
H  7.40400 2.91200 22.25600
H  7.74600 0.18400 23.21200
H  4.93900 2.10000 23.28300
H  5.80000 0.67400 22.56400
H  5.46000 2.05600 21.57200
H  10.26800 1.33200 23.04100
H  9.36000 2.14800 21.78800
H  8.74900 -0.38400 21.17900
H  10.47300 -0.50800 21.91400
H  10.21500 0.49600 20.57900
H  11.55600 -1.28900 26.20300
H  10.39300 -2.39700 27.01000
H  11.86500 -1.92600 27.86100
H  10.99700 1.76100 31.42500
H  10.00800 -0.13500 35.43900
H  8.58300 -0.39000 34.46600
H  8.97300 1.23400 35.04000
Mg 9.95000 47.14300 25.80000
C  7.67900 47.42600 28.43200
C  12.36000 48.54500 27.97300
C  12.26400 46.76800 23.37400
C  7.39600 46.40900 23.70000
N  9.99400 47.88400 27.97600
C  8.94500 47.73900 28.92300
C  9.44200 48.25300 30.29000
C  10.90200 48.86800 29.97600
C  11.11300 48.36400 28.56200
C  11.16500 50.34800 30.13500
C  9.48700 47.19000 31.47300
C  10.15600 47.57900 32.82800
H  9.23800 47.28900 34.02100
N  12.01500 47.69200 25.63100
C  12.83700 48.16100 26.66600
C  14.17400 48.10100 26.22100
C  14.19400 47.47400 24.89200
C  12.78200 47.30400 24.56900
C  15.41100 48.52500 27.10900
C  15.34300 46.97000 24.12800
O  15.23100 46.51000 22.96100
C  16.75500 46.93300 24.75100
N  9.86900 46.76400 23.84900
C  10.93300 46.62800 22.99700
C  10.47700 46.08900 21.64900
C  8.95300 46.15200 21.65800
C  8.69700 46.46500 23.16100
C  11.07100 46.81200 20.46700
C  8.21100 44.93100 21.04000
C  7.20500 45.17900 19.84800
N  7.90500 47.01500 25.95400
C  6.96900 46.69300 25.04000
C  5.69200 46.48700 25.64600
C  5.92100 46.90000 26.98100
C  7.31700 47.10300 27.08400
C  4.33500 46.21700 24.98100
C  5.19900 47.11000 28.23400
O  4.06900 46.94900 28.58200
C  6.32100 47.50200 29.21600
C  6.07400 46.51900 30.33900
O  6.53600 45.39900 30.42000
O  5.28700 47.05500 31.29500
C  5.08200 46.38000 32.53900
H  13.09600 48.83900 28.72500
H  12.97700 46.57000 22.57100
H  6.55000 46.22800 23.03400
H  8.77400 49.06500 30.57400
H  11.61600 48.29600 30.56900
H  10.53000 50.84500 30.86800
H  10.94300 50.83800 29.18700
H  12.21800 50.53100 30.34800
H  9.65700 46.14400 31.21500
H  8.45700 46.94600 31.73300
H  10.37900 48.64400 32.75800
H  11.08500 47.01600 32.91800
H  15.09100 49.03500 28.01800
H  16.02300 49.23100 26.54700
H  16.01500 47.72100 27.52800
H  16.61000 46.78700 25.82100
H  17.38000 47.79500 24.51500
H  17.32400 46.08500 24.37000
H  10.84600 45.06800 21.55100
H  8.66400 47.05100 21.11200
H  12.13400 46.59800 20.35800
H  11.03700 47.89100 20.61700
H  10.51300 46.51600 19.58000
H  7.70600 44.44100 21.87200
H  8.94200 44.23600 20.62500
H  7.46800 44.47100 19.06200
H  7.22400 46.20600 19.48400
H  6.14600 45.02500 20.05500
H  4.46500 45.85800 23.96000
H  3.80300 47.16300 24.87500
H  3.90200 45.46900 25.64500
H  6.23100 48.54200 29.52700
H  4.73500 47.05700 33.32100
H  5.99600 45.91000 32.90100
H  4.32800 45.59300 32.53300

