158

Mg 43.35900 4.14600 47.60700
C  41.43200 7.07000 47.55300
C  40.41700 2.39300 47.22300
C  45.10200 1.49700 47.11000
C  46.24200 6.23800 47.00400
N  41.14500 4.62600 47.37100
C  40.62200 5.90300 47.45700
C  39.06000 5.81500 47.34100
C  38.75100 4.27700 47.51000
C  40.18400 3.72200 47.32800
C  38.24800 3.73800 48.83800
C  38.51700 6.50000 46.05800
C  39.47800 6.48600 44.88900
H  38.92400 6.85600 43.52400
N  42.83000 2.15700 47.44600
C  41.60200 1.62200 47.35200
C  41.62500 0.17400 47.28700
C  43.04600 -0.16300 47.24300
C  43.74100 1.16400 47.31500
C  40.45500 -0.77800 47.31200
C  43.70600 -1.57500 46.98200
O  43.02300 -2.60400 46.80800
C  45.17800 -1.74600 46.88800
N  45.32200 3.92300 47.17700
C  45.84300 2.70700 47.02500
C  47.40400 2.64100 47.11200
C  47.68200 4.14700 47.06400
C  46.35600 4.86700 47.03600
C  48.04000 1.99500 48.36800
C  48.66900 4.72400 45.96000
C  49.86800 5.36900 46.65600
N  43.80600 6.22900 47.38000
C  45.00200 6.92300 47.20800
C  44.72300 8.39900 47.15800
C  43.35700 8.43700 47.43400
C  42.87100 7.15300 47.49000
C  45.72300 9.46900 46.91300
C  42.25800 9.41700 47.62100
O  42.18300 10.62800 47.65700
C  40.98500 8.46800 47.62200
C  40.09400 8.71400 48.86000
O  40.15000 8.10200 49.88000
O  39.14300 9.66200 48.50300
C  38.16400 10.04200 49.54200
H  39.48800 1.82400 47.29300
H  45.91400 0.77000 47.18100
H  47.14100 6.85800 47.01900
H  38.59700 6.37500 48.15300
H  38.22100 3.82300 46.67300
H  39.07400 3.40800 49.46800
H  37.53400 2.94000 48.63500
H  37.80700 4.54800 49.41800
H  38.30100 7.51300 46.39900
H  37.63300 5.98400 45.68200
H  40.01700 5.53900 44.85900
H  40.26800 7.22100 45.04700
H  40.21000 -1.09000 46.29700
H  39.63700 -0.24900 47.80200
H  40.63700 -1.66900 47.91400
H  45.72700 -1.49100 47.79400
H  45.46000 -1.15800 46.01400
H  45.28800 -2.80700 46.66300
H  47.75600 2.17600 46.19100
H  48.08200 4.37600 48.05200
H  47.53700 2.17500 49.31900
H  49.07500 2.31000 48.49800
H  48.15900 0.91400 48.28800
H  48.14900 5.37000 45.25400
H  48.93200 3.85700 45.35400
H  50.16300 4.76900 47.51800
H  49.64600 6.37800 47.00200
H  50.72600 5.34700 45.98400
H  45.30100 10.30600 46.35600
H  46.59500 9.22500 46.30600
H  46.06900 9.79600 47.89400
H  40.50900 8.81500 46.70500
H  38.48400 10.10400 50.58200
H  37.37700 9.28800 49.56400
H  37.78400 10.99500 49.17300
Mg 48.94100 45.36800 42.86900
C  45.46600 45.71800 41.95000
C  48.85900 42.28900 41.42100
C  52.28900 45.50400 42.79700
C  48.78200 48.61500 43.94100
N  47.33200 44.26000 41.66000
C  46.01700 44.51200 41.48600
C  45.38500 43.36800 40.65500
C  46.34200 42.21300 40.92000
C  47.58400 42.97000 41.38600
C  45.96200 41.07600 41.92400
C  45.24100 43.89900 39.12900
C  43.99400 43.29900 38.39600
H  43.87800 43.43000 36.86000
N  50.38400 43.93900 42.36200
C  50.11200 42.78700 41.74800
C  51.37000 42.11900 41.47400
C  52.37100 43.10200 41.71400
C  51.69700 44.28300 42.33400
C  51.49700 40.65200 41.07100
C  53.87600 42.90100 41.42800
O  54.26700 41.87700 40.91000
C  54.91600 43.92500 41.80600
N  50.34400 46.82800 43.15700
C  51.67200 46.64000 43.26900
C  52.44000 47.93000 43.74600
C  51.29000 48.85500 44.28600
C  50.03600 48.07300 43.75600
C  53.65000 47.68200 44.73600
C  51.43300 50.42000 43.88900
C  51.64300 51.34700 45.02900
N  47.38400 46.88700 43.00200
C  47.54200 48.19000 43.46100
C  46.30000 48.83600 43.35700
C  45.40400 47.90700 42.81200
C  46.15200 46.75400 42.51600
C  46.14300 50.28000 43.92000
C  44.03300 47.66800 42.42500
O  43.06600 48.42000 42.52200
C  44.03600 46.13800 41.79800
C  43.01600 45.29700 42.53000
O  42.42800 44.33500 42.04900
O  42.78800 45.82900 43.77000
C  41.67400 45.10300 44.48100
H  48.87100 41.29300 40.97600
H  53.37600 45.59500 42.75600
H  48.90000 49.64600 44.28000
H  44.37000 43.12200 40.96500
H  46.65700 41.71400 40.00400
H  45.62300 40.16200 41.43700
H  45.12700 41.32200 42.58100
H  46.80700 40.83300 42.56700
H  46.14000 43.86400 38.51400
H  45.07100 44.97500 39.09300
H  43.09200 43.74300 38.81700
H  43.92300 42.23900 38.64100
H  51.76300 40.45400 40.03300
H  50.53800 40.19500 41.31700
H  52.25800 40.34200 41.78700
H  54.61800 44.72300 41.12600
H  55.88600 43.50900 41.53400
H  54.96400 44.13300 42.87500
H  52.86600 48.44300 42.88300
H  51.23400 48.83500 45.37400
H  54.60500 47.83300 44.23200
H  53.62000 46.66100 45.11500
H  53.59200 48.34800 45.59700
H  50.56600 50.67600 43.27900
H  52.27100 50.57000 43.20900
H  50.77300 52.00300 45.02700
H  52.42700 52.04100 44.72600
H  51.81600 50.91400 46.01400
H  46.85700 50.85500 43.33000
H  46.50100 50.37700 44.94500
H  45.13700 50.68300 43.80000
H  43.63400 46.18000 40.78600
H  40.74300 45.66700 44.44000
H  41.96000 45.00000 45.52800
H  41.40700 44.09200 44.17200

