158

Mg 5.35700 54.96200 40.63600
C  4.87800 51.45500 40.78000
C  8.41200 54.63100 39.68300
C  5.26700 58.31400 39.92400
C  1.87000 55.28700 41.49000
N  6.38800 53.24900 40.09900
C  6.10900 51.90100 40.18100
C  7.32200 51.05000 39.71400
C  8.49900 52.12500 39.75900
C  7.67500 53.40900 39.81800
C  9.60700 52.00100 40.87900
C  7.03100 50.41600 38.31800
C  5.99200 51.14200 37.37700
H  6.69800 51.93300 36.28100
N  6.81200 56.44200 40.07000
C  8.03500 56.04500 39.58000
C  8.76900 57.23900 39.20600
C  7.84600 58.39600 39.37100
C  6.56000 57.78700 39.80600
C  10.14800 57.33400 38.64100
C  8.08100 59.84100 39.12600
O  9.10600 60.19200 38.54300
C  7.01200 60.90400 39.40000
N  3.73900 56.59800 40.71200
C  4.02200 57.87200 40.33700
C  2.74800 58.78400 40.36200
C  1.63100 57.74000 40.70300
C  2.43900 56.51600 41.00400
C  2.74500 60.03200 41.24800
C  0.48500 57.46300 39.69900
C  -0.09400 58.67600 38.98800
N  3.64100 53.68600 41.02200
C  2.36300 53.96500 41.45800
C  1.72200 52.71400 41.88700
C  2.62600 51.66700 41.71200
C  3.73700 52.33100 41.13000
C  0.45500 52.51900 42.59100
C  3.01100 50.30000 41.94000
O  2.48700 49.41900 42.61300
C  4.40000 50.04600 41.20400
C  4.28600 49.02500 40.04900
O  3.81000 49.23800 38.97300
O  4.63800 47.83200 40.48100
C  4.31500 46.59900 39.76600
H  9.48300 54.45100 39.57000
H  5.01900 59.35800 39.72400
H  0.84800 55.25900 41.87100
H  7.46200 50.29200 40.48500
H  8.92500 52.11900 38.75600
H  10.58200 51.87300 40.40800
H  9.43500 51.07800 41.43200
H  9.56800 52.86700 41.54000
H  6.68000 49.40000 38.49900
H  7.94900 50.31900 37.73800
H  5.29700 51.78000 37.92400
H  5.39200 50.37800 36.88300
H  10.82500 57.52500 39.47300
H  10.38000 57.91100 37.74500
H  10.43100 56.28400 38.56000
H  6.22700 60.92800 38.64500
H  7.49700 61.87200 39.53200
H  6.48900 60.64900 40.32200
H  2.61800 59.16300 39.34900
H  1.20200 58.05200 41.65500
H  1.78900 60.14900 41.75900
H  2.91900 60.94000 40.67200
H  3.60700 59.97600 41.91300
H  -0.31400 56.96100 40.24500
H  0.91600 56.77500 38.97200
H  0.50300 58.89300 38.10300
H  -0.09800 59.46500 39.74000
H  -1.12800 58.47200 38.71100
H  0.59200 52.13300 43.60100
H  -0.12100 51.77800 42.03600
H  -0.10600 53.44600 42.71500
H  5.06500 49.58600 41.93500
H  4.71400 46.68200 38.75500
H  3.24900 46.45200 39.59500
H  4.69500 45.71400 40.27700
Mg -0.13800 44.30600 26.41900
C  2.25500 44.38500 29.10400
C  -2.50400 43.33000 28.73200
C  -2.07900 43.13900 23.88300
C  2.44700 44.74300 24.20100
N  -0.07900 43.87800 28.69700
C  0.98300 44.07400 29.55000
C  0.44800 44.03100 30.96400
C  -0.99200 43.39200 30.83800
C  -1.23200 43.60000 29.31600
C  -1.04800 41.87500 31.27300
C  0.47200 45.36400 31.80600
C  1.02200 45.10400 33.26800
H  0.52200 43.88000 34.07900
N  -2.09300 43.59600 26.30700
C  -2.87800 43.22900 27.35400
C  -4.20800 42.87200 26.83600
C  -4.11700 42.84000 25.42900
C  -2.75200 43.22700 25.14500
C  -5.41000 42.50400 27.69800
C  -5.15100 42.34700 24.35000
O  -4.86400 42.27700 23.18100
C  -6.57700 42.01700 24.77500
N  0.07300 43.91800 24.37800
C  -0.79600 43.41200 23.55700
C  -0.13900 43.11300 22.17100
C  1.06200 44.12700 22.13800
C  1.22400 44.29000 23.66500
C  0.27000 41.61100 21.96800
C  0.82600 45.40800 21.34300
C  1.70300 45.73000 20.11400
N  1.93400 44.50100 26.55200
C  2.84700 44.69200 25.54700
C  4.22200 44.90300 26.10300
C  3.95700 44.75300 27.48700
C  2.59600 44.52300 27.75300
C  5.49200 45.16400 25.36600
C  4.69400 44.76000 28.81900
O  5.88700 44.84700 29.07100
C  3.54800 44.54200 29.86000
C  4.01900 43.26200 30.60900
O  4.49600 42.27800 30.15600
O  3.84300 43.49600 31.95800
C  4.09800 42.30000 32.85700
H  -3.18600 42.99700 29.51800
H  -2.62400 42.83800 22.98600
H  3.16400 44.98100 23.41200
H  1.09600 43.31100 31.46400
H  -1.74800 43.94300 31.39700
H  -0.11400 41.55300 31.73200
H  -1.45300 41.29200 30.44600
H  -1.86300 41.84400 31.99600
H  -0.54000 45.75700 31.90000
H  1.00800 46.20600 31.36700
H  0.76300 46.02500 33.78900
H  2.10300 45.24600 33.25800
H  -6.24800 43.20100 27.69100
H  -5.15200 42.34800 28.74500
H  -5.87900 41.60300 27.30100
H  -7.17600 41.87000 23.87600
H  -7.03900 42.72700 25.46100
H  -6.42800 41.03700 25.22700
H  -0.88500 43.30800 21.40100
H  1.94700 43.62700 21.74300
H  0.08900 40.93800 22.80700
H  1.32300 41.47100 21.72200
H  -0.39900 41.20000 21.21300
H  0.87700 46.31900 21.93900
H  -0.18800 45.37700 20.94400
H  1.01500 45.61200 19.27700
H  2.59200 45.10000 20.11900
H  2.15500 46.71800 20.02400
H  5.37800 46.06800 24.76800
H  5.82400 44.28400 24.81600
H  6.23700 45.28200 26.15400
H  3.52100 45.30800 30.63400
H  3.49100 41.42600 32.62100
H  3.75700 42.51400 33.87000
H  5.18700 42.27500 32.88900

