158

Mg 40.70500 9.89400 30.04500
C  42.56300 11.10300 32.68300
C  38.23200 8.79300 32.12300
C  39.12200 8.54200 27.49700
C  43.36300 10.82900 27.83400
N  40.49100 9.84500 32.19200
C  41.33700 10.48800 33.04400
C  40.65000 10.55900 34.49500
C  39.34100 9.73700 34.26000
C  39.35300 9.41700 32.83500
C  39.20900 8.42500 35.06400
C  40.28400 11.96700 34.94200
C  39.95200 12.06600 36.42400
H  40.91500 12.90000 37.34500
N  38.96000 8.64400 29.85600
C  38.04100 8.41000 30.83800
C  36.86000 7.87200 30.31500
C  37.13400 7.67600 28.90000
C  38.46900 8.24700 28.68900
C  35.69300 7.29700 31.20100
C  36.29500 7.07800 27.76700
O  36.72900 6.90000 26.58500
C  34.92000 6.60100 28.17500
N  41.20400 9.79600 27.93700
C  40.32800 9.11900 27.16500
C  40.81500 9.14000 25.70600
C  42.15300 10.00900 25.74500
C  42.31000 10.13100 27.24500
C  41.11500 7.66000 25.16000
C  41.89100 11.46700 25.23400
C  40.60200 12.25400 25.60500
N  42.60200 10.78500 30.20100
C  43.48500 11.15400 29.25700
C  44.59200 11.79800 29.84100
C  44.21200 11.95000 31.21100
C  43.03600 11.19300 31.35600
C  45.93300 12.21000 29.20800
C  44.66900 12.49100 32.46000
O  45.63000 13.12700 32.76900
C  43.45900 12.03400 33.48500
C  44.11200 11.33100 34.54200
O  44.86300 10.36700 34.46500
O  43.71100 11.83500 35.72500
C  44.06400 11.13900 36.92300
H  37.33600 8.54800 32.69700
H  38.67800 8.27300 26.53600
H  44.26000 11.06900 27.26000
H  41.27800 10.08600 35.25000
H  38.40000 10.28700 34.27400
H  38.14200 8.20500 35.08700
H  39.66300 8.64600 36.02900
H  39.80800 7.67000 34.55600
H  39.51000 12.29900 34.25100
H  41.15000 12.61900 34.83200
H  39.99500 11.07900 36.88600
H  38.93500 12.45600 36.43200
H  34.68900 7.37900 30.78400
H  35.69700 7.54500 32.26200
H  35.73600 6.20800 31.21700
H  35.08800 5.84700 28.94400
H  34.43200 6.13800 27.31700
H  34.39600 7.51600 28.45200
H  40.10200 9.59600 25.02000
H  42.96900 9.40900 25.34200
H  41.67200 7.03100 25.85400
H  41.61500 7.61900 24.19200
H  40.16800 7.13300 25.04400
H  42.04200 11.49500 24.15500
H  42.65300 12.19500 25.51300
H  40.18600 12.56400 24.64700
H  40.77000 13.11100 26.25600
H  39.89000 11.59100 26.09700
H  46.69300 12.43800 29.95600
H  45.79100 13.06700 28.54900
H  46.38500 11.43800 28.58500
H  43.15900 13.00000 33.89200
H  45.15300 11.13300 36.97000
H  43.70400 10.11800 36.79400
H  43.59400 11.50800 37.83400
Mg 47.08500 16.83700 28.88000
C  45.13300 16.85400 31.86100
C  49.39700 18.53300 30.41900
C  48.58200 17.21600 25.82400
C  44.49600 15.19700 27.18300
N  47.28700 17.45700 30.98700
C  46.38200 17.39100 32.01000
C  46.94100 18.07700 33.30300
C  48.32500 18.64300 32.83400
C  48.34000 18.21900 31.33800
C  48.38600 20.15100 32.98100
C  47.00700 17.07600 34.51100
C  47.46600 17.66700 35.85800
H  47.28700 19.19900 36.21700
N  48.82000 17.56100 28.25500
C  49.68600 18.24100 29.03300
C  50.88200 18.53400 28.32100
C  50.66900 18.12900 26.97900
C  49.29000 17.60200 26.98400
C  52.12500 19.14600 28.95300
C  51.65100 18.28000 25.74100
O  51.33100 17.94400 24.57100
C  53.02600 18.95100 25.90900
N  46.53400 16.28100 26.82800
C  47.31300 16.54200 25.75400
C  46.83500 16.02400 24.41600
C  45.59000 15.25600 24.87300
C  45.47300 15.62800 26.38600
C  46.56900 17.08600 23.33700
C  45.59400 13.76000 24.50200
C  44.99200 13.41300 23.14500
N  45.22400 16.11600 29.43800
C  44.26600 15.48700 28.58600
C  43.07400 15.20700 29.35000
C  43.36300 15.70200 30.64100
C  44.70800 16.26800 30.61100
C  41.84000 14.57900 28.79800
C  42.78600 15.87600 32.01500
O  41.66800 15.52500 32.43900
C  43.91200 16.60600 32.84900
C  43.39900 17.83500 33.59100
O  42.94300 18.81900 33.01200
O  43.39200 17.71700 34.92900
C  42.44600 18.51300 35.66300
H  50.14800 19.13700 30.93300
H  49.17500 17.34600 24.91600
H  43.75300 14.61800 26.63100
H  46.20800 18.84600 33.54900
H  49.15800 18.10300 33.28200
H  47.53600 20.52900 33.55100
H  48.24200 20.61700 32.00700
H  49.26600 20.66400 33.36900
H  47.65600 16.22500 34.30500
H  46.07100 16.55000 34.69700
H  48.50000 17.32300 35.80800
H  46.98300 17.17700 36.70300
H  52.89900 18.37900 28.92900
H  51.83000 19.46200 29.95300
H  52.41200 20.00600 28.34700
H  53.54700 18.46800 26.73500
H  52.82900 19.98100 26.20400
H  53.68400 18.90700 25.04200
H  47.58900 15.29000 24.13100
H  44.64600 15.61100 24.45800
H  46.46500 18.06700 23.80100
H  45.75300 16.81200 22.66900
H  47.54200 17.13900 22.84900
H  45.15400 13.16100 25.30000
H  46.65000 13.49500 24.46800
H  43.97300 13.07000 23.32100
H  45.53000 12.58200 22.68900
H  44.93900 14.17400 22.36600
H  41.69000 14.88400 27.76300
H  40.99500 14.88900 29.41200
H  41.92100 13.50500 28.96700
H  44.34700 16.05400 33.68200
H  42.66600 19.57200 35.53300
H  42.57400 18.25100 36.71400
H  41.42900 18.19300 35.43700

