158

Mg 1.17500 -1.82700 43.24700
C  4.45300 -0.63500 43.14700
C  0.05900 1.14700 41.85700
C  -1.94600 -3.29700 42.69600
C  2.38300 -4.90100 44.18900
N  2.13000 0.06700 42.68000
C  3.46200 0.27600 42.69800
C  3.74300 1.66700 42.01000
C  2.35700 2.42800 41.88500
C  1.45900 1.15700 42.17000
C  2.21000 3.66100 42.77200
C  4.51900 1.51400 40.60200
C  5.98900 2.13600 40.44100
H  6.28300 2.73300 39.05600
N  -0.74400 -1.16100 42.40900
C  -0.95900 0.10800 41.94800
C  -2.33900 0.19200 41.52700
C  -2.98200 -1.03600 41.88800
C  -1.90000 -1.92000 42.38000
C  -2.81200 1.44700 40.62000
C  -4.54200 -1.32100 41.76200
O  -5.22500 -0.44600 41.16100
C  -5.20900 -2.65400 42.21600
N  0.28000 -3.88100 43.50900
C  -1.00200 -4.22700 43.30100
C  -1.34800 -5.76700 43.64900
C  0.12800 -6.18300 43.95800
C  1.00300 -4.94400 43.86000
C  -2.30500 -5.96400 44.83400
C  0.71400 -7.26600 42.97100
C  1.12800 -8.55500 43.63800
N  3.09100 -2.64900 43.60800
C  3.38600 -3.94100 44.02400
C  4.85000 -4.03200 44.19900
C  5.36200 -2.74000 43.87400
C  4.18100 -1.95300 43.57700
C  5.79000 -5.18100 44.47700
C  6.53000 -1.88000 43.73800
O  7.73400 -2.08500 43.91200
C  5.90600 -0.52100 43.11500
C  6.47100 0.57200 43.91700
O  6.30300 0.63500 45.14900
O  7.30300 1.42900 43.25900
C  7.81200 2.55500 44.04200
H  -0.16000 2.19100 41.62500
H  -2.90000 -3.81700 42.58700
H  2.84500 -5.76000 44.68000
H  4.38600 2.07700 42.78900
H  1.97200 2.63600 40.88700
H  2.27200 4.46000 42.03300
H  2.93700 3.70400 43.58300
H  1.18900 3.59700 43.14900
H  3.88700 1.76500 39.75000
H  4.61400 0.43700 40.46200
H  6.62900 1.31000 40.75000
H  6.11300 2.98100 41.11800
H  -3.42800 1.11100 39.78600
H  -2.04400 2.05600 40.14500
H  -3.48500 2.07200 41.20800
H  -6.25500 -2.69200 41.91100
H  -4.87400 -2.56400 43.24900
H  -4.72900 -3.45100 41.64800
H  -1.62200 -6.20700 42.69000
H  0.27500 -6.58500 44.96000
H  -2.80400 -5.08100 45.23200
H  -1.77500 -6.56500 45.57300
H  -3.14300 -6.48100 44.36600
H  1.62800 -6.95600 42.46400
H  0.01500 -7.43600 42.15300
H  1.76100 -8.25100 44.47100
H  1.65500 -9.29100 43.03000
H  0.26600 -9.10300 44.01900
H  5.84900 -5.84500 43.61500
H  5.39300 -5.76600 45.30700
H  6.74800 -4.81600 44.84900
H  6.29800 -0.44400 42.10100
H  8.50000 2.97500 43.30900
H  8.34800 2.19400 44.91900
H  6.96300 3.19000 44.29500
Mg 47.55900 24.97100 28.83000
C  48.25500 27.23700 31.52300
C  46.54000 22.66800 31.01500
C  47.20300 22.79300 26.29200
C  49.28800 27.16400 26.68400
N  47.60300 24.96700 31.03400
C  47.75900 25.95400 31.90900
C  47.30300 25.56500 33.29800
C  46.80900 24.12100 33.06400
C  47.07700 23.81200 31.64000
C  47.56000 23.10600 34.03200
C  46.28500 26.51000 34.00800
C  46.68700 26.80100 35.47900
H  45.61700 26.86200 36.56900
N  46.85200 23.02700 28.65000
C  46.44100 22.22800 29.68300
C  45.94100 20.95100 29.13500
C  46.14300 21.00600 27.74200
C  46.73300 22.24600 27.51700
C  45.49400 19.89800 30.03100
C  45.89600 19.93100 26.71200
O  45.98800 20.21200 25.49100
C  45.16100 18.59000 27.04800
N  48.20200 24.92800 26.76200
C  47.71700 24.01800 25.93500
C  47.98700 24.40700 24.47100
C  48.60600 25.76000 24.55900
C  48.73500 26.00300 26.08900
C  48.69000 23.27500 23.59700
C  47.82400 27.00000 23.89100
C  47.74800 27.03000 22.37500
N  48.55600 26.86300 29.03500
C  49.17300 27.57600 28.04600
C  49.73000 28.78100 28.56700
C  49.32900 28.76400 29.95700
C  48.65300 27.59500 30.15100
C  50.50000 29.83500 27.78200
C  49.51400 29.43300 31.24200
O  50.08900 30.44200 31.48600
C  48.72500 28.48500 32.29900
C  49.73900 28.10700 33.39300
O  50.32900 27.06100 33.44500
O  49.72500 28.97500 34.39600
C  50.47300 28.60300 35.62300
H  46.05200 21.97200 31.70100
H  47.06200 22.05200 25.50100
H  49.71500 27.84600 25.94500
H  48.18300 25.53100 33.93900
H  45.74000 24.01400 33.24900
H  48.09700 22.46600 33.33200
H  46.75100 22.64700 34.59900
H  48.29200 23.59000 34.67900
H  45.27700 26.10000 33.94300
H  46.28300 27.47200 33.49700
H  47.22000 27.74500 35.59200
H  47.45300 26.14900 35.89800
H  44.44300 19.73300 29.79300
H  45.55400 20.07400 31.10500
H  46.02100 18.97500 29.78800
H  44.33900 18.80500 27.73100
H  45.93700 17.97400 27.50300
H  44.83300 18.03900 26.16700
H  47.01300 24.49600 23.99000
H  49.63300 25.70900 24.19800
H  49.09100 22.56200 24.31800
H  49.45600 23.57000 22.88000
H  47.94500 22.72000 23.02700
H  48.28800 27.92800 24.22500
H  46.79300 27.01000 24.24400
H  48.11100 27.96000 21.93700
H  46.70000 26.87000 22.11800
H  48.40500 26.23100 22.03300
H  50.07600 30.83800 27.73700
H  50.67300 29.65400 26.72100
H  51.46400 29.82200 28.29000
H  47.88400 29.00000 32.76300
H  50.17000 29.38600 36.31800
H  51.53400 28.77500 35.44300
H  50.31400 27.55700 35.88700

