158

Mg -12.05000 38.90100 41.68200
C  -9.75900 36.50000 40.89900
C  -10.18000 41.20500 39.85200
C  -14.55900 41.19300 41.83700
C  -14.16500 36.46200 43.04300
N  -10.23300 38.83600 40.49100
C  -9.43400 37.76900 40.37000
C  -8.17900 38.04500 39.55000
C  -8.32200 39.55900 39.16100
C  -9.58100 39.91400 39.96300
C  -7.07400 40.50800 39.43600
C  -8.02300 37.15600 38.19700
C  -6.79300 36.23900 38.15300
H  -5.72400 36.49900 37.01900
N  -12.32300 40.96400 41.00500
C  -11.35900 41.69800 40.40400
C  -11.83700 43.03600 40.24500
C  -13.12900 43.10300 40.74100
C  -13.38900 41.76000 41.23700
C  -11.07000 44.07500 39.47500
C  -14.03000 44.36200 40.81600
O  -13.65200 45.35100 40.22300
C  -15.42600 44.37700 41.48500
N  -14.12200 38.74900 42.04500
C  -14.91200 39.83600 42.12300
C  -16.35000 39.48300 42.56100
C  -16.23300 37.95100 42.91100
C  -14.73400 37.69500 42.71200
C  -16.81200 40.31300 43.83100
C  -17.07900 36.93200 42.02800
C  -18.34400 37.52000 41.25100
N  -11.94500 36.86200 42.03100
C  -12.83500 36.03900 42.68200
C  -12.13600 34.76000 42.99600
C  -10.91000 34.89900 42.24200
C  -10.95500 36.17800 41.68500
C  -12.61800 33.58100 43.79700
C  -9.73000 34.23300 41.94600
O  -9.35900 33.10400 42.27400
C  -8.88600 35.24200 41.09300
C  -7.54100 35.39800 41.69400
O  -6.53800 34.67400 41.37500
O  -7.62300 36.46700 42.56500
C  -6.38100 36.92600 43.20200
H  -9.55400 41.79500 39.17900
H  -15.31100 41.95800 42.03800
H  -14.72500 35.71200 43.60600
H  -7.30800 37.96800 40.20100
H  -8.48600 39.68100 38.09100
H  -6.75000 41.04100 38.54200
H  -6.22500 39.93800 39.81500
H  -7.35600 41.29400 40.13600
H  -7.93100 37.76800 37.30100
H  -8.84400 36.45000 38.07000
H  -7.06600 35.18400 38.18100
H  -6.28600 36.35100 39.11100
H  -11.80000 44.67900 38.93500
H  -10.24600 43.78800 38.82200
H  -10.69900 44.77700 40.22200
H  -15.43700 43.87500 42.45300
H  -16.09100 43.92000 40.75200
H  -15.79300 45.38700 41.66600
H  -17.10800 39.71400 41.81300
H  -16.47700 37.64300 43.92800
H  -17.17000 39.61000 44.58400
H  -17.72700 40.80100 43.49500
H  -16.04400 40.92400 44.30300
H  -17.38700 36.15600 42.72900
H  -16.36700 36.44900 41.36000
H  -18.84300 38.35400 41.74400
H  -19.04000 36.69000 41.13000
H  -17.99200 37.76000 40.24800
H  -11.74600 33.13900 44.27800
H  -13.17000 32.92700 43.12200
H  -13.14600 34.08200 44.60800
H  -8.65000 34.75600 40.14600
H  -5.68000 36.11500 43.39800
H  -6.72500 37.47900 44.07600
H  -5.77900 37.55200 42.54200
Mg 0.84600 42.87400 25.12400
C  2.10400 43.09800 28.45000
C  -2.03100 41.69700 26.54600
C  -0.05400 42.14700 22.02200
C  4.09900 43.73800 23.92900
N  0.17100 42.44000 27.24300
C  0.81000 42.73400 28.45100
C  -0.08300 42.59400 29.69300
C  -1.29900 41.91100 29.02500
C  -1.08800 42.05000 27.50000
C  -1.48300 40.44000 29.43300
C  -0.37100 43.93600 30.42400
C  -1.56100 44.05400 31.45500
H  -2.18600 42.67400 31.80200
N  -0.97200 42.16100 24.33200
C  -2.03000 41.66600 25.06100
C  -2.91900 40.94700 24.13000
C  -2.44500 41.20600 22.79900
C  -1.12100 41.90900 23.00700
C  -4.21800 40.27200 24.53600
C  -3.03900 40.99100 21.45900
O  -2.49800 41.33100 20.43100
C  -4.36200 40.32200 21.34300
N  1.93500 42.82700 23.23900
C  1.28900 42.55200 22.14700
C  2.17700 42.53400 20.95300
C  3.34800 43.48200 21.47700
C  3.17500 43.27900 22.99400
C  2.57200 41.04600 20.51900
C  3.28800 44.89700 20.94500
C  3.03500 46.13600 21.85700
N  2.71300 43.31400 25.92500
C  3.86700 43.78800 25.30700
C  4.84700 44.08100 26.36600
C  4.23100 43.76000 27.53300
C  2.92000 43.31800 27.27800
C  6.21200 44.66900 26.14400
C  4.48000 43.72200 28.94100
O  5.47600 43.96600 29.59800
C  3.08300 43.38300 29.63600
C  3.25500 42.15200 30.42400
O  3.88000 41.14600 30.03900
O  2.60900 42.27800 31.65400
C  2.23700 41.00100 32.44900
H  -2.90000 41.30400 27.07700
H  -0.40500 41.80500 21.04600
H  5.00900 44.04400 23.40900
H  0.34400 41.80000 30.30700
H  -2.23500 42.40200 29.29000
H  -1.03900 39.89800 28.59800
H  -2.54700 40.22800 29.53400
H  -1.00900 40.16100 30.37400
H  -0.46600 44.76600 29.72400
H  0.55800 44.20200 30.92800
H  -2.41400 44.58600 31.03400
H  -1.31500 44.58400 32.37600
H  -4.83300 41.07500 24.12800
H  -4.31700 40.24400 25.62100
H  -4.43200 39.30600 24.07800
H  -5.15500 41.03500 21.56800
H  -4.42600 39.40100 21.92300
H  -4.43900 39.99200 20.30600
H  1.52200 42.82000 20.13000
H  4.33800 43.13500 21.18100
H  2.07100 40.37700 21.21900
H  3.61500 40.81100 20.73600
H  2.30800 40.86300 19.47800
H  2.49000 44.97700 20.20700
H  4.25500 45.06600 20.47200
H  2.43000 46.74700 21.18800
H  3.98800 46.64500 21.99900
H  2.65500 45.89500 22.85000
H  6.91500 43.91200 26.48900
H  6.30000 45.58300 26.73100
H  6.40000 44.82200 25.08100
H  2.82400 44.29200 30.17800
H  1.19000 41.11700 32.73000
H  2.91500 40.85300 33.29000
H  2.30600 40.11400 31.81800

