158

Mg -1.91000 16.89300 25.11600
C  -2.16100 14.85500 27.90600
C  -2.92300 19.48900 26.96400
C  -1.78300 18.78600 22.27600
C  -1.20400 13.98500 23.21900
N  -2.59000 17.16800 27.25800
C  -2.59800 16.22000 28.18200
C  -2.96300 16.86800 29.60100
C  -3.52300 18.26300 29.13400
C  -3.05900 18.27700 27.67400
C  -5.07300 18.52200 29.21300
C  -1.80600 16.94600 30.59900
C  -1.78000 16.04600 31.84200
H  -2.47600 16.61200 33.00900
N  -2.20700 18.92100 24.71500
C  -2.56200 19.81500 25.64600
C  -2.56200 21.15200 25.05800
C  -2.26800 21.00000 23.68300
C  -2.13900 19.48300 23.47200
C  -2.70900 22.41400 25.86700
C  -2.21400 21.93200 22.57200
O  -1.94100 21.57400 21.47700
C  -2.43300 23.35500 22.87400
N  -1.63700 16.39300 22.96300
C  -1.42100 17.40000 22.10600
C  -1.04500 16.88100 20.72300
C  -0.68400 15.39300 21.15000
C  -1.20400 15.22300 22.54300
C  -2.05900 17.06300 19.47500
C  0.79400 15.07300 21.07600
C  1.64400 16.01300 21.90700
N  -1.82600 14.78400 25.43200
C  -1.55800 13.75500 24.54800
C  -1.69700 12.50300 25.24300
C  -1.86800 12.89800 26.61800
C  -1.97900 14.30800 26.63400
C  -1.56300 11.07000 24.67200
C  -1.95700 12.49700 27.97800
O  -1.91700 11.35200 28.46300
C  -1.95900 13.78100 28.84200
C  -0.74600 14.01900 29.54900
O  0.20200 14.68500 29.22000
O  -0.69100 13.28900 30.67500
C  0.61800 13.23300 31.29500
H  -3.23100 20.36500 27.54000
H  -1.63200 19.29000 21.31900
H  -1.01100 13.08800 22.62600
H  -3.76800 16.33100 30.10100
H  -3.09400 19.09800 29.68700
H  -5.64000 17.74600 29.72600
H  -5.52900 18.87800 28.28900
H  -5.10300 19.40200 29.85500
H  -1.55400 17.96000 30.90700
H  -0.93300 16.83800 29.95600
H  -0.77200 15.77000 32.15200
H  -2.14000 15.06900 31.52000
H  -1.87700 23.11800 25.84400
H  -2.81200 22.13300 26.91500
H  -3.59500 23.00900 25.64500
H  -2.84500 23.78400 21.96000
H  -1.48400 23.85600 23.06600
H  -3.21500 23.50600 23.61800
H  -0.13100 17.38900 20.41600
H  -1.21600 14.68000 20.52100
H  -1.62000 17.51600 18.58600
H  -2.92600 17.64600 19.78400
H  -2.33500 16.03800 19.22600
H  1.00400 15.08800 20.00600
H  0.87600 14.02100 21.34900
H  2.14700 15.42600 22.67600
H  1.26700 16.99000 22.21100
H  2.43900 16.40800 21.27500
H  -1.70700 11.01800 23.59200
H  -2.39300 10.67300 25.25700
H  -0.60200 10.61600 24.91200
H  -2.83700 13.81500 29.48700
H  1.50600 13.48100 30.71200
H  0.74800 12.23600 31.71500
H  0.64800 14.00000 32.06900
Mg 43.17000 2.95100 47.81500
C  41.52600 5.71200 47.22900
C  40.31700 1.01300 47.42200
C  45.10300 0.19100 47.47700
C  46.14200 4.73400 47.84000
N  41.15300 3.32800 47.49000
C  40.64100 4.55300 47.19500
C  39.05700 4.46600 46.92500
C  38.78500 3.02100 47.54000
C  40.15100 2.40800 47.52000
C  37.98200 2.97800 48.86600
C  38.80000 4.58600 45.39300
C  38.35700 5.99000 44.85500
H  38.96500 6.41100 43.56300
N  42.75300 0.95700 47.38100
C  41.51200 0.36700 47.31500
C  41.62200 -1.07400 46.99500
C  43.03700 -1.34700 47.00700
C  43.68100 -0.05700 47.43400
C  40.44600 -1.94200 46.68200
C  43.56600 -2.69900 46.59600
O  42.74300 -3.56300 46.34900
C  45.00200 -2.95800 46.64600
N  45.32700 2.47300 47.83700
C  45.89600 1.28600 47.71100
C  47.41000 1.29600 47.78300
C  47.71500 2.80300 47.70800
C  46.33100 3.38900 47.72100
C  47.94600 0.58000 48.98800
C  48.45300 3.29300 46.38100
C  49.94500 3.02700 46.37000
N  43.73200 4.82200 47.69700
C  44.95300 5.41300 47.75400
C  44.84800 6.82300 47.69500
C  43.45100 7.01300 47.46900
C  42.84600 5.79300 47.52000
C  45.87900 7.87000 47.85800
C  42.36900 7.99100 47.28300
O  42.37200 9.23000 47.25400
C  41.02400 7.13800 47.05500
C  40.11600 7.54400 48.19700
O  40.00000 6.87900 49.27400
O  39.36400 8.61100 47.99300
C  38.23500 8.89500 48.90800
H  39.39300 0.45600 47.25400
H  45.54900 -0.80300 47.40700
H  47.03000 5.36000 47.94700
H  38.67400 5.28200 47.53700
H  38.26800 2.46600 46.75800
H  37.65000 3.98500 49.11800
H  38.67700 2.58000 49.60500
H  37.11800 2.35400 48.63900
H  38.02800 3.87800 45.09200
H  39.64000 4.34000 44.74300
H  38.37100 6.76700 45.61900
H  37.28900 5.96900 44.63900
H  39.47100 -1.47200 46.81600
H  40.47300 -2.85400 47.27900
H  40.61200 -2.25400 45.65100
H  45.53000 -2.30900 45.94700
H  45.04500 -4.01300 46.37500
H  45.28900 -2.98600 47.69700
H  47.88800 0.82800 46.92200
H  48.31400 3.28400 48.48100
H  47.18700 0.12500 49.62300
H  48.67000 1.10700 49.60900
H  48.51900 -0.23700 48.54800
H  48.28400 4.36900 46.38600
H  48.07900 2.88600 45.44200
H  50.53000 3.59400 45.64500
H  49.91800 1.96600 46.12000
H  50.35300 3.08800 47.37900
H  46.87000 7.46000 47.66000
H  45.78100 8.09700 48.92000
H  45.62100 8.71100 47.21400
H  40.64700 7.44500 46.07900
H  37.61100 8.01700 49.07700
H  37.70700 9.77300 48.53800
H  38.59700 9.13900 49.90700

