158

Mg 26.78300 51.89600 25.45600
C  24.23000 52.36300 27.91400
C  28.85100 51.08100 28.06300
C  29.26700 51.39000 23.18400
C  24.58700 52.95300 23.05100
N  26.52400 51.68700 27.79800
C  25.39000 51.82500 28.54600
C  25.59500 51.57100 30.02300
C  27.19500 51.45700 30.07100
C  27.60200 51.48000 28.57400
C  27.82100 52.54500 31.00000
C  24.86800 50.30200 30.52100
C  24.31800 50.38000 31.91200
H  24.85900 49.36100 32.92800
N  28.69900 51.20900 25.57600
C  29.39600 51.04900 26.78400
C  30.76600 50.56900 26.43300
C  30.88900 50.53700 25.03600
C  29.59000 51.05100 24.52300
C  31.68500 50.13300 27.50000
C  32.02200 49.95500 24.18000
O  31.85400 49.81800 22.97500
C  33.32700 49.80300 24.88600
N  26.90200 52.21600 23.47800
C  28.00400 51.86200 22.69600
C  27.68300 51.89300 21.19000
C  26.16800 52.17900 21.16100
C  25.83400 52.46600 22.64300
C  28.52400 53.00400 20.44600
C  25.30100 51.04600 20.54700
C  23.92000 51.51300 20.06300
N  24.82500 52.53500 25.46700
C  24.08400 52.95400 24.38700
C  22.80000 53.32200 24.82900
C  22.80700 53.14200 26.24300
C  24.06700 52.62400 26.56300
C  21.65100 53.79800 24.05300
C  21.99000 53.16200 27.41300
O  20.82700 53.53500 27.56700
C  22.90100 52.73900 28.56800
C  23.15600 53.86500 29.44300
O  23.88700 54.80600 29.20300
O  22.46700 53.70400 30.68700
C  22.70200 54.80200 31.63700
H  29.53000 50.80000 28.87100
H  30.07400 51.32000 22.45200
H  23.85400 53.21900 22.28700
H  25.36700 52.37500 30.72200
H  27.61300 50.52100 30.44300
H  27.08500 52.79900 31.76200
H  28.06200 53.39200 30.35700
H  28.71500 52.19900 31.51900
H  25.57100 49.46900 30.54000
H  24.05200 50.12900 29.81900
H  23.25500 50.14100 31.92700
H  24.36700 51.37300 32.35700
H  31.91400 49.07900 27.34200
H  31.31700 50.33800 28.50500
H  32.63600 50.64400 27.64700
H  33.43900 50.60500 25.61500
H  34.03600 50.09100 24.11000
H  33.47400 48.77700 25.22300
H  27.80400 50.95600 20.64600
H  25.90600 53.08600 20.61600
H  27.86200 53.77700 20.05500
H  29.18000 52.61900 19.66600
H  29.13300 53.49900 21.20300
H  25.09300 50.30700 21.32100
H  25.92400 50.56400 19.79300
H  23.67300 50.98300 19.14300
H  23.85200 52.58900 19.90400
H  23.28900 51.26600 20.91700
H  21.92600 53.71100 23.00200
H  21.39800 54.84400 24.22600
H  20.66400 53.39000 24.26800
H  22.45800 51.90100 29.10600
H  22.58800 55.75900 31.12800
H  23.71800 54.85300 32.02800
H  21.98000 54.74800 32.45200
Mg 16.77100 51.83100 24.64200
C  18.55100 50.90100 27.41000
C  13.99000 52.31200 26.62900
C  14.78200 52.13100 21.80700
C  19.45100 51.09100 22.53100
N  16.41500 51.87200 26.86500
C  17.27600 51.40300 27.82800
C  16.68000 51.55500 29.23200
C  15.16000 51.90100 28.91000
C  15.17500 51.98300 27.36300
C  14.09100 51.03800 29.55400
C  17.39500 52.73200 30.00900
C  17.91200 52.47900 31.46800
H  17.11500 51.64500 32.53900
N  14.73000 52.28700 24.31100
C  13.80400 52.50900 25.23100
C  12.54100 52.93600 24.62500
C  12.76300 52.88900 23.14900
C  14.14000 52.38500 23.05900
C  11.33400 53.31400 25.40800
C  11.85500 53.27100 22.00900
O  12.05900 53.18000 20.77300
C  10.60100 53.96000 22.33700
N  17.11000 51.55000 22.36500
C  16.09800 51.79200 21.45300
C  16.67200 51.90800 20.07000
C  18.29100 51.68100 20.35100
C  18.35200 51.50700 21.80900
C  16.05300 50.91200 19.00900
C  19.21900 52.81200 19.80800
C  19.06400 53.13600 18.24400
N  18.57800 51.11700 24.83100
C  19.59900 50.81400 23.92500
C  20.68000 50.15900 24.60600
C  20.28400 50.23800 25.98500
C  19.06100 50.87100 26.11400
C  21.95500 49.58300 23.99000
C  20.73100 49.83200 27.31400
O  21.68600 49.24600 27.72000
C  19.69800 50.34700 28.23000
C  19.32000 49.23200 29.19500
O  18.65000 48.29200 28.90700
O  19.79200 49.63400 30.41400
C  19.56400 48.74800 31.53400
H  13.23600 52.57600 27.37400
H  14.12600 52.06200 20.93600
H  20.30900 50.92500 21.87600
H  16.82100 50.68200 29.86900
H  14.86300 52.90500 29.21400
H  14.56900 50.31400 30.21400
H  13.51100 50.57700 28.75500
H  13.39200 51.64100 30.13500
H  16.65600 53.52800 30.10100
H  18.22700 53.13200 29.42900
H  17.88900 53.48300 31.89300
H  18.98000 52.25800 31.48100
H  11.42600 53.04400 26.46000
H  10.50400 52.68500 25.08700
H  11.17400 54.38300 25.26300
H  9.95500 54.12300 21.47500
H  10.83100 54.91400 22.81300
H  10.03500 53.29000 22.98400
H  16.51700 52.93400 19.73900
H  18.71700 50.77500 19.92100
H  15.60300 51.40500 18.14700
H  15.26700 50.35300 19.51800
H  16.80700 50.20900 18.65600
H  20.25500 52.47800 19.85600
H  19.16300 53.78200 20.30300
H  18.74600 54.16300 18.06500
H  18.50500 52.36100 17.72000
H  20.00600 53.29100 17.71700
H  22.51400 50.36700 23.47900
H  21.55600 48.86800 23.27000
H  22.71900 49.15400 24.63900
H  20.24400 51.09400 28.80500
H  19.77200 49.23900 32.48500
H  20.22600 47.88200 31.52600
H  18.50700 48.49000 31.46100

