158

Mg 2.20700 -1.74800 43.53900
C  5.59600 -1.14600 42.69600
C  1.56900 1.37000 42.15000
C  -0.97700 -2.67800 43.25200
C  3.12500 -5.07800 44.42300
N  3.40100 -0.04400 42.50500
C  4.70500 -0.18900 42.14100
C  5.12900 1.06200 41.26800
C  3.85900 1.96100 41.09500
C  2.92700 1.11100 41.97000
C  3.85700 3.50300 41.49500
C  5.78600 0.62500 39.89500
C  7.00100 1.51900 39.50900
H  6.83200 2.08200 38.06200
N  0.46800 -0.70500 43.09500
C  0.49300 0.54900 42.58800
C  -0.83000 0.92000 42.26200
C  -1.62000 -0.28700 42.33800
C  -0.76500 -1.32100 42.87600
C  -1.22700 2.26100 41.80900
C  -3.07000 -0.43300 41.92300
O  -3.78700 0.53300 41.57800
C  -3.77900 -1.67200 42.09900
N  1.23300 -3.60800 43.87800
C  -0.10000 -3.70100 43.75200
C  -0.62700 -5.09400 44.18300
C  0.63900 -5.86400 44.59100
C  1.77000 -4.78000 44.29800
C  -1.70400 -4.89100 45.35000
C  0.86700 -7.29800 44.02500
C  1.56200 -7.23900 42.63800
N  4.06600 -2.93200 43.78000
C  4.26200 -4.26700 44.19300
C  5.69000 -4.57600 44.17500
C  6.24100 -3.32500 43.65400
C  5.23100 -2.30600 43.39200
C  6.32600 -5.91500 44.48900
C  7.52600 -2.71100 43.25900
O  8.65900 -3.13500 43.30100
C  7.11900 -1.27700 42.62100
C  7.79400 -0.07300 43.28600
O  8.39100 0.76400 42.63200
O  7.68100 -0.01400 44.60400
C  8.33200 1.13000 45.29100
H  1.40000 2.37500 41.75800
H  -1.98900 -3.08700 43.29100
H  3.42000 -6.11300 44.60800
H  5.92200 1.58400 41.80500
H  3.47600 2.06100 40.07900
H  3.11300 3.74900 42.25300
H  3.64700 4.15200 40.64500
H  4.81500 3.82600 41.90100
H  5.07900 0.83300 39.09200
H  5.99300 -0.44300 39.95800
H  7.89200 0.90400 39.38600
H  7.21000 2.30300 40.23600
H  -0.56900 3.06400 42.14000
H  -2.27800 2.50100 41.96800
H  -1.04900 2.10900 40.74500
H  -4.62200 -1.74000 41.41100
H  -3.95200 -1.72000 43.17400
H  -3.15200 -2.52000 41.82300
H  -1.15700 -5.62300 43.39100
H  0.71700 -6.07400 45.65700
H  -2.05000 -3.86500 45.47600
H  -1.27100 -5.15300 46.31600
H  -2.51800 -5.58500 45.13600
H  -0.04000 -7.90200 43.99400
H  1.39100 -7.89300 44.77400
H  1.06000 -7.95600 41.98800
H  2.61500 -7.51600 42.68100
H  1.65000 -6.19200 42.34900
H  6.02000 -6.60500 43.70300
H  6.02600 -6.30400 45.46300
H  7.39800 -5.71500 44.47800
H  7.53800 -1.25400 41.61500
H  9.40200 0.92700 45.34000
H  7.84600 1.16300 46.26600
H  8.31800 2.08800 44.77100
Mg 0.44200 44.39900 24.09400
C  2.30800 44.02400 27.01100
C  -2.53200 43.97400 25.77200
C  -1.22400 43.82900 21.11700
C  3.55100 44.61400 22.40700
N  -0.01300 44.09000 26.09700
C  0.90400 43.97200 27.17400
C  0.10000 44.05900 28.53200
C  -1.34900 43.93200 28.06400
C  -1.34300 43.97900 26.55000
C  -2.03900 42.67400 28.63300
C  0.46800 45.25000 29.41100
C  0.67700 45.14600 30.94900
H  0.81700 43.75200 31.53600
N  -1.62900 44.09500 23.54000
C  -2.76300 44.01100 24.37100
C  -3.96100 44.20900 23.59000
C  -3.55000 44.10000 22.21700
C  -2.06200 43.92400 22.25000
C  -5.21300 44.57800 24.29800
C  -4.46800 44.19300 21.01700
O  -3.95900 44.11500 19.87700
C  -6.03600 44.27100 21.22000
N  1.02600 44.07800 22.16400
C  0.12800 43.89300 21.12800
C  0.89300 43.84600 19.85900
C  2.30100 44.38800 20.18900
C  2.27600 44.41700 21.70800
C  0.94200 42.32000 19.31000
C  2.73600 45.73000 19.56400
C  3.93900 45.77300 18.57200
N  2.47800 44.37900 24.50600
C  3.61800 44.41300 23.75000
C  4.79100 44.36700 24.49500
C  4.29400 44.25800 25.79800
C  2.91800 44.21600 25.75800
C  6.19000 44.40100 24.03700
C  4.75100 44.27200 27.14700
O  5.90700 44.43100 27.50800
C  3.50100 44.11600 28.07500
C  3.68700 42.89500 28.88600
O  3.07100 41.82100 28.82700
O  4.72700 43.17800 29.74600
C  5.13300 42.03200 30.58100
H  -3.46400 44.00800 26.34000
H  -1.72500 43.70500 20.15400
H  4.41100 44.83300 21.77000
H  0.37700 43.16700 29.09400
H  -1.99900 44.75600 28.35900
H  -1.56900 42.11200 29.44000
H  -2.24300 42.00700 27.79600
H  -2.98300 43.08400 28.99200
H  -0.28100 46.03700 29.32500
H  1.25100 45.80100 28.88900
H  -0.12300 45.63300 31.50700
H  1.60500 45.68000 31.15400
H  -5.88700 44.95100 23.52800
H  -5.02700 45.31000 25.08400
H  -5.61100 43.63100 24.66500
H  -6.48000 43.59700 21.95300
H  -6.39500 43.93000 20.24900
H  -6.26900 45.32700 21.36300
H  0.45500 44.62100 19.23000
H  3.03700 43.61500 19.96800
H  1.95700 41.92200 19.30200
H  0.56200 42.50400 18.30500
H  0.22600 41.67500 19.81900
H  3.01300 46.51200 20.27100
H  1.83900 46.10900 19.07400
H  4.16900 44.75300 18.26400
H  4.69700 46.42800 19.00200
H  3.60900 46.36900 17.72200
H  6.82400 44.68700 24.87700
H  6.22900 45.07300 23.18000
H  6.34800 43.38000 23.69000
H  3.53700 44.94100 28.78600
H  6.04400 42.26000 31.13300
H  5.28000 41.11900 30.00400
H  4.31700 41.82300 31.27300

