158

Mg -1.93400 17.11600 26.80400
C  -2.38200 14.95500 29.57900
C  -2.17300 19.73100 28.96400
C  -1.90900 19.23500 24.13600
C  -2.01300 14.35500 24.63300
N  -2.11200 17.34200 29.03400
C  -2.26200 16.29200 29.93200
C  -2.42800 16.85600 31.28700
C  -2.65900 18.37800 31.07100
C  -2.32100 18.52900 29.59800
C  -3.96500 19.12500 31.58500
C  -1.18200 16.60000 32.22800
C  -1.49800 16.37700 33.72200
H  -0.42900 16.54600 34.76200
N  -1.84700 19.17900 26.60600
C  -1.92500 20.06700 27.66300
C  -1.90100 21.40300 27.10400
C  -1.83200 21.31100 25.65400
C  -1.88900 19.81800 25.40100
C  -1.74200 22.67600 27.91700
C  -1.66800 22.42000 24.58100
O  -1.51100 22.10800 23.37800
C  -1.59100 23.85300 25.08400
N  -2.08800 16.77700 24.65300
C  -1.91100 17.84700 23.77900
C  -1.77600 17.23800 22.35300
C  -1.48000 15.74700 22.55100
C  -1.88400 15.60400 24.02400
C  -2.92500 17.62300 21.39300
C  0.00600 15.34100 22.29000
C  1.03800 15.82000 23.35000
N  -2.23600 15.05200 26.97900
C  -2.17300 14.06000 26.02700
C  -2.29700 12.80500 26.71700
C  -2.35700 13.09600 28.07900
C  -2.32400 14.49200 28.21300
C  -2.30000 11.39400 26.12600
C  -2.52800 12.52100 29.35700
O  -2.60500 11.29000 29.67300
C  -2.40300 13.64700 30.42600
C  -1.19100 13.35900 31.19400
O  -0.03400 13.64500 30.93900
O  -1.57100 12.72500 32.35400
C  -0.54500 12.58000 33.43000
H  -2.28500 20.60000 29.61600
H  -1.97900 19.84100 23.23000
H  -1.82800 13.51700 23.95700
H  -3.26600 16.34800 31.76500
H  -1.97900 18.93800 31.71300
H  -4.24800 19.86500 30.83600
H  -3.72800 19.76500 32.43400
H  -4.73600 18.38400 31.80000
H  -0.49000 17.42500 32.05600
H  -0.60800 15.77700 31.80100
H  -1.81900 15.33700 33.78000
H  -2.31900 17.07000 33.90600
H  -1.78700 22.42100 28.97600
H  -2.52400 23.32700 27.52700
H  -0.74800 23.08700 27.74300
H  -1.46500 24.50800 24.22200
H  -0.65800 23.81600 25.64700
H  -2.50300 24.10300 25.62400
H  -0.86800 17.72100 21.99300
H  -2.19800 15.11900 22.02400
H  -3.82400 17.81800 21.97700
H  -3.13400 16.71700 20.82300
H  -2.66700 18.50400 20.80400
H  0.30500 15.81500 21.35500
H  -0.02200 14.25600 22.19600
H  0.60900 16.40500 24.16300
H  1.73500 16.45400 22.80200
H  1.59400 14.96500 23.73600
H  -1.98700 11.47600 25.08500
H  -3.27900 10.91400 26.13100
H  -1.63000 10.72600 26.66600
H  -3.30900 13.77900 31.01800
H  0.43300 12.99100 33.17900
H  -0.34400 11.54600 33.71100
H  -0.94500 13.03800 34.33500
Mg 39.99600 9.82400 29.88300
C  41.87600 11.04700 32.73400
C  37.55200 8.71900 32.06600
C  38.41800 8.49100 27.26200
C  42.72400 10.68600 27.89300
N  39.88800 9.63400 32.20300
C  40.65500 10.40900 33.14400
C  40.02200 10.32100 34.55900
C  38.70800 9.50500 34.26100
C  38.65100 9.31400 32.74100
C  38.58400 8.16800 35.01400
C  39.77000 11.79200 35.15400
C  40.67500 12.19500 36.35800
H  40.12100 12.60300 37.69800
N  38.14800 8.77300 29.66500
C  37.33900 8.43800 30.69300
C  36.21700 7.76900 30.14200
C  36.47100 7.64600 28.78300
C  37.67000 8.36000 28.45600
C  35.11200 7.24000 30.99000
C  35.60800 6.97100 27.69000
O  35.92500 6.78300 26.53100
C  34.32300 6.42200 28.05500
N  40.45800 9.71100 27.81400
C  39.68200 9.03000 26.93300
C  40.23000 9.02800 25.47800
C  41.64600 9.65700 25.74100
C  41.67600 9.99600 27.26800
C  40.40000 7.52500 24.99600
C  41.97500 10.90800 24.87100
C  41.18000 12.18400 25.25400
N  41.95700 10.69400 30.14400
C  42.90200 11.06100 29.20800
C  43.98600 11.74000 29.91400
C  43.60100 11.79800 31.29800
C  42.34100 11.06600 31.38400
C  45.18000 12.38400 29.30700
C  44.01800 12.31000 32.60100
O  45.12100 12.79300 32.91500
C  42.90800 11.78100 33.59500
C  43.63000 10.84100 34.59300
O  43.80700 9.63600 34.50300
O  44.14400 11.61600 35.59600
C  44.56600 10.98200 36.84500
H  36.72400 8.59100 32.76700
H  37.93900 8.06800 26.37700
H  43.71400 10.88900 27.48100
H  40.81500 9.87200 35.15800
H  37.79700 10.09100 34.38000
H  38.51500 7.37400 34.27000
H  37.62300 8.25500 35.52100
H  39.38000 7.98500 35.73500
H  38.73700 11.89000 35.48900
H  39.82500 12.55200 34.37500
H  41.36800 12.97300 36.03800
H  41.24000 11.28400 36.55400
H  34.21200 7.78100 30.69700
H  35.31400 7.23800 32.06100
H  35.07400 6.17600 30.75900
H  34.45900 5.72900 28.88600
H  33.83300 5.97000 27.19200
H  33.65200 7.20100 28.41800
H  39.57100 9.50300 24.75100
H  42.37100 8.86900 25.53700
H  39.98100 6.74800 25.63700
H  41.44900 7.25300 24.88000
H  39.88400 7.27400 24.06900
H  41.88700 10.49800 23.86400
H  43.04900 11.09200 24.85300
H  41.86000 12.97000 25.58400
H  40.50000 11.98500 26.08200
H  40.56200 12.47900 24.40700
H  44.99500 12.74900 28.29800
H  45.94400 11.60800 29.25700
H  45.43600 13.17400 30.01300
H  42.48200 12.65700 34.08400
H  44.21000 11.55600 37.70100
H  45.64300 11.15000 36.86800
H  44.32400 9.92000 36.88200

