158

Mg 24.16200 -4.72100 45.70400
C  26.29600 -2.50100 44.17900
C  21.54900 -3.49400 43.77800
C  22.39500 -7.63400 46.22700
C  26.95600 -6.11100 47.27700
N  23.98900 -3.27800 44.16900
C  24.97700 -2.43000 43.73300
C  24.50100 -1.48000 42.63600
C  22.97600 -1.56700 42.81700
C  22.81300 -2.88000 43.61900
C  22.35300 -0.37400 43.53000
C  25.12700 -2.02900 41.17200
C  26.09200 -0.96900 40.46500
H  26.09200 -0.84900 38.91300
N  22.21000 -5.38200 45.27100
C  21.26500 -4.66700 44.58400
C  20.07700 -5.48900 44.45500
C  20.26100 -6.69900 45.18100
C  21.64700 -6.59700 45.63000
C  18.87300 -5.03700 43.68600
C  19.25500 -7.86700 45.29900
O  18.13400 -7.80300 44.82800
C  19.48700 -9.01200 46.28900
N  24.50500 -6.49000 46.80300
C  23.66300 -7.56400 46.81300
C  24.20900 -8.73600 47.71500
C  25.70800 -8.24500 47.97300
C  25.76500 -6.91200 47.27300
C  23.40900 -9.07500 49.03000
C  26.76200 -9.24400 47.41000
C  27.81900 -9.85500 48.40500
N  26.26600 -4.36100 45.80500
C  27.26200 -4.97100 46.51800
C  28.52200 -4.30300 46.38200
C  28.20600 -3.29600 45.37100
C  26.80700 -3.42200 45.07900
C  29.77200 -4.75700 47.00000
C  28.73600 -2.29200 44.55100
O  29.85000 -1.86300 44.46500
C  27.53000 -1.63000 43.82900
C  27.39100 -0.15200 44.09500
O  26.85600 0.35100 45.08700
O  27.92700 0.56000 43.09200
C  27.71300 2.04900 43.15000
H  20.75000 -3.15500 43.11600
H  21.91700 -8.60600 46.36300
H  27.71900 -6.53600 47.93200
H  24.91100 -0.52200 42.95700
H  22.47000 -1.67600 41.85700
H  23.13700 0.36100 43.71100
H  21.80800 -0.72800 44.40600
H  21.72000 0.03200 42.74000
H  24.38800 -2.39700 40.46000
H  25.75000 -2.90000 41.37600
H  27.12900 -1.06500 40.78900
H  25.68500 0.01300 40.70700
H  18.01500 -5.13000 44.35200
H  18.79700 -5.62200 42.76900
H  18.91100 -4.00500 43.33500
H  18.58000 -9.56400 46.53400
H  19.96100 -8.69500 47.21800
H  20.14000 -9.68100 45.72900
H  24.18700 -9.62900 47.09100
H  25.85500 -8.11600 49.04500
H  22.96900 -8.14000 49.37500
H  24.19600 -9.45600 49.68100
H  22.65500 -9.83600 48.82800
H  27.38000 -8.78300 46.63900
H  26.38400 -10.16500 46.96700
H  27.50700 -9.66000 49.43100
H  28.69400 -9.21200 48.30500
H  27.96900 -10.91000 48.17500
H  29.66500 -4.50100 48.05400
H  30.65300 -4.22900 46.63500
H  29.98600 -5.81000 46.81700
H  27.62900 -1.58300 42.74400
H  27.25500 2.48200 44.03900
H  27.04300 2.24800 42.31500
H  28.66100 2.47000 42.81300
Mg 27.66800 58.65100 42.21700
C  25.74500 56.15900 40.54200
C  30.42200 57.42300 40.65000
C  29.23900 61.17200 43.55000
C  24.48400 60.07200 43.22600
N  27.97100 57.05500 40.64200
C  27.10400 56.09500 40.18300
C  27.87300 54.94000 39.45000
C  29.33600 55.28400 39.76300
C  29.24900 56.70000 40.44800
C  30.21500 54.17100 40.43900
C  27.54300 54.85200 37.90800
C  27.14600 53.55800 37.17400
H  26.82600 53.55800 35.65100
N  29.63600 59.26900 42.12000
C  30.62900 58.63700 41.41000
C  31.83700 59.31600 41.64200
C  31.60900 60.41000 42.57600
C  30.15700 60.39800 42.80100
C  33.21100 58.89300 41.04500
C  32.60600 61.35400 43.15200
O  33.81900 61.18300 43.05600
C  32.14800 62.61400 43.86800
N  26.94100 60.33600 43.29500
C  27.87300 61.27000 43.58900
C  27.09800 62.50300 44.24700
C  25.58200 62.15900 44.19600
C  25.64700 60.77200 43.50200
C  27.49900 62.90600 45.70300
C  24.63000 63.18500 43.54500
C  23.96100 64.12100 44.51600
N  25.51000 58.21700 42.03600
C  24.38200 58.84900 42.53500
C  23.18700 58.11600 42.15800
C  23.69500 57.11700 41.34800
C  25.09500 57.21900 41.31600
C  21.80300 58.24200 42.66900
C  23.30400 55.90500 40.66000
O  22.17000 55.41300 40.48200
C  24.60200 55.20200 40.17700
C  24.75700 53.87800 40.86900
O  24.98900 53.66300 42.04300
O  24.54800 52.76200 40.00300
C  24.35700 51.43900 40.49400
H  31.37200 57.00600 40.31000
H  29.75500 61.96700 44.09100
H  23.49700 60.49100 43.43100
H  27.54700 54.08600 40.04400
H  29.82400 55.47400 38.80700
H  31.26800 54.30900 40.19400
H  29.89500 53.16300 40.17300
H  30.14900 54.18600 41.52700
H  28.32700 55.34400 37.33200
H  26.62100 55.41500 37.76300
H  26.33300 53.09600 37.73400
H  27.85300 52.73000 37.22600
H  33.78100 58.15400 41.60700
H  33.86000 59.75300 40.88200
H  32.91200 58.49600 40.07500
H  31.49500 63.16500 43.19100
H  32.89200 63.35700 44.15400
H  31.60700 62.35400 44.77800
H  27.35600 63.34200 43.60100
H  25.24900 62.01600 45.22400
H  28.06400 63.83700 45.74500
H  28.06700 62.16000 46.25900
H  26.66100 63.02500 46.38900
H  23.92700 62.67200 42.88900
H  25.13600 63.81500 42.81300
H  24.05500 65.14600 44.16000
H  24.50100 64.03100 45.45900
H  22.97000 63.70100 44.69100
H  21.13300 58.75500 41.97900
H  21.71100 58.79600 43.60300
H  21.37500 57.25100 42.82600
H  24.66700 55.00800 39.10700
H  24.13200 50.73800 39.69000
H  23.49600 51.35700 41.15700
H  25.23100 50.96800 40.94400

