158

Mg 23.73800 -4.92900 45.55700
C  26.33900 -2.80500 44.02100
C  21.64600 -3.92300 42.97600
C  21.90300 -7.58400 46.09600
C  26.40200 -6.25700 47.33400
N  23.97300 -3.51900 43.78200
C  25.08700 -2.79600 43.37400
C  24.78200 -2.04800 42.04100
C  23.25300 -2.40600 41.79000
C  22.91900 -3.29500 42.97800
C  22.33400 -1.24900 41.66800
C  25.66600 -2.49100 40.83600
C  26.55400 -1.47100 40.05000
H  26.10500 -1.48400 38.54800
N  21.89800 -5.66200 44.74500
C  21.20200 -4.99100 43.77300
C  19.84700 -5.61300 43.74700
C  19.91100 -6.78300 44.53800
C  21.24500 -6.75000 45.17200
C  18.75400 -5.09400 42.82500
C  18.80800 -7.75800 44.73200
O  17.68300 -7.50000 44.26100
C  18.85700 -9.01600 45.58200
N  24.16000 -6.73300 46.38800
C  23.16000 -7.65700 46.61700
C  23.69900 -8.88600 47.33200
C  25.01900 -8.32600 47.96200
C  25.22800 -7.05200 47.21500
C  22.68200 -9.61500 48.33100
C  26.30200 -9.31500 48.03100
C  26.11500 -10.92700 47.76200
N  25.82300 -4.43200 45.94100
C  26.75300 -5.05800 46.68800
C  28.02300 -4.52500 46.58500
C  27.87000 -3.56800 45.61600
C  26.55100 -3.62600 45.20500
C  29.27200 -4.98800 47.18700
C  28.64500 -2.62800 44.81100
O  29.83800 -2.35800 44.81300
C  27.66200 -2.09700 43.73900
C  27.61700 -0.58500 43.77300
O  27.17100 0.05400 44.66200
O  28.08400 0.04000 42.64300
C  28.23200 1.46900 42.65600
H  20.91400 -3.57600 42.24400
H  21.27300 -8.43200 46.37000
H  27.16500 -6.68400 47.98800
H  24.93700 -0.99300 42.26900
H  23.08000 -3.01700 40.90500
H  21.51100 -1.35700 42.37500
H  21.82700 -1.36400 40.71000
H  22.81800 -0.27200 41.66200
H  25.16200 -3.06000 40.05400
H  26.30300 -3.25200 41.28700
H  27.63900 -1.56900 40.06300
H  26.43000 -0.52000 40.56900
H  18.57400 -5.87000 42.08200
H  19.02800 -4.25600 42.18300
H  17.80600 -4.98700 43.35100
H  17.97400 -9.65200 45.51700
H  19.09500 -8.72900 46.60600
H  19.63700 -9.67100 45.19200
H  23.97700 -9.54100 46.50600
H  24.94800 -8.04700 49.01300
H  21.84200 -8.99600 48.64400
H  23.23700 -9.91600 49.22000
H  22.29200 -10.54900 47.92700
H  26.72000 -9.23000 49.03400
H  27.03600 -9.02100 47.28100
H  26.51700 -11.31500 46.82600
H  25.10400 -11.33200 47.81300
H  26.71200 -11.36100 48.56500
H  29.03600 -5.49100 48.12500
H  29.92000 -4.13000 47.36400
H  29.86500 -5.64100 46.54700
H  27.96000 -2.43000 42.74500
H  29.06400 1.73500 43.30800
H  27.40800 1.94500 43.18700
H  28.35800 1.97400 41.69800
Mg 41.15500 9.68100 30.13500
C  43.13000 11.05100 32.95400
C  38.87400 8.72300 32.55600
C  39.38400 8.29300 27.74200
C  43.53600 10.60100 28.10200
N  41.04400 9.85700 32.50800
C  41.94800 10.53500 33.42200
C  41.43800 10.44700 34.83700
C  40.10200 9.53700 34.71900
C  39.96400 9.34500 33.16700
C  40.16600 8.15700 35.46300
C  41.21700 11.78200 35.54600
C  40.26300 11.77200 36.74600
H  40.71200 11.86300 38.16700
N  39.34900 8.66400 30.18300
C  38.49500 8.40400 31.23500
C  37.31900 7.82100 30.67900
C  37.47800 7.68800 29.28800
C  38.75600 8.20900 28.99500
C  36.17900 7.27600 31.56400
C  36.42400 7.20100 28.22600
O  36.65600 7.00400 27.04400
C  34.97100 6.88200 28.63600
N  41.46100 9.37600 28.23700
C  40.58900 8.81300 27.39200
C  40.99000 8.92000 25.89500
C  42.26000 9.83200 26.05200
C  42.45500 9.96500 27.58600
C  41.27500 7.55300 25.24600
C  42.03900 11.24000 25.33000
C  42.25800 11.38700 23.85700
N  43.02900 10.49900 30.36800
C  43.89400 10.86300 29.43900
C  45.13000 11.44700 29.94200
C  44.82700 11.61300 31.28400
C  43.60100 10.90400 31.55100
C  46.26200 12.01600 29.10700
C  45.23400 12.25900 32.52900
O  46.12000 13.01500 32.76400
C  44.16900 11.91000 33.63500
C  44.80600 11.25400 34.79100
O  45.30900 10.13400 34.75500
O  44.71000 11.98600 35.95900
C  45.05100 11.21800 37.22200
H  38.12200 8.54000 33.32700
H  38.77500 7.95700 26.90000
H  44.25100 10.94100 27.35000
H  42.16200 9.90400 35.44600
H  39.16900 10.02400 35.00500
H  40.16000 7.34900 34.73100
H  39.26200 8.08600 36.06700
H  41.05600 8.26600 36.08300
H  40.94300 12.62700 34.91300
H  42.17900 12.10500 35.94300
H  39.91800 10.74000 36.81500
H  39.45400 12.48400 36.58200
H  36.00500 6.22500 31.33500
H  35.21000 7.71700 31.32900
H  36.35200 7.56100 32.60100
H  34.29200 6.61400 27.82700
H  34.68300 7.85800 29.02600
H  35.03600 6.13700 29.43000
H  40.29100 9.41300 25.22000
H  43.10400 9.47700 25.46100
H  41.42000 6.81200 26.03200
H  42.24200 7.68200 24.75900
H  40.59800 7.32700 24.42300
H  42.64000 12.03800 25.76500
H  40.98400 11.43600 25.52300
H  41.44200 11.92900 23.37900
H  42.43400 10.39500 23.44200
H  43.14000 12.01900 23.74900
H  46.56400 12.99300 29.48400
H  46.04000 12.15400 28.04900
H  47.07400 11.29000 29.15800
H  43.70500 12.82000 34.01400
H  45.61300 11.92100 37.83600
H  45.66400 10.32800 37.08200
H  44.16200 10.91900 37.77800

