158

Mg -2.31200 16.91400 26.33500
C  -2.76700 14.56800 29.02800
C  -2.58000 19.45800 28.62200
C  -2.42300 19.17400 23.88000
C  -2.77100 14.30100 24.11000
N  -2.59100 16.92700 28.50300
C  -2.77600 15.90800 29.43500
C  -2.84400 16.46000 30.87800
C  -2.89000 17.98400 30.63000
C  -2.70100 18.13000 29.14000
C  -4.11700 18.74200 31.06100
C  -1.76000 15.94100 31.78300
C  -1.28800 16.75500 32.99800
H  -0.69600 15.88400 34.12300
N  -2.28400 19.04300 26.28700
C  -2.31400 19.92100 27.34200
C  -2.26700 21.27100 26.84900
C  -2.19800 21.21800 25.43100
C  -2.34600 19.78200 25.13300
C  -2.36100 22.53400 27.69700
C  -1.91200 22.28900 24.34000
O  -1.78200 22.02300 23.14900
C  -1.74100 23.65500 24.76000
N  -2.56800 16.72800 24.34100
C  -2.40000 17.80100 23.48400
C  -2.51200 17.35800 21.98700
C  -2.39600 15.81300 22.14100
C  -2.61900 15.58300 23.61700
C  -3.91100 17.84800 21.37800
C  -0.94800 15.17900 21.83900
C  -0.90600 13.93400 20.94500
N  -2.49000 14.81700 26.46000
C  -2.78600 13.88900 25.47900
C  -2.89700 12.58700 26.08100
C  -2.85000 12.82800 27.44300
C  -2.61800 14.21300 27.65700
C  -2.99200 11.30100 25.43400
C  -3.13100 12.22000 28.67500
O  -3.41400 11.10000 29.01000
C  -2.89100 13.28100 29.79200
C  -1.59200 12.93500 30.52400
O  -0.48100 13.34300 30.37100
O  -1.91200 11.99800 31.39500
C  -0.96200 11.52300 32.36300
H  -2.64800 20.20300 29.41800
H  -2.41200 19.81500 22.99700
H  -3.02700 13.54500 23.36500
H  -3.77500 16.19100 31.37700
H  -1.94400 18.37900 31.00000
H  -3.80600 19.74400 31.35800
H  -4.61800 18.32900 31.93600
H  -4.79900 18.84800 30.21700
H  -0.88100 15.68800 31.18900
H  -2.21300 15.02100 32.15100
H  -2.08100 17.34900 33.45300
H  -0.41500 17.34900 32.72900
H  -1.42100 23.06900 27.56500
H  -2.47300 22.23200 28.73900
H  -3.28800 23.06300 27.48100
H  -1.89100 24.24300 23.85400
H  -0.78000 23.80900 25.25000
H  -2.50600 23.97300 25.46900
H  -1.62100 17.84100 21.58600
H  -3.04100 15.25800 21.46000
H  -4.57400 16.99300 21.24400
H  -3.80500 18.55100 20.55100
H  -4.38800 18.52100 22.09100
H  -0.38000 14.94200 22.73800
H  -0.32600 15.90400 21.31500
H  -0.24000 14.28500 20.15700
H  -1.90200 13.81500 20.51800
H  -0.58600 13.03700 21.47700
H  -1.97100 10.92600 25.50900
H  -3.30000 11.29200 24.38800
H  -3.69900 10.71600 26.02300
H  -3.72400 13.30800 30.49400
H  -0.59000 12.35900 32.95600
H  -0.12500 11.03700 31.86400
H  -1.34200 10.77000 33.05400
Mg 42.93400 4.49600 47.89900
C  40.99300 7.42300 48.01100
C  40.08000 2.56700 47.73100
C  44.80800 1.86200 47.07600
C  45.79200 6.56500 47.63000
N  40.83300 5.03300 47.64900
C  40.25300 6.29500 47.81000
C  38.75000 6.22200 47.91700
C  38.57300 4.70700 48.16400
C  39.89700 4.02600 47.71500
C  38.36100 4.37800 49.63400
C  37.99300 6.72000 46.66100
C  38.73500 6.62400 45.26900
H  38.98900 7.67500 44.28300
N  42.47500 2.51600 47.49000
C  41.32000 1.89800 47.60600
C  41.42600 0.45100 47.43200
C  42.82200 0.19900 47.23500
C  43.44100 1.57900 47.25000
C  40.22900 -0.42000 47.46400
C  43.41700 -1.14800 47.10000
O  42.69600 -2.14100 47.16700
C  44.92700 -1.39400 46.85100
N  45.01600 4.29000 47.42100
C  45.49900 3.07100 47.04500
C  46.99600 3.11000 46.93200
C  47.37000 4.59500 47.23400
C  45.99500 5.21300 47.43100
C  47.70100 2.07900 47.85300
C  48.28500 5.25700 46.13700
C  49.60700 5.81400 46.60000
N  43.38500 6.54600 47.92100
C  44.62100 7.24900 47.86000
C  44.30800 8.69100 47.95600
C  42.94500 8.76000 47.97100
C  42.42900 7.49000 47.98200
C  45.41700 9.78200 47.99900
C  41.89500 9.74000 48.17300
O  41.92200 10.97300 48.32900
C  40.58500 8.86900 48.11100
C  39.78100 9.10500 49.28900
O  40.09900 8.71700 50.40600
O  38.75600 9.94400 48.98100
C  37.94900 10.32700 50.15100
H  39.19800 1.93400 47.85100
H  45.47100 1.02200 46.85700
H  46.69200 7.18200 47.58000
H  38.54400 6.94400 48.70600
H  37.75200 4.17300 47.68400
H  37.76200 5.14000 50.13300
H  39.31100 4.27300 50.15800
H  37.70600 3.50800 49.68700
H  37.85300 7.79700 46.75600
H  37.00200 6.27300 46.73200
H  38.18400 5.82000 44.78200
H  39.77400 6.30100 45.33200
H  39.48300 -0.15600 46.71400
H  39.65100 -0.32100 48.38300
H  40.38100 -1.48600 47.29700
H  45.59300 -1.05500 47.64400
H  45.21700 -0.83500 45.96100
H  44.93300 -2.46000 46.62000
H  47.25900 2.78400 45.92500
H  47.81100 4.72500 48.22200
H  47.03000 1.45900 48.44700
H  48.37600 2.70500 48.43700
H  48.29700 1.38200 47.26300
H  47.70200 6.09100 45.74600
H  48.41500 4.51600 45.34800
H  49.61700 6.81000 46.15700
H  50.49600 5.38900 46.13400
H  49.66800 5.88200 47.68700
H  46.42500 9.38200 47.88500
H  45.34000 10.35900 48.92000
H  45.33000 10.40500 47.10900
H  39.99200 9.08800 47.22400
H  36.89600 10.04900 50.12200
H  37.82100 11.40700 50.22200
H  38.30800 10.01800 51.13300

