158

Mg 42.00500 40.68500 27.32900
C  41.44000 43.30000 29.75600
C  42.67800 38.54000 30.04800
C  42.64900 38.21800 25.27400
C  41.59900 43.02400 24.90600
N  41.88200 40.87500 29.65400
C  41.61800 42.01100 30.35500
C  41.72300 41.71100 31.80000
C  42.32700 40.24700 31.92000
C  42.29100 39.81800 30.45600
C  43.81200 40.28600 32.56200
C  40.38500 41.92500 32.56200
C  40.29800 42.82500 33.75900
H  39.45800 42.15700 35.00000
N  42.59800 38.68700 27.59200
C  42.84200 38.01500 28.77400
C  43.21100 36.65000 28.44500
C  43.18300 36.50100 27.07200
C  42.78300 37.83700 26.60600
C  43.54300 35.60100 29.52200
C  43.34500 35.22600 26.24700
O  43.22900 35.18300 25.02700
C  43.48400 33.97300 26.91800
N  42.08600 40.65600 25.41100
C  42.39100 39.51900 24.69100
C  42.33500 39.68400 23.22400
C  41.67500 41.12500 23.13300
C  41.85900 41.67600 24.55200
C  43.73100 39.55600 22.62600
C  40.26900 41.27000 22.42900
C  39.03500 40.99200 23.31000
N  41.63400 42.73300 27.27300
C  41.43200 43.57600 26.16600
C  41.13800 44.92500 26.55100
C  41.10400 44.85600 27.97900
C  41.42700 43.49700 28.31000
C  40.78700 45.98500 25.60500
C  40.98000 45.60400 29.23600
O  40.79800 46.78600 29.27900
C  41.04700 44.63700 30.42300
C  42.10200 45.09600 31.35600
O  43.30900 44.98200 31.38100
O  41.31200 45.68800 32.33300
C  41.99700 46.19700 33.45500
H  42.84800 37.86500 30.89000
H  42.75000 37.30500 24.68400
H  41.69900 43.72000 24.07000
H  42.41300 42.45700 32.19500
H  41.70800 39.53800 32.46900
H  43.99700 41.21600 33.10000
H  44.42600 40.37600 31.66600
H  44.05000 39.42900 33.19200
H  39.97800 40.99400 32.95600
H  39.67600 42.17000 31.77100
H  39.78500 43.73800 33.45600
H  41.31700 43.07500 34.05500
H  44.62000 35.44200 29.47000
H  43.03600 34.65000 29.36000
H  43.32300 35.95000 30.53100
H  42.63300 33.74500 27.55900
H  44.45500 33.97100 27.41200
H  43.45700 33.27000 26.08500
H  41.61000 38.97000 22.83100
H  42.38300 41.69900 22.53600
H  44.38600 38.97900 23.27900
H  44.13200 40.51800 22.30600
H  43.53200 39.07700 21.66800
H  40.20700 40.70200 21.50000
H  40.22800 42.31100 22.10900
H  38.32000 40.23800 22.98200
H  38.46400 41.91100 23.44600
H  39.35400 40.78700 24.33200
H  40.52800 45.58500 24.62500
H  41.72600 46.53800 25.60300
H  40.07700 46.66600 26.07300
H  40.08900 44.40900 30.89100
H  41.47000 46.99400 33.97900
H  43.05600 46.38700 33.27900
H  41.85900 45.37300 34.15500
Mg 36.14200 48.72000 25.87800
C  36.36200 47.05200 28.89600
C  35.24600 51.52000 27.65700
C  36.09900 50.35900 23.02200
C  36.86000 45.68100 24.17700
N  35.64300 49.13300 28.05400
C  35.93100 48.36400 29.14200
C  35.68000 49.04800 30.48600
C  34.94300 50.36300 29.97400
C  35.24400 50.33600 28.46300
C  33.45400 50.60200 30.37100
C  37.02300 49.26100 31.33200
C  36.84900 48.94200 32.76600
H  35.49600 49.11000 33.41500
N  35.74000 50.68000 25.40000
C  35.46600 51.69200 26.29800
C  35.45500 52.94200 25.58900
C  35.77300 52.64400 24.20100
C  35.80900 51.17600 24.12400
C  35.08400 54.27000 26.22000
C  35.98700 53.61300 23.00100
O  36.43300 53.22100 21.90600
C  35.79600 55.06500 23.05100
N  36.16300 48.01800 23.81800
C  36.28600 48.99700 22.82300
C  36.41500 48.23500 21.51400
C  37.01600 46.83400 21.97300
C  36.65700 46.78000 23.39500
C  35.16800 48.20600 20.64500
C  38.56800 46.61700 21.71500
C  38.94900 45.49800 20.89800
N  36.51700 46.74500 26.33000
C  36.89600 45.69000 25.55700
C  37.18600 44.57900 26.37600
C  36.91200 45.00800 27.71900
C  36.56600 46.38900 27.60100
C  37.65200 43.25700 25.85000
C  36.94300 44.69400 29.13500
O  37.17100 43.62100 29.68300
C  36.55100 46.03500 29.92600
C  35.34400 45.77800 30.75800
O  34.15100 45.71700 30.27900
O  35.58700 45.68100 32.05100
C  34.47300 45.14900 32.87200
H  34.89200 52.34600 28.27700
H  36.11800 50.87700 22.06100
H  37.00400 44.70000 23.72100
H  34.90800 48.49600 31.02200
H  35.35900 51.24900 30.45300
H  33.41400 51.52600 30.94900
H  33.15700 49.84800 31.09900
H  32.91100 50.65800 29.42700
H  37.34800 50.30200 31.32300
H  37.69400 48.49400 30.94600
H  37.46400 49.56200 33.41900
H  37.17200 47.90700 32.88200
H  34.89300 54.24500 27.29200
H  34.20700 54.70700 25.74200
H  35.90400 54.97500 26.08100
H  36.34400 55.49100 22.21000
H  36.37600 55.39600 23.91200
H  34.77900 55.45200 22.98400
H  37.15100 48.86200 21.01000
H  36.55800 46.02300 21.40600
H  35.17800 47.40800 19.90200
H  35.16400 49.09500 20.01400
H  34.34500 48.15200 21.35700
H  39.01900 46.40300 22.68400
H  38.98900 47.55900 21.36200
H  39.36700 46.01100 20.03200
H  38.07500 44.91500 20.60500
H  39.67800 44.88500 21.42800
H  38.67100 43.51300 25.55900
H  37.08800 43.01300 24.95000
H  37.53100 42.50700 26.63200
H  37.38000 46.28900 30.58700
H  34.17200 44.24300 32.34700
H  33.79300 46.00100 32.85800
H  34.77700 44.84100 33.87300

