158

Mg 9.70500 47.24000 27.68400
C  8.05400 46.77600 30.73100
C  12.71800 47.57500 29.48700
C  11.12200 48.32500 24.88800
C  6.52600 47.79400 26.19200
N  10.27700 46.97000 29.76300
C  9.43500 46.80500 30.86700
C  10.25600 46.88800 32.20100
C  11.63300 47.37300 31.68300
C  11.52800 47.38700 30.22400
C  12.19700 48.76000 32.21800
C  10.29000 45.62100 33.16900
C  9.98900 45.89700 34.65200
H  10.64600 44.86100 35.64200
N  11.67100 47.68800 27.19200
C  12.72500 47.71400 28.02300
C  13.92100 47.96600 27.22600
C  13.49900 48.20000 25.85300
C  12.07000 48.09400 25.90700
C  15.24800 48.13700 27.83300
C  14.25600 48.54300 24.59900
O  13.66200 48.57500 23.50400
C  15.75800 48.52900 24.64400
N  8.88700 47.77000 25.75500
C  9.73300 48.20900 24.75500
C  8.94500 48.60000 23.46800
C  7.51000 48.31500 23.90400
C  7.61500 47.87500 25.31100
C  9.22300 49.99600 22.86800
C  6.61300 47.44900 23.00300
C  6.75800 47.51600 21.42800
N  7.74600 47.22900 28.29700
C  6.58900 47.52300 27.60700
C  5.44700 47.42400 28.50300
C  5.97900 47.12400 29.77000
C  7.35700 47.02600 29.55200
C  3.97100 47.52500 28.18300
C  5.68100 46.95600 31.13400
O  4.60500 47.00300 31.72100
C  7.02500 46.70400 31.81600
C  6.84300 45.28500 32.37000
O  6.70500 44.30100 31.66900
O  6.81700 45.19100 33.73000
C  6.86400 43.84400 34.26200
H  13.66100 47.66700 30.03000
H  11.48800 48.58600 23.89300
H  5.57600 48.07700 25.73400
H  9.90700 47.69900 32.84000
H  12.35100 46.56700 31.83600
H  12.31500 49.38700 31.33400
H  13.17400 48.68600 32.69600
H  11.44000 49.25400 32.82700
H  11.14100 44.93900 33.15100
H  9.50700 44.92300 32.87300
H  8.93700 46.09900 34.85300
H  10.42800 46.88900 34.76100
H  16.01400 47.55500 27.31900
H  15.26200 47.83900 28.88200
H  15.51600 49.19300 27.82400
H  15.98000 47.52700 25.01000
H  16.19900 49.25300 25.32800
H  16.13500 48.74300 23.64300
H  9.28600 47.78600 22.82800
H  6.95100 49.24600 24.00000
H  9.92400 50.59500 23.45000
H  8.26300 50.51200 22.91500
H  9.67700 50.00600 21.87800
H  5.58500 47.78000 23.15100
H  6.65500 46.41600 23.34700
H  7.49000 48.23900 21.06600
H  5.74700 47.77000 21.10900
H  7.13200 46.59200 20.98500
H  3.53600 46.53300 28.30600
H  3.75800 47.89100 27.17800
H  3.42700 48.08400 28.94400
H  7.07300 47.38900 32.66300
H  6.26400 43.19400 33.62600
H  6.60700 43.69500 35.31100
H  7.89300 43.52000 34.10700
Mg 0.64500 43.32800 26.59500
C  2.85900 42.69400 29.21600
C  -1.99600 42.61900 28.66700
C  -1.45000 43.58900 23.98400
C  3.49500 43.83500 24.39800
N  0.48000 42.63700 28.64800
C  1.47400 42.60400 29.58200
C  0.86900 42.44200 30.99400
C  -0.60100 42.09600 30.72200
C  -0.74700 42.45500 29.23900
C  -1.13300 40.70700 31.14900
C  1.14900 43.63200 31.89100
C  1.69800 43.37100 33.25800
H  1.35400 42.06300 34.04300
N  -1.48300 43.05800 26.35000
C  -2.37800 42.86600 27.30700
C  -3.72000 42.82700 26.74400
C  -3.54100 43.02800 25.36200
C  -2.12300 43.17600 25.16800
C  -4.91800 42.62100 27.67000
C  -4.63300 43.02200 24.26800
O  -4.26000 43.24100 23.11700
C  -6.07200 42.70300 24.58900
N  1.03000 43.47100 24.40300
C  -0.07100 43.74300 23.63000
C  0.37200 44.30300 22.26900
C  1.91700 44.66100 22.56300
C  2.18000 43.97800 23.85600
C  -0.00100 43.30500 21.10200
C  2.21000 46.19900 22.68700
C  1.55000 47.07500 21.56500
N  2.69000 43.18800 26.71800
C  3.68600 43.42100 25.76600
C  4.92600 43.28500 26.47500
C  4.67500 43.04800 27.82000
C  3.31800 42.97800 27.91800
C  6.25500 43.34200 25.77200
C  5.25300 42.68500 29.05700
O  6.40500 42.46500 29.41300
C  4.03700 42.51800 30.11500
C  4.28400 41.14900 30.77100
O  3.89100 40.04000 30.39700
O  5.05100 41.38500 31.91300
C  5.27000 40.20300 32.74000
H  -2.86600 42.43200 29.29900
H  -2.05500 43.90200 23.13000
H  4.38200 44.02200 23.79000
H  1.47300 41.58400 31.28900
H  -1.19500 42.81600 31.28500
H  -0.24200 40.20500 31.52700
H  -1.60400 40.18400 30.31600
H  -1.85500 40.78200 31.96200
H  0.27100 44.24000 32.11000
H  1.94800 44.30400 31.57700
H  1.34600 44.22500 33.83600
H  2.78700 43.42900 33.25600
H  -5.55100 43.48700 27.47500
H  -4.65500 42.51100 28.72200
H  -5.43600 41.70700 27.37600
H  -6.55400 42.22300 23.73700
H  -6.49100 43.70800 24.54800
H  -6.23700 42.15000 25.51300
H  -0.15500 45.24400 22.11200
H  2.47000 44.21300 21.73700
H  0.70200 43.41600 20.27700
H  -0.94200 43.59900 20.63700
H  -0.08100 42.33900 21.60000
H  3.25900 46.46700 22.55700
H  2.12900 46.60900 23.69300
H  0.61600 47.54100 21.87900
H  1.41100 46.44100 20.69000
H  2.16000 47.83300 21.07200
H  6.41500 44.41800 25.70200
H  6.37900 42.90600 24.78000
H  6.88500 42.92000 26.55500
H  4.06200 43.37000 30.79500
H  6.29000 40.16000 33.12200
H  5.24500 39.21100 32.28800
H  4.73500 40.17400 33.68900

