158

Mg 8.56300 3.52100 28.09900
C  10.30400 1.95200 30.84000
C  6.57700 5.04500 30.13100
C  7.26900 4.69700 25.35900
C  10.66100 1.40300 25.93000
N  8.32800 3.24700 30.22100
C  9.24400 2.81600 31.14100
C  8.85200 3.26600 32.52200
C  7.54700 4.08700 32.30100
C  7.48500 4.16000 30.75200
C  6.25600 3.72600 33.09700
C  10.03900 3.98800 33.35100
C  9.58500 4.96000 34.44500
H  10.20500 4.86700 35.76900
N  7.17500 4.80000 27.82600
C  6.42300 5.32400 28.78500
C  5.45500 6.27700 28.17800
C  5.55900 6.08700 26.76000
C  6.70300 5.16900 26.56400
C  4.49800 7.11100 28.95100
C  4.78600 6.65500 25.73200
O  5.00800 6.37400 24.55700
C  3.70300 7.68900 25.94800
N  9.01500 3.15900 25.93900
C  8.37700 3.90900 25.03400
C  8.79800 3.59300 23.54700
C  10.01900 2.65200 23.77700
C  9.88900 2.37800 25.35100
C  7.65500 3.14700 22.56000
C  11.36400 3.29600 23.42600
C  11.89400 4.34800 24.38500
N  10.14900 1.97700 28.24500
C  10.79800 1.19600 27.30100
C  11.71700 0.41000 28.00500
C  11.61300 0.70000 29.39000
C  10.57900 1.58600 29.46300
C  12.66000 -0.45600 27.32400
C  12.11500 0.45500 30.72400
O  12.96100 -0.29600 31.08800
C  11.21300 1.24600 31.72200
C  10.59300 0.33800 32.73500
O  9.59000 -0.28800 32.43900
O  11.16800 0.53400 34.02300
C  10.37200 -0.05000 35.10100
H  5.95400 5.59900 30.83700
H  6.94500 4.92300 24.34100
H  11.19300 0.67800 25.30900
H  8.65800 2.37900 33.12600
H  7.61300 5.13900 32.57900
H  6.48800 2.70700 33.40800
H  5.36900 3.69400 32.46400
H  6.18500 4.47000 33.89100
H  10.40600 4.58200 32.51400
H  10.77200 3.21800 33.59600
H  8.49900 5.01900 34.51100
H  9.87700 5.95100 34.09900
H  3.44000 6.89000 28.81600
H  4.73800 8.15100 28.73400
H  4.77100 7.09000 30.00600
H  3.32600 8.00400 24.97500
H  4.10700 8.55600 26.47100
H  2.90400 7.22600 26.52700
H  9.13100 4.56700 23.18700
H  9.87200 1.68500 23.29600
H  6.68600 3.36600 23.00700
H  7.74100 2.11200 22.22700
H  7.71300 3.77700 21.67300
H  11.26400 3.65500 22.40100
H  12.05700 2.45500 23.38900
H  11.24800 4.39600 25.26100
H  11.98800 5.31700 23.89600
H  12.88000 4.06500 24.75400
H  13.29700 0.08600 26.62600
H  12.27600 -1.32900 26.79700
H  13.37800 -0.65600 28.11900
H  11.90900 1.87600 32.27600
H  9.78900 0.74900 35.55800
H  11.06700 -0.33300 35.89300
H  9.81100 -0.92500 34.77400
Mg 16.96200 51.52200 25.48200
C  18.77800 50.27100 28.33800
C  14.44600 52.44500 27.64600
C  15.67400 52.98000 22.97800
C  19.54700 50.22600 23.56800
N  16.64500 51.26500 27.68800
C  17.46000 50.75500 28.66000
C  16.91500 51.21100 30.02800
C  15.41200 51.41000 29.78000
C  15.51000 51.74300 28.25400
C  14.57300 50.10600 30.04900
C  17.67100 52.47000 30.56400
C  17.98800 52.48700 32.10500
H  17.02100 51.84700 33.17100
N  15.18600 52.65100 25.29500
C  14.29300 52.91500 26.28500
C  13.25000 53.76900 25.67900
C  13.58000 53.93300 24.27300
C  14.86200 53.24700 24.12700
C  12.00000 54.07900 26.36000
C  12.85200 54.73700 23.14800
O  13.23400 54.82300 21.99600
C  11.70300 55.54700 23.51700
N  17.49500 51.45200 23.59300
C  16.82400 52.25000 22.74000
C  17.44700 52.29800 21.31800
C  18.69800 51.37100 21.54900
C  18.58800 50.97500 23.00900
C  16.52400 51.89200 20.16200
C  20.03100 52.03100 21.19800
C  20.48200 51.58300 19.87600
N  18.69900 50.26900 25.80500
C  19.70700 49.90100 24.91800
C  20.80500 49.26600 25.56700
C  20.53800 49.35700 26.90900
C  19.22800 50.01100 27.01500
C  22.06600 48.78000 24.82100
C  21.04600 49.07000 28.28000
O  22.09500 48.57500 28.75500
C  19.82600 49.66900 29.29300
C  19.35800 48.61000 30.06400
O  19.05000 47.44100 29.72100
O  19.42700 48.92800 31.42600
C  18.95800 47.93200 32.39200
H  13.66600 52.88300 28.27200
H  15.28300 53.49500 22.09800
H  20.32700 49.85700 22.89900
H  17.07800 50.32700 30.64500
H  15.00700 52.25500 30.33800
H  13.61900 50.30500 30.53700
H  15.09200 49.43600 30.73500
H  14.28900 49.72000 29.07000
H  17.08200 53.36600 30.36900
H  18.60000 52.52300 29.99500
H  18.01800 53.53900 32.39000
H  18.92700 51.96100 32.27900
H  11.19200 53.73600 25.71300
H  11.94500 55.16800 26.38900
H  11.86000 53.58700 27.32200
H  10.87400 54.90200 23.81000
H  11.40300 56.15600 22.66300
H  11.94300 56.14300 24.39800
H  17.62800 53.35100 21.10200
H  18.55500 50.40800 21.06100
H  15.48900 52.20400 20.30200
H  16.54300 50.81200 20.01900
H  16.79400 52.40900 19.24100
H  20.84500 51.73400 21.86000
H  19.83200 53.10100 21.15300
H  21.17200 50.77800 20.12900
H  21.12400 52.26200 19.31600
H  19.75600 51.13400 19.19700
H  22.27400 49.47600 24.00800
H  21.80400 47.78900 24.45000
H  22.92600 48.52400 25.43900
H  20.29300 50.43500 29.91300
H  18.21100 48.33700 33.07500
H  19.82500 47.63200 32.98100
H  18.63300 46.96500 32.00800

