158

Mg 53.53000 23.41800 43.94300
C  51.03800 25.78000 43.05500
C  51.72900 21.00000 42.50900
C  56.31600 21.44400 43.81400
C  55.58100 26.15000 44.91000
N  51.73900 23.43800 42.59100
C  50.80700 24.49400 42.53800
C  49.52600 24.03900 41.80800
C  49.64300 22.46100 42.02400
C  51.08500 22.29000 42.38700
C  48.61000 22.07600 43.06500
C  49.33400 24.56300 40.37600
C  50.61800 24.84500 39.49800
H  50.37000 25.54100 38.09500
N  53.93300 21.44700 43.47600
C  52.99800 20.61000 42.99900
C  53.59900 19.22200 42.98600
C  54.89600 19.34400 43.44900
C  55.14000 20.80300 43.58100
C  52.76200 18.00400 42.43600
C  55.81900 18.12400 43.73100
O  55.46000 16.98900 43.40900
C  57.06000 18.36100 44.46400
N  55.54900 23.73400 44.35700
C  56.49000 22.78800 44.07200
C  57.90400 23.32600 44.37300
C  57.67500 24.75100 44.82300
C  56.19300 24.86500 44.68100
C  58.67300 22.43800 45.30800
C  58.54000 25.81500 44.05100
C  60.06700 25.74900 44.29400
N  53.41100 25.49600 44.06200
C  54.24000 26.42300 44.61600
C  53.50400 27.59500 44.88200
C  52.30500 27.38900 44.24000
C  52.33900 26.11700 43.70000
C  54.02600 28.78600 45.65100
C  51.00700 28.09800 43.92600
O  50.56000 29.21400 44.21100
C  50.16500 27.03900 43.13300
C  49.64100 27.60200 41.86700
O  50.23500 27.78200 40.82600
O  48.32100 27.83900 42.12400
C  47.56900 28.49200 41.01100
H  51.12600 20.19700 42.08300
H  57.20400 20.83900 43.61900
H  56.17100 26.94200 45.37500
H  48.66200 24.42700 42.34700
H  49.50600 22.06800 41.01600
H  48.67600 21.02400 43.34300
H  47.62200 22.22700 42.63000
H  48.77300 22.72000 43.93000
H  48.76200 25.48700 40.28800
H  48.71900 23.81700 39.87300
H  51.23900 23.96800 39.31800
H  51.18100 25.51100 40.15200
H  53.09200 16.98900 42.65800
H  52.41900 18.17900 41.41700
H  51.81500 18.06800 42.97200
H  56.95300 19.18500 45.16900
H  57.88100 18.58900 43.78500
H  57.33100 17.43400 44.96900
H  58.39200 23.23700 43.40300
H  57.95700 24.95800 45.85600
H  58.99200 22.99600 46.18900
H  59.52700 22.03900 44.76100
H  58.00200 21.67000 45.69400
H  58.18400 26.79200 44.37600
H  58.25100 25.65400 43.01300
H  60.44200 26.56200 44.91500
H  60.67400 25.94500 43.41000
H  60.38800 24.84600 44.81400
H  54.76700 29.29900 45.03800
H  54.33600 28.49400 46.65400
H  53.34000 29.61400 45.82900
H  49.26400 26.71900 43.65600
H  48.08200 29.42600 40.78100
H  46.55700 28.71600 41.34800
H  47.50000 27.91100 40.09200
Mg 46.59900 24.54100 28.30700
C  47.45800 26.82600 30.78500
C  45.64800 22.38000 30.79200
C  45.74700 22.38200 25.96300
C  47.32500 26.85900 25.88800
N  46.46600 24.66700 30.54300
C  46.83400 25.70200 31.33700
C  46.61600 25.45200 32.89000
C  46.17000 23.90300 32.81800
C  46.06900 23.60400 31.26700
C  47.22300 22.97700 33.47500
C  45.47700 26.43600 33.50200
C  45.90900 27.13600 34.77300
H  44.87200 27.40200 35.85100
N  45.78300 22.60400 28.34400
C  45.43400 21.91600 29.43000
C  44.92900 20.69900 29.04400
C  45.17400 20.56100 27.68100
C  45.53900 21.89800 27.22300
C  44.51400 19.61700 30.04100
C  45.05600 19.32300 26.82000
O  45.02100 19.40100 25.57300
C  44.81100 17.98900 27.42900
N  46.70500 24.49800 26.21100
C  46.24700 23.54300 25.42200
C  46.30900 23.81500 23.95700
C  46.55700 25.35800 23.98400
C  46.93700 25.60800 25.45900
C  47.49700 23.15900 23.28100
C  45.35000 26.24500 23.51300
C  44.09300 26.01600 24.24900
N  47.46500 26.43900 28.30100
C  47.61800 27.30400 27.23900
C  48.26800 28.52100 27.74300
C  48.22300 28.40400 29.15700
C  47.65300 27.13500 29.46100
C  48.75500 29.63100 26.85100
C  48.57000 29.05600 30.45600
O  49.05800 30.17400 30.70000
C  47.92000 28.12000 31.53300
C  48.94100 27.87000 32.57600
O  49.91000 27.20500 32.41200
O  48.55900 28.47200 33.70900
C  49.51500 28.54800 34.81500
H  45.47600 21.71000 31.63700
H  45.43000 21.77400 25.11300
H  47.40400 27.63300 25.12100
H  47.52900 25.44800 33.48600
H  45.20700 23.72500 33.29600
H  47.04600 21.93900 33.19300
H  47.11800 23.06400 34.55600
H  48.20500 23.23100 33.07600
H  44.55100 25.89000 33.68000
H  45.18900 27.24900 32.83500
H  46.24500 28.14000 34.51700
H  46.69200 26.56700 35.27600
H  45.32100 18.88400 30.05400
H  43.53500 19.24300 29.74300
H  44.51400 20.04900 31.04100
H  43.93000 17.72000 28.01200
H  45.64400 17.93900 28.13100
H  44.97500 17.21700 26.67800
H  45.38500 23.60800 23.41700
H  47.44900 25.72500 23.47600
H  48.34200 23.84300 23.19500
H  47.08500 22.86200 22.31700
H  47.83500 22.28500 23.83800
H  45.20000 26.12200 22.44000
H  45.60500 27.30200 23.57800
H  43.28100 25.92000 23.52900
H  43.82000 26.82800 24.92300
H  44.16300 25.12500 24.87400
H  48.81800 30.58300 27.37900
H  48.04000 29.74300 26.03600
H  49.68100 29.32600 26.36400
H  47.09900 28.62500 32.04100
H  50.21900 27.72000 34.73200
H  48.93800 28.33500 35.71500
H  49.93800 29.55300 34.82500

