158

Mg 26.33900 0.14800 29.02200
C  27.92700 0.01200 32.24600
C  23.24300 0.14200 30.74100
C  24.69500 0.11300 26.14800
C  29.34200 -0.66000 27.63500
N  25.71200 -0.01700 31.21500
C  26.50500 0.19100 32.30200
C  25.72700 0.61700 33.54900
C  24.29900 0.50400 33.05900
C  24.41700 0.11900 31.58900
C  23.47200 -0.57800 33.79400
C  26.10500 2.00000 34.16100
C  25.40300 2.40000 35.50500
H  26.32300 2.62800 36.67900
N  24.27500 0.29600 28.52800
C  23.19500 0.21400 29.36900
C  21.95900 0.23200 28.60200
C  22.31600 0.40000 27.25200
C  23.80500 0.31000 27.22400
C  20.62700 0.09600 29.28200
C  21.53000 0.64400 26.00100
O  22.00700 0.75600 24.84400
C  20.09500 0.64300 26.03300
N  26.99200 -0.22400 27.24200
C  26.09800 -0.16400 26.17600
C  26.88900 -0.31900 24.86100
C  28.38000 -0.38500 25.34400
C  28.25800 -0.37300 26.85300
C  26.56600 -1.43300 23.80900
C  29.28200 0.77500 24.87300
C  29.98100 0.54600 23.53000
N  28.25400 -0.18500 29.69200
C  29.36500 -0.50500 28.98200
C  30.55400 -0.47600 29.80200
C  29.97900 -0.25600 31.13800
C  28.66300 -0.10400 31.00600
C  31.93300 -0.79700 29.48400
C  30.36500 -0.06600 32.52500
O  31.47600 -0.29600 33.07500
C  28.99600 0.19200 33.23100
C  28.96500 -0.66000 34.35700
O  28.97200 -1.87600 34.34400
O  28.89400 0.07700 35.52400
C  28.63700 -0.69800 36.75200
H  22.35100 0.10600 31.37000
H  24.31700 0.23900 25.13100
H  30.27900 -0.97100 27.16900
H  25.92000 -0.18100 34.26500
H  23.74600 1.43700 33.16700
H  22.70400 -0.06500 34.37100
H  24.02700 -1.08600 34.58300
H  23.04800 -1.23400 33.03400
H  25.87200 2.73700 33.39200
H  27.17200 1.98100 34.38300
H  24.64800 1.68400 35.83100
H  24.83400 3.30400 35.28400
H  20.25500 1.12000 29.24100
H  20.70900 -0.22400 30.32100
H  19.90600 -0.58700 28.83300
H  19.85700 1.30900 26.86200
H  19.70900 -0.33200 26.33100
H  19.53800 0.93400 25.14300
H  26.69600 0.57900 24.27400
H  28.84600 -1.35700 25.18400
H  27.40800 -2.08500 23.57600
H  26.16300 -0.89000 22.95500
H  25.73700 -2.04400 24.16500
H  29.96000 0.94600 25.70900
H  28.69600 1.68800 24.77100
H  30.90500 -0.02000 23.65400
H  30.12200 1.49400 23.01200
H  29.45300 -0.19700 22.93200
H  32.40500 -0.00200 28.90800
H  31.88200 -1.74100 28.94200
H  32.49000 -0.90500 30.41500
H  29.12500 1.25200 33.45200
H  27.77300 -1.36400 36.76400
H  28.52200 -0.03200 37.60700
H  29.51400 -1.32300 36.92200
Mg 48.27600 44.60900 43.80500
C  44.79700 44.25300 43.39300
C  48.57000 41.14300 43.34800
C  51.59100 44.95300 43.49600
C  47.81400 48.06400 43.78000
N  46.80600 42.87700 43.36600
C  45.43900 42.98600 43.46500
C  44.74500 41.59400 43.38300
C  45.97000 40.63500 43.77800
C  47.22300 41.58000 43.54800
C  46.02100 40.05900 45.17900
C  44.11400 41.08700 42.14300
C  44.32900 41.81900 40.72300
H  45.07800 41.03900 39.67500
N  49.81500 43.25300 43.37400
C  49.74800 41.86200 43.39000
C  51.07200 41.29100 43.25200
C  51.99400 42.40500 43.24900
C  51.11200 43.61700 43.39100
C  51.43600 39.89100 42.96700
C  53.47900 42.28200 42.99100
O  54.03000 41.24100 42.95100
C  54.42100 43.44700 42.87900
N  49.52100 46.20500 43.76100
C  50.89100 46.11800 43.78000
C  51.49700 47.51400 43.79900
C  50.37200 48.51100 44.02500
C  49.14100 47.57100 43.80000
C  52.72600 47.75700 44.67200
C  50.38400 49.88100 43.20200
C  49.79000 51.06300 43.94200
N  46.68100 45.96500 43.66500
C  46.65300 47.32400 43.74200
C  45.29300 47.82600 43.59600
C  44.56400 46.65100 43.44500
C  45.43300 45.51100 43.49400
C  44.90700 49.29900 43.73700
C  43.20900 46.11200 43.39600
O  42.17000 46.70300 43.35800
C  43.30600 44.58300 43.40900
C  42.62700 44.06400 44.66300
O  41.60800 43.37200 44.69900
O  43.23700 44.50600 45.79600
C  42.88700 43.86200 47.04700
H  48.63400 40.05400 43.30800
H  52.67700 45.05800 43.48000
H  47.81100 49.14000 43.96800
H  44.05200 41.66700 44.22100
H  46.08000 39.76100 43.13500
H  45.29000 40.56200 45.81200
H  46.99200 40.15800 45.66300
H  45.66300 39.03400 45.07900
H  43.04800 41.04300 42.36500
H  44.38900 40.06300 41.89100
H  44.93200 42.69500 40.96200
H  43.40400 42.15900 40.25800
H  52.05300 40.00300 42.07600
H  50.56800 39.28800 42.70200
H  51.85100 39.42600 43.86200
H  53.90600 44.13300 42.20600
H  55.26600 43.21100 42.23200
H  54.58600 43.80100 43.89700
H  51.92400 47.64800 42.80500
H  50.43300 48.69400 45.09800
H  53.63600 47.64700 44.08200
H  52.80900 47.26600 45.64100
H  52.75900 48.83100 44.85500
H  49.67500 49.91300 42.37400
H  51.33400 50.11200 42.72000
H  49.56900 50.82900 44.98400
H  48.83900 51.33200 43.48300
H  50.43500 51.93100 43.80900
H  44.93900 49.74800 42.74500
H  45.63800 49.71600 44.43000
H  43.90800 49.27500 44.17200
H  42.61300 44.20000 42.66000
H  43.75500 43.82400 47.70600
H  42.50700 42.84000 47.03900
H  42.15800 44.47100 47.58200

