158

Mg 47.46500 24.85300 27.74900
C  48.09300 27.26400 30.16300
C  46.65400 22.76900 30.36400
C  46.47400 22.59100 25.55600
C  48.67900 26.98100 25.24700
N  47.22300 25.07600 29.99800
C  47.51500 26.17500 30.74600
C  47.26500 25.96500 32.26700
C  47.05100 24.41500 32.32900
C  47.07900 24.04800 30.81700
C  48.07200 23.56400 33.19100
C  46.18100 26.91000 33.02300
C  45.48200 26.40000 34.31000
H  45.55400 27.37900 35.45300
N  46.81300 22.91600 27.95700
C  46.54100 22.14000 29.09400
C  46.10100 20.76800 28.80400
C  45.89900 20.84000 27.38000
C  46.44300 22.11400 26.90000
C  45.79000 19.67900 29.82600
C  45.24800 19.70100 26.49800
O  45.15700 19.82000 25.26200
C  44.60600 18.54000 27.16800
N  47.67900 24.73800 25.67900
C  47.02000 23.79500 24.99600
C  47.33700 24.02600 23.51800
C  47.83400 25.46800 23.46600
C  48.07700 25.76400 24.86400
C  48.19400 22.96900 22.74500
C  46.91900 26.50900 22.63500
C  47.64900 27.30500 21.58100
N  48.38000 26.64300 27.71300
C  48.81600 27.42500 26.59600
C  49.35900 28.70800 27.05900
C  49.04900 28.68600 28.48400
C  48.45800 27.44800 28.77400
C  50.23400 29.77400 26.24400
C  49.26200 29.43900 29.73000
O  49.90900 30.40200 29.98500
C  48.52900 28.53300 30.91300
C  49.51600 28.22500 32.01900
O  50.56100 27.67400 31.93000
O  49.07800 28.89600 33.08700
C  49.72600 28.60200 34.37000
H  46.49300 22.15500 31.25300
H  46.15800 21.99700 24.69600
H  48.99500 27.74200 24.53100
H  48.18200 26.16200 32.82300
H  46.05000 24.29900 32.74600
H  47.56700 22.96400 33.94900
H  48.82100 24.23400 33.61200
H  48.56200 22.88500 32.49300
H  45.39600 27.15000 32.30600
H  46.64600 27.85200 33.31300
H  46.00200 25.49300 34.61700
H  44.46500 26.13400 34.02000
H  46.35600 18.75300 29.72100
H  44.71100 19.52100 29.83800
H  45.86500 20.12500 30.81700
H  43.80400 18.84700 27.83900
H  45.40700 18.09400 27.75700
H  44.27500 17.83300 26.40700
H  46.29500 24.02000 23.19700
H  48.85000 25.48000 23.07000
H  48.70600 22.26500 23.40000
H  48.89500 23.43300 22.05100
H  47.63200 22.38200 22.01900
H  46.45500 27.28100 23.24900
H  46.12900 25.88100 22.22300
H  47.72900 26.80600 20.61500
H  48.66200 27.40400 21.96900
H  47.09800 28.24500 21.56100
H  49.83300 29.97200 25.25000
H  51.23100 29.35500 26.10500
H  50.24500 30.62600 26.92400
H  47.75100 29.21100 31.26400
H  49.37500 27.64100 34.74500
H  49.56200 29.42400 35.06700
H  50.79900 28.45100 34.25500
Mg -11.25800 17.37100 41.47800
C  -7.92400 16.51100 41.90800
C  -10.29900 20.62800 40.98400
C  -14.48000 18.13600 40.68900
C  -12.07300 13.84800 41.42200
N  -9.32000 18.33800 41.31200
C  -8.06600 17.82200 41.57800
C  -7.02700 18.86800 41.27200
C  -7.81300 20.24100 41.47400
C  -9.22500 19.71200 41.19700
C  -7.75400 20.98400 42.85100
C  -6.37000 18.72700 39.84100
C  -4.84800 18.42800 39.70800
H  -4.51500 17.09000 38.96600
N  -12.30400 19.13900 40.93400
C  -11.67900 20.33900 40.81400
C  -12.64400 21.24800 40.42900
C  -13.92400 20.60000 40.43800
C  -13.66700 19.22800 40.74100
C  -12.32600 22.71000 40.16500
C  -15.26400 21.22600 40.05300
O  -15.39100 22.42800 39.68900
C  -16.61900 20.44600 40.11600
N  -12.94300 16.18500 41.04400
C  -14.18200 16.76600 40.78800
C  -15.21100 15.62500 40.54900
C  -14.36400 14.31900 40.56500
C  -13.07400 14.79900 41.10500
C  -16.29400 15.46900 41.64600
C  -14.08900 13.66900 39.12800
C  -14.58000 12.15400 38.94800
N  -10.28500 15.48000 41.78100
C  -10.70800 14.14800 41.73700
C  -9.59200 13.31500 42.01100
C  -8.43100 14.15100 42.13200
C  -8.93900 15.47400 41.92800
C  -9.65500 11.84600 42.24700
C  -6.97700 14.24700 42.39700
O  -6.21000 13.29500 42.70400
C  -6.58800 15.74900 42.25600
C  -5.99400 16.13400 43.58500
O  -6.63600 16.06900 44.65400
O  -4.61100 16.17600 43.57400
C  -3.85100 16.09600 44.76800
H  -10.02700 21.68500 40.98200
H  -15.48300 18.33500 40.30600
H  -12.36100 12.79500 41.39500
H  -6.25200 18.74500 42.02800
H  -7.28400 20.96200 40.85000
H  -7.11800 20.53700 43.61500
H  -8.73900 21.04800 43.31500
H  -7.45800 22.03100 42.78200
H  -6.52100 19.65500 39.28900
H  -6.88200 17.89900 39.35200
H  -4.41900 18.44600 40.71000
H  -4.32800 19.25200 39.22000
H  -11.77300 22.88000 39.24100
H  -11.72600 23.17800 40.94500
H  -13.26600 23.26000 40.11100
H  -17.33900 21.26200 40.18500
H  -16.62000 19.89800 41.05800
H  -17.04300 19.88700 39.28100
H  -15.66100 15.85100 39.58200
H  -14.73400 13.53400 41.22500
H  -16.94700 16.33700 41.73100
H  -15.90600 15.24800 42.64000
H  -16.86400 14.59000 41.34400
H  -13.03600 13.73500 38.85400
H  -14.75500 14.11800 38.39200
H  -14.95700 11.84000 37.97500
H  -15.30800 11.89000 39.71500
H  -13.69900 11.53300 39.11700
H  -8.96800 11.62200 43.06300
H  -9.25200 11.28000 41.40600
H  -10.66800 11.50500 42.45800
H  -5.70800 15.84500 41.61800
H  -2.81100 16.05900 44.44300
H  -4.09900 15.25900 45.42100
H  -4.01200 16.91900 45.46400

