158

Mg 35.37600 1.21300 29.25800
C  33.30500 2.29300 31.85400
C  37.83200 0.87500 31.63700
C  37.73600 0.46500 26.84200
C  32.95300 1.84500 26.96300
N  35.56200 1.76900 31.50800
C  34.55000 1.98200 32.31300
C  34.98600 1.91300 33.76200
C  36.52300 1.75100 33.67100
C  36.68800 1.45800 32.20100
C  37.56100 2.75300 34.32400
C  34.18200 0.88900 34.61600
C  33.97400 1.14300 36.10700
H  34.72000 2.29100 36.74800
N  37.48400 0.83400 29.20700
C  38.25900 0.64400 30.27800
C  39.53500 0.09200 29.85300
C  39.60200 0.17500 28.47200
C  38.23500 0.50300 28.11800
C  40.60200 -0.26800 30.91300
C  40.76900 -0.07400 27.49800
O  40.58100 0.08200 26.29900
C  42.01400 -0.58100 27.94000
N  35.27600 1.15000 27.19900
C  36.41200 0.87400 26.39100
C  36.02100 0.67600 24.92000
C  34.49300 1.10600 24.98700
C  34.21300 1.32600 26.49000
C  36.81000 1.39600 23.79200
C  33.52000 0.15600 24.27800
C  33.12000 -1.14500 25.05600
N  33.50100 2.00700 29.29600
C  32.64400 2.14100 28.27900
C  31.39200 2.54400 28.78900
C  31.56300 2.68200 30.18400
C  32.83700 2.23400 30.49300
C  30.08500 2.66800 28.05800
C  30.90500 2.95300 31.46600
O  29.72200 3.20800 31.77700
C  31.99500 2.63400 32.55600
C  32.00200 3.85500 33.43200
O  32.72100 4.78000 33.34900
O  31.10300 3.66200 34.51100
C  31.06000 4.83100 35.45400
H  38.48000 0.75200 32.50700
H  38.44100 0.09800 26.09400
H  32.16800 2.08600 26.24400
H  34.78000 2.87000 34.24200
H  36.66900 0.79500 34.17400
H  38.20800 2.29000 35.07000
H  36.91600 3.50600 34.77400
H  38.11100 3.36000 33.60500
H  34.71200 -0.06400 34.62300
H  33.21300 0.68800 34.15900
H  34.06800 0.21900 36.67700
H  32.89900 1.31400 36.16500
H  40.20900 -0.37500 31.92400
H  41.50900 0.32700 30.80700
H  41.00600 -1.22900 30.59300
H  42.56100 0.25700 28.37300
H  42.62400 -0.97700 27.12900
H  41.88200 -1.39800 28.64900
H  36.00000 -0.37300 24.62600
H  34.35800 2.06100 24.47800
H  37.07000 0.67800 23.01400
H  37.69900 1.94700 24.10000
H  36.14400 2.14400 23.36300
H  34.01200 -0.21000 23.37700
H  32.66700 0.72300 23.90500
H  33.92600 -1.55300 25.66500
H  32.78500 -1.81100 24.26100
H  32.18800 -1.01200 25.60600
H  29.29800 2.33500 28.73500
H  29.96800 2.08900 27.14200
H  29.90700 3.69600 27.74500
H  31.58600 1.78200 33.09900
H  31.90400 4.73500 36.13600
H  30.12600 4.71700 36.00400
H  31.05400 5.78800 34.93200
Mg 46.85200 46.48000 43.91000
C  43.51900 46.40200 43.04500
C  47.19100 43.35200 42.30600
C  50.08700 46.64700 44.43200
C  46.49500 49.96900 44.39200
N  45.60700 45.23500 42.68600
C  44.21400 45.26900 42.64000
C  43.67700 44.25700 41.62800
C  44.79100 43.19200 41.68800
C  46.00500 43.98800 42.22200
C  44.33600 41.93500 42.56100
C  43.34000 44.91400 40.20300
C  42.05500 44.48900 39.56400
H  42.22900 43.42200 38.50500
N  48.40900 45.12800 43.48200
C  48.40900 43.90600 42.78200
C  49.74100 43.35500 42.75600
C  50.61500 44.31600 43.31200
C  49.70500 45.41100 43.80900
C  50.08200 41.97100 42.02000
C  52.11100 44.17100 43.50700
O  52.66300 43.19000 43.10900
C  52.95100 45.37400 43.95000
N  48.08600 48.09400 44.27100
C  49.43900 47.87300 44.60200
C  50.12700 49.24300 45.05200
C  48.95800 50.28100 44.80200
C  47.73800 49.41000 44.45900
C  50.60500 49.27200 46.50200
C  49.25400 51.29700 43.66600
C  49.02800 50.90600 42.18600
N  45.24900 48.00500 43.92600
C  45.26900 49.36600 44.06800
C  43.89700 49.81400 44.05800
C  43.15400 48.68800 43.66500
C  44.01400 47.61900 43.56200
C  43.48900 51.24100 44.23200
C  41.88700 48.16900 43.26900
O  40.89600 48.76700 43.06600
C  42.01400 46.68900 42.95000
C  41.05800 45.88500 43.74600
O  40.03200 45.49400 43.29500
O  41.46000 45.76400 45.06400
C  40.57100 44.99200 45.93900
H  47.25400 42.37500 41.82300
H  51.08800 46.71800 44.86200
H  46.46600 51.04100 44.59500
H  42.71400 43.86600 41.95700
H  45.09900 42.75300 40.74000
H  44.43200 41.01100 41.99100
H  43.29900 41.94700 42.89700
H  44.88700 41.97900 43.50100
H  44.06500 44.56300 39.46800
H  43.43700 45.99600 40.28800
H  41.58800 45.32900 39.04900
H  41.32100 44.07200 40.25400
H  49.18500 41.44700 41.69000
H  50.62300 41.27100 42.65800
H  50.70400 42.28000 41.18000
H  52.75000 46.27100 43.36400
H  54.00300 45.09100 43.96900
H  52.65500 45.55700 44.98300
H  51.00100 49.48900 44.44900
H  48.67100 50.87100 45.67300
H  51.67500 49.47900 46.49700
H  50.42400 48.33600 47.03100
H  50.14300 50.06200 47.09400
H  50.15500 51.91000 43.69300
H  48.52100 52.09400 43.78400
H  47.97800 50.74600 41.94300
H  49.58600 49.99200 41.98400
H  49.41700 51.69200 41.53800
H  44.29900 51.96900 44.20500
H  42.88600 51.29200 45.13800
H  42.97400 51.41600 43.28700
H  41.67800 46.55000 41.92300
H  40.86400 45.34300 46.92800
H  40.77200 43.93000 46.07500
H  39.52500 45.06600 45.64400

