158

Mg 0.13300 7.95300 26.74300
C  0.82300 10.03900 29.50500
C  -0.25500 5.36300 28.76500
C  -0.60800 6.11700 24.04300
C  0.67000 10.78300 24.66600
N  0.35500 7.74200 28.79800
C  0.49000 8.68700 29.82500
C  0.40500 8.09100 31.20900
C  0.48600 6.56300 30.84700
C  0.18100 6.52100 29.35800
C  1.78700 5.89300 31.16700
C  -0.90700 8.55800 31.93500
C  -0.77600 8.68300 33.50700
H  0.38100 8.13500 34.22700
N  -0.34300 6.02900 26.46900
C  -0.54800 5.07400 27.41500
C  -0.89100 3.84500 26.89100
C  -0.89000 4.01200 25.47300
C  -0.62900 5.46000 25.28000
C  -1.30200 2.60600 27.70500
C  -1.23900 3.02500 24.42100
O  -1.34900 3.44000 23.24500
C  -1.33600 1.60600 24.65600
N  0.06900 8.47100 24.60900
C  -0.30500 7.44400 23.76700
C  -0.34900 8.00400 22.32200
C  -0.02500 9.58800 22.51800
C  0.18400 9.67100 24.01300
C  0.65400 7.30400 21.26600
C  -1.08700 10.52800 21.88900
C  -2.30200 10.89100 22.77500
N  0.78400 9.92000 26.95000
C  0.97200 10.94500 26.03700
C  1.33900 12.20200 26.74100
C  1.34300 11.83600 28.12800
C  0.94900 10.50900 28.18100
C  1.49600 13.56700 26.08800
C  1.53300 12.25200 29.42500
O  1.94500 13.28800 29.81600
C  1.11900 11.18300 30.43500
C  2.28500 10.87600 31.42200
O  3.30100 10.18300 31.20500
O  2.06000 11.50100 32.63500
C  3.07500 11.49700 33.63700
H  -0.26200 4.57200 29.51800
H  -0.68200 5.61000 23.07800
H  0.82900 11.64300 24.01100
H  1.25400 8.23200 31.87800
H  -0.20500 5.95800 31.43500
H  2.59800 6.52700 31.52300
H  2.08400 5.24800 30.33900
H  1.49600 5.14200 31.90100
H  -1.58800 7.70700 31.94100
H  -1.26300 9.49300 31.50400
H  -1.69300 8.19100 33.83200
H  -0.97200 9.70100 33.84300
H  -1.62200 2.85700 28.71600
H  -0.56400 1.80600 27.63800
H  -2.19300 2.19900 27.22700
H  -0.43300 1.40800 25.23300
H  -1.14000 1.08600 23.71800
H  -2.23700 1.30200 25.18800
H  -1.41100 7.81400 22.16300
H  0.95600 9.85400 22.12300
H  0.02100 7.04200 20.41800
H  1.08500 6.42800 21.75000
H  1.48100 7.90800 20.89300
H  -1.58400 10.18700 20.98100
H  -0.61700 11.49500 21.71000
H  -3.23600 10.44700 22.42900
H  -2.35000 11.97700 22.86300
H  -2.20500 10.58700 23.81700
H  1.28800 14.38200 26.78200
H  0.77300 13.66300 25.27800
H  2.51500 13.71700 25.73300
H  0.25100 11.53100 30.99600
H  3.01000 12.41200 34.22700
H  4.09100 11.29300 33.30000
H  2.76100 10.77300 34.38900
Mg 49.60800 46.08400 42.70400
C  46.76000 47.70900 41.65600
C  48.47600 43.21900 41.12200
C  52.87000 45.00700 42.50300
C  50.78900 49.24400 43.80600
N  47.83200 45.58700 41.58500
C  46.84700 46.41800 41.16500
C  45.74900 45.69600 40.33900
C  46.16600 44.27000 40.46300
C  47.60900 44.37700 41.06600
C  45.14800 43.36900 41.16300
C  45.61000 46.14600 38.78500
C  44.15500 46.40500 38.28800
H  43.78100 46.18200 36.80700
N  50.54600 44.29000 41.92500
C  49.87100 43.23500 41.40300
C  50.83900 42.13300 41.23300
C  52.07900 42.61000 41.68900
C  51.89100 44.02100 42.02500
C  50.31500 40.75400 40.73500
C  53.33700 41.74100 41.63200
O  53.29400 40.59800 41.17000
C  54.67600 42.43500 41.80500
N  51.57000 47.05000 42.88100
C  52.69300 46.30600 42.96400
C  53.84800 47.05100 43.67900
C  53.22900 48.43900 44.04400
C  51.78700 48.27800 43.54500
C  54.60000 46.32300 44.84600
C  53.93700 49.72300 43.40000
C  54.17400 50.83700 44.41500
N  48.96400 48.05200 42.88100
C  49.48500 49.20700 43.32100
C  48.51700 50.21200 43.40200
C  47.33500 49.66200 42.74500
C  47.72700 48.33700 42.45400
C  48.72700 51.55800 44.02100
C  46.05300 49.96800 42.20000
O  45.35300 50.99600 42.22100
C  45.60600 48.69300 41.46300
C  44.39600 48.26300 42.07500
O  44.29100 47.61100 43.10100
O  43.35500 48.60300 41.27600
C  42.04500 48.16400 41.58700
H  47.92700 42.41800 40.62300
H  53.81800 44.59300 42.85300
H  51.01600 50.17200 44.33300
H  44.82900 45.87400 40.89600
H  46.36700 43.81400 39.49400
H  45.33200 43.36800 42.23700
H  45.04800 42.37100 40.73500
H  44.16200 43.82200 41.06500
H  46.19200 45.62900 38.02200
H  46.05000 47.14100 38.72700
H  43.78400 47.35300 38.67700
H  43.42700 45.78300 38.81000
H  49.30800 40.77700 40.31900
H  50.47700 39.96900 41.47400
H  50.83400 40.60100 39.78800
H  54.79300 43.41000 41.33200
H  55.43200 41.83100 41.30400
H  54.92900 42.53600 42.86000
H  54.68800 47.17600 42.99500
H  53.28700 48.60000 45.12000
H  54.29100 45.34600 45.21900
H  54.75200 47.04100 45.65100
H  55.59000 46.08500 44.45700
H  53.37100 50.04100 42.52500
H  54.86700 49.44100 42.90700
H  55.17300 51.27300 44.39400
H  53.88800 50.59300 45.43800
H  53.49800 51.66600 44.20800
H  49.33800 52.20300 43.38900
H  49.27400 51.46400 44.95900
H  47.82300 52.12400 44.24500
H  45.43500 48.97600 40.42400
H  41.48100 48.28200 40.66200
H  41.58000 48.73600 42.39000
H  42.12300 47.09200 41.76800

