158

Mg -8.22400 40.25300 42.32700
C  -7.10100 36.78000 41.40300
C  -5.74900 41.46700 40.71500
C  -9.87600 43.06400 42.80800
C  -11.14200 38.59400 43.56300
N  -6.63300 39.18700 41.15800
C  -6.31200 37.85500 40.88300
C  -5.02200 37.80200 40.08300
C  -4.58800 39.31900 39.93400
C  -5.71500 40.04500 40.63300
C  -3.24700 39.62400 40.55200
C  -5.32000 37.05000 38.74100
C  -4.30000 35.88100 38.44500
H  -3.31700 35.99800 37.28900
N  -7.82500 42.05900 41.93100
C  -6.73500 42.35500 41.19800
C  -6.70500 43.79800 41.05800
C  -7.88900 44.30500 41.71700
C  -8.58600 43.09400 42.14500
C  -5.60600 44.58000 40.32700
C  -8.21300 45.84200 41.90800
O  -7.51600 46.70600 41.37800
C  -9.36000 46.36900 42.76400
N  -10.30100 40.76600 43.05400
C  -10.62200 42.03600 43.27500
C  -12.08900 42.13200 43.80800
C  -12.47400 40.67700 44.11400
C  -11.26600 39.94800 43.53900
C  -12.49200 43.15100 44.88400
C  -13.84200 40.14400 43.37800
C  -14.67400 39.05700 44.10700
N  -9.01200 38.11800 42.55400
C  -10.22400 37.68300 43.05600
C  -10.33900 36.25400 43.07300
C  -9.11500 35.86600 42.50700
C  -8.34900 37.04700 42.10000
C  -11.33900 35.34100 43.76300
C  -8.32500 34.66700 42.09100
O  -8.53900 33.48600 42.26900
C  -6.97800 35.20900 41.41700
C  -5.82000 34.71000 42.17100
O  -5.69800 34.72000 43.37500
O  -4.87800 34.33500 41.32500
C  -3.55100 33.92900 41.92100
H  -4.93300 42.08400 40.33200
H  -10.30300 44.06000 42.94400
H  -12.02200 38.04500 43.90400
H  -4.35000 37.21500 40.70900
H  -4.52200 39.57300 38.87600
H  -2.51300 40.12100 39.91800
H  -2.89400 38.61200 40.75200
H  -3.53300 40.27000 41.38200
H  -5.18200 37.72000 37.89300
H  -6.33400 36.65000 38.75900
H  -4.88400 35.07700 37.99800
H  -3.78300 35.59200 39.36000
H  -5.85200 45.64000 40.26500
H  -5.62400 44.16100 39.32000
H  -4.65700 44.37300 40.82100
H  -9.34700 47.45200 42.88900
H  -9.15600 45.95700 43.75200
H  -10.29300 45.96500 42.37100
H  -12.62600 42.56600 42.96400
H  -12.44000 40.41000 45.17000
H  -12.55500 42.63800 45.84400
H  -13.48200 43.53000 44.63200
H  -11.65900 43.84700 44.98800
H  -13.50200 39.55900 42.52400
H  -14.44600 41.00200 43.08400
H  -14.63800 39.30500 45.16700
H  -14.14600 38.11500 43.95700
H  -15.69100 38.94400 43.73300
H  -10.86100 34.38700 43.98500
H  -12.27100 35.14400 43.23200
H  -11.70300 35.85200 44.65400
H  -6.99900 34.76900 40.41900
H  -2.89100 34.77100 42.12900
H  -3.09200 33.28300 41.17300
H  -3.63800 33.38800 42.86300
Mg 0.88700 43.62800 25.40200
C  3.24400 43.12000 27.99400
C  -1.59300 42.86500 27.48900
C  -1.34000 43.69000 22.71200
C  3.46700 44.11500 23.19300
N  0.91300 42.89700 27.49000
C  1.93700 42.92200 28.43900
C  1.40700 42.70300 29.82500
C  -0.14100 42.42100 29.60000
C  -0.30000 42.80600 28.14400
C  -0.75700 41.07100 30.09900
C  1.72500 43.90200 30.76200
C  1.73400 43.71000 32.32900
H  1.70700 42.30500 32.95100
N  -1.19000 43.32200 25.08900
C  -2.02300 43.06400 26.14700
C  -3.38300 43.02000 25.71000
C  -3.37900 43.29500 24.36000
C  -1.94000 43.48300 23.98200
C  -4.56400 42.70500 26.56900
C  -4.50000 43.45300 23.32900
O  -4.35000 43.84100 22.19100
C  -5.91800 43.37100 23.74300
N  1.03800 43.74200 23.21600
C  -0.02600 43.86000 22.36700
C  0.43500 44.27800 20.97400
C  1.91900 44.54800 21.16500
C  2.20500 44.23000 22.66400
C  0.17100 43.12600 19.96500
C  2.45400 45.98900 20.74500
C  2.07000 47.09500 21.80100
N  2.97800 43.48200 25.53000
C  3.90800 43.77700 24.52800
C  5.26100 43.73600 25.16600
C  5.03800 43.34100 26.47100
C  3.63700 43.32000 26.67000
C  6.53300 44.04900 24.52800
C  5.62000 42.99800 27.75100
O  6.77200 42.95500 27.99400
C  4.48300 43.03700 28.82400
C  4.64300 41.79900 29.59300
O  4.47900 40.68100 29.08500
O  4.98200 41.98900 30.91400
C  5.51300 40.83700 31.57900
H  -2.40200 42.77900 28.21800
H  -2.00600 43.84200 21.86000
H  4.24500 44.39600 22.47900
H  1.93500 41.82100 30.18600
H  -0.69100 43.22400 30.09200
H  -1.13700 40.47700 29.26800
H  -1.46200 41.23400 30.91500
H  0.05800 40.57000 30.62100
H  0.98600 44.66400 30.51400
H  2.70300 44.34200 30.56600
H  0.97000 44.37400 32.73600
H  2.65600 44.18800 32.66000
H  -4.29300 42.30900 27.54800
H  -5.09800 41.99400 25.93900
H  -5.03800 43.65400 26.82000
H  -6.46500 43.59200 22.82600
H  -6.13000 44.27400 24.31400
H  -6.28600 42.50400 24.29100
H  -0.12800 45.14000 20.62000
H  2.45900 43.81300 20.56700
H  -0.26700 42.24000 20.42500
H  1.02500 42.61900 19.51700
H  -0.38600 43.64800 19.18700
H  1.95600 46.19400 19.79800
H  3.53400 45.90600 20.62300
H  1.36900 47.78700 21.33500
H  2.93600 47.72600 22.00100
H  1.64300 46.61700 22.68300
H  7.21700 43.22600 24.73300
H  6.92100 44.98400 24.93300
H  6.40800 44.36100 23.49200
H  4.39400 43.90500 29.47600
H  6.53300 40.65900 31.23800
H  4.95600 39.93400 31.32600
H  5.55000 40.84200 32.66800

