158

Mg 56.49800 22.87800 45.21000
C  54.80100 25.70300 44.33800
C  53.85900 20.99200 43.88400
C  58.52200 20.15100 45.15400
C  59.28700 24.84200 45.89000
N  54.58000 23.33800 43.98400
C  54.06900 24.58900 43.85000
C  52.68800 24.47600 43.09100
C  52.31000 23.02200 43.38500
C  53.65400 22.38400 43.71500
C  51.20800 22.98000 44.47100
C  52.87400 24.78200 41.53300
C  51.68000 25.53700 40.88700
H  50.91900 24.80800 39.84400
N  56.15900 20.88000 44.76300
C  55.04200 20.29200 44.28900
C  55.18000 18.82500 44.19200
C  56.46600 18.56600 44.64000
C  57.10900 19.88700 44.93900
C  54.16000 17.83700 43.53600
C  57.08200 17.17300 44.74500
O  56.43900 16.13600 44.55500
C  58.39400 17.04300 45.40100
N  58.65700 22.54600 45.39000
C  59.22700 21.26000 45.45300
C  60.76100 21.36500 45.59700
C  60.94000 22.89700 45.84600
C  59.56600 23.49500 45.68800
C  61.33500 20.37500 46.66100
C  62.03400 23.57000 45.08600
C  63.27400 24.11600 45.82800
N  56.92800 24.87700 45.40400
C  58.11500 25.57900 45.64200
C  57.84600 26.98100 45.69300
C  56.52900 27.06000 45.19100
C  56.05100 25.74000 44.94200
C  58.81500 27.99800 46.26500
C  55.53700 27.99600 44.81100
O  55.54100 29.17000 44.80800
C  54.39900 27.14300 44.27100
C  53.99600 27.72000 42.92000
O  54.74800 27.74300 41.97400
O  52.71800 28.19200 43.13100
C  52.03200 28.93000 42.05200
H  53.00900 20.42800 43.49500
H  59.20600 19.30400 45.05700
H  60.18600 25.41200 46.13600
H  51.98500 25.16300 43.56300
H  51.90400 22.58200 42.47400
H  51.42700 22.01600 44.93000
H  50.15100 22.93600 44.21000
H  51.34800 23.78000 45.19800
H  52.99000 23.81800 41.03700
H  53.80700 25.33600 41.43200
H  52.00800 26.52100 40.55100
H  50.98200 25.83300 41.67000
H  53.24300 18.31800 43.19400
H  53.92700 17.10300 44.30600
H  54.71600 17.30600 42.76300
H  58.55500 17.75200 46.21300
H  59.22600 17.04200 44.69700
H  58.49500 16.05600 45.85300
H  61.27400 21.08400 44.67800
H  61.09500 23.08800 46.90800
H  62.15400 20.89000 47.16300
H  61.73300 19.47300 46.19600
H  60.62800 20.07500 47.43500
H  61.71400 24.33100 44.37400
H  62.45000 22.79100 44.44800
H  63.16000 23.94900 46.89900
H  63.64800 25.12600 45.65900
H  64.08200 23.48900 45.45300
H  58.45300 28.97700 45.95300
H  59.88800 27.89800 46.10200
H  58.73100 28.06200 47.35000
H  53.61100 27.34700 44.99600
H  52.51100 28.80200 41.08100
H  51.98700 30.00100 42.25000
H  51.04000 28.50100 41.91300
Mg 30.05100 57.38600 41.13600
C  27.33200 55.76800 39.55900
C  31.98500 54.72100 40.06000
C  32.77300 59.36000 41.55900
C  28.01700 60.27600 41.56600
N  29.69700 55.53300 39.73600
C  28.51100 55.08000 39.33000
C  28.63900 53.63300 38.81000
C  30.18500 53.33700 38.98100
C  30.63500 54.55700 39.69600
C  30.53300 51.99500 39.73400
C  28.11700 53.42400 37.38400
C  28.31100 54.47600 36.30100
H  27.10800 54.52100 35.29100
N  32.10100 57.08900 40.97300
C  32.67500 55.89900 40.52200
C  34.16200 56.01900 40.51600
C  34.41300 57.36600 40.87100
C  33.10500 58.03700 41.23500
C  35.20500 54.94100 40.10200
C  35.74500 57.96400 41.12800
O  36.79300 57.39000 40.90100
C  35.87100 59.28500 41.84600
N  30.28300 59.38000 41.66700
C  31.53700 59.96000 41.74600
C  31.47100 61.49500 41.97800
C  30.00500 61.71600 42.15700
C  29.37000 60.38900 41.83300
C  32.33600 62.03000 43.15900
C  29.41200 63.00800 41.42700
C  30.32200 64.24000 41.39700
N  28.09900 57.87400 40.90100
C  27.40500 59.01200 41.20700
C  26.00300 58.80700 40.89700
C  25.93100 57.59300 40.20800
C  27.21500 57.00000 40.28900
C  24.89300 59.83200 40.99900
C  25.02400 56.68200 39.45000
O  23.88400 56.73500 39.15900
C  25.94100 55.43900 39.19400
C  25.31900 54.31100 39.94200
O  25.81800 53.67000 40.87800
O  24.16700 53.93700 39.25800
C  23.38700 52.76500 39.63600
H  32.55800 53.82400 39.81400
H  33.59600 60.06800 41.67800
H  27.25100 61.05400 41.59500
H  28.06200 53.07600 39.54800
H  30.60000 53.24100 37.97700
H  31.12100 52.15800 40.63700
H  31.06500 51.23400 39.16300
H  29.57600 51.50100 39.89800
H  27.05200 53.22600 37.50800
H  28.53700 52.53700 36.91100
H  29.12100 54.07800 35.68800
H  28.64200 55.36600 36.83600
H  35.86300 55.28200 39.30300
H  34.66700 54.03400 39.82600
H  35.80600 54.79500 41.00000
H  35.58400 60.03600 41.11000
H  36.87700 59.49000 42.21400
H  35.12100 59.19200 42.63100
H  31.90900 61.99800 41.11600
H  29.81500 61.70500 43.23100
H  33.01800 61.24600 43.48900
H  31.73200 62.42400 43.97600
H  32.91000 62.82300 42.68000
H  28.47700 63.24800 41.93400
H  29.08300 62.70200 40.43400
H  30.93800 64.29000 42.29500
H  29.68700 65.12500 41.43400
H  30.88700 64.29800 40.46700
H  25.21100 60.82700 40.68500
H  24.48900 59.80500 42.01100
H  24.08900 59.46800 40.36000
H  25.92400 55.16100 38.14000
H  22.41100 53.10900 39.98000
H  23.82300 52.29200 40.51600
H  23.27700 52.03100 38.83800

