158

Mg 8.09300 2.71500 29.31200
C  9.56000 1.12200 32.19100
C  6.42700 4.79800 31.45700
C  6.59300 4.00900 26.68900
C  9.75700 0.40100 27.39700
N  7.86600 2.71000 31.63000
C  8.71200 2.18800 32.52400
C  8.50900 2.86000 33.91100
C  7.28400 3.79000 33.68700
C  7.19200 3.79300 32.12100
C  5.96100 3.41400 34.31800
C  9.78900 3.67000 34.35100
C  10.23700 3.61800 35.85900
H  9.15800 3.20000 36.98400
N  6.70000 4.20000 29.16800
C  6.19600 5.01500 30.11300
C  5.34700 6.05200 29.54000
C  5.36900 5.84700 28.15200
C  6.20700 4.64400 27.91900
C  4.56100 7.05100 30.29600
C  4.73800 6.68300 26.96400
O  4.91900 6.39300 25.81500
C  3.93600 7.93400 27.15300
N  7.96800 2.05500 27.32500
C  7.38500 2.84600 26.39600
C  7.74100 2.37800 24.98600
C  8.77600 1.28200 25.19000
C  8.88800 1.26300 26.72300
C  6.50400 1.94200 24.14500
C  10.06900 1.56100 24.34600
C  11.16700 2.57500 24.98900
N  9.32000 1.07000 29.64200
C  9.91800 0.20000 28.74300
C  10.75300 -0.77000 29.45200
C  10.63400 -0.46300 30.75700
C  9.79800 0.70400 30.87400
C  11.64800 -1.77000 28.68500
C  11.20200 -0.73100 32.10800
O  11.99100 -1.59700 32.49800
C  10.57500 0.32200 33.08500
C  9.87400 -0.43800 34.14200
O  8.92700 -1.20500 34.01700
O  10.45300 -0.22900 35.31300
C  9.79200 -0.84400 36.50500
H  5.90400 5.44100 32.16800
H  6.40300 4.52200 25.74400
H  10.34600 -0.32200 26.82800
H  8.12500 2.10500 34.59800
H  7.48600 4.80300 34.03500
H  5.33600 2.88800 33.59600
H  5.37000 4.23200 34.72900
H  6.10500 2.62600 35.05800
H  9.67600 4.74100 34.17700
H  10.62900 3.24800 33.79900
H  10.57400 4.58700 36.22600
H  11.06900 2.92200 35.97000
H  4.87800 7.08100 31.33800
H  3.51000 6.76800 30.36800
H  4.62000 8.05000 29.86300
H  3.18700 7.79000 27.93100
H  3.28100 8.13100 26.30400
H  4.56100 8.73800 27.54200
H  8.27300 3.17100 24.46000
H  8.39100 0.29300 24.94300
H  5.72400 1.84200 24.90000
H  6.64500 0.91600 23.80600
H  6.19700 2.54900 23.29300
H  9.86200 1.87900 23.32500
H  10.63200 0.64000 24.19000
H  12.04500 1.96800 25.20900
H  10.69400 2.91200 25.91200
H  11.31200 3.44000 24.34200
H  10.97300 -2.30400 28.01600
H  12.14400 -2.50800 29.31500
H  12.38400 -1.32300 28.01600
H  11.36200 1.00000 33.41500
H  10.55600 -1.48400 36.94600
H  8.88900 -1.44300 36.38700
H  9.43700 -0.05900 37.17200
Mg 47.64900 24.59500 28.14400
C  48.77500 26.63300 30.83900
C  46.97400 22.21100 30.67300
C  46.60100 22.67100 25.75800
C  48.76500 26.93500 25.95200
N  47.89000 24.41000 30.54100
C  48.20000 25.42000 31.37700
C  48.04700 25.02700 32.83200
C  47.70900 23.54200 32.69400
C  47.46800 23.37600 31.22300
C  48.88200 22.56800 33.14300
C  46.94700 25.95600 33.56100
C  47.25600 26.90700 34.70700
H  46.37000 26.83400 35.89400
N  46.68500 22.74700 28.20800
C  46.61200 21.89800 29.29200
C  45.92900 20.67400 28.82500
C  45.73000 20.80700 27.40100
C  46.35100 22.12300 27.05000
C  45.56200 19.59300 29.90600
C  45.06900 19.87900 26.37200
O  44.90900 20.23800 25.21800
C  44.38800 18.68000 26.90300
N  47.63200 24.78300 26.09600
C  47.16600 23.84700 25.31200
C  47.33200 24.22800 23.80600
C  47.96500 25.63600 23.90800
C  48.13100 25.85000 25.42600
C  48.14200 23.19500 22.99100
C  47.30800 26.87400 23.20100
C  48.17900 27.88700 22.57000
N  48.64200 26.31200 28.32200
C  49.00200 27.24300 27.35300
C  49.52600 28.43300 27.84100
C  49.46800 28.17500 29.26400
C  48.87700 26.89800 29.47000
C  50.08500 29.62500 27.13600
C  49.83800 28.81400 30.44500
O  50.53300 29.78100 30.65900
C  49.28300 27.86100 31.58500
C  50.35500 27.66200 32.64900
O  51.04900 26.64800 32.68900
O  50.44200 28.76000 33.47700
C  51.22000 28.58900 34.71400
H  46.68600 21.60100 31.53200
H  46.19900 22.05400 24.95200
H  49.34800 27.57100 25.28200
H  49.01900 25.19900 33.29500
H  46.79600 23.22400 33.19600
H  48.48700 21.61400 33.49400
H  49.46300 23.10300 33.89300
H  49.66800 22.37600 32.41200
H  46.22900 25.24300 33.96600
H  46.52000 26.52600 32.73600
H  47.08700 27.94100 34.40900
H  48.26400 26.81800 35.11300
H  45.15600 18.66000 29.51700
H  44.84100 19.95600 30.63900
H  46.48400 19.41200 30.45800
H  45.18900 18.07300 27.32500
H  43.92400 18.22000 26.03000
H  43.63600 18.91600 27.65600
H  46.35000 24.32600 23.34400
H  49.01600 25.61200 23.61900
H  48.31100 22.32000 23.61900
H  49.12900 23.40400 22.58000
H  47.58500 22.95800 22.08400
H  46.63300 27.37500 23.89500
H  46.65300 26.34600 22.50800
H  47.68900 28.06700 21.61300
H  49.13200 27.45300 22.26800
H  48.39600 28.79900 23.12600
H  50.37600 30.33100 27.91400
H  49.24400 29.94900 26.52200
H  50.89100 29.32900 26.46400
H  48.43500 28.41300 31.99300
H  51.22300 29.54000 35.24700
H  52.23500 28.19200 34.69200
H  50.52900 28.01600 35.33300

