158

Mg 1.98900 -1.30700 43.58600
C  5.43700 -1.40300 42.88200
C  1.78700 1.55100 41.76700
C  -1.30300 -1.85300 43.25700
C  2.31900 -4.71900 44.60600
N  3.41000 -0.11800 42.36500
C  4.77000 -0.28500 42.29700
C  5.42000 0.73600 41.26700
C  4.30500 1.84800 41.29700
C  3.10100 1.13000 41.91900
C  4.70200 3.13100 42.09600
C  5.75500 0.12700 39.81600
C  7.03800 0.67500 39.11800
H  6.93500 1.22000 37.71200
N  0.40500 -0.15400 42.82300
C  0.55900 1.01100 42.16000
C  -0.75000 1.64400 41.96900
C  -1.68700 0.54500 42.07500
C  -0.89300 -0.56100 42.66800
C  -0.95700 3.01100 41.37800
C  -3.13600 0.58600 41.70000
O  -3.61900 1.58400 41.18700
C  -3.96700 -0.68200 41.85300
N  0.68800 -3.14200 43.75600
C  -0.65700 -2.88600 43.83700
C  -1.33500 -4.09600 44.43600
C  -0.20000 -5.00900 44.98300
C  1.00500 -4.27200 44.46600
C  -2.45700 -3.82600 45.47500
C  -0.23400 -6.52700 44.41100
C  0.24000 -7.70700 45.31800
N  3.52100 -2.71300 43.93000
C  3.49200 -4.07700 44.19000
C  4.85900 -4.46000 44.52400
C  5.66200 -3.47300 43.96100
C  4.79800 -2.41800 43.64600
C  5.24900 -5.78400 45.11200
C  7.04900 -3.15700 43.55800
O  8.11700 -3.73000 43.74600
C  6.88400 -1.85100 42.70900
C  7.87200 -0.75100 43.27200
O  8.93000 -0.46800 42.78500
O  7.41400 -0.30000 44.40900
C  8.08200 0.80300 45.08800
H  1.77100 2.57600 41.39000
H  -2.37200 -1.98600 43.43000
H  2.34900 -5.70400 45.07700
H  6.41300 0.95600 41.66000
H  4.09800 2.11700 40.26100
H  4.03600 3.35700 42.92900
H  4.57500 3.97900 41.42200
H  5.71700 3.20700 42.48300
H  5.00200 0.42200 39.08500
H  6.03800 -0.92400 39.88000
H  7.80800 -0.09700 39.13800
H  7.51600 1.45500 39.71100
H  -0.17100 3.68500 41.71900
H  -1.87200 3.56000 41.60300
H  -0.80700 2.93100 40.30200
H  -4.94700 -0.36900 41.49300
H  -4.11100 -0.85600 42.91900
H  -3.50800 -1.55600 41.39000
H  -1.75200 -4.65300 43.59700
H  -0.18100 -5.09300 46.06900
H  -2.30800 -2.84700 45.92900
H  -2.48900 -4.56900 46.27200
H  -3.33900 -3.89300 44.83800
H  0.30700 -6.53900 43.46500
H  -1.29100 -6.69700 44.20600
H  -0.58900 -8.38500 45.11600
H  0.11600 -7.47400 46.37600
H  1.20300 -8.04200 44.93400
H  5.13600 -6.51300 44.31000
H  4.74200 -6.07100 46.03300
H  6.30300 -5.90300 45.36500
H  7.29700 -2.03700 41.71700
H  7.85300 1.78000 44.66300
H  9.11800 0.51800 45.27100
H  7.69200 0.90800 46.10100
Mg 53.12600 22.98800 44.04700
C  50.67400 25.40500 43.46800
C  50.97200 20.53700 43.03300
C  55.76000 20.94300 44.01300
C  55.24200 25.55700 45.37200
N  51.13900 23.02900 43.09800
C  50.31700 24.11500 43.05600
C  49.06200 23.68400 42.23900
C  49.02700 22.15400 42.50800
C  50.43800 21.86300 42.85500
C  48.12100 21.74400 43.72900
C  49.22000 23.95000 40.73300
C  47.95600 23.92700 39.99600
H  47.82700 23.30500 38.58100
N  53.35700 20.98800 43.59200
C  52.32400 20.13900 43.27400
C  52.86200 18.80300 43.09700
C  54.29500 18.90400 43.32000
C  54.53200 20.34300 43.66400
C  52.03600 17.63400 42.79300
C  55.30200 17.71600 43.28000
O  54.77400 16.57800 43.18000
C  56.76100 17.81100 43.39500
N  55.21600 23.25500 44.48800
C  56.08700 22.24800 44.33600
C  57.51500 22.66500 44.68700
C  57.35700 24.12300 45.23700
C  55.90200 24.35600 45.04200
C  58.29500 21.72100 45.65600
C  58.27400 25.28600 44.75500
C  59.07500 26.01800 45.78600
N  52.97700 25.07700 44.38400
C  53.84400 25.95500 45.04600
C  53.21900 27.20600 45.20100
C  51.95300 27.10900 44.54900
C  51.91900 25.74700 44.06800
C  53.80200 28.40600 45.85700
C  50.71100 27.74900 44.15800
O  50.23600 28.84700 44.32800
C  49.90500 26.71200 43.33300
C  49.70900 27.21700 41.99000
O  50.53500 27.21800 41.05000
O  48.41400 27.54300 41.86800
C  47.96300 27.99100 40.56700
H  50.17900 19.79800 42.89900
H  56.59300 20.25500 43.85300
H  55.89500 26.33600 45.77200
H  48.14900 24.15200 42.61000
H  48.71300 21.66100 41.58700
H  47.94200 22.67600 44.26500
H  48.58900 20.97500 44.34300
H  47.20300 21.28400 43.36200
H  49.91200 23.18300 40.38400
H  49.69300 24.90900 40.52100
H  47.62900 24.95700 39.85500
H  47.16000 23.41800 40.54000
H  52.32700 17.23500 41.82200
H  50.97300 17.87600 42.79800
H  52.27200 16.91800 43.58100
H  57.09300 18.59200 42.71100
H  57.20500 16.91700 42.95600
H  57.08500 17.96700 44.42400
H  57.95300 22.63500 43.69000
H  57.50600 24.12500 46.31700
H  58.66800 22.26500 46.52300
H  59.19800 21.33000 45.18800
H  57.63700 20.90400 45.95200
H  57.59600 26.00800 44.30000
H  58.99100 24.89500 44.03300
H  60.13600 25.77400 45.73400
H  58.61300 25.83000 46.75600
H  59.04100 27.09100 45.59700
H  53.59100 28.34400 46.92500
H  53.26300 29.30900 45.56800
H  54.88700 28.50500 45.82700
H  48.94300 26.66700 43.84500
H  47.81600 29.07100 40.58200
H  47.04300 27.45100 40.34500
H  48.69000 27.77100 39.78600

