158

Mg 40.46100 9.89600 30.25800
C  42.12000 11.15700 33.00400
C  37.97900 8.85200 32.37200
C  39.01400 8.36200 27.63900
C  43.07300 10.85600 28.16400
N  40.16900 9.98200 32.56100
C  40.87400 10.67200 33.41200
C  40.26900 10.79000 34.79400
C  38.97600 9.89100 34.60400
C  38.97900 9.57600 33.07300
C  38.98800 8.58900 35.43100
C  39.97300 12.25400 35.25200
C  40.85600 12.78100 36.49400
H  40.12700 13.47100 37.66000
N  38.65000 8.89000 30.00100
C  37.76000 8.56900 30.99900
C  36.53100 7.97300 30.40400
C  36.85400 7.85000 28.99400
C  38.27600 8.27700 28.80100
C  35.38300 7.45700 31.26900
C  36.01800 7.31800 27.89000
O  36.39100 7.16100 26.72800
C  34.55000 7.00000 28.17000
N  40.90400 9.74400 28.11800
C  40.18300 8.98200 27.30800
C  40.68100 9.15100 25.80800
C  42.12700 9.80600 25.99100
C  42.06300 10.18000 27.51000
C  40.61800 7.89800 24.94000
C  42.36200 10.96700 25.08400
C  41.61600 12.31200 25.48000
N  42.22600 10.84400 30.46600
C  43.23100 11.14000 29.52700
C  44.23900 11.84400 30.25200
C  43.89000 11.84900 31.57000
C  42.65600 11.18900 31.66500
C  45.46000 12.49500 29.58600
C  44.28100 12.33200 32.94000
O  45.22900 13.05700 33.23200
C  43.15200 11.81300 33.87700
C  43.69700 10.82600 34.89800
O  43.73400 9.58900 34.79900
O  44.19500 11.58900 35.95600
C  44.94700 10.96200 36.99300
H  37.22400 8.54600 33.09900
H  38.53400 7.93000 26.75800
H  43.89600 11.13500 27.50300
H  40.96700 10.33000 35.49300
H  38.06000 10.42400 34.85700
H  39.67500 8.70200 36.27000
H  39.32100 7.68300 34.92500
H  37.97300 8.47400 35.81200
H  38.90400 12.37600 35.42800
H  40.23800 12.82900 34.36500
H  41.51700 13.55200 36.09700
H  41.36600 11.87400 36.81900
H  35.46200 7.54500 32.35300
H  35.31900 6.39400 31.03700
H  34.44900 7.93300 30.97100
H  34.00700 6.69800 27.27400
H  34.12900 7.94800 28.50200
H  34.54900 6.17700 28.88600
H  39.94400 9.87100 25.45300
H  42.97200 9.11700 25.97900
H  40.57400 7.04000 25.61100
H  41.47000 7.78100 24.27100
H  39.70900 7.82700 24.34200
H  42.10900 10.94800 24.02400
H  43.43400 11.16200 25.07400
H  41.44200 13.08000 24.72700
H  42.22200 12.75800 26.26900
H  40.72400 12.07900 26.06100
H  46.32100 11.82800 29.62400
H  45.42000 13.46300 30.08600
H  45.33100 12.63400 28.51300
H  42.74200 12.71600 34.33000
H  44.28000 10.18400 37.36500
H  45.18900 11.58900 37.85100
H  45.87000 10.50600 36.63700
Mg 1.53600 42.01600 26.28000
C  3.78700 41.98900 29.12600
C  -0.99600 41.35700 28.36300
C  -0.14800 41.40900 23.57000
C  4.56900 42.08400 24.36200
N  1.44600 41.85900 28.50500
C  2.41000 41.92700 29.43900
C  1.76800 41.80300 30.81900
C  0.32000 41.27100 30.51000
C  0.23200 41.56700 29.05400
C  0.06600 39.77600 30.87100
C  1.84900 43.08800 31.72700
C  2.21200 42.91600 33.19200
H  1.80600 41.62400 33.86600
N  -0.29900 41.52100 26.05100
C  -1.24700 41.36000 26.99100
C  -2.51900 41.05200 26.40600
C  -2.24800 40.91400 24.98100
C  -0.85000 41.29100 24.78800
C  -3.82800 40.98800 27.20800
C  -3.25800 40.55300 23.94600
O  -3.02700 40.59900 22.73600
C  -4.61400 40.22400 24.45100
N  2.12700 41.93200 24.23300
C  1.17900 41.81600 23.28800
C  1.85500 41.96400 21.90600
C  3.28700 42.47600 22.25200
C  3.39000 42.10300 23.72400
C  1.85700 40.59200 21.17500
C  3.57100 44.01000 22.00000
C  4.58500 44.39500 20.93100
N  3.75200 41.99200 26.64500
C  4.80800 42.08400 25.73400
C  6.13200 42.24800 26.39600
C  5.77500 42.20100 27.76600
C  4.33400 42.07200 27.81000
C  7.46900 42.33000 25.78600
C  6.28300 42.19600 29.06900
O  7.40200 42.28100 29.46300
C  4.95400 42.21600 30.02200
C  5.18100 41.21100 31.09400
O  4.94900 39.97600 30.97800
O  5.62000 41.81600 32.19200
C  6.11500 40.88700 33.21800
H  -1.80000 40.97300 28.99400
H  -0.74000 41.20900 22.67500
H  5.43900 42.29100 23.73600
H  2.36100 41.04800 31.33600
H  -0.46000 41.76800 31.08600
H  -0.20000 39.15600 30.01500
H  -0.79700 39.68200 31.53000
H  0.88900 39.32600 31.42700
H  1.03000 43.79600 31.59600
H  2.66600 43.71900 31.37500
H  1.53700 43.60000 33.70700
H  3.29200 43.03200 33.27700
H  -3.76900 41.30600 28.24900
H  -4.11900 39.93700 27.21100
H  -4.60200 41.64100 26.80400
H  -5.12800 41.14000 24.73900
H  -4.61400 39.48000 25.24800
H  -5.19500 39.74000 23.66600
H  1.49900 42.85100 21.38300
H  3.99000 41.91300 21.63800
H  1.16600 39.88000 21.62800
H  2.79900 40.09300 21.40200
H  1.63000 40.57300 20.10900
H  3.97400 44.35700 22.95200
H  2.60500 44.48700 21.83300
H  5.39400 44.86800 21.48800
H  4.13800 45.09300 20.22300
H  4.92700 43.52200 20.37500
H  7.76200 43.37300 25.66800
H  7.59500 41.82500 24.82800
H  8.17000 41.85600 26.47300
H  4.89600 43.21300 30.45900
H  6.67200 40.10900 32.69500
H  5.38800 40.30600 33.78400
H  6.73100 41.47300 33.90000

