158

Mg -1.63600 17.44200 27.43100
C  -2.08600 15.20800 30.13500
C  -2.42400 19.98600 29.58500
C  -1.85200 19.66500 24.85100
C  -1.77300 14.85400 25.25800
N  -2.28100 17.49500 29.61600
C  -2.33600 16.48700 30.51100
C  -2.58700 17.02200 31.99600
C  -2.61600 18.58300 31.75600
C  -2.50500 18.71000 30.21900
C  -3.90300 19.23000 32.28200
C  -1.55400 16.56100 32.99200
C  -1.25200 17.45200 34.19200
H  -0.53000 16.79500 35.33900
N  -1.75800 19.57000 27.32200
C  -2.21000 20.44000 28.24700
C  -2.16400 21.85300 27.77300
C  -1.72500 21.64600 26.39400
C  -1.79700 20.25500 26.12200
C  -2.39100 23.13500 28.59600
C  -1.32700 22.68400 25.39100
O  -0.99200 22.45700 24.27700
C  -1.16900 24.06600 25.92900
N  -1.98000 17.32300 25.32900
C  -2.01200 18.36900 24.46000
C  -1.92800 17.79300 23.04900
C  -1.85700 16.23000 23.19000
C  -1.89600 16.10200 24.70800
C  -3.03600 18.19300 22.09600
C  -0.56700 15.53300 22.71600
C  0.70900 15.97800 23.52000
N  -1.74000 15.43900 27.61100
C  -1.77000 14.52400 26.63300
C  -1.78600 13.20000 27.25700
C  -1.91700 13.41000 28.61500
C  -1.87500 14.81100 28.79300
C  -1.82100 11.94900 26.57400
C  -2.09400 12.70300 29.84700
O  -2.20500 11.52600 30.10000
C  -2.08500 13.89000 30.97700
C  -0.88800 13.71100 31.75400
O  0.20400 14.17500 31.42300
O  -1.16900 13.07900 32.90900
C  0.09900 12.77500 33.63800
H  -2.44400 20.85400 30.24700
H  -1.65900 20.31300 23.99300
H  -1.82700 14.08300 24.48600
H  -3.54900 16.63100 32.32800
H  -1.69500 19.02900 32.12900
H  -4.44800 18.52800 32.91300
H  -4.45100 19.69100 31.46100
H  -3.57100 19.97300 33.00800
H  -0.68000 16.41100 32.35800
H  -1.82300 15.55000 33.29900
H  -2.19900 17.92700 34.44600
H  -0.64800 18.28800 33.83900
H  -3.06100 22.73500 29.35700
H  -3.02200 23.83000 28.04300
H  -1.49700 23.55600 29.05600
H  -2.13300 24.41200 26.30100
H  -0.88400 24.70700 25.09500
H  -0.30200 24.00100 26.58700
H  -0.98900 18.20000 22.67100
H  -2.63200 15.63500 22.70700
H  -3.30100 19.22800 22.31200
H  -3.91800 17.58500 22.30200
H  -2.73400 18.10200 21.05300
H  -0.44200 15.81500 21.67100
H  -0.59900 14.44500 22.67100
H  0.52400 16.85800 24.13600
H  1.52400 16.28500 22.86500
H  1.12300 15.14000 24.08000
H  -1.37800 12.02000 25.58100
H  -2.80800 11.48600 26.60700
H  -1.16200 11.27800 27.12500
H  -2.94500 13.74700 31.63200
H  -0.14900 12.46900 34.65500
H  0.69200 13.68900 33.67800
H  0.73200 11.98200 33.24000
Mg -10.48100 39.18400 41.15800
C  -9.06800 35.85000 40.39100
C  -7.65900 40.45300 39.76100
C  -12.02800 42.01700 41.15800
C  -13.41500 37.39100 42.19600
N  -8.79300 38.23000 39.85300
C  -8.35300 36.92400 39.87200
C  -7.04600 36.81200 39.18700
C  -6.46300 38.28000 39.32700
C  -7.70800 39.02200 39.72900
C  -5.38200 38.46500 40.41200
C  -7.20900 36.16300 37.79600
C  -6.00500 35.43200 37.21800
H  -5.39900 36.18100 35.97000
N  -9.94500 41.05000 40.54500
C  -8.66300 41.33900 40.07500
C  -8.73100 42.76900 39.70300
C  -9.92200 43.35500 40.25200
C  -10.66500 42.16700 40.74400
C  -7.70400 43.57100 38.95400
C  -10.33000 44.74200 40.32300
O  -9.77700 45.59100 39.68300
C  -11.42400 45.18200 41.16400
N  -12.41700 39.62300 41.66800
C  -12.82200 40.91800 41.57900
C  -14.31700 40.95600 41.94000
C  -14.66300 39.55100 42.38900
C  -13.43300 38.80500 42.13200
C  -14.94300 42.16400 42.73000
C  -15.91600 38.98600 41.63100
C  -16.91100 38.18900 42.43500
N  -11.15200 37.05700 41.35200
C  -12.26300 36.56300 41.89300
C  -12.13400 35.18000 42.11000
C  -10.88500 34.85800 41.53700
C  -10.35600 35.98200 40.99300
C  -13.17000 34.30500 42.64000
C  -10.00300 33.77000 41.24900
O  -10.04400 32.56100 41.60300
C  -8.85000 34.39700 40.32500
C  -7.51400 33.88300 40.72900
O  -6.67900 33.49600 39.95800
O  -7.36600 33.95100 42.07300
C  -6.12600 33.60600 42.68600
H  -6.79900 40.92800 39.28500
H  -12.60200 42.93200 40.99400
H  -14.27500 36.85100 42.59900
H  -6.30200 36.21000 39.70900
H  -6.07300 38.58100 38.35500
H  -5.65200 39.07900 41.27000
H  -4.40600 38.77400 40.03600
H  -5.25900 37.50000 40.90400
H  -7.49000 36.89500 37.03900
H  -7.94800 35.36700 37.88400
H  -6.29600 34.41600 36.95000
H  -5.22800 35.50000 37.98000
H  -7.33100 44.51800 39.34600
H  -7.89600 43.80900 37.90800
H  -6.80200 42.98500 38.77900
H  -11.21600 46.18300 41.54300
H  -11.39200 44.50100 42.01400
H  -12.33500 45.21500 40.56600
H  -14.65500 41.10000 40.91400
H  -14.86600 39.53500 43.46000
H  -15.72300 42.51900 42.05700
H  -14.11400 42.85100 42.89600
H  -15.52900 41.89100 43.60800
H  -15.49700 38.44900 40.78000
H  -16.42500 39.77200 41.07300
H  -16.74000 38.11400 43.50900
H  -16.82300 37.20700 41.97200
H  -17.91900 38.59500 42.35900
H  -14.12800 34.33800 42.12000
H  -13.34600 34.43200 43.70800
H  -12.73800 33.31200 42.51400
H  -9.06100 34.16000 39.28200
H  -5.58500 32.73000 42.32700
H  -6.31700 33.47000 43.75100
H  -5.43700 34.43700 42.53600

