158

Mg 47.06900 15.99100 27.82400
C  45.25400 15.27800 30.78200
C  48.97000 18.10700 29.83500
C  48.97200 16.67600 25.17600
C  44.99800 14.01000 25.95500
N  47.14600 16.51300 30.12600
C  46.33800 16.12600 31.13700
C  46.77300 16.67400 32.47100
C  47.75200 17.77000 32.10300
C  47.98900 17.47500 30.58200
C  47.39100 19.20000 32.51400
C  47.31500 15.60000 33.41500
C  47.10800 15.70800 34.92200
H  48.34400 15.58300 35.80500
N  48.64800 17.22000 27.53900
C  49.26400 18.00600 28.51700
C  50.45000 18.62900 27.92200
C  50.48800 18.30800 26.51500
C  49.26700 17.43200 26.33000
C  51.47200 19.46200 28.70800
C  51.37100 18.82800 25.41000
O  51.26100 18.47200 24.26200
C  52.55700 19.73400 25.73400
N  46.98000 15.46400 25.83000
C  47.96500 15.77000 24.93400
C  47.77800 14.96100 23.66100
C  46.45700 14.28500 23.82000
C  46.09500 14.52800 25.29400
C  47.81800 15.74900 22.34800
C  46.49800 12.75300 23.39800
C  45.99800 12.48200 21.89400
N  45.40300 14.92100 28.22700
C  44.61800 14.20300 27.30300
C  43.53200 13.63000 28.01300
C  43.71100 13.97000 29.38900
C  44.89200 14.83100 29.46700
C  42.43300 12.89000 27.25300
C  43.31700 13.75800 30.78700
O  42.44200 13.06400 31.31800
C  44.24700 14.63400 31.72600
C  43.41900 15.59500 32.44800
O  42.63500 16.33000 31.98600
O  43.74300 15.55100 33.77900
C  42.97600 16.34300 34.63500
H  49.53400 18.79900 30.46300
H  49.57900 16.80100 24.27700
H  44.32800 13.44500 25.30300
H  45.92500 17.15900 32.95300
H  48.64900 17.58000 32.69300
H  46.85000 19.37100 33.44500
H  46.99600 19.57000 31.56800
H  48.33200 19.73000 32.66000
H  48.36200 15.47900 33.13800
H  46.86300 14.65400 33.11600
H  46.39800 14.89900 35.09400
H  46.59400 16.62200 35.21900
H  51.71100 20.36500 28.14700
H  52.38800 18.96600 29.02800
H  51.07200 19.82100 29.65600
H  52.14300 20.71600 25.96400
H  53.24500 19.88300 24.90200
H  53.06300 19.35300 26.62100
H  48.59900 14.24400 23.66000
H  45.61600 14.69300 23.25800
H  48.62400 15.38300 21.71200
H  48.03600 16.79700 22.55500
H  46.91000 15.70000 21.74800
H  45.99600 12.08900 24.10200
H  47.55300 12.51300 23.52500
H  46.75600 11.83100 21.45700
H  45.87000 13.36000 21.26100
H  45.07500 11.90400 21.94900
H  42.13800 13.13000 26.23200
H  41.54800 13.33200 27.71100
H  42.38800 11.82900 27.49900
H  44.71400 13.98800 32.47000
H  43.34500 16.18600 35.64900
H  41.95300 15.99900 34.48100
H  43.04500 17.38600 34.32700
Mg 15.64900 51.70500 26.05800
C  17.45800 50.62400 28.82400
C  13.06300 52.56900 28.10000
C  13.93000 52.61500 23.30700
C  18.17300 50.41300 23.93900
N  15.32700 51.71300 28.20500
C  16.25000 51.26200 29.15400
C  15.78500 51.66400 30.54800
C  14.22300 51.73300 30.33000
C  14.17200 52.07200 28.77400
C  13.44300 50.38900 30.71000
C  16.42100 52.94000 31.11300
C  16.50000 53.12800 32.64800
H  15.67100 52.15200 33.43200
N  13.73500 52.48200 25.74500
C  12.85200 52.79900 26.75000
C  11.66300 53.39500 26.14800
C  11.88200 53.25600 24.76800
C  13.22300 52.82100 24.51700
C  10.44500 53.91800 26.92100
C  10.92800 53.56200 23.65800
O  11.26800 53.43200 22.49000
C  9.50000 54.02400 24.01700
N  15.91100 51.43000 23.92000
C  15.14200 52.04300 22.99600
C  15.82000 52.06800 21.57100
C  17.00900 51.00500 21.78700
C  17.05700 50.94900 23.30600
C  14.81900 51.72800 20.42100
C  18.29500 51.41300 21.01700
C  18.70800 50.45100 19.87000
N  17.38100 50.62500 26.30600
C  18.35600 50.28700 25.38100
C  19.51600 49.75100 26.03000
C  19.17400 49.86300 27.40900
C  17.91600 50.37500 27.53200
C  20.86100 49.30200 25.45400
C  19.63600 49.56200 28.73900
O  20.68700 49.04800 29.13200
C  18.56100 50.05300 29.73800
C  18.21100 48.92300 30.63900
O  17.60300 47.90300 30.31100
O  18.65400 49.21300 31.94600
C  17.93300 48.49800 33.00800
H  12.25400 52.86200 28.77300
H  13.40500 53.05100 22.45500
H  19.11600 50.20400 23.43000
H  15.94700 50.86700 31.27400
H  13.77200 52.51500 30.94000
H  14.18500 49.60700 30.55200
H  12.51900 50.16100 30.17800
H  13.17100 50.36100 31.76500
H  15.82600 53.79200 30.78300
H  17.39500 53.04000 30.63300
H  16.18500 54.14500 32.87800
H  17.53000 53.06300 32.99800
H  10.08600 54.87900 26.55400
H  10.64900 53.91500 27.99200
H  9.58400 53.27400 26.73700
H  8.92800 53.36400 24.67000
H  8.84800 53.99200 23.14400
H  9.60200 55.08400 24.24900
H  16.18700 53.08900 21.47600
H  16.73800 50.04200 21.35400
H  15.21100 50.87600 19.86600
H  14.59500 52.59800 19.80300
H  13.79800 51.61800 20.78800
H  19.13400 51.80000 21.59500
H  18.05100 52.33100 20.48200
H  18.41900 49.44900 20.18700
H  19.78400 50.44600 19.69900
H  18.19200 50.73500 18.95300
H  20.82100 49.21500 24.36800
H  21.29700 48.36900 25.81100
H  21.54400 50.08600 25.78100
H  19.02000 50.87300 30.29000
H  18.39000 47.54200 33.26400
H  16.87200 48.33900 32.81500
H  17.80400 49.12400 33.89000

