158

Mg -2.13800 18.25900 27.22400
C  -2.54600 15.91800 29.69500
C  -2.54300 20.74100 29.47100
C  -1.71600 20.44500 24.64100
C  -2.01400 15.50600 24.86700
N  -2.40000 18.27700 29.33900
C  -2.58900 17.25800 30.16700
C  -2.65900 17.76100 31.62100
C  -3.12000 19.18200 31.38300
C  -2.68300 19.42200 29.94600
C  -4.62100 19.51800 31.70300
C  -1.41100 17.68700 32.48000
C  -1.62300 17.20000 33.92500
H  -0.40700 16.88300 34.82000
N  -2.13400 20.30300 27.08900
C  -2.23300 21.16600 28.15500
C  -1.98800 22.52500 27.73700
C  -1.72800 22.43000 26.31200
C  -1.80200 21.02500 25.92000
C  -2.09000 23.74100 28.62000
C  -1.51100 23.57700 25.29900
O  -1.49900 23.54000 24.10800
C  -1.19900 24.87200 25.83400
N  -1.86200 17.95800 25.15100
C  -1.72600 19.05500 24.30900
C  -1.61100 18.53700 22.84200
C  -1.70400 17.08000 22.95600
C  -1.86500 16.80900 24.40900
C  -2.70400 19.16000 21.93200
C  -0.50000 16.37200 22.32500
C  0.73700 16.29200 23.14800
N  -2.44100 16.10000 27.24100
C  -2.23400 15.16400 26.22300
C  -2.35700 13.84200 26.80100
C  -2.60000 14.10000 28.22200
C  -2.49100 15.47200 28.36300
C  -2.20100 12.63600 25.99000
C  -2.85500 13.44000 29.54000
O  -2.95000 12.24600 29.84800
C  -2.87100 14.62300 30.50200
C  -1.68100 14.48200 31.40100
O  -0.48200 14.62000 31.12800
O  -2.09500 13.91700 32.62000
C  -1.07100 13.51900 33.55100
H  -2.72100 21.44000 30.29100
H  -1.62700 21.09500 23.76800
H  -2.09000 14.66400 24.17600
H  -3.51200 17.29700 32.11500
H  -2.54100 19.85600 32.01400
H  -5.13200 18.63100 32.07600
H  -5.13000 19.89400 30.81600
H  -4.61500 20.31000 32.45200
H  -0.94400 18.66800 32.56600
H  -0.63900 17.03200 32.07600
H  -2.33600 16.40300 33.71500
H  -2.17000 17.97500 34.46100
H  -1.23600 24.35500 28.90400
H  -2.56000 23.38300 29.53600
H  -2.85200 24.32900 28.10800
H  -1.97600 25.47900 26.29800
H  -0.64600 25.42300 25.07300
H  -0.36500 24.65600 26.50200
H  -0.70400 18.96500 22.41500
H  -2.61000 16.68700 22.49400
H  -3.34900 18.36400 21.56000
H  -2.30900 19.73900 21.09700
H  -3.25600 19.93400 22.46700
H  -0.30700 16.90900 21.39600
H  -0.84500 15.36200 22.10700
H  0.71900 16.75700 24.13300
H  1.59200 16.66400 22.58400
H  1.04900 15.25400 23.25300
H  -1.57200 11.89300 26.48100
H  -1.57000 12.81400 25.11900
H  -3.17100 12.26300 25.66200
H  -3.79100 14.71700 31.07900
H  -1.50800 12.83200 34.27600
H  -0.65900 14.34800 34.12800
H  -0.26300 12.97500 33.06300
Mg -5.41400 25.91300 26.04900
C  -4.06400 27.05200 29.06200
C  -7.44100 23.64300 27.93200
C  -6.32700 24.45400 23.27400
C  -2.87800 27.73600 24.40500
N  -5.69600 25.46400 28.16100
C  -5.05400 26.04800 29.19100
C  -5.53600 25.54600 30.58000
C  -6.42800 24.31300 30.18500
C  -6.60500 24.51800 28.66200
C  -5.75800 22.96200 30.65500
C  -6.34400 26.65400 31.24400
C  -6.71500 26.51900 32.75800
H  -6.12100 25.34800 33.62400
N  -6.85000 24.37000 25.65100
C  -7.62600 23.62500 26.50600
C  -8.48500 22.74200 25.71300
C  -8.16700 22.93600 24.29800
C  -7.06200 23.89200 24.35400
C  -9.51600 21.84600 26.29200
C  -8.84000 22.32600 23.13300
O  -8.41700 22.44200 21.98700
C  -10.00700 21.42400 23.23200
N  -4.86900 26.12500 24.17300
C  -5.37400 25.42700 23.13000
C  -4.68300 25.71300 21.79100
C  -3.87100 26.99300 22.12200
C  -3.87400 26.96500 23.67200
C  -3.97600 24.44200 21.24300
C  -4.55100 28.29200 21.58900
C  -3.68500 29.17400 20.65300
N  -3.91200 27.30700 26.57900
C  -3.00900 27.92200 25.77600
C  -2.13500 28.75000 26.56500
C  -2.56700 28.43900 27.87200
C  -3.61000 27.60200 27.80600
C  -1.10400 29.67000 26.12400
C  -2.25300 28.69100 29.27000
O  -1.47100 29.44700 29.86100
C  -3.24500 27.79100 30.08300
C  -2.45300 27.07700 31.05500
O  -1.81000 26.01600 30.95200
O  -2.57000 27.80900 32.21800
C  -1.89100 27.11400 33.39200
H  -8.07600 22.98800 28.53200
H  -6.63300 23.98000 22.33900
H  -2.12100 28.20800 23.77400
H  -4.74200 25.17500 31.22900
H  -7.39300 24.46500 30.67000
H  -5.10100 23.07600 31.51700
H  -5.18100 22.45600 29.88000
H  -6.52400 22.22300 30.89000
H  -7.20200 26.88200 30.61100
H  -5.71900 27.54700 31.27500
H  -7.80300 26.48900 32.80400
H  -6.34800 27.44500 33.20100
H  -10.46900 22.30300 26.02600
H  -9.55300 21.97300 27.37400
H  -9.43300 20.79200 26.02700
H  -9.84200 20.42200 23.62800
H  -10.36800 21.20600 22.22600
H  -10.80400 21.86600 23.83100
H  -5.51300 25.98700 21.14100
H  -2.87100 26.96000 21.69000
H  -4.46800 24.20600 20.29900
H  -3.99600 23.56400 21.88800
H  -2.90600 24.61300 21.13300
H  -4.73900 28.90200 22.47300
H  -5.54700 28.10800 21.18600
H  -2.76800 28.63800 20.40800
H  -3.49200 30.18300 21.01800
H  -4.25600 29.30400 19.73400
H  -0.31700 29.25300 25.49600
H  -0.51000 29.94700 26.99400
H  -1.48700 30.59100 25.68600
H  -3.96200 28.43600 30.59100
H  -0.80700 27.22700 33.40900
H  -2.03000 26.03400 33.42000
H  -2.09800 27.54800 34.37100

