158

Mg 26.19800 50.96100 26.63000
C  23.91800 52.01600 29.08000
C  28.26600 50.03900 29.05000
C  28.40300 50.11000 24.27100
C  23.98400 52.20300 24.15100
N  26.19700 51.14200 28.78100
C  25.11000 51.46400 29.60300
C  25.38300 51.41300 31.02400
C  26.89200 51.05700 31.04400
C  27.21100 50.72000 29.53800
C  27.85300 52.14200 31.71000
C  24.37800 50.58300 31.83500
C  24.83000 49.89600 33.17500
H  25.49300 50.79900 34.24500
N  28.11300 50.12300 26.63100
C  28.80900 49.81100 27.78000
C  30.13700 49.32200 27.40500
C  30.24000 49.23900 25.98600
C  28.84000 49.80200 25.55400
C  31.24100 48.87400 28.38600
C  31.33300 48.78400 25.06500
O  31.14300 48.65600 23.83800
C  32.62900 48.50100 25.53800
N  26.30600 51.37400 24.52500
C  27.31200 50.75900 23.76500
C  27.00800 50.85900 22.25800
C  25.49400 51.28500 22.20800
C  25.22600 51.63000 23.71200
C  28.06700 51.63300 21.40900
C  24.60800 50.24200 21.63900
C  23.17200 50.74000 21.21700
N  24.37600 52.01500 26.57300
C  23.58000 52.37000 25.48900
C  22.37700 53.02600 26.04600
C  22.52800 52.95700 27.46000
C  23.63000 52.20900 27.69800
C  21.33000 53.83500 25.31100
C  21.92900 53.37500 28.71000
O  20.92900 54.06200 28.94500
C  22.78500 52.77300 29.73600
C  23.33700 53.91300 30.53500
O  24.32200 54.54000 30.23700
O  22.75900 54.07800 31.73100
C  23.17900 55.21700 32.54900
H  28.91600 49.55700 29.78300
H  29.04800 49.79500 23.44800
H  23.24900 52.53100 23.41200
H  25.25500 52.47700 31.22100
H  27.09400 50.21700 31.70800
H  27.23200 52.96700 32.06100
H  28.64100 52.47700 31.03500
H  28.34100 51.80900 32.62700
H  23.93100 49.83900 31.17500
H  23.66300 51.26800 32.29000
H  25.51800 49.12300 32.83200
H  23.92700 49.48600 33.62700
H  30.79700 48.36100 29.23900
H  31.74700 49.81300 28.61300
H  32.01800 48.24700 27.95000
H  33.35400 48.45400 24.72500
H  32.56100 47.49000 25.94100
H  32.98800 49.18900 26.30300
H  27.23800 49.86500 21.87400
H  25.41000 52.23100 21.67400
H  27.62600 52.57000 21.06800
H  28.47100 50.91200 20.69800
H  28.92500 51.80600 22.06000
H  24.44600 49.41100 22.32600
H  25.15900 49.71700 20.85900
H  23.09300 50.72200 20.13000
H  23.02300 51.81900 21.24600
H  22.47000 50.17900 21.83400
H  20.41500 53.24800 25.38800
H  21.62200 54.06000 24.28500
H  21.05200 54.75200 25.83100
H  22.30700 52.17500 30.51300
H  23.93500 54.96400 33.29200
H  22.41100 55.42700 33.29300
H  23.48000 56.14800 32.06800
Mg -1.29100 34.40900 26.62300
C  -3.54100 32.78500 28.96600
C  -0.32000 36.53800 29.19400
C  0.61300 36.01200 24.46700
C  -2.61700 32.34900 24.06700
N  -1.89700 34.65200 28.81500
C  -2.69700 33.77700 29.51800
C  -2.72400 34.14400 31.01400
C  -1.76900 35.44800 31.08400
C  -1.33900 35.61100 29.61300
C  -2.46700 36.69000 31.68500
C  -2.36800 32.96200 31.95200
C  -1.62500 33.25300 33.26500
H  -2.20500 32.80700 34.62500
N  0.12900 36.00300 26.80400
C  0.39700 36.71300 27.93500
C  1.25900 37.85000 27.58200
C  1.40300 37.80000 26.19800
C  0.76500 36.54300 25.75500
C  1.58300 38.91500 28.60400
C  2.04200 38.79000 25.34100
O  2.14500 38.60400 24.11200
C  2.64200 40.02700 25.89000
N  -1.01600 34.20000 24.61300
C  -0.12200 34.96000 23.95000
C  -0.13400 34.49600 22.44200
C  -0.96000 33.12900 22.47900
C  -1.58100 33.23800 23.80600
C  -0.77800 35.61400 21.45100
C  -0.14600 31.84900 22.30100
C  -0.85800 30.63300 21.80900
N  -2.82100 32.90100 26.46300
C  -3.28800 32.22500 25.35000
C  -4.29700 31.27500 25.73200
C  -4.45700 31.51600 27.09700
C  -3.54000 32.49200 27.50400
C  -5.10900 30.27800 24.80500
C  -5.23100 31.15300 28.21000
O  -6.22400 30.46900 28.33100
C  -4.65600 31.89200 29.48400
C  -5.67800 32.75600 30.19400
O  -6.32000 33.74700 29.76200
O  -6.00100 32.27000 31.42300
C  -7.21100 32.65300 32.17200
H  -0.08200 37.32200 29.91600
H  1.09100 36.42100 23.57400
H  -2.91400 31.61900 23.31100
H  -3.77000 34.38600 31.20400
H  -0.80900 35.23300 31.55400
H  -3.55000 36.58200 31.75000
H  -2.38500 37.47000 30.92800
H  -2.15900 37.01700 32.67800
H  -1.91700 32.12500 31.41900
H  -3.35100 32.64200 32.29800
H  -1.60300 34.33900 33.35600
H  -0.62400 32.82900 33.19600
H  1.53600 38.55900 29.63300
H  0.92400 39.76900 28.45100
H  2.65600 39.09400 28.52700
H  1.96300 40.58500 26.53500
H  2.90500 40.68200 25.05900
H  3.57200 39.80800 26.41400
H  0.86500 34.33200 22.03800
H  -1.69100 33.11600 21.67000
H  -1.33100 36.46200 21.85500
H  -1.37800 35.20700 20.63700
H  0.11500 36.09400 21.05200
H  0.44500 31.69700 23.20400
H  0.66200 32.07100 21.60400
H  -0.20300 30.36900 20.97800
H  -1.78300 30.87800 21.28800
H  -0.98400 29.88500 22.59100
H  -4.57400 30.09100 23.87400
H  -6.14200 30.58800 24.64600
H  -5.16800 29.36200 25.39200
H  -4.26700 31.15400 30.18500
H  -7.98900 33.05700 31.52400
H  -6.89400 33.33000 32.96600
H  -7.55800 31.72600 32.62800

