158

Mg 44.54900 4.36500 47.83900
C  42.49200 7.12800 47.35200
C  41.83400 2.29800 47.73800
C  46.60100 1.71800 48.02700
C  47.28900 6.53400 47.44000
N  42.43800 4.72500 47.42100
C  41.78700 5.88700 47.39300
C  40.37400 5.72700 47.05100
C  40.12200 4.22900 47.40800
C  41.60200 3.68200 47.69600
C  39.23700 4.08800 48.66200
C  40.06500 6.10600 45.55500
C  39.12200 7.36900 45.33000
H  39.52600 8.06700 44.06700
N  44.23200 2.28800 47.95700
C  43.07600 1.63100 47.86300
C  43.31900 0.22800 47.95600
C  44.67000 0.03400 48.17800
C  45.22700 1.33200 48.06700
C  42.28100 -0.90400 47.83000
C  45.39300 -1.31100 48.42600
O  44.75500 -2.36100 48.49100
C  46.85100 -1.43600 48.63900
N  46.66800 4.22800 47.76700
C  47.17500 2.98700 47.88800
C  48.78700 3.09600 47.93300
C  49.03700 4.60700 47.69600
C  47.62600 5.20200 47.65000
C  49.59800 2.63200 49.12800
C  50.06700 5.07300 46.61300
C  51.20600 6.02400 47.12400
N  44.90000 6.46400 47.49000
C  46.08900 7.20000 47.48700
C  45.76500 8.63900 47.45500
C  44.33800 8.68400 47.34100
C  43.92200 7.32600 47.36700
C  46.76000 9.79700 47.42800
C  43.18500 9.55800 47.29900
O  43.01300 10.78800 47.24400
C  41.96400 8.57300 47.39200
C  41.29700 8.83600 48.70200
O  41.36300 8.17200 49.69000
O  40.40000 9.89800 48.57000
C  39.41800 9.97000 49.59900
H  40.94800 1.66000 47.71900
H  47.36800 0.95200 48.15600
H  48.11800 7.23500 47.55800
H  39.87800 6.36300 47.78400
H  39.50700 3.68800 46.68900
H  38.54100 4.90400 48.85300
H  39.83700 3.86600 49.54500
H  38.59800 3.22400 48.47800
H  39.48100 5.29900 45.11100
H  40.96800 6.39200 45.01600
H  39.25200 7.96500 46.23400
H  38.07400 7.06900 45.32800
H  42.47700 -1.48700 46.93000
H  41.35200 -0.37100 47.62700
H  42.14000 -1.52000 48.71900
H  47.28000 -1.38000 47.63800
H  46.97400 -2.42200 49.08700
H  47.08700 -0.71200 49.42000
H  49.16500 2.53800 47.07600
H  49.24400 5.07800 48.65700
H  50.39000 3.25900 49.53900
H  50.14500 1.77200 48.74200
H  48.88400 2.34500 49.90100
H  49.53100 5.46000 45.74700
H  50.55600 4.14600 46.31300
H  52.14600 5.51800 47.34500
H  51.00900 6.40200 48.12800
H  51.41800 6.87600 46.47800
H  47.66000 9.66000 46.82800
H  47.20500 9.84500 48.42200
H  46.24900 10.72100 47.15800
H  41.37900 8.87500 46.52300
H  39.79700 10.04200 50.61800
H  38.68700 9.18400 49.41100
H  38.86700 10.90200 49.46900
Mg 9.83800 48.16600 25.92100
C  8.22500 48.01200 29.04100
C  12.66100 49.19800 27.54200
C  11.43900 48.33700 22.94500
C  6.91200 47.04900 24.35900
N  10.28500 48.76600 28.02500
C  9.50000 48.52600 29.11100
C  10.21200 48.94800 30.37600
C  11.53100 49.54000 29.82100
C  11.51300 49.13800 28.36800
C  11.58100 51.11000 29.86500
C  10.41000 47.89600 31.52900
C  9.75200 48.38900 32.84200
H  9.48300 47.32500 33.94700
N  11.77100 48.66500 25.31000
C  12.88400 49.02600 26.15100
C  14.10600 49.03900 25.38500
C  13.66900 48.82600 24.03200
C  12.19700 48.61200 24.02500
C  15.52500 49.23900 25.94300
C  14.55200 48.86700 22.85300
O  14.09400 48.84200 21.74100
C  16.07400 48.89600 23.03700
N  9.15500 47.93800 23.88000
C  10.07500 48.02200 22.83200
C  9.30000 47.76800 21.49300
C  8.22000 46.81600 22.03700
C  7.99400 47.34400 23.47300
C  8.86400 49.08000 20.83700
C  8.62200 45.34500 22.20500
C  8.66600 44.56900 20.84900
N  7.94600 47.81900 26.47600
C  6.85900 47.35700 25.76800
C  5.68700 47.13100 26.61600
C  6.15800 47.38100 27.94900
C  7.53900 47.78900 27.78400
C  4.37300 46.59300 26.17400
C  5.88300 47.28900 29.37700
O  4.82100 47.10500 29.97600
C  7.23300 47.62700 30.15600
C  7.53400 46.33300 30.83900
O  8.06100 45.34500 30.37700
O  6.94900 46.34300 32.08600
C  7.05500 45.05400 32.81600
H  13.55600 49.44000 28.11800
H  11.76800 48.15500 21.92000
H  6.06400 46.42100 24.08100
H  9.63500 49.77300 30.79300
H  12.40500 49.06900 30.27100
H  10.63500 51.60900 30.07600
H  11.79800 51.53900 28.88700
H  12.38800 51.40800 30.53500
H  11.46500 47.65200 31.65600
H  9.95900 46.91500 31.38200
H  8.74200 48.78500 32.73400
H  10.38100 49.16900 33.27100
H  16.23700 48.47400 25.63400
H  15.42300 49.06800 27.01400
H  15.84900 50.26600 25.77200
H  16.54800 47.98700 23.40700
H  16.32200 49.84000 23.52200
H  16.40400 49.16100 22.03300
H  9.95300 47.17400 20.85500
H  7.23300 46.92000 21.58600
H  9.44500 49.96700 21.09100
H  7.84300 49.38700 21.06600
H  8.97000 48.91500 19.76500
H  7.95400 44.86100 22.91800
H  9.58900 45.22500 22.69200
H  8.05900 43.66400 20.86500
H  9.70000 44.31600 20.61300
H  8.29900 45.09200 19.96600
H  3.79000 46.52400 27.09200
H  4.50300 45.57800 25.79700
H  3.91800 47.33800 25.52200
H  7.12400 48.35600 30.95800
H  6.51600 45.22200 33.74900
H  8.10700 44.86700 33.03500
H  6.56500 44.17200 32.40400

