158

Mg 7.89800 3.27300 27.39100
C  9.42400 1.83800 30.35000
C  6.07900 5.33500 29.51600
C  6.57600 4.49200 24.71600
C  9.58500 0.70800 25.64700
N  7.83900 3.61000 29.67900
C  8.63100 2.95900 30.66900
C  8.42800 3.64400 32.04300
C  7.23200 4.69400 31.74500
C  6.98500 4.54500 30.22300
C  5.89200 4.56700 32.54300
C  9.68400 4.24800 32.79600
C  9.86700 3.79200 34.28100
H  10.52900 4.77500 35.28100
N  6.48900 4.67900 27.14900
C  5.84300 5.43100 28.10400
C  5.00200 6.43100 27.44200
C  5.23900 6.28600 26.03000
C  6.14400 5.15400 25.90200
C  4.17700 7.45300 28.15600
C  4.77200 7.09000 24.80900
O  5.12100 6.84200 23.67600
C  3.74100 8.12800 25.03900
N  8.03500 2.63200 25.45600
C  7.39800 3.41800 24.49600
C  7.67000 2.87300 23.06400
C  8.57200 1.66800 23.42800
C  8.69400 1.61100 24.89600
C  6.35300 2.59000 22.19400
C  9.90300 1.64100 22.63700
C  10.06700 0.29700 21.91600
N  9.16900 1.63800 27.87000
C  9.84500 0.77800 26.99200
C  10.64800 -0.16000 27.72900
C  10.61000 0.32000 29.06400
C  9.67200 1.34600 29.06700
C  11.52200 -1.27100 27.14400
C  11.07700 0.02100 30.38000
O  11.79000 -0.86600 30.86400
C  10.47100 1.19300 31.25500
C  9.88600 0.61100 32.45900
O  8.71000 0.28100 32.46500
O  10.71900 0.64300 33.55900
C  10.04800 0.17200 34.77100
H  5.65700 6.10900 30.16000
H  6.20100 4.79500 23.73600
H  10.08300 -0.05800 25.05000
H  8.16400 2.77000 32.63900
H  7.64200 5.68500 31.94100
H  5.08800 4.17900 31.91800
H  5.61800 5.50100 33.03200
H  6.11200 3.76000 33.24200
H  9.66500 5.33800 32.81700
H  10.61500 3.99600 32.28800
H  10.59400 2.98300 34.35100
H  8.90900 3.52200 34.72500
H  4.54200 8.45000 27.91200
H  4.07200 7.29000 29.22900
H  3.15000 7.48900 27.79500
H  4.06500 9.05700 25.50800
H  2.93600 7.58800 25.53900
H  3.35200 8.39300 24.05600
H  8.24700 3.65200 22.56500
H  7.95800 0.80000 23.18800
H  5.48400 2.81000 22.81300
H  6.24400 1.54500 21.90400
H  6.18800 3.36800 21.44900
H  10.77000 1.86000 23.25900
H  9.76100 2.45300 21.92400
H  9.08200 -0.01900 21.57300
H  10.48800 -0.53900 22.47500
H  10.58300 0.48200 20.97400
H  11.66700 -2.08000 27.85900
H  12.47900 -0.95100 26.73200
H  10.96600 -1.81700 26.38100
H  11.27900 1.86900 31.53400
H  9.43400 0.86400 35.34900
H  10.83100 -0.17500 35.44500
H  9.45000 -0.70100 34.51100
Mg 42.01900 41.63900 27.97300
C  40.89000 44.02200 30.47500
C  43.11800 39.67000 30.44300
C  43.25900 39.69100 25.66000
C  41.41000 44.16600 25.52900
N  41.84600 41.82500 30.15600
C  41.40600 42.83200 30.98300
C  41.54400 42.40000 32.45000
C  42.38600 41.04000 32.46600
C  42.50400 40.85800 30.90700
C  43.75400 41.31400 33.11900
C  40.06900 42.28000 33.05100
C  39.92700 43.15000 34.32700
H  39.26900 42.42300 35.54400
N  42.99800 39.82100 28.03200
C  43.35700 39.18300 29.13400
C  43.99500 37.93400 28.78300
C  43.89300 37.86900 27.33500
C  43.32800 39.14900 26.96500
C  44.49900 36.92600 29.83400
C  44.38100 36.75900 26.36100
O  44.54300 36.96000 25.19200
C  44.66100 35.39400 26.92700
N  42.50500 41.98500 25.92600
C  42.92300 40.94300 25.21500
C  42.96000 41.30100 23.71800
C  42.37600 42.70600 23.65900
C  42.12900 43.03000 25.15800
C  44.36300 41.23400 23.03000
C  41.06500 42.81300 22.87200
C  39.87700 42.11800 23.41600
N  41.26200 43.67500 27.98000
C  41.04300 44.49800 26.89100
C  40.34400 45.63100 27.33900
C  40.25900 45.53100 28.73700
C  40.92600 44.36000 29.08700
C  39.74500 46.75500 26.50100
C  39.81400 46.13700 30.02100
O  39.08800 47.08300 30.22300
C  40.30100 45.22200 31.17800
C  41.33500 45.86800 31.94500
O  42.46100 46.19900 31.54900
O  40.89800 45.97100 33.25100
C  41.69300 46.75100 34.26100
H  43.49900 39.00500 31.22100
H  43.48300 39.01200 24.83500
H  41.25200 44.93100 24.76500
H  42.12900 43.19500 32.91300
H  41.95400 40.11800 32.85700
H  43.95300 40.53000 33.85100
H  43.74200 42.25100 33.67600
H  44.50500 41.16100 32.34500
H  39.88000 41.25400 33.36700
H  39.32700 42.67600 32.35800
H  39.30500 43.99200 34.02300
H  40.90700 43.50000 34.65100
H  45.54900 36.84800 29.55400
H  43.97600 35.97100 29.78900
H  44.46400 37.25700 30.87200
H  43.77000 35.01200 27.42500
H  45.43800 35.45700 27.68800
H  44.98800 34.68600 26.16500
H  42.26100 40.58700 23.28200
H  43.02600 43.52900 23.36000
H  44.72000 42.26300 23.06200
H  44.23300 40.81500 22.03200
H  44.96400 40.55700 23.63800
H  41.17800 42.44200 21.85300
H  40.84700 43.85700 22.64300
H  39.19900 42.95300 23.59500
H  39.98700 41.45700 24.27500
H  39.44800 41.58700 22.56600
H  39.16100 46.29500 25.70300
H  40.56600 47.32100 26.06000
H  39.11000 47.34200 27.16400
H  39.46700 44.81200 31.74800
H  41.10800 47.64900 34.46200
H  42.66300 47.17200 33.99500
H  41.85600 46.07400 35.09900

