158

Mg 47.13200 35.10600 26.46900
C  45.36800 33.44300 28.91400
C  47.65700 37.77800 28.71000
C  48.74500 36.82000 24.02400
C  45.97500 32.83600 24.00000
N  46.67900 35.49700 28.56500
C  46.15900 34.51300 29.40600
C  46.12700 35.02300 30.78300
C  46.34200 36.59600 30.64300
C  46.97600 36.64500 29.24200
C  44.99000 37.36900 30.87300
C  47.19400 34.25900 31.65100
C  46.92000 34.45700 33.19100
H  45.79400 35.35100 33.80700
N  48.13700 36.94700 26.37600
C  48.21500 37.89900 27.43300
C  49.04300 38.98400 26.99200
C  49.35600 38.78500 25.64000
C  48.84700 37.41900 25.30400
C  49.42100 40.18600 27.83000
C  50.11300 39.69500 24.56000
O  50.38200 39.27300 23.49800
C  50.66700 41.07700 24.98800
N  47.18300 34.91100 24.31100
C  48.08100 35.64300 23.56400
C  48.30600 34.99000 22.14300
C  47.36800 33.80700 22.11600
C  46.84000 33.84700 23.52100
C  48.14200 35.97400 20.92900
C  47.90400 32.48200 21.65800
C  46.99800 31.81300 20.63600
N  45.93300 33.49600 26.44500
C  45.54600 32.65400 25.34300
C  44.76500 31.60800 25.88100
C  44.61500 31.90900 27.30400
C  45.32900 33.03800 27.54200
C  44.28100 30.36600 25.17600
C  44.02000 31.43300 28.58700
O  43.37400 30.43700 28.77100
C  44.36900 32.60200 29.63200
C  44.96300 31.84600 30.79600
O  45.92500 31.07600 30.72100
O  44.25400 32.09800 31.93800
C  44.75400 31.29300 33.10900
H  47.81300 38.54800 29.46800
H  49.33400 37.17700 23.17600
H  45.62700 32.02600 23.35500
H  45.11600 34.79800 31.12300
H  47.07400 37.05700 31.30600
H  44.13800 36.71700 31.06300
H  44.79800 37.85800 29.91700
H  45.14400 38.11500 31.65200
H  48.17600 34.69800 31.47400
H  47.23800 33.18500 31.47000
H  47.87700 34.84700 33.53700
H  46.83400 33.44400 33.58300
H  50.49800 40.07700 27.95400
H  48.98200 40.13200 28.82700
H  49.08400 41.09400 27.33000
H  51.12400 40.99700 25.97400
H  50.02300 41.95400 24.92400
H  51.36800 41.35300 24.20100
H  49.32600 34.60500 22.13900
H  46.52000 34.13300 21.51300
H  47.53400 35.45400 20.18800
H  49.09700 36.27600 20.49900
H  47.61200 36.88900 21.19400
H  48.15500 31.79200 22.46400
H  48.82000 32.83000 21.18100
H  47.50800 32.04900 19.70200
H  45.97600 32.18500 20.56500
H  47.03500 30.74400 20.84500
H  43.22400 30.47100 24.93200
H  44.39100 29.63400 25.97700
H  44.91000 30.20500 24.30100
H  43.52900 33.19700 29.99000
H  44.10900 31.45900 33.97200
H  45.75800 31.66700 33.30800
H  44.61600 30.22000 32.97600
Mg 1.54700 42.95700 26.02100
C  3.63300 43.16100 28.72500
C  -1.05000 42.03700 28.04200
C  -0.43900 42.31100 23.20300
C  4.20900 43.62000 23.83500
N  1.36900 42.61700 28.07900
C  2.30700 42.90400 29.05700
C  1.74800 42.84200 30.48100
C  0.27700 42.38700 30.18700
C  0.19900 42.30600 28.68100
C  -0.18100 41.15600 30.96800
C  1.83100 44.25300 31.16300
C  2.12100 44.22100 32.65400
H  1.84400 42.90200 33.45300
N  -0.42200 42.15800 25.61500
C  -1.28200 41.92000 26.64100
C  -2.59300 41.57500 26.04600
C  -2.49400 41.65600 24.63600
C  -1.04500 42.02200 24.41700
C  -3.75900 41.24200 26.91400
C  -3.52200 41.45500 23.52300
O  -3.21800 41.55300 22.32600
C  -4.88600 41.27200 23.89600
N  1.80300 42.97200 23.79100
C  0.84800 42.70400 22.84700
C  1.40600 42.78500 21.43700
C  2.86000 43.35200 21.68700
C  3.01100 43.26800 23.19500
C  1.40900 41.47100 20.68500
C  3.09300 44.80500 21.14700
C  4.33800 44.99200 20.29500
N  3.53700 43.37300 26.21400
C  4.50400 43.60000 25.26400
C  5.75400 43.71600 25.96500
C  5.49300 43.60500 27.34400
C  4.16400 43.31300 27.41100
C  7.07900 43.83000 25.24100
C  6.05100 43.57800 28.63900
O  7.18100 43.74000 28.98800
C  4.86700 43.38000 29.75300
C  5.15100 42.15600 30.53700
O  4.92800 40.99500 30.31000
O  5.63900 42.51300 31.73800
C  5.88200 41.47500 32.78900
H  -1.90400 41.82500 28.68900
H  -1.03700 42.11300 22.31100
H  5.05200 43.96000 23.22900
H  2.35600 42.11400 31.01700
H  -0.41800 43.19800 30.40400
H  -1.11300 41.42100 31.46700
H  0.68900 40.87400 31.56100
H  -0.52400 40.32400 30.35400
H  0.99100 44.88300 30.86900
H  2.65700 44.84600 30.77100
H  1.42900 44.92700 33.11400
H  3.13700 44.57700 32.82500
H  -3.41000 40.62500 27.74200
H  -4.65900 40.73700 26.56400
H  -4.17700 42.18700 27.26200
H  -5.51700 41.40800 23.01800
H  -5.04200 42.13100 24.54800
H  -5.13000 40.34100 24.40800
H  0.84100 43.59300 20.97100
H  3.69900 42.75400 21.33100
H  0.60200 41.58400 19.96200
H  1.15200 40.64500 21.34800
H  2.37500 41.18400 20.27000
H  3.27800 45.41900 22.02900
H  2.30300 45.30800 20.58900
H  4.81500 44.04300 20.04800
H  5.11200 45.48200 20.88600
H  4.24100 45.48600 19.32900
H  7.78800 44.23500 25.96300
H  6.97800 44.61300 24.49000
H  7.51100 42.89100 24.89300
H  4.66200 44.19200 30.45000
H  6.80900 40.96300 32.53100
H  5.12500 40.69200 32.83400
H  6.06900 41.84900 33.79600

