158

Mg 1.57600 -1.95500 43.79700
C  4.79900 -0.82900 43.33900
C  0.46900 0.92900 42.23000
C  -1.60500 -3.28400 43.67400
C  2.80600 -5.14600 44.73600
N  2.61900 -0.14100 42.92100
C  3.91200 0.08800 42.86700
C  4.20600 1.46000 42.30600
C  2.78300 2.11600 42.16200
C  1.88300 0.89800 42.39800
C  2.48500 3.30000 43.14100
C  4.93200 1.36200 40.88900
C  6.13700 2.36600 40.65300
H  6.04300 3.05900 39.31100
N  -0.35000 -1.27000 43.21400
C  -0.57700 -0.01600 42.60600
C  -1.99800 0.17600 42.44600
C  -2.56800 -1.06300 42.81600
C  -1.46500 -1.97100 43.22700
C  -2.66200 1.40600 41.93900
C  -4.08400 -1.30600 42.78300
O  -4.92700 -0.48900 42.49500
C  -4.65300 -2.69700 43.08700
N  0.69900 -3.86200 44.20000
C  -0.59600 -4.09300 44.13900
C  -0.93100 -5.56100 44.43700
C  0.42700 -6.14200 44.88600
C  1.42400 -4.99700 44.58900
C  -2.11600 -5.61300 45.52600
C  0.79900 -7.50800 44.20300
C  1.05600 -7.52600 42.74800
N  3.46600 -2.85600 44.08900
C  3.79400 -4.10400 44.58500
C  5.25600 -4.10900 44.82200
C  5.71100 -2.88100 44.31900
C  4.54800 -2.14400 43.85000
C  6.01700 -5.28700 45.48500
C  6.89900 -2.02300 44.06300
O  8.07700 -2.26300 44.18000
C  6.33900 -0.70300 43.41200
C  6.67100 0.41400 44.35700
O  5.98300 0.89500 45.20500
O  7.88500 0.92100 43.97400
C  8.37600 2.13300 44.73900
H  0.02100 1.91500 42.09100
H  -2.58800 -3.74200 43.54400
H  3.10200 -6.06200 45.25100
H  4.80000 2.05400 43.00100
H  2.77200 2.53100 41.15500
H  1.47100 3.22400 43.53300
H  2.39800 4.27900 42.66900
H  3.21300 3.45400 43.93800
H  4.17700 1.49900 40.11500
H  5.15300 0.31300 40.68900
H  7.08000 1.82400 40.72000
H  6.27200 3.01300 41.51900
H  -3.53100 1.83500 42.43600
H  -3.03300 1.10200 40.96000
H  -1.91800 2.17500 41.73000
H  -4.44000 -3.35400 42.24300
H  -5.71600 -2.47400 43.16900
H  -4.23800 -3.06800 44.02400
H  -1.22100 -6.06800 43.51700
H  0.28100 -6.29500 45.95500
H  -2.40600 -4.62000 45.87000
H  -1.84500 -6.36600 46.26600
H  -2.88400 -6.09300 44.92000
H  -0.02400 -8.15700 44.50500
H  1.63000 -7.86300 44.81300
H  0.41900 -8.12500 42.09700
H  2.13400 -7.65600 42.64900
H  0.87900 -6.48200 42.49000
H  6.43700 -5.86100 44.65900
H  5.35200 -5.99600 45.97900
H  6.74900 -5.06000 46.26000
H  6.70900 -0.42200 42.42600
H  7.86500 2.15900 45.70100
H  8.18900 3.12800 44.33500
H  9.44700 2.03000 44.91200
Mg 27.20900 50.24600 26.01200
C  25.28900 51.49800 28.74000
C  29.47300 49.04700 28.34600
C  29.28200 49.45200 23.55100
C  25.09600 51.82600 23.80700
N  27.39400 50.35400 28.27100
C  26.43400 50.81700 29.19000
C  26.74200 50.43000 30.64500
C  28.20100 49.85800 30.51600
C  28.36600 49.67000 28.97800
C  29.29100 50.90500 30.93700
C  25.72600 49.54200 31.38000
C  24.99800 50.26300 32.60500
H  25.89800 50.38700 33.91000
N  29.09300 49.35400 25.92000
C  29.82000 48.89300 26.96000
C  31.03800 48.24300 26.46300
C  31.03400 48.38000 25.03600
C  29.77300 49.01700 24.76300
C  32.13400 47.62200 27.36800
C  32.03500 47.85300 24.04400
O  31.97500 48.11200 22.88600
C  33.02800 46.80500 24.41900
N  27.24800 50.72400 23.97500
C  28.10800 50.22700 23.17500
C  27.71600 50.32700 21.70000
C  26.43700 51.14500 21.78100
C  26.23000 51.25100 23.26900
C  28.75600 50.98100 20.75300
C  25.37800 50.53300 20.87700
C  24.23800 49.72700 21.43800
N  25.51900 51.36200 26.20800
C  24.69900 51.86200 25.17800
C  23.50000 52.44600 25.72800
C  23.68900 52.41700 27.10700
C  24.90700 51.71100 27.34900
C  22.46300 53.16100 24.97300
C  23.21000 52.78400 28.46300
O  22.20300 53.41900 28.76700
C  24.14200 52.27100 29.57100
C  24.78300 53.39400 30.22100
O  25.74400 53.97400 29.79200
O  24.17500 53.54400 31.47200
C  24.57000 54.85000 32.20000
H  30.05600 48.57500 29.13900
H  29.81700 49.12000 22.65800
H  24.35500 52.28800 23.15200
H  26.70800 51.37300 31.19000
H  28.24700 48.86400 30.96100
H  28.78000 51.86000 31.05600
H  30.01000 51.17400 30.16200
H  29.68100 50.57500 31.90000
H  26.26300 48.65100 31.70600
H  24.97600 49.24700 30.64600
H  24.11200 49.69400 32.88300
H  24.73200 51.25800 32.24900
H  32.25600 46.57400 27.09600
H  31.84900 47.65000 28.42000
H  33.02000 48.25700 27.34900
H  33.61600 47.14800 25.27000
H  33.77900 46.81300 23.63000
H  32.53900 45.84800 24.60500
H  27.61700 49.25600 21.52200
H  26.57200 52.19100 21.50600
H  28.25900 51.75400 20.16700
H  29.16700 50.22800 20.08000
H  29.55400 51.45900 21.32200
H  25.95100 49.95400 20.15300
H  24.89200 51.26100 20.22900
H  24.04500 49.83100 22.50600
H  24.42300 48.69200 21.15100
H  23.35200 50.07500 20.90700
H  21.45200 52.97400 25.33500
H  22.36700 52.74300 23.97000
H  22.69300 54.22300 25.04800
H  23.59800 51.57900 30.21400
H  24.61300 55.61500 31.42500
H  25.60400 54.84600 32.54700
H  24.04200 55.05600 33.13100

