158

Mg 46.40800 24.58100 28.25100
C  46.92700 26.95300 30.73000
C  45.38100 22.33600 30.52600
C  46.50500 22.21800 25.93700
C  47.85400 26.87500 26.08200
N  46.29000 24.69500 30.40600
C  46.40000 25.79200 31.19400
C  46.01000 25.45900 32.63100
C  45.55700 23.96900 32.64100
C  45.80200 23.63200 31.11900
C  46.39400 23.12600 33.64700
C  45.01300 26.44500 33.30600
C  45.52500 27.07500 34.59400
H  44.60200 27.35300 35.78500
N  45.97400 22.54900 28.19800
C  45.45100 21.88400 29.24000
C  45.19100 20.54500 28.80700
C  45.53600 20.46700 27.42200
C  45.94500 21.81400 27.12100
C  44.68900 19.45100 29.70300
C  45.34100 19.30900 26.36000
O  45.45300 19.39600 25.16600
C  44.75400 17.96800 26.83200
N  47.27300 24.50800 26.40300
C  47.11800 23.42100 25.58400
C  47.70700 23.59400 24.19500
C  48.16500 25.13400 24.25800
C  47.70700 25.56900 25.65800
C  48.74800 22.64800 23.51800
C  47.67600 26.01200 23.05900
C  46.18800 26.51300 23.12200
N  47.19000 26.55600 28.27900
C  47.65800 27.37100 27.29800
C  48.03700 28.60700 27.86200
C  47.73400 28.54000 29.13800
C  47.31100 27.23600 29.41100
C  48.72100 29.74100 27.15300
C  47.80400 29.26400 30.46700
O  48.14600 30.46700 30.77600
C  47.25600 28.26500 31.51300
C  48.36000 28.05700 32.52300
O  49.46700 27.58200 32.17700
O  47.99900 28.40500 33.79000
C  48.97500 28.06800 34.85900
H  44.90900 21.67500 31.25500
H  46.27400 21.52400 25.12600
H  48.23300 27.61700 25.37600
H  46.96600 25.56400 33.14500
H  44.51200 23.88700 32.94000
H  45.78700 22.54400 34.34000
H  47.17300 23.69700 34.15200
H  46.89900 22.29900 33.14800
H  44.08200 25.92500 33.53100
H  44.89300 27.28000 32.61500
H  45.89500 28.03000 34.22400
H  46.45000 26.65200 34.98600
H  43.98500 18.77600 29.21600
H  44.33600 19.76800 30.68400
H  45.60700 18.87400 29.81600
H  45.47800 17.66700 27.58900
H  44.77500 17.25100 26.01200
H  43.74000 17.92400 27.23200
H  46.84300 23.58200 23.53000
H  49.25300 25.19200 24.30200
H  48.68600 21.73000 24.10200
H  49.73900 23.10100 23.49200
H  48.44500 22.52600 22.47800
H  47.68700 25.33100 22.20800
H  48.35300 26.86600 23.02100
H  45.73900 26.30900 24.09400
H  45.70300 26.14600 22.21700
H  46.18900 27.60100 23.05800
H  48.57300 30.63000 27.76700
H  48.12400 29.95400 26.26700
H  49.73700 29.47100 26.86600
H  46.39200 28.79900 31.90700
H  49.55900 27.16900 34.66100
H  48.34000 27.78200 35.69700
H  49.69100 28.85100 35.10800
Mg 30.48400 58.55800 41.03500
C  27.46600 56.93600 40.34200
C  32.16000 55.59400 40.21700
C  33.47100 60.06400 41.30100
C  28.84800 61.57900 41.12800
N  29.81600 56.55800 40.37900
C  28.57600 56.13100 40.10700
C  28.55700 54.66200 39.53000
C  29.99100 54.15500 39.96100
C  30.74800 55.51600 40.10900
C  30.00300 53.26900 41.25100
C  28.34200 54.70700 37.96100
C  27.08100 54.04500 37.34300
H  26.37100 54.95500 36.25100
N  32.57300 57.86100 40.97700
C  33.00100 56.66200 40.56700
C  34.46500 56.68400 40.57100
C  34.89700 57.95000 40.92000
C  33.66100 58.67400 41.10700
C  35.32100 55.45600 40.17500
C  36.25900 58.38700 41.17800
O  37.13700 57.57000 40.95800
C  36.66900 59.76000 41.70900
N  31.10800 60.53500 41.19100
C  32.40100 60.93300 41.36900
C  32.44000 62.44300 41.26200
C  31.00600 62.85700 41.45500
C  30.22200 61.59300 41.14000
C  33.38100 63.15800 42.30400
C  30.57500 64.06700 40.57700
C  30.45500 63.75100 39.03700
N  28.50800 59.23100 40.75300
C  27.96100 60.52100 40.94100
C  26.52300 60.41500 40.73000
C  26.28500 59.00700 40.45900
C  27.55700 58.34200 40.57600
C  25.59400 61.55800 40.76900
C  25.25000 58.03000 40.15700
O  24.04200 58.14900 40.05600
C  25.98900 56.67400 40.01100
C  25.42700 55.65800 40.96200
O  24.97600 55.96800 42.05500
O  25.31300 54.41400 40.34500
C  24.60000 53.46300 41.27000
H  32.56200 54.59900 40.01400
H  34.36600 60.68900 41.30800
H  28.33000 62.54000 41.16100
H  27.71400 54.03200 39.81300
H  30.42000 53.61200 39.11800
H  30.31700 52.25200 41.01800
H  29.04100 53.27500 41.76300
H  30.75000 53.59800 41.97300
H  29.06800 54.09400 37.42800
H  28.40200 55.70400 37.52300
H  26.32700 53.97500 38.12700
H  27.45800 53.11300 36.92100
H  34.69700 54.79900 39.57000
H  35.48900 54.90700 41.10200
H  36.25300 55.54100 39.61700
H  37.75800 59.73800 41.68600
H  36.19800 59.71400 42.69100
H  36.30600 60.47600 40.97100
H  32.81300 62.52100 40.24100
H  30.68900 63.07000 42.47600
H  34.30700 62.59000 42.38800
H  32.92200 63.19400 43.29300
H  33.58500 64.20500 42.07700
H  31.26100 64.91200 40.63500
H  29.67200 64.45700 41.04600
H  29.43500 64.02800 38.77100
H  30.68100 62.70100 38.84900
H  31.03700 64.49200 38.49000
H  26.00100 62.42200 41.29300
H  24.58900 61.28900 41.09600
H  25.36900 61.93700 39.77200
H  25.70600 56.32100 39.02000
H  25.27000 52.73000 41.71900
H  23.94100 52.86700 40.63900
H  23.93500 53.81300 42.06000

