158

Mg 49.31900 44.55800 42.77400
C  45.72300 44.95800 41.91700
C  48.93000 41.27400 41.96400
C  52.57600 44.44400 42.95400
C  49.38900 48.00300 43.29300
N  47.47800 43.39300 41.89300
C  46.14700 43.65400 41.84500
C  45.33900 42.45400 41.28900
C  46.39300 41.33200 41.34200
C  47.72600 42.00500 41.82800
C  46.03800 40.21900 42.37800
C  44.72200 42.66900 39.87100
C  45.60100 43.07500 38.64600
H  45.51300 42.14300 37.47500
N  50.58000 43.04700 42.61600
C  50.28500 41.73500 42.31800
C  51.52300 40.92800 42.29800
C  52.55700 41.79700 42.64500
C  51.92100 43.13900 42.78000
C  51.55500 39.48700 42.10800
C  54.01900 41.39800 42.86600
O  54.37300 40.28300 42.44800
C  55.07900 42.30800 43.42700
N  50.76700 45.99300 42.93500
C  52.02500 45.69900 43.02300
C  52.98200 46.96000 43.13500
C  51.87800 48.07300 43.49400
C  50.54800 47.33700 43.25800
C  54.23000 46.81900 44.05500
C  52.10300 49.40300 42.68300
C  53.42500 50.17200 42.85200
N  47.94100 46.18800 42.66900
C  48.11700 47.57600 42.96000
C  46.80300 48.24600 42.79300
C  45.96100 47.24600 42.28100
C  46.64500 46.03200 42.29700
C  46.53600 49.71200 43.01200
C  44.60600 47.08700 41.78400
O  43.74000 47.91300 41.54100
C  44.37800 45.65500 41.62600
C  43.27200 45.17800 42.43500
O  42.46700 44.36000 42.01200
O  43.32600 45.65300 43.72300
C  42.34000 44.92600 44.55500
H  48.74900 40.22000 41.74400
H  53.66800 44.42900 42.93200
H  49.52900 49.02900 43.64000
H  44.54800 42.21100 41.99800
H  46.40300 40.89500 40.34300
H  46.37400 40.46000 43.38700
H  46.61000 39.31700 42.16100
H  44.99000 39.93200 42.46000
H  43.86200 43.33800 39.84000
H  44.28100 41.68700 39.70000
H  46.64700 43.21700 38.91700
H  45.32500 44.05000 38.24700
H  52.20300 39.01600 42.84700
H  51.91100 39.13100 41.14100
H  50.51700 39.16700 42.19500
H  55.68800 41.60600 43.99600
H  54.64300 43.02900 44.11800
H  55.62400 42.88400 42.67900
H  53.41700 47.10000 42.14600
H  51.78500 48.23600 44.56800
H  55.20200 47.03400 43.61000
H  54.21900 45.82800 44.50700
H  54.02300 47.52600 44.85900
H  51.32900 50.02000 43.14000
H  51.93000 49.13400 41.64200
H  53.61600 50.26900 43.92000
H  53.19900 51.06600 42.27000
H  54.26600 49.65900 42.38700
H  45.50300 50.01600 42.84300
H  47.16000 50.36000 42.39600
H  46.86800 49.86900 44.03800
H  44.13400 45.57800 40.56700
H  41.35700 45.09900 44.11700
H  42.24300 45.41500 45.52400
H  42.49300 43.85400 44.68500
Mg -12.18600 38.44400 42.68600
C  -10.22800 35.61900 41.82000
C  -9.68100 40.49500 41.36400
C  -14.16400 41.22700 42.98000
C  -14.81400 36.28900 43.40100
N  -10.19500 38.05400 41.71900
C  -9.60200 36.83200 41.53900
C  -8.31500 36.99000 40.65600
C  -8.04900 38.56200 40.87800
C  -9.41300 39.08500 41.33900
C  -6.90200 38.96100 41.88200
C  -8.50700 36.52700 39.17600
C  -7.20900 35.81700 38.70900
H  -6.44400 36.47800 37.56100
N  -11.94900 40.60700 42.24900
C  -10.84000 41.17300 41.77300
C  -11.08500 42.61600 41.59300
C  -12.36200 42.90600 42.19800
C  -12.91200 41.55800 42.51500
C  -10.12800 43.62000 40.97500
C  -13.07600 44.19700 42.54500
O  -12.74400 45.32300 42.17600
C  -14.41400 44.19600 43.34300
N  -14.18900 38.74100 43.12400
C  -14.75200 39.94400 43.25300
C  -16.23500 39.91400 43.72700
C  -16.48400 38.28400 43.77600
C  -15.08100 37.72700 43.36700
C  -16.61600 40.68600 44.96600
C  -17.69100 37.72200 42.91200
C  -18.90300 37.38400 43.68800
N  -12.46500 36.39800 42.86100
C  -13.58500 35.65700 43.17900
C  -13.31100 34.28500 42.92300
C  -11.98100 34.23300 42.50900
C  -11.52300 35.58800 42.37800
C  -14.20600 33.07400 43.08900
C  -10.89700 33.38400 42.07100
O  -10.80800 32.18700 42.01800
C  -9.74300 34.24000 41.53000
C  -8.66600 33.90100 42.44800
O  -8.65800 34.11000 43.65200
O  -7.56300 33.24800 41.89100
C  -6.37400 33.11000 42.64800
H  -8.99300 41.10500 40.77500
H  -14.99200 41.87700 43.27100
H  -15.64700 35.65900 43.71900
H  -7.51100 36.42000 41.12100
H  -7.92200 38.99700 39.88700
H  -6.50800 38.03900 42.31000
H  -7.21500 39.70400 42.61500
H  -6.14200 39.37200 41.21800
H  -8.69000 37.32600 38.45900
H  -9.35800 35.84800 39.11400
H  -7.40500 34.77600 38.45200
H  -6.42600 35.78900 39.46700
H  -10.29600 43.62300 39.89800
H  -9.08700 43.31700 41.08800
H  -10.18200 44.63700 41.36300
H  -15.23000 43.84700 42.71000
H  -14.65900 45.18200 43.73900
H  -14.24300 43.61400 44.24800
H  -16.82200 40.21600 42.86000
H  -16.56900 37.97900 44.81800
H  -17.16300 40.13900 45.73300
H  -17.19200 41.56900 44.68900
H  -15.70200 40.97600 45.48400
H  -17.40300 36.85300 42.32100
H  -18.04200 38.50900 42.24400
H  -18.97900 36.30300 43.80100
H  -19.80800 37.73300 43.19100
H  -18.86100 37.78400 44.70100
H  -15.15600 33.35000 42.63200
H  -14.43100 32.90600 44.14200
H  -13.90200 32.20100 42.51200
H  -9.46800 33.99800 40.50300
H  -5.56300 32.96900 41.93300
H  -6.50400 32.15500 43.15700
H  -6.18300 33.94400 43.32200

