158

Mg 35.03800 2.14100 29.56300
C  33.06300 3.27900 32.15900
C  37.67800 2.06100 31.75800
C  37.05600 1.32700 26.93100
C  32.38900 2.87100 27.38700
N  35.32000 2.56100 31.73300
C  34.38000 3.05600 32.58200
C  34.91000 3.23900 34.03600
C  36.46900 3.15200 33.83600
C  36.52700 2.57900 32.34700
C  37.06400 4.52700 33.87600
C  34.41200 2.16100 34.95900
C  34.33600 2.40200 36.49500
H  34.95200 3.60500 37.12300
N  37.07500 1.70500 29.35600
C  37.98700 1.73600 30.42700
C  39.24700 1.18500 29.95500
C  39.09900 0.97700 28.56000
C  37.71500 1.39400 28.20100
C  40.44900 0.94600 30.80900
C  40.16300 0.56500 27.56200
O  39.98200 0.56100 26.39900
C  41.52300 0.17600 28.06800
N  34.86600 2.38200 27.44900
C  35.80800 1.88500 26.54700
C  35.33500 2.10800 25.10800
C  33.85200 2.49800 25.31300
C  33.63200 2.59000 26.81500
C  36.27400 3.08200 24.30700
C  32.86900 1.66100 24.42700
C  32.49800 0.29300 25.04100
N  33.10900 2.83200 29.68200
C  32.15400 3.10800 28.73800
C  30.93900 3.65300 29.34400
C  31.24000 3.67200 30.76000
C  32.59700 3.26400 30.81300
C  29.64900 3.87200 28.55900
C  30.65000 3.87200 32.06900
O  29.49600 4.19600 32.41000
C  31.89000 3.81000 33.05500
C  32.06000 5.18400 33.47500
O  32.24200 6.11200 32.74900
O  31.99100 5.23000 34.84500
C  32.03200 6.55100 35.47300
H  38.47700 2.14100 32.49800
H  37.69800 0.94300 26.13500
H  31.56000 3.11800 26.72100
H  34.49300 4.15600 34.45200
H  36.98600 2.45100 34.49200
H  36.37700 5.15700 34.44000
H  37.21100 4.99200 32.90100
H  38.03000 4.48700 34.37900
H  34.93300 1.21400 34.81700
H  33.39400 1.91200 34.65900
H  34.81400 1.63800 37.10900
H  33.25800 2.35100 36.65200
H  40.33800 1.47400 31.75600
H  41.32600 1.43700 30.38700
H  40.53900 -0.12900 30.96600
H  42.06600 -0.26200 27.23100
H  41.39500 -0.68800 28.72000
H  42.07300 1.01500 28.49600
H  35.52600 1.17400 24.58000
H  33.71200 3.51700 24.95100
H  35.62000 3.90000 24.00500
H  36.75900 2.53200 23.50100
H  37.09400 3.50700 24.88700
H  33.42800 1.62400 23.49200
H  31.98600 2.29000 24.31200
H  32.66600 -0.41100 24.22700
H  31.44900 0.11300 25.27900
H  32.99100 -0.17500 25.89300
H  28.77200 3.97700 29.19800
H  29.52400 3.02800 27.88000
H  29.68000 4.73300 27.89100
H  31.58100 3.11400 33.83500
H  30.99700 6.89400 35.44500
H  32.66300 7.27900 34.96500
H  32.32800 6.52900 36.52200
Mg 42.98600 42.21000 25.75900
C  41.80000 44.58300 27.98900
C  43.98300 40.18800 28.30000
C  43.66300 39.87500 23.38400
C  41.94200 44.43400 23.10800
N  43.05100 42.49300 27.85400
C  42.46200 43.44000 28.62100
C  42.64700 43.17800 30.09600
C  43.68500 42.00600 30.08800
C  43.56700 41.50400 28.63700
C  45.07400 42.40400 30.47700
C  41.33700 42.82900 30.88000
C  41.10900 43.46200 32.26900
H  42.24400 43.50300 33.29200
N  43.87300 40.33800 25.81300
C  44.17500 39.63500 26.95100
C  44.63600 38.29500 26.61000
C  44.48900 38.16800 25.20600
C  43.97800 39.47700 24.71700
C  45.23200 37.34300 27.64800
C  44.67500 36.93300 24.33400
O  44.56400 37.03300 23.09700
C  44.99700 35.62000 24.92700
N  42.97300 42.15100 23.46200
C  43.15300 41.04200 22.78100
C  42.96600 41.27000 21.23100
C  42.15500 42.65500 21.23700
C  42.42700 43.14100 22.68200
C  44.24300 41.31900 20.47800
C  40.62900 42.49000 20.90500
C  39.94400 41.47700 21.82500
N  42.25400 44.26900 25.51000
C  41.90400 45.04000 24.40800
C  41.27000 46.31900 24.87500
C  41.29800 46.18900 26.27800
C  41.81100 44.88100 26.59300
C  40.82100 47.48800 24.05800
C  40.93200 46.83300 27.52500
O  40.38200 47.87600 27.68800
C  41.11500 45.78900 28.69100
C  41.85400 46.37000 29.74500
O  43.12000 46.44200 29.78000
O  40.99200 46.77700 30.79800
C  41.71900 47.14500 32.09500
H  44.24400 39.63100 29.20200
H  43.90200 39.13200 22.62000
H  41.58400 45.07900 22.30300
H  43.04400 44.07700 30.56800
H  43.43800 41.23000 30.81300
H  45.77300 42.31900 29.64400
H  45.35900 41.70800 31.26600
H  45.25100 43.41900 30.83300
H  41.19900 41.76300 31.06100
H  40.60400 43.09700 30.11800
H  40.20500 43.06200 32.72800
H  40.74500 44.47000 32.07300
H  45.47300 37.81100 28.60300
H  46.18800 36.93200 27.32500
H  44.54600 36.50900 27.79600
H  44.27400 35.38100 25.70600
H  45.90500 35.67700 25.52900
H  44.99200 34.83800 24.16800
H  42.29200 40.47500 20.91300
H  42.51500 43.22200 20.37800
H  45.06300 41.24400 21.19100
H  44.26500 42.19900 19.83500
H  44.18400 40.44800 19.82500
H  40.55300 42.16200 19.86900
H  40.13000 43.45900 20.90600
H  39.62800 40.66000 21.17600
H  39.07200 41.92000 22.30500
H  40.65100 40.99700 22.50100
H  41.55700 48.25100 24.31200
H  39.85800 47.83200 24.43500
H  40.78400 47.33400 22.97900
H  40.17400 45.52000 29.17100
H  41.47700 48.17500 32.35900
H  42.80500 47.06100 32.10600
H  41.47800 46.44900 32.89800

