158

Mg 1.02100 7.68000 27.13700
C  1.95200 10.18200 29.63400
C  0.73800 5.45700 29.80500
C  0.15600 5.51100 24.88200
C  1.77600 10.12700 24.73100
N  1.34000 7.89700 29.50400
C  1.58900 8.97200 30.22600
C  1.16700 8.72400 31.64500
C  1.17800 7.13700 31.77000
C  1.06600 6.78300 30.27300
C  2.53000 6.47600 32.31500
C  -0.15300 9.41000 32.12700
C  -0.31400 9.77200 33.60900
H  0.80100 9.28200 34.58000
N  0.65300 5.66000 27.31700
C  0.56800 4.89200 28.48300
C  0.17100 3.52400 28.13200
C  -0.13200 3.57600 26.69600
C  0.27500 4.91300 26.17000
C  -0.03400 2.45700 29.19300
C  -0.80500 2.54800 25.77300
O  -0.90200 2.65100 24.59400
C  -1.44700 1.30200 26.42400
N  1.20200 7.70300 25.13600
C  0.59400 6.74200 24.39100
C  0.56100 7.14900 22.88300
C  1.08700 8.64300 22.80300
C  1.49400 8.84400 24.29300
C  1.28400 6.07700 22.00200
C  -0.01000 9.62300 22.33900
C  0.55600 10.93400 21.81300
N  1.71700 9.72000 27.10400
C  1.94000 10.57500 26.04800
C  2.34000 11.88200 26.53100
C  2.37800 11.76700 27.92200
C  1.93600 10.44700 28.21900
C  2.82700 13.00700 25.67900
C  2.78100 12.45900 29.14600
O  3.37900 13.50700 29.31300
C  2.40600 11.47600 30.30200
C  3.51800 11.29200 31.27700
O  4.43600 10.46900 31.19400
O  3.38400 12.19600 32.23400
C  4.19300 11.96600 33.42900
H  0.66700 4.74100 30.62700
H  -0.36100 4.98300 24.07800
H  1.92900 10.93700 24.01400
H  1.97600 9.09600 32.27300
H  0.33800 6.82300 32.38900
H  2.35400 5.98500 33.27200
H  3.32200 7.20200 32.50100
H  2.83300 5.82200 31.49700
H  -0.94300 8.66800 32.00500
H  -0.41400 10.28600 31.53200
H  -1.31800 9.58800 33.99300
H  -0.24300 10.85900 33.66100
H  0.13900 1.41800 28.91300
H  -1.09400 2.53000 29.43300
H  0.43900 2.54800 30.17100
H  -1.73600 1.46300 27.46200
H  -0.94100 0.36000 26.21100
H  -2.39300 1.26500 25.88400
H  -0.49200 7.00900 22.63500
H  1.94600 8.68600 22.13300
H  2.07400 5.76800 22.68700
H  1.75300 6.57100 21.15200
H  0.76600 5.17100 21.68600
H  -0.60900 9.94500 23.19100
H  -0.58500 9.14400 21.54600
H  0.05400 11.05800 20.85300
H  1.62100 10.99200 21.59100
H  0.28500 11.70000 22.54000
H  2.10400 13.02000 24.86300
H  3.83400 12.85500 25.29100
H  2.70900 14.00000 26.11200
H  1.55000 11.91400 30.81600
H  4.52900 12.91400 33.84700
H  4.94500 11.17700 33.44700
H  3.47600 11.63500 34.18100
Mg 46.77000 24.87100 27.84700
C  47.65300 27.42400 30.31800
C  46.46700 22.62700 30.40100
C  46.22800 22.63300 25.56400
C  47.66900 27.32800 25.44100
N  47.04400 25.05800 30.05800
C  47.27900 26.20500 30.85700
C  47.21500 25.84500 32.36300
C  46.91100 24.27400 32.42700
C  46.83300 23.94000 30.83800
C  47.88900 23.40600 33.25400
C  46.34200 26.86200 33.07300
C  45.66800 26.46100 34.38700
H  45.96200 27.43900 35.54700
N  46.30500 22.92100 27.95800
C  46.20600 22.14500 29.08800
C  45.87000 20.75900 28.70800
C  45.77500 20.78900 27.27100
C  46.11500 22.14800 26.84900
C  45.91500 19.64900 29.63800
C  45.41400 19.65800 26.29200
O  45.32000 19.79700 25.08400
C  45.07800 18.29700 26.75200
N  46.98800 25.00200 25.79500
C  46.56900 23.90400 25.07500
C  46.73700 24.06500 23.57100
C  47.20500 25.59200 23.58200
C  47.21100 26.07600 25.00500
C  47.74900 23.17600 22.81900
C  46.15200 26.49600 22.77900
C  46.67600 27.17100 21.50300
N  47.47400 26.97800 27.79100
C  47.77800 27.79000 26.74700
C  48.27200 29.12800 27.22600
C  48.14600 29.06800 28.61900
C  47.66600 27.71500 28.95000
C  48.87600 30.17700 26.35900
C  48.49900 29.71600 29.82700
O  49.14300 30.76700 29.92700
C  48.01300 28.75400 30.99800
C  49.09700 28.75600 32.02300
O  50.00300 27.97200 32.12900
O  48.68000 29.64500 33.00500
C  49.57700 29.76100 34.14900
H  46.33800 21.83900 31.14600
H  46.09500 21.87900 24.78600
H  47.84000 27.96700 24.57200
H  48.28300 25.94700 32.55500
H  45.93700 24.16300 32.90500
H  48.56700 24.07600 33.78300
H  48.40800 22.71300 32.59100
H  47.32800 22.81400 33.97700
H  45.47100 27.12200 32.47200
H  46.95500 27.74000 33.27400
H  45.92600 25.44100 34.67000
H  44.58900 26.56200 34.27700
H  44.95100 19.15600 29.51800
H  45.91200 19.84300 30.71100
H  46.64000 18.90100 29.31700
H  44.26100 18.29400 27.47500
H  45.99800 18.05400 27.28300
H  44.90600 17.64400 25.89700
H  45.76000 23.82100 23.15600
H  48.16600 25.66900 23.07400
H  48.55800 23.69400 22.30500
H  47.29000 22.46000 22.13700
H  48.38300 22.63200 23.52000
H  45.78300 27.33300 23.37200
H  45.33000 25.84300 22.48200
H  46.81200 28.22200 21.75700
H  46.00800 26.90100 20.68500
H  47.61800 26.70300 21.21800
H  48.51900 30.25200 25.33100
H  49.96300 30.10300 26.33500
H  48.68700 31.17400 26.75700
H  47.10900 29.19800 31.41500
H  50.57300 29.38600 33.91100
H  49.22600 29.18200 35.00300
H  49.70000 30.82900 34.32500

