158

Mg 44.31800 3.22400 47.39000
C  41.58000 5.12100 46.33600
C  42.17200 0.43100 47.46200
C  46.96500 1.19300 47.42000
C  46.33000 6.02700 47.15400
N  42.08400 2.87300 46.95400
C  41.15700 3.79800 46.60000
C  39.76100 3.19000 46.38600
C  39.95000 1.76100 47.13900
C  41.48700 1.62700 47.12300
C  39.16300 1.74600 48.50300
C  39.39100 3.06800 44.89100
C  37.93700 3.42700 44.40300
H  37.96000 4.52100 43.26000
N  44.56600 1.16900 47.51900
C  43.57800 0.17800 47.55200
C  44.12700 -1.13100 47.71800
C  45.54000 -0.88200 47.84600
C  45.77600 0.52100 47.50400
C  43.35600 -2.41400 48.00200
C  46.60200 -1.90200 48.26100
O  46.26900 -3.05600 48.53600
C  48.04300 -1.62000 48.41300
N  46.33700 3.54000 47.51900
C  47.27900 2.54800 47.42200
C  48.70900 3.20900 47.41000
C  48.40900 4.68500 47.67800
C  46.92900 4.78800 47.39700
C  49.69800 2.54700 48.44000
C  49.29400 5.68500 46.84600
C  49.57900 7.00600 47.57300
N  44.05200 5.18800 46.92500
C  44.97100 6.18100 46.79400
C  44.35100 7.40400 46.38500
C  42.97900 7.06300 46.18600
C  42.85000 5.68600 46.49600
C  45.02500 8.73500 46.14400
C  41.69900 7.55100 45.79800
O  41.34100 8.68900 45.44700
C  40.74200 6.34700 45.94700
C  39.71700 6.64000 46.97600
O  40.07700 6.83000 48.13800
O  38.45500 6.48400 46.40700
C  37.47100 6.42900 47.50900
H  41.56700 -0.41600 47.79200
H  47.90100 0.65500 47.25800
H  46.92000 6.94400 47.08000
H  39.04400 3.80400 46.93100
H  39.51500 0.95400 46.54900
H  39.85700 1.56700 49.32400
H  38.48900 0.89700 48.39800
H  38.57600 2.63900 48.72100
H  39.52800 2.01500 44.64700
H  40.12500 3.68800 44.37700
H  37.24800 3.74100 45.18700
H  37.53400 2.49000 44.01800
H  42.31100 -2.60400 47.75600
H  43.47800 -2.68500 49.05100
H  43.95600 -3.09400 47.39700
H  48.60100 -1.60900 47.47600
H  48.52800 -2.42300 48.96800
H  48.24400 -0.77300 49.07000
H  49.01800 3.10400 46.37000
H  48.51200 4.90900 48.74000
H  50.53100 2.08900 47.90800
H  49.20800 1.66900 48.86000
H  50.12100 3.22500 49.18200
H  48.77200 5.98400 45.93700
H  50.20500 5.14300 46.59200
H  49.65900 7.79300 46.82300
H  50.49500 6.90400 48.15600
H  48.74500 7.21800 48.24200
H  44.45000 9.36700 45.46800
H  46.01500 8.53700 45.73300
H  45.24700 9.12700 47.13700
H  40.16200 6.06000 45.07000
H  37.46400 7.45900 47.86700
H  37.84000 5.77200 48.29600
H  36.44900 6.12500 47.28100
Mg 16.14100 51.89300 25.63400
C  17.90300 50.66100 28.43700
C  13.52000 52.65200 27.81000
C  14.26300 52.35300 23.02300
C  18.75700 50.57000 23.52600
N  15.71800 51.47200 27.87200
C  16.69100 51.24000 28.78700
C  16.29500 51.66900 30.23300
C  14.84400 52.28100 30.05900
C  14.64300 52.09400 28.47500
C  13.68800 51.57600 30.80500
C  17.28200 52.65000 30.87900
C  17.47400 52.53000 32.36800
H  16.43900 51.65600 33.20800
N  14.17600 52.52800 25.42500
C  13.28700 52.86100 26.43600
C  12.15200 53.44400 25.81600
C  12.25100 53.16600 24.44800
C  13.62800 52.69700 24.23100
C  11.03900 53.97400 26.64600
C  11.23400 53.29800 23.33700
O  11.44800 52.93600 22.20500
C  9.85500 53.89300 23.53800
N  16.59600 51.67600 23.54100
C  15.49300 51.82700 22.72400
C  15.83600 51.31300 21.25600
C  17.31900 50.82400 21.38500
C  17.55400 51.04700 22.88100
C  14.77100 50.21100 20.82200
C  18.39800 51.57900 20.46600
C  19.35100 50.67100 19.60500
N  17.97400 50.94600 25.91000
C  18.94500 50.48500 24.95500
C  19.94700 49.65900 25.67400
C  19.63500 49.79100 27.06000
C  18.37000 50.49900 27.12500
C  20.95200 48.78500 25.21800
C  20.09200 49.44000 28.40200
O  21.02000 48.76300 28.76500
C  19.06600 50.17800 29.32800
C  18.73800 49.30500 30.44200
O  17.78000 48.59700 30.39900
O  19.73100 49.34900 31.46700
C  19.42700 48.55600 32.67400
H  12.77900 53.14100 28.44600
H  13.74800 52.45900 22.06600
H  19.58900 50.19100 22.92800
H  16.17500 50.70300 30.72400
H  14.78600 53.32200 30.37700
H  13.01000 51.21100 30.03400
H  13.04200 52.20800 31.41500
H  14.01000 50.71200 31.38600
H  16.96500 53.68400 30.74500
H  18.23700 52.65900 30.35300
H  17.39300 53.53400 32.78500
H  18.50900 52.29200 32.61200
H  11.40900 54.84400 27.18900
H  10.73100 53.24400 27.39500
H  10.10000 54.28900 26.19200
H  9.38700 53.34100 24.35300
H  9.37200 53.94400 22.56200
H  10.02900 54.91800 23.86400
H  15.80300 52.21700 20.64800
H  17.27600 49.75300 21.18800
H  13.87200 50.33600 21.42500
H  15.13700 49.18500 20.84200
H  14.57800 50.32900 19.75500
H  18.91400 52.34100 21.05000
H  17.88000 52.19800 19.73300
H  19.11900 49.62600 19.80900
H  20.36100 51.00700 19.83800
H  19.26400 50.82300 18.52900
H  20.98400 48.64500 24.13800
H  20.82800 47.88600 25.82300
H  21.96300 49.16800 25.35600
H  19.67300 50.93800 29.82000
H  20.14500 47.74100 32.58700
H  18.36400 48.31700 32.64800
H  19.64100 49.22000 33.51200

