158

Mg 2.30100 -0.82500 43.56600
C  5.56800 0.46000 43.65200
C  1.26900 2.23600 42.40000
C  -0.46600 -2.22900 42.67500
C  3.70100 -3.95400 44.29000
N  3.30300 1.00800 42.99800
C  4.62300 1.30900 43.18000
C  4.86500 2.84300 42.95800
C  3.41300 3.41400 42.81100
C  2.56200 2.13100 42.73800
C  2.99400 4.35700 43.96800
C  5.88600 3.26900 41.84700
C  6.09100 2.48900 40.52900
H  5.68100 3.24200 39.24800
N  0.54800 -0.09600 42.73500
C  0.31300 1.19200 42.37500
C  -1.08200 1.27400 42.04600
C  -1.70600 0.01200 42.06500
C  -0.50300 -0.87300 42.46800
C  -1.66000 2.64500 41.89200
C  -3.16100 -0.26600 41.62400
O  -3.96500 0.59700 41.39400
C  -3.60900 -1.70800 41.54100
N  1.81000 -2.95500 43.16400
C  0.53200 -3.15500 43.06000
C  0.13400 -4.61800 43.41400
C  1.57700 -5.19000 43.81600
C  2.42200 -3.97800 43.73400
C  -0.95000 -4.64000 44.56900
C  2.08200 -6.36900 42.92800
C  1.66500 -7.76100 43.47000
N  4.25000 -1.67200 43.97600
C  4.71200 -2.89900 44.27200
C  6.08900 -2.88500 44.63100
C  6.44200 -1.55700 44.42600
C  5.32800 -0.87500 43.95800
C  6.93100 -4.04100 44.93900
C  7.56600 -0.59200 44.43800
O  8.77400 -0.77000 44.68800
C  7.03200 0.77500 44.00800
C  7.29800 1.76000 45.09900
O  8.15000 2.58000 44.99600
O  6.34900 1.70200 46.08500
C  6.48100 2.67500 47.15300
H  1.01000 3.18100 41.91800
H  -1.45000 -2.67100 42.50500
H  4.01200 -4.88100 44.77600
H  5.44800 3.09600 43.84400
H  3.27700 3.91500 41.85300
H  3.78300 4.30900 44.71900
H  2.03400 4.10500 44.42000
H  2.87400 5.39900 43.67200
H  6.82000 3.48000 42.36700
H  5.55200 4.27900 41.60700
H  5.33700 1.70200 40.53900
H  7.14300 2.22700 40.41300
H  -2.70100 2.74100 42.20000
H  -1.53200 2.89200 40.83800
H  -1.12700 3.36700 42.51200
H  -4.66700 -1.67000 41.27900
H  -3.58300 -2.17800 42.52400
H  -3.04800 -2.28400 40.80500
H  -0.36900 -5.25400 42.68600
H  1.64000 -5.36900 44.88900
H  -1.85700 -5.16300 44.26500
H  -1.15400 -3.65400 44.98700
H  -0.55900 -5.31700 45.32800
H  3.17000 -6.42400 42.96000
H  1.88200 -6.34000 41.85700
H  1.26000 -8.37700 42.66700
H  0.93700 -7.75600 44.28100
H  2.59200 -8.24900 43.76900
H  6.53900 -4.69700 45.71600
H  7.89500 -3.59100 45.17800
H  7.17300 -4.66500 44.08000
H  7.68800 1.01200 43.17000
H  6.30500 3.67900 46.76600
H  7.44200 2.65700 47.66600
H  5.69600 2.58000 47.90400
Mg 43.17000 2.95100 47.81500
C  41.52600 5.71200 47.22900
C  40.31700 1.01300 47.42200
C  45.10300 0.19100 47.47700
C  46.14200 4.73400 47.84000
N  41.15300 3.32800 47.49000
C  40.64100 4.55300 47.19500
C  39.05700 4.46600 46.92500
C  38.78500 3.02100 47.54000
C  40.15100 2.40800 47.52000
C  37.98200 2.97800 48.86600
C  38.80000 4.58600 45.39300
C  38.35700 5.99000 44.85500
H  38.96500 6.41100 43.56300
N  42.75300 0.95700 47.38100
C  41.51200 0.36700 47.31500
C  41.62200 -1.07400 46.99500
C  43.03700 -1.34700 47.00700
C  43.68100 -0.05700 47.43400
C  40.44600 -1.94200 46.68200
C  43.56600 -2.69900 46.59600
O  42.74300 -3.56300 46.34900
C  45.00200 -2.95800 46.64600
N  45.32700 2.47300 47.83700
C  45.89600 1.28600 47.71100
C  47.41000 1.29600 47.78300
C  47.71500 2.80300 47.70800
C  46.33100 3.38900 47.72100
C  47.94600 0.58000 48.98800
C  48.45300 3.29300 46.38100
C  49.94500 3.02700 46.37000
N  43.73200 4.82200 47.69700
C  44.95300 5.41300 47.75400
C  44.84800 6.82300 47.69500
C  43.45100 7.01300 47.46900
C  42.84600 5.79300 47.52000
C  45.87900 7.87000 47.85800
C  42.36900 7.99100 47.28300
O  42.37200 9.23000 47.25400
C  41.02400 7.13800 47.05500
C  40.11600 7.54400 48.19700
O  40.00000 6.87900 49.27400
O  39.36400 8.61100 47.99300
C  38.23500 8.89500 48.90800
H  39.39300 0.45600 47.25400
H  45.54900 -0.80300 47.40700
H  47.03000 5.36000 47.94700
H  38.67400 5.28200 47.53700
H  38.26800 2.46600 46.75800
H  37.65000 3.98500 49.11800
H  38.67700 2.58000 49.60500
H  37.11800 2.35400 48.63900
H  38.02800 3.87800 45.09200
H  39.64000 4.34000 44.74300
H  38.37100 6.76700 45.61900
H  37.28900 5.96900 44.63900
H  39.47100 -1.47200 46.81600
H  40.47300 -2.85400 47.27900
H  40.61200 -2.25400 45.65100
H  45.53000 -2.30900 45.94700
H  45.04500 -4.01300 46.37500
H  45.28900 -2.98600 47.69700
H  47.88800 0.82800 46.92200
H  48.31400 3.28400 48.48100
H  47.18700 0.12500 49.62300
H  48.67000 1.10700 49.60900
H  48.51900 -0.23700 48.54800
H  48.28400 4.36900 46.38600
H  48.07900 2.88600 45.44200
H  50.53000 3.59400 45.64500
H  49.91800 1.96600 46.12000
H  50.35300 3.08800 47.37900
H  46.87000 7.46000 47.66000
H  45.78100 8.09700 48.92000
H  45.62100 8.71100 47.21400
H  40.64700 7.44500 46.07900
H  37.61100 8.01700 49.07700
H  37.70700 9.77300 48.53800
H  38.59700 9.13900 49.90700

