158

Mg 1.78900 -2.87200 44.84300
C  5.09500 -2.21700 44.45500
C  1.00300 -0.33800 42.81000
C  -1.41500 -3.99200 44.75300
C  2.74500 -5.87100 46.46400
N  2.90000 -1.52800 43.52600
C  4.21900 -1.46200 43.56900
C  4.74100 -0.42500 42.47300
C  3.38600 0.29900 42.13500
C  2.35800 -0.54700 42.89000
C  3.25300 1.79800 42.42100
C  5.42200 -1.02500 41.18900
C  6.95000 -0.65700 41.10400
H  7.55100 -0.31900 39.74400
N  0.04700 -2.16500 44.01000
C  -0.08200 -1.01100 43.26500
C  -1.50000 -0.75500 43.04900
C  -2.23600 -1.75200 43.71700
C  -1.26500 -2.64400 44.19900
C  -2.00800 0.43200 42.26500
C  -3.74200 -1.83700 43.89100
O  -4.48800 -0.95600 43.47500
C  -4.34700 -2.88400 44.76200
N  0.79500 -4.83000 45.31900
C  -0.51900 -4.94800 45.37900
C  -0.94000 -6.38200 45.77200
C  0.38700 -6.94200 46.37700
C  1.40000 -5.78600 46.03500
C  -2.15200 -6.53800 46.74600
C  0.77600 -8.37300 45.86000
C  -0.22600 -9.47900 46.07700
N  3.56700 -3.80300 45.53500
C  3.79700 -4.92600 46.24000
C  5.27800 -5.00600 46.48800
C  5.81900 -3.91800 45.87000
C  4.76800 -3.28500 45.21900
C  6.03500 -6.25200 46.94200
C  7.04100 -3.19400 45.59800
O  8.18000 -3.48800 45.86700
C  6.56700 -2.12700 44.53600
C  7.13000 -0.82000 44.87400
O  8.11600 -0.39400 44.37600
O  6.26900 -0.08100 45.67400
C  6.59300 1.31100 45.81500
H  0.78600 0.53700 42.19300
H  -2.44200 -4.35700 44.81900
H  3.19800 -6.71600 46.98700
H  5.37400 0.16200 43.13800
H  3.15500 0.15700 41.07900
H  4.25000 2.23500 42.37000
H  2.80600 1.92100 43.40800
H  2.61300 2.26100 41.66900
H  4.91800 -0.75500 40.26100
H  5.29900 -2.10000 41.32700
H  7.53800 -1.46600 41.53800
H  7.14300 0.20300 41.74500
H  -2.90200 0.19500 41.68800
H  -1.23000 0.77000 41.58100
H  -2.35200 1.18300 42.97700
H  -4.58100 -3.75500 44.15000
H  -5.29900 -2.40600 44.99600
H  -3.80900 -3.08200 45.68900
H  -1.20000 -6.94600 44.87600
H  0.30500 -7.00800 47.46200
H  -1.83300 -6.64100 47.78300
H  -2.70500 -7.42800 46.44600
H  -2.80000 -5.66300 46.80800
H  1.75800 -8.58700 46.28200
H  1.02200 -8.21600 44.81000
H  -0.48600 -9.91500 45.11200
H  -1.14700 -9.15800 46.56400
H  0.16000 -10.31600 46.65900
H  6.75300 -5.83600 47.64800
H  6.50000 -6.71300 46.07000
H  5.35300 -6.90700 47.48400
H  6.95400 -2.44500 43.56800
H  7.50000 1.42500 46.40800
H  5.75300 1.83800 46.26800
H  6.75200 1.87100 44.89300
Mg 16.45100 -1.84900 27.85600
C  15.28700 0.50900 30.28000
C  18.46000 -3.22900 30.19300
C  17.76300 -3.58100 25.30700
C  14.26900 -0.18200 25.49500
N  16.97400 -1.31000 30.00700
C  16.20800 -0.45500 30.80500
C  16.52400 -0.63100 32.34100
C  17.52900 -1.85000 32.25900
C  17.58100 -2.26600 30.75500
C  18.93100 -1.52800 32.88600
C  15.39900 -0.98400 33.33000
C  15.46600 -0.46700 34.80900
H  16.85000 -0.02200 35.46500
N  17.88500 -3.33400 27.76800
C  18.64500 -3.72500 28.86700
C  19.52900 -4.80400 28.40300
C  19.28700 -4.89300 26.93700
C  18.30900 -3.88600 26.60300
C  20.42100 -5.53000 29.28100
C  19.99000 -5.77000 25.89500
O  19.83200 -5.61100 24.72400
C  21.18400 -6.68000 26.43500
N  15.96600 -1.95600 25.77300
C  16.66900 -2.70900 24.85300
C  16.43100 -2.33600 23.42600
C  15.14400 -1.55600 23.56600
C  15.15000 -1.12100 25.05000
C  17.47900 -1.44100 22.82800
C  13.76400 -2.31400 23.17100
C  12.88200 -3.06900 24.15800
N  14.83000 -0.37600 27.84500
C  14.14000 0.22300 26.80400
C  13.33300 1.34400 27.37900
C  13.72700 1.38900 28.71800
C  14.68900 0.41600 28.95700
C  12.29600 2.26400 26.61400
C  13.50900 2.13200 29.89800
O  12.89200 3.15200 30.11600
C  14.46700 1.58300 30.98900
C  15.25200 2.73200 31.50800
O  16.13400 3.36900 30.94700
O  14.91500 2.97900 32.80000
C  15.79700 3.87700 33.55500
H  19.09700 -3.79900 30.87200
H  18.14300 -4.16900 24.46900
H  13.53700 0.15200 24.75600
H  17.10600 0.25100 32.60900
H  17.22200 -2.74600 32.79900
H  19.66600 -1.85800 32.15200
H  19.15800 -2.21000 33.70500
H  19.00000 -0.48700 33.20100
H  15.25800 -2.05400 33.48700
H  14.50500 -0.63900 32.81200
H  14.95700 -1.10500 35.53200
H  14.84500 0.42800 34.80100
H  20.51100 -6.59600 29.07100
H  20.28600 -5.43100 30.35800
H  21.39200 -5.07300 29.09000
H  21.84900 -6.01700 26.98900
H  21.70200 -7.08400 25.56500
H  20.88800 -7.54200 27.03300
H  16.26700 -3.25400 22.86100
H  15.33200 -0.60700 23.06400
H  18.37400 -1.98100 22.52000
H  17.86000 -0.88100 23.68200
H  17.19600 -0.69500 22.08600
H  14.09600 -3.02500 22.41400
H  13.18600 -1.56600 22.63000
H  13.03700 -2.78700 25.20000
H  13.09100 -4.12400 23.98100
H  11.82100 -2.92300 23.95700
H  11.42900 2.34000 27.26900
H  12.03000 1.92700 25.61200
H  12.72600 3.25200 26.44900
H  13.80100 1.18100 31.75200
H  15.91600 4.83400 33.04700
H  16.73500 3.35700 33.75100
H  15.31200 4.10500 34.50400

