158

Mg 48.84400 44.46800 42.87700
C  45.47300 43.91300 42.36000
C  49.43000 41.10200 41.93000
C  52.20600 45.05500 42.74700
C  48.23300 47.79300 42.91500
N  47.67400 42.79600 41.95300
C  46.29000 42.80300 42.03400
C  45.76100 41.46800 41.38800
C  46.97800 40.48000 41.70300
C  48.12800 41.48900 41.80500
C  46.74500 39.68100 42.97700
C  45.51400 41.71300 39.85600
C  44.40600 41.09500 39.04000
H  44.86200 40.56800 37.71300
N  50.53100 43.17800 42.58200
C  50.58800 41.85100 42.19100
C  51.92800 41.49200 41.87300
C  52.79000 42.58200 42.25200
C  51.81700 43.66300 42.66200
C  52.29500 40.17500 41.32400
C  54.27200 42.57000 42.19200
O  54.88600 41.61000 41.69600
C  54.94800 43.70100 42.80400
N  50.02300 46.14800 42.69900
C  51.40600 46.16800 42.78600
C  51.99400 47.57100 42.90500
C  50.68800 48.44600 42.70400
C  49.54800 47.39100 42.89700
C  52.58600 47.84200 44.29100
C  50.67300 49.06700 41.28100
C  49.87500 50.33900 41.06100
N  47.21000 45.65000 42.91200
C  47.05600 46.97700 42.93100
C  45.65400 47.37300 42.97400
C  44.96100 46.14000 42.88300
C  45.96000 45.16600 42.74200
C  45.10000 48.79700 42.91000
C  43.59300 45.60600 42.70500
O  42.45100 46.05700 42.73600
C  43.91200 44.06800 42.28300
C  43.14000 43.18300 43.21400
O  41.95900 43.15600 43.22800
O  44.03800 42.54300 44.05200
C  43.44000 41.67400 45.14200
H  49.54600 40.04300 41.69200
H  53.25700 45.35300 42.74900
H  48.21600 48.88500 42.90500
H  44.82300 41.18800 41.86900
H  47.04700 39.82000 40.83800
H  45.85900 40.08700 43.46600
H  47.53500 39.95100 43.67800
H  46.55500 38.61200 42.87600
H  46.49700 41.44300 39.47300
H  45.42100 42.79200 39.73000
H  43.77900 41.95700 38.81200
H  43.89200 40.28900 39.56400
H  52.63400 40.31500 40.29700
H  51.37000 39.63700 41.11700
H  52.91100 39.60700 42.02100
H  54.88500 44.52400 42.09200
H  56.00000 43.50100 43.00700
H  54.51300 43.96400 43.76800
H  52.83400 47.78800 42.24600
H  50.42700 49.27200 43.36600
H  52.46700 48.87400 44.62100
H  53.65500 47.63600 44.34000
H  52.18000 47.17800 45.05400
H  50.26000 48.30600 40.61900
H  51.70000 49.37700 41.08300
H  49.36200 50.81600 41.89600
H  48.97200 50.21300 40.46400
H  50.57700 51.07700 40.67300
H  45.36300 49.25800 41.95800
H  45.70200 49.44700 43.54400
H  44.02300 48.86500 43.05900
H  43.56800 43.96000 41.25400
H  44.21100 41.75700 45.90900
H  43.29700 40.64900 44.80300
H  42.54800 42.03200 45.65500
Mg 48.37300 34.53400 27.89900
C  46.68000 33.26700 30.67400
C  48.77400 37.40500 29.65500
C  49.29700 35.95300 25.13600
C  47.32600 31.63400 26.10700
N  47.79200 35.22900 29.97100
C  47.27700 34.49500 30.98000
C  47.61200 35.02300 32.42900
C  47.88500 36.53900 31.99500
C  48.13200 36.44500 30.38800
C  46.81300 37.57000 32.38100
C  48.78100 34.26900 33.12700
C  48.83800 34.26500 34.67200
H  47.92000 35.22600 35.45400
N  49.03500 36.25100 27.50600
C  49.24500 37.34800 28.34900
C  50.01600 38.32200 27.72600
C  50.22500 37.95000 26.37700
C  49.46400 36.67100 26.31800
C  50.54900 39.65500 28.41400
C  51.07900 38.63200 25.30200
O  51.13500 38.14700 24.16800
C  51.86800 39.93500 25.58600
N  48.31200 33.88600 25.89900
C  48.83000 34.70200 24.95300
C  48.92300 33.91100 23.66600
C  48.38800 32.44700 23.99300
C  48.02400 32.62400 25.41700
C  48.18500 34.53100 22.45800
C  49.27500 31.22800 23.63900
C  50.30000 30.92200 24.72000
N  47.37700 32.71800 28.29900
C  46.98600 31.69000 27.48800
C  46.31100 30.68800 28.29300
C  46.13800 31.29700 29.56600
C  46.71900 32.59800 29.45700
C  45.75100 29.41100 27.73800
C  45.63500 31.07100 30.83600
O  45.11300 30.08000 31.26600
C  45.76800 32.40900 31.56800
C  46.08500 32.11400 33.01700
O  47.19700 31.75600 33.49200
O  44.92700 31.96300 33.75400
C  44.93800 31.60800 35.20800
H  49.02900 38.26900 30.27200
H  49.72400 36.27800 24.18500
H  47.09300 30.71700 25.56100
H  46.75900 34.98700 33.10700
H  48.77100 36.90700 32.51300
H  47.13400 38.53400 32.77400
H  46.13900 37.14500 33.12500
H  46.25800 37.87700 31.49500
H  49.69700 34.68100 32.70500
H  48.80000 33.23900 32.76900
H  49.84600 34.42500 35.05400
H  48.45300 33.30400 35.01600
H  51.62800 39.52100 28.49700
H  50.15000 39.72300 29.42600
H  50.31000 40.50500 27.77500
H  52.46500 40.33600 24.76700
H  52.58900 39.84900 26.39900
H  51.13500 40.71100 25.80800
H  50.00000 33.91600 23.49900
H  47.45100 32.26800 23.46600
H  48.88000 35.10200 21.84300
H  47.49600 35.32900 22.73600
H  47.83600 33.68500 21.86600
H  49.81100 31.53400 22.74000
H  48.61700 30.41500 23.33200
H  51.14100 31.54500 24.41700
H  50.67700 29.91900 24.51800
H  50.08500 30.98200 25.78700
H  44.89900 29.00500 28.28400
H  46.45400 28.62900 28.02300
H  45.57300 29.33300 26.66500
H  44.74300 32.77800 31.57900
H  45.83800 31.16200 35.63200
H  44.10000 30.99600 35.54100
H  44.81800 32.57700 35.69300

