158

Mg -0.16700 7.10600 27.86100
C  0.61400 9.54100 30.20600
C  -0.50500 4.78400 30.32400
C  -0.71700 4.79200 25.53300
C  0.62500 9.45900 25.24800
N  0.01800 7.14400 29.94600
C  0.22400 8.27600 30.75000
C  0.09000 7.89500 32.23000
C  0.03600 6.33600 32.16400
C  -0.17800 6.06200 30.71100
C  1.26100 5.65300 32.82800
C  -1.19900 8.49900 32.82400
C  -1.45200 8.52700 34.28800
H  -0.49900 7.87300 35.29500
N  -0.56300 5.02400 27.94200
C  -0.73800 4.28400 29.03500
C  -0.95100 2.89100 28.65700
C  -0.94100 2.89700 27.21600
C  -0.75400 4.27400 26.82700
C  -0.97300 1.76300 29.57300
C  -0.95300 1.69700 26.19800
O  -0.65500 1.86500 25.05400
C  -1.40000 0.40600 26.60300
N  -0.11500 7.15200 25.75900
C  -0.49700 6.09600 25.02600
C  -0.65500 6.46600 23.52400
C  -0.43300 7.92600 23.47600
C  0.06800 8.20400 24.90400
C  0.25100 5.62500 22.63400
C  -1.66600 8.85600 23.26400
C  -1.55600 9.94800 22.25800
N  0.57400 9.06000 27.76500
C  0.84400 9.88100 26.63100
C  1.30700 11.18900 27.12500
C  1.09500 11.09200 28.52400
C  0.72600 9.81200 28.81900
C  1.72600 12.37600 26.25100
C  1.26600 11.81700 29.72700
O  1.69200 12.93000 29.91000
C  0.77700 10.91900 30.88000
C  1.82600 10.88500 31.93600
O  2.99400 10.49900 31.82000
O  1.37500 11.44100 33.10100
C  2.35200 11.25600 34.19100
H  -0.43500 3.98800 31.06800
H  -0.90900 4.10500 24.70700
H  0.80800 10.12700 24.40400
H  0.93900 8.27000 32.80100
H  -0.82300 5.95200 32.71500
H  1.59200 4.74600 32.32300
H  0.91200 5.29300 33.79600
H  2.05500 6.37100 33.03100
H  -2.04400 7.96900 32.38500
H  -1.16400 9.52200 32.45000
H  -2.46700 8.14100 34.37800
H  -1.48500 9.55000 34.66300
H  -0.41900 0.87900 29.25800
H  -2.00800 1.47700 29.76200
H  -0.54800 2.08800 30.52200
H  -1.62100 -0.06600 25.64600
H  -2.30100 0.56100 27.19600
H  -0.63400 -0.15200 27.14200
H  -1.65900 6.21200 23.18400
H  0.42100 8.03900 22.80700
H  1.20400 5.61900 23.16200
H  0.40700 6.04400 21.64000
H  -0.08700 4.60600 22.44600
H  -1.84000 9.36200 24.21400
H  -2.61900 8.32900 23.22500
H  -2.19500 9.64500 21.42900
H  -0.52000 10.20400 22.03600
H  -1.92200 10.84700 22.75500
H  1.18000 13.28700 26.49500
H  1.44900 12.19200 25.21300
H  2.79900 12.49100 26.40200
H  -0.11600 11.21300 31.43200
H  2.02600 11.81900 35.06500
H  3.32500 11.58200 33.82400
H  2.33400 10.20500 34.48200
Mg 49.01200 35.94200 27.24200
C  46.85100 34.44300 29.66300
C  49.43100 38.60100 29.35900
C  50.56000 37.57600 24.71100
C  47.88600 33.56200 25.02900
N  48.29700 36.45200 29.29700
C  47.52100 35.65000 30.10600
C  47.37200 36.32400 31.49600
C  48.04500 37.74900 31.32800
C  48.64300 37.61000 29.90600
C  47.02500 38.90600 31.41700
C  47.98600 35.54700 32.63700
C  47.28900 35.80200 33.98000
H  47.74700 36.96500 34.85200
N  50.01400 37.79400 27.18900
C  50.11200 38.74600 28.14300
C  50.90100 39.85800 27.67700
C  51.15100 39.58100 26.29900
C  50.55600 38.27700 25.95200
C  51.35000 40.95900 28.48600
C  52.00500 40.46700 25.34200
O  52.09300 40.21100 24.17100
C  52.63700 41.66500 25.84500
N  49.18200 35.51700 25.21000
C  50.01700 36.30600 24.39300
C  50.11900 35.70900 22.96300
C  49.40800 34.32300 23.14200
C  48.82600 34.42400 24.55000
C  49.40200 36.52600 21.84400
C  50.20900 33.00100 22.89200
C  49.77500 32.05900 21.76000
N  47.73400 34.21900 27.31400
C  47.32200 33.44800 26.28700
C  46.35200 32.45700 26.78300
C  46.18700 32.84900 28.10800
C  47.05600 33.89200 28.37600
C  45.72500 31.33000 26.06000
C  45.50700 32.44500 29.32200
O  44.77400 31.47200 29.51300
C  45.88500 33.49800 30.38100
C  46.41800 32.84300 31.61600
O  47.44100 32.13500 31.63300
O  45.56400 33.11000 32.63400
C  45.90000 32.46900 33.93700
H  49.82700 39.42100 29.96200
H  51.17500 38.00800 23.91900
H  47.69400 32.71600 24.36500
H  46.30600 36.24700 31.71300
H  48.93700 37.95800 31.91900
H  46.93800 39.49000 30.50100
H  47.32100 39.64000 32.16600
H  46.03000 38.57000 31.70900
H  48.97600 36.00200 32.60300
H  48.09700 34.49600 32.37200
H  47.30800 34.88500 34.56900
H  46.22600 35.99900 33.83600
H  52.43900 40.98700 28.47500
H  51.23700 40.89400 29.56800
H  51.01500 41.93000 28.12100
H  53.08000 42.10200 24.95000
H  53.42800 41.32600 26.51500
H  52.00000 42.38000 26.36500
H  51.08600 35.42900 22.54400
H  48.51600 34.28300 22.51700
H  48.39100 36.13300 21.73800
H  49.94400 36.34800 20.91500
H  49.38400 37.60400 22.00100
H  50.31800 32.45800 23.83100
H  51.26200 33.24300 22.75000
H  48.78600 32.29400 21.36600
H  49.77600 31.03000 22.11900
H  50.48700 32.10000 20.93500
H  46.11400 31.32800 25.04100
H  44.65300 31.52600 26.06200
H  45.91800 30.32900 26.44600
H  44.99300 34.03500 30.70400
H  45.18300 32.87500 34.65000
H  46.95900 32.66500 34.10800
H  45.85400 31.38000 33.94400

