158

Mg 9.58800 3.13900 27.39500
C  10.83700 1.51900 30.31200
C  7.69800 5.10500 29.35600
C  8.12900 4.20900 24.61300
C  11.02200 0.41200 25.56200
N  9.23600 3.19600 29.57700
C  9.94300 2.52700 30.60600
C  9.49900 3.09300 32.05900
C  8.25800 3.95500 31.71500
C  8.44700 4.16300 30.12400
C  6.89700 3.35600 32.18400
C  10.76800 3.83300 32.70500
C  11.20500 3.22300 34.06200
H  10.23500 2.84300 35.18100
N  8.23100 4.55300 27.06900
C  7.65500 5.36400 27.99400
C  6.96000 6.45200 27.33400
C  6.85200 6.10100 25.93700
C  7.72900 4.88100 25.80100
C  6.37400 7.70800 28.01700
C  6.10700 6.75300 24.81700
O  6.02300 6.37300 23.64600
C  5.42600 8.06400 25.07600
N  9.68200 2.44900 25.39400
C  8.99400 3.11800 24.42800
C  9.13500 2.42300 23.06300
C  10.24700 1.44600 23.31400
C  10.40700 1.42700 24.81500
C  7.78100 1.71500 22.62500
C  11.57200 1.90900 22.58500
C  11.88800 1.17200 21.22000
N  10.74900 1.41800 27.78600
C  11.23600 0.43200 26.96700
C  11.97000 -0.62100 27.70900
C  11.89300 -0.21200 29.03600
C  11.09400 1.00900 29.05900
C  12.69900 -1.88200 27.11000
C  12.28900 -0.49900 30.43000
O  12.97200 -1.39800 30.89500
C  11.55100 0.60800 31.31100
C  10.76500 -0.07600 32.40600
O  9.61900 -0.47300 32.33700
O  11.58800 -0.27400 33.51400
C  11.04000 -0.93300 34.69500
H  7.18900 5.77900 30.04800
H  7.86000 4.52800 23.60400
H  11.41400 -0.51200 25.13100
H  9.13400 2.23900 32.63000
H  8.37100 4.94200 32.16400
H  6.91300 2.27700 32.33300
H  6.06000 3.57500 31.52100
H  6.62400 3.90200 33.08800
H  10.55000 4.88500 32.88800
H  11.55900 3.88700 31.95600
H  11.93400 3.98600 34.33700
H  11.80300 2.35400 33.78700
H  5.28700 7.76800 28.07500
H  6.59400 8.57200 27.39100
H  6.86300 7.75500 28.99000
H  6.03100 8.90600 25.41200
H  4.65600 7.81900 25.80700
H  4.82900 8.35200 24.21100
H  9.39700 3.23100 22.38000
H  9.90200 0.45000 23.03800
H  7.22400 2.51500 22.13900
H  7.12700 1.46400 23.46000
H  7.93600 0.90400 21.91400
H  12.34400 1.53500 23.25700
H  11.67800 2.98000 22.41000
H  12.07700 1.98500 20.51900
H  11.09500 0.58700 20.75400
H  12.80600 0.59600 21.33700
H  12.07300 -2.31100 26.32700
H  12.81000 -2.66100 27.86400
H  13.68300 -1.58400 26.74800
H  12.35200 1.16900 31.79200
H  10.24100 -0.35000 35.15300
H  11.89600 -1.18300 35.32300
H  10.56100 -1.84100 34.32900
Mg 41.32100 40.88500 26.89800
C  40.86400 43.42400 29.25900
C  42.21300 38.77700 29.53100
C  41.86200 38.39400 24.68500
C  41.20100 43.22100 24.34800
N  41.47200 41.08700 29.14600
C  41.12200 42.17200 29.88200
C  41.11700 41.91500 31.36600
C  41.61300 40.38600 31.39000
C  41.78400 40.03100 29.92900
C  42.84400 40.14000 32.29500
C  39.71800 42.12900 31.96000
C  39.50400 41.83400 33.50500
H  39.22700 42.98500 34.44000
N  41.89600 38.84900 27.06300
C  42.20900 38.21600 28.23800
C  42.48600 36.82300 27.90800
C  42.29800 36.66200 26.47400
C  41.97600 37.96700 25.99900
C  43.07900 35.86900 28.91800
C  42.65400 35.36800 25.62700
O  42.53900 35.37500 24.40900
C  42.98200 34.11600 26.23700
N  41.56300 40.87200 24.82800
C  41.75700 39.67500 24.14700
C  41.71200 39.92700 22.60700
C  41.34600 41.44000 22.55300
C  41.39500 41.85300 23.97800
C  43.06400 39.59700 21.83800
C  39.99800 41.66700 21.89800
C  38.79100 41.07300 22.61200
N  41.07600 42.90700 26.72200
C  41.09000 43.79100 25.60900
C  40.92300 45.18000 26.04300
C  40.75500 45.06900 27.43700
C  40.93400 43.68000 27.82100
C  40.68000 46.29100 25.10100
C  40.29200 45.73100 28.64300
O  39.91000 46.91300 28.78900
C  40.39600 44.69800 29.84100
C  41.38800 45.33100 30.84500
O  42.60600 45.49800 30.75300
O  40.62100 45.89000 31.91000
C  41.47000 46.48200 32.97900
H  42.47200 38.14500 30.38300
H  41.92800 37.67400 23.86700
H  41.07200 44.02200 23.61700
H  41.84800 42.48200 31.94200
H  40.96500 39.59800 31.77300
H  43.02700 41.10100 32.77400
H  43.70700 39.86800 31.68800
H  42.88000 39.34600 33.04000
H  39.17000 41.54100 31.22400
H  39.38400 43.16300 31.87400
H  40.48100 41.44900 33.79700
H  38.86100 40.96300 33.63200
H  42.99500 36.15600 29.96600
H  44.11200 35.60400 28.69400
H  42.50800 34.95200 28.76900
H  43.89700 34.26700 26.80900
H  43.27800 33.55500 25.35000
H  42.17600 33.75700 26.87800
H  40.93500 39.24000 22.27000
H  42.12800 42.02100 22.06300
H  42.92400 38.98800 20.94500
H  43.68600 38.94100 22.44700
H  43.60800 40.49300 21.54000
H  40.13300 41.17800 20.93300
H  39.78400 42.70600 21.64800
H  39.11700 40.43100 23.43100
H  38.27200 40.58300 21.78900
H  38.19900 41.93100 22.93200
H  41.06300 46.10400 24.09800
H  40.98100 47.25500 25.50900
H  39.59700 46.24800 24.98700
H  39.41000 44.58100 30.29100
H  41.71600 45.63800 33.62400
H  40.70100 47.05500 33.49700
H  42.23500 47.19100 32.66100

