158

Mg -2.07500 17.44900 27.19400
C  -2.68700 15.15600 29.88900
C  -2.68700 20.03800 29.33200
C  -2.08700 19.41500 24.56600
C  -1.91600 14.57700 25.09300
N  -2.61300 17.58700 29.42000
C  -2.77900 16.50600 30.32100
C  -2.95100 17.07900 31.82000
C  -2.96000 18.65900 31.50300
C  -2.75700 18.83100 29.98400
C  -4.19600 19.39800 32.01600
C  -1.77700 16.60100 32.74700
C  -1.35500 17.55900 33.87000
H  -0.98400 16.73600 35.13300
N  -2.27700 19.46600 26.97200
C  -2.41000 20.37700 27.98800
C  -2.44100 21.73400 27.40700
C  -2.29800 21.62100 25.95300
C  -2.29600 20.10500 25.79200
C  -2.59800 22.99700 28.28900
C  -2.23400 22.55900 24.98500
O  -2.17100 22.25300 23.83100
C  -2.16000 23.93200 25.33400
N  -2.20400 17.00800 25.18800
C  -2.06600 18.04100 24.31700
C  -1.92100 17.49000 22.88300
C  -1.68700 15.98900 23.08400
C  -1.94800 15.81400 24.52600
C  -3.14500 17.81100 21.96700
C  -0.20800 15.57800 22.64000
C  1.02200 16.18300 23.31800
N  -2.13900 15.40000 27.41400
C  -1.99000 14.38200 26.43600
C  -2.02500 13.10500 27.06400
C  -2.45300 13.40000 28.38800
C  -2.34100 14.74500 28.53500
C  -1.97100 11.80600 26.47500
C  -2.74600 12.78000 29.67800
O  -2.92300 11.60100 29.99500
C  -2.74000 13.88300 30.69100
C  -1.50500 13.68900 31.39900
O  -0.36200 13.95200 31.03100
O  -1.78700 13.13500 32.62700
C  -0.64200 12.87100 33.54600
H  -2.91600 20.89100 29.97500
H  -1.80600 19.99500 23.68400
H  -1.80900 13.74800 24.39000
H  -3.82500 16.68300 32.33700
H  -2.10600 19.11400 32.00600
H  -3.95500 19.91900 32.94300
H  -4.80400 18.61500 32.46800
H  -4.70900 20.07500 31.33300
H  -0.86100 16.45000 32.17600
H  -2.07200 15.66700 33.22600
H  -2.12600 18.20900 34.28400
H  -0.48900 18.17700 33.63100
H  -1.69100 23.58500 28.15300
H  -2.72600 22.73400 29.33900
H  -3.41400 23.66200 28.00700
H  -1.19200 24.27200 25.70100
H  -2.99700 24.21100 25.97500
H  -2.18300 24.43800 24.36900
H  -1.12900 17.97900 22.31600
H  -2.40400 15.38200 22.53000
H  -2.93200 17.78200 20.89800
H  -3.42300 18.85500 22.11000
H  -4.08300 17.28800 22.15400
H  -0.08400 15.79300 21.57800
H  -0.06300 14.50200 22.73900
H  1.50300 16.78100 22.54500
H  1.69700 15.51600 23.85500
H  0.68700 16.97800 23.98400
H  -1.10200 11.85600 25.81900
H  -2.89800 11.49900 25.99100
H  -1.62100 11.03800 27.16400
H  -3.62000 13.86200 31.33400
H  -0.95800 13.27300 34.50800
H  0.32600 13.33800 33.36000
H  -0.54600 11.79300 33.67800
Mg 2.88600 -1.90100 44.48600
C  6.05700 -0.55300 44.07100
C  1.51200 0.81100 43.06300
C  -0.17400 -3.49300 44.61300
C  4.37500 -4.96000 45.45200
N  3.71700 -0.12400 43.69500
C  5.02200 0.23300 43.62200
C  5.13400 1.67400 43.14900
C  3.64400 2.05600 42.80600
C  2.87300 0.85200 43.24100
C  3.13500 3.35000 43.52300
C  6.17300 2.05600 42.00400
C  5.82800 1.41000 40.61800
H  6.97400 0.65200 39.90000
N  0.91500 -1.35400 43.96900
C  0.57900 -0.19300 43.37300
C  -0.80700 -0.21900 43.14100
C  -1.34700 -1.40900 43.66300
C  -0.22600 -2.12900 44.17300
C  -1.49400 0.90800 42.47900
C  -2.76800 -1.78700 43.56800
O  -3.51800 -0.90900 43.24900
C  -3.35600 -3.07600 43.86600
N  2.20200 -3.94400 44.87200
C  0.90100 -4.35900 44.94500
C  0.77200 -5.83000 45.30800
C  2.17600 -6.33600 45.45700
C  2.97400 -5.02000 45.26000
C  -0.13500 -6.15000 46.55700
C  2.60800 -7.54200 44.54700
C  2.95800 -8.87600 45.29200
N  4.78500 -2.65900 44.89200
C  5.29100 -3.85600 45.29800
C  6.66000 -3.81700 45.60000
C  7.02800 -2.53300 45.02000
C  5.84500 -1.89000 44.58700
C  7.46500 -4.80200 46.39000
C  8.12400 -1.63500 44.83600
O  9.35300 -1.80400 45.03400
C  7.57100 -0.22400 44.24800
C  7.82900 0.82200 45.37400
O  7.64800 0.61500 46.56800
O  8.40600 1.94000 44.84100
C  8.60200 3.07000 45.77500
H  1.15200 1.80900 42.80500
H  -1.16900 -3.93500 44.53000
H  4.87800 -5.83800 45.86300
H  5.44900 2.30300 43.98200
H  3.57200 2.38900 41.77000
H  2.24400 3.20400 44.13300
H  2.84300 4.07600 42.76300
H  3.86600 3.81700 44.18200
H  7.19800 1.78800 42.26000
H  6.11600 3.11100 41.73600
H  5.45400 2.21700 39.98900
H  5.04000 0.66400 40.72300
H  -2.01600 0.58800 41.57700
H  -0.83000 1.73700 42.23400
H  -2.22700 1.30600 43.18100
H  -2.83900 -3.90600 43.38600
H  -4.39600 -2.93500 43.57200
H  -3.27100 -3.11400 44.95200
H  0.12200 -6.14900 44.49300
H  2.35600 -6.49500 46.52100
H  -1.17800 -5.95900 46.30600
H  0.05800 -5.45600 47.37500
H  0.04500 -7.18700 46.83900
H  3.42700 -7.16100 43.93700
H  1.70400 -7.67600 43.95300
H  2.53800 -9.79500 44.88300
H  2.59500 -8.78000 46.31500
H  4.03700 -9.02800 45.27500
H  8.44700 -4.56900 46.80200
H  7.56200 -5.67700 45.74700
H  6.76200 -5.20400 47.12000
H  8.10300 0.05800 43.34000
H  9.20500 2.68200 46.59700
H  7.68800 3.43700 46.24200
H  9.09700 3.94000 45.34200

