158

Mg -2.35900 17.68200 27.12800
C  -2.56300 15.44900 29.76600
C  -2.41500 20.25500 29.39700
C  -2.47800 19.82400 24.47400
C  -2.83200 14.98200 24.91900
N  -2.36900 17.80200 29.41100
C  -2.37400 16.77700 30.26500
C  -2.23700 17.32300 31.71900
C  -2.46400 18.82800 31.53500
C  -2.40400 18.99500 30.01900
C  -3.86300 19.34200 32.13200
C  -0.90800 16.94000 32.39800
C  -0.58200 17.70200 33.67300
H  -0.25000 16.93200 34.96000
N  -2.46500 19.73400 26.94000
C  -2.44800 20.66400 28.02800
C  -2.36700 22.02600 27.46600
C  -2.17700 21.84900 26.06200
C  -2.32500 20.43800 25.74800
C  -2.51900 23.23800 28.38600
C  -1.90500 22.87700 24.99300
O  -1.96300 22.67900 23.76700
C  -1.65700 24.25300 25.36100
N  -2.68500 17.40200 25.00300
C  -2.61600 18.43400 24.15600
C  -2.82600 17.92200 22.70900
C  -2.64500 16.36100 22.85000
C  -2.63100 16.22800 24.34700
C  -4.18300 18.23400 21.98700
C  -1.40900 15.70800 22.11600
C  -0.06500 15.69000 22.91100
N  -2.56000 15.57900 27.25700
C  -2.80200 14.63900 26.30400
C  -3.01400 13.35700 26.90800
C  -2.87300 13.61600 28.28500
C  -2.65300 14.95400 28.45500
C  -3.29700 12.06900 26.24100
C  -2.94300 13.03400 29.64700
O  -3.22500 11.86400 30.05100
C  -2.75500 14.25500 30.62600
C  -1.72200 13.96800 31.63000
O  -0.50200 13.95100 31.43900
O  -2.28500 13.59700 32.84400
C  -1.44300 13.12100 33.90800
H  -2.33500 21.09200 30.09300
H  -2.43200 20.50600 23.62300
H  -3.17400 14.18200 24.25800
H  -3.05300 16.83400 32.25100
H  -1.66200 19.38700 32.01500
H  -4.48000 19.89700 31.42400
H  -3.69400 20.07600 32.92000
H  -4.40700 18.47800 32.51400
H  -0.05200 16.91200 31.72400
H  -1.20400 15.96500 32.78300
H  -1.32000 18.47200 33.89900
H  0.36100 18.19700 33.44000
H  -3.20100 22.95900 29.18900
H  -2.81000 24.18300 27.92700
H  -1.55400 23.30800 28.88700
H  -0.63500 24.23100 25.73900
H  -2.44100 24.58400 26.04300
H  -1.69800 24.83000 24.43600
H  -2.07100 18.18100 21.96700
H  -3.59600 15.90300 22.57900
H  -4.08900 19.07300 21.29800
H  -4.91600 18.54900 22.72900
H  -4.69800 17.42700 21.46600
H  -1.22800 16.09900 21.11500
H  -1.78900 14.69000 22.03600
H  0.69800 15.19800 22.30900
H  -0.28500 15.07200 23.78200
H  0.23200 16.70000 23.19300
H  -2.75700 11.23200 26.68300
H  -2.83000 12.10100 25.25700
H  -4.38600 12.02700 26.21600
H  -3.71600 14.24900 31.14000
H  -0.99700 13.94200 34.46900
H  -0.61800 12.49100 33.57700
H  -2.07900 12.54900 34.58300
Mg 35.28000 3.17800 29.43900
C  33.16100 4.13900 32.14000
C  37.85300 2.73900 31.64000
C  37.15200 2.00200 26.89700
C  32.68000 3.92200 27.18800
N  35.49900 3.51600 31.61100
C  34.52000 3.88800 32.54200
C  35.07500 3.85800 33.94400
C  36.64900 3.75800 33.67900
C  36.68200 3.30100 32.18200
C  37.47500 5.05100 33.91500
C  34.46100 2.81500 34.91100
C  34.17600 3.29600 36.30400
H  35.05700 4.39100 36.87100
N  37.22700 2.35700 29.29100
C  38.09900 2.23900 30.31700
C  39.34500 1.59400 29.83400
C  39.09100 1.26000 28.44500
C  37.70400 1.80900 28.15600
C  40.51100 1.16800 30.66200
C  39.96000 0.41300 27.47700
O  39.61100 0.22400 26.35600
C  41.35700 -0.23700 27.88400
N  35.02000 3.06500 27.45400
C  35.94500 2.64000 26.58300
C  35.46200 2.61600 25.13800
C  33.94000 2.88300 25.29300
C  33.86000 3.38800 26.67600
C  36.24800 3.68900 24.37300
C  32.84400 1.84600 24.97500
C  31.64500 2.39100 24.23700
N  33.37600 3.89700 29.57700
C  32.37600 4.03300 28.55300
C  31.15900 4.43000 29.13000
C  31.43600 4.46300 30.52900
C  32.80800 4.13400 30.73700
C  29.87500 4.66300 28.41400
C  30.83600 4.75800 31.79700
O  29.68200 5.11700 32.12000
C  31.92600 4.39000 32.94200
C  31.97100 5.62700 33.88000
O  32.46800 6.71700 33.68600
O  31.31200 5.40300 35.04500
C  31.23000 6.57400 35.98800
H  38.63500 2.54900 32.37700
H  37.62500 1.62400 25.98900
H  31.86400 4.00000 26.46700
H  34.77200 4.85000 34.28100
H  37.07800 3.03500 34.37300
H  36.80700 5.90400 34.03500
H  38.01000 5.25800 32.98800
H  38.14500 4.97600 34.77100
H  35.09800 1.93300 34.84500
H  33.51500 2.53000 34.45100
H  34.11100 2.51000 37.05800
H  33.18000 3.73000 36.39600
H  40.59200 0.08300 30.72200
H  40.37000 1.66500 31.62200
H  41.42100 1.45700 30.13700
H  42.08800 0.56000 28.01800
H  41.47400 -0.84400 26.98600
H  41.09500 -0.77100 28.79700
H  35.61200 1.64200 24.67300
H  33.73400 3.71400 24.61900
H  37.15600 3.96600 24.90900
H  35.73500 4.65100 24.36100
H  36.45300 3.21800 23.41200
H  32.57400 1.36900 25.91700
H  33.25700 1.07100 24.32900
H  30.76600 1.99900 24.75000
H  31.67100 1.94400 23.24300
H  31.58000 3.46800 24.08200
H  29.75800 4.01500 27.54500
H  29.73600 5.68100 28.05200
H  29.01100 4.34100 28.99500
H  31.52200 3.49300 33.41300
H  30.64600 7.34000 35.47700
H  32.17800 6.77100 36.48800
H  30.47000 6.31800 36.72600

