158

Mg 41.26300 8.01000 30.01900
C  42.94800 9.56000 32.84600
C  38.96500 6.91200 32.25400
C  39.87400 6.55900 27.35100
C  43.96500 8.91600 28.15300
N  40.96800 8.33600 32.27700
C  41.71500 9.05500 33.17600
C  41.05100 9.10900 34.58700
C  39.90000 8.06900 34.44300
C  39.89000 7.73100 32.87400
C  40.03100 6.79800 35.25000
C  40.61400 10.46600 35.20000
C  40.35000 10.39800 36.70600
H  41.10900 11.40500 37.57600
N  39.66800 6.79600 29.82100
C  38.79400 6.53000 30.90100
C  37.65100 5.82700 30.29000
C  37.93800 5.64800 28.88400
C  39.19300 6.27600 28.57900
C  36.42100 5.50200 31.16900
C  37.08000 5.16400 27.79700
O  37.52800 4.89800 26.72000
C  35.59200 5.15100 28.03000
N  41.80300 7.82200 27.96000
C  41.04300 7.21800 27.04100
C  41.56500 7.35800 25.63500
C  42.92600 8.16200 25.91000
C  42.90600 8.32600 27.39700
C  41.80200 6.01700 24.88500
C  43.00000 9.57700 25.11600
C  41.93300 10.67900 25.44600
N  43.19500 8.96800 30.39100
C  44.24000 9.22600 29.50000
C  45.29500 9.81400 30.13100
C  44.85300 10.01800 31.46600
C  43.57200 9.47200 31.55300
C  46.66200 10.06300 29.58400
C  45.21200 10.55700 32.73100
O  46.21700 11.15600 33.08100
C  43.98700 10.28200 33.70400
C  44.36900 9.34200 34.79700
O  44.65800 8.17500 34.60300
O  44.22800 9.97100 35.96200
C  44.32700 9.14200 37.09800
H  38.20800 6.66400 33.00000
H  39.35300 6.23100 26.44900
H  44.75900 9.15700 27.44300
H  41.81100 8.62600 35.20100
H  38.96600 8.51800 34.78000
H  40.20200 6.04200 34.48400
H  39.09000 6.45900 35.68300
H  40.83300 6.69700 35.98200
H  39.79900 10.98400 34.69500
H  41.48900 11.05800 34.93100
H  40.61100 9.39100 37.03100
H  39.28800 10.63900 36.76600
H  36.82700 5.40500 32.17600
H  35.90400 4.59800 30.84900
H  35.64600 6.24700 31.35500
H  35.03400 5.10200 27.09500
H  35.31800 6.08900 28.51300
H  35.20700 4.35100 28.66300
H  40.87500 8.02300 25.11500
H  43.76600 7.50200 25.69400
H  41.59600 6.12100 23.81900
H  41.07000 5.29500 25.24600
H  42.82300 5.67200 25.04600
H  42.89200 9.22700 24.09000
H  43.99200 10.00100 25.27100
H  42.38800 11.29000 26.22600
H  41.00100 10.22000 25.77500
H  41.72000 11.34500 24.61000
H  47.44400 9.63400 30.21100
H  46.83000 11.12500 29.40600
H  46.69300 9.59500 28.60000
H  43.62400 11.19100 34.18400
H  45.28800 8.75900 37.44100
H  43.68500 8.27600 36.93000
H  43.75800 9.66600 37.86600
Mg -5.18900 25.33100 26.06300
C  -3.52300 26.69000 28.76100
C  -6.70000 23.04100 28.23600
C  -6.69000 23.74300 23.45600
C  -3.24300 27.21500 23.92800
N  -5.06200 24.93100 28.28000
C  -4.42000 25.72500 29.20000
C  -4.87000 25.49000 30.64700
C  -5.55800 24.11100 30.39500
C  -5.84400 23.99200 28.84800
C  -4.71100 22.77200 30.81000
C  -5.81100 26.60600 31.19200
C  -5.60600 26.85700 32.69100
H  -5.18500 25.67200 33.53200
N  -6.54300 23.63400 25.92900
C  -6.98800 22.83700 26.89400
C  -7.86000 21.75400 26.38300
C  -7.92900 22.03000 24.97500
C  -7.00500 23.17600 24.69800
C  -8.39300 20.61500 27.24100
C  -8.71900 21.28500 23.83800
O  -8.45500 21.45200 22.67000
C  -9.76800 20.32500 24.17600
N  -4.89300 25.43400 23.98900
C  -5.79400 24.79000 23.14900
C  -5.73200 25.50200 21.78800
C  -4.80500 26.71200 21.99700
C  -4.26400 26.48300 23.43400
C  -5.26300 24.54700 20.59400
C  -5.51100 28.02300 21.86400
C  -6.23600 28.49600 20.57000
N  -3.63200 26.66400 26.27300
C  -2.93700 27.37900 25.34100
C  -2.00400 28.26700 25.95400
C  -2.10900 28.00600 27.27400
C  -3.15500 27.07000 27.45800
C  -1.04500 29.19500 25.24900
C  -1.62400 28.37500 28.63500
O  -0.80900 29.20500 29.00300
C  -2.50400 27.49300 29.61600
C  -1.52900 26.61100 30.33200
O  -0.95800 25.61400 29.89800
O  -1.53500 26.97100 31.65800
C  -0.81800 26.26300 32.72200
H  -7.19600 22.36100 28.93200
H  -7.27500 23.51800 22.56200
H  -2.74800 27.88800 23.22500
H  -3.92300 25.32000 31.15800
H  -6.52200 24.03700 30.89800
H  -3.69600 23.00900 31.13000
H  -4.66800 21.93000 30.12000
H  -5.20500 22.49400 31.74100
H  -6.89100 26.48000 31.10900
H  -5.69200 27.53600 30.63700
H  -6.56400 27.21300 33.07100
H  -4.85400 27.62200 32.88400
H  -9.42500 20.46900 26.92200
H  -8.41700 20.82400 28.31100
H  -7.82500 19.70000 27.07300
H  -9.39600 19.39500 24.60500
H  -10.30600 20.37300 23.22900
H  -10.39100 20.84600 24.90200
H  -6.77200 25.78700 21.62700
H  -3.91600 26.85700 21.38100
H  -5.48800 23.51900 20.87800
H  -4.20200 24.72200 20.41600
H  -5.82300 24.74800 19.68000
H  -4.81100 28.82700 22.09100
H  -6.18300 28.17500 22.70900
H  -5.93700 27.83200 19.75900
H  -5.79900 29.46800 20.34200
H  -7.32600 28.50700 20.56600
H  -0.70000 28.64300 24.37400
H  -0.22400 29.37300 25.94300
H  -1.54900 30.09400 24.89200
H  -3.04100 28.14300 30.30700
H  -0.11500 25.57300 32.25600
H  -1.57400 25.74100 33.30900
H  -0.34600 26.97400 33.39900

