158

Mg 25.82200 51.00000 26.57500
C  23.82700 52.33800 29.00500
C  28.15100 50.11000 29.12400
C  28.16500 50.37600 24.17700
C  23.74700 52.44300 24.21000
N  25.87900 51.23700 28.74500
C  24.94000 51.76000 29.53900
C  25.27800 51.45700 30.99400
C  26.78700 51.09900 31.02400
C  26.97500 50.77100 29.51500
C  27.86700 52.17500 31.36600
C  24.30600 50.48000 31.83100
C  23.93800 51.01100 33.16500
H  25.17300 51.02500 34.11200
N  27.78800 50.23200 26.66400
C  28.61100 49.89900 27.79000
C  29.84500 49.29000 27.35000
C  29.80500 49.37500 25.92200
C  28.53200 49.99800 25.54000
C  30.99300 48.85600 28.34700
C  30.86500 48.92200 24.91600
O  30.71300 49.13700 23.68200
C  31.95000 47.93800 25.32100
N  25.95700 51.42600 24.52700
C  26.94500 51.03500 23.71200
C  26.65200 51.50100 22.26900
C  25.21500 51.98500 22.29300
C  24.92200 51.99600 23.76700
C  27.88400 52.38600 21.73200
C  24.14900 51.09200 21.51400
C  23.94100 51.47900 20.10800
N  24.06700 52.09700 26.54800
C  23.32400 52.59100 25.54400
C  22.09100 53.35500 26.06100
C  22.24400 53.20900 27.45700
C  23.43400 52.48100 27.65200
C  21.02900 54.09600 25.21700
C  21.67300 53.49800 28.78300
O  20.60000 53.97100 29.07500
C  22.76900 53.00700 29.78700
C  23.24700 54.06900 30.67400
O  24.04300 54.89500 30.37700
O  22.49600 54.14700 31.80100
C  22.58100 55.35500 32.58900
H  28.80900 49.83500 29.95100
H  28.81000 50.19400 23.31500
H  23.10100 52.92200 23.47200
H  25.24200 52.42300 31.49900
H  26.96500 50.19600 31.60800
H  28.37500 52.51700 30.46500
H  28.59900 51.68000 32.00400
H  27.41200 53.04600 31.83900
H  24.75000 49.48700 31.89700
H  23.34800 50.42700 31.31400
H  23.15400 50.37500 33.57500
H  23.67100 52.06100 33.04500
H  31.94200 49.27300 28.00900
H  31.05600 47.76700 28.34800
H  30.86200 49.07000 29.40700
H  32.83400 48.34800 25.81000
H  32.26200 47.48500 24.38000
H  31.50000 47.24900 26.03500
H  26.70300 50.58500 21.68100
H  25.01400 53.01200 21.98600
H  28.05900 51.88100 20.78100
H  28.79700 52.53900 22.30700
H  27.50700 53.36100 21.42300
H  23.14700 51.00600 21.93400
H  24.53800 50.08200 21.63800
H  24.68600 50.94100 19.52200
H  24.00300 52.53300 19.83900
H  22.99900 51.03300 19.78600
H  20.61500 53.37200 24.51500
H  21.44800 54.89200 24.60200
H  20.28100 54.48300 25.91000
H  22.18600 52.32400 30.40400
H  22.51600 55.14100 33.65600
H  21.70800 55.94400 32.30700
H  23.40500 56.02900 32.35900
Mg 8.95500 48.29800 27.71800
C  7.08600 47.89100 30.64900
C  11.65900 48.90900 29.78100
C  10.73800 49.33700 25.08100
C  6.05900 48.70400 25.95000
N  9.24800 48.67100 29.95800
C  8.42900 48.18400 30.91800
C  9.07600 48.26700 32.36800
C  10.49800 48.80900 32.12400
C  10.49000 48.74700 30.49200
C  10.85800 50.22500 32.65200
C  8.98700 46.98800 33.28000
C  8.40400 47.18100 34.67200
H  8.50100 45.94300 35.59000
N  10.94500 48.85300 27.46700
C  11.90400 48.91500 28.42000
C  13.18000 49.18300 27.82900
C  12.91100 49.31700 26.42000
C  11.48400 49.16800 26.23700
C  14.46200 49.37600 28.67200
C  13.92700 49.50600 25.31000
O  13.51400 49.66000 24.13100
C  15.35000 49.48900 25.63200
N  8.50800 48.91500 25.71300
C  9.44300 49.28300 24.83300
C  8.75100 49.78700 23.59600
C  7.23600 49.48800 23.87300
C  7.27300 48.93300 25.25100
C  9.11300 51.21800 23.06300
C  6.53100 48.56800 22.84500
C  6.86200 48.76400 21.33100
N  6.92100 48.11900 28.08000
C  5.83700 48.27700 27.25300
C  4.62000 48.01200 28.04000
C  5.05800 47.89900 29.38300
C  6.47800 47.91300 29.34400
C  3.25500 48.03900 27.51200
C  4.64000 47.78200 30.78600
O  3.51600 47.73300 31.31000
C  5.92800 47.68300 31.63200
C  5.87200 46.21400 32.21000
O  6.12500 45.12300 31.68800
O  5.47600 46.32500 33.52300
C  5.40800 45.09100 34.27100
H  12.47200 49.16400 30.46400
H  11.27300 49.58300 24.16100
H  5.14600 48.90300 25.38600
H  8.48000 49.04200 32.85100
H  11.26300 48.13200 32.50200
H  10.07000 50.60400 33.30300
H  11.00400 50.95500 31.85600
H  11.78900 50.23900 33.21900
H  9.96400 46.58700 33.54900
H  8.50900 46.14200 32.78600
H  7.40700 47.58700 34.50400
H  8.96000 47.98100 35.16000
H  14.57200 50.46000 28.64300
H  15.33600 49.02100 28.12600
H  14.39200 48.94700 29.67100
H  15.71300 50.18900 26.38500
H  15.84200 49.81000 24.71400
H  15.66400 48.49200 25.94000
H  8.99700 49.06400 22.81800
H  6.76000 50.46200 23.98800
H  8.23900 51.83700 23.26800
H  9.37100 51.30400 22.00800
H  9.85000 51.74300 23.67100
H  5.48500 48.87300 22.87100
H  6.68300 47.52300 23.11200
H  7.27400 49.76700 21.22100
H  5.93300 48.81000 20.76200
H  7.52300 47.99500 20.93200
H  3.22200 48.93100 26.88700
H  2.45800 48.03600 28.25600
H  3.20800 47.12600 26.91900
H  5.97100 48.42700 32.42700
H  4.62200 44.39700 33.97200
H  5.35300 45.37500 35.32200
H  6.32600 44.52800 34.10200

