158

Mg 35.24400 1.90300 29.27800
C  33.04800 2.98500 31.88900
C  37.78000 1.85300 31.72700
C  37.40500 0.96800 26.89400
C  32.68500 2.31100 27.07200
N  35.39600 2.27400 31.49100
C  34.31100 2.68800 32.33800
C  34.80200 2.70600 33.80800
C  36.35200 2.69700 33.69500
C  36.55600 2.22200 32.25200
C  37.00600 4.17000 33.85700
C  34.20600 1.66000 34.81200
C  33.81800 2.15300 36.24600
H  34.60800 3.29400 36.83400
N  37.32200 1.45000 29.38200
C  38.17200 1.55400 30.41300
C  39.47900 1.06900 29.98900
C  39.36900 0.70400 28.59900
C  38.00800 1.08800 28.20700
C  40.67900 1.15100 30.83600
C  40.44800 0.26000 27.66800
O  40.18400 -0.03500 26.50000
C  41.88300 0.00600 28.11900
N  35.16400 1.80700 27.20700
C  36.18100 1.34700 26.44700
C  35.72200 1.24000 24.97700
C  34.14200 1.36800 25.08500
C  33.97800 1.90600 26.54300
C  36.41600 2.27700 24.01500
C  33.34900 0.10100 24.91100
C  32.02000 0.23400 24.26700
N  33.31400 2.57000 29.41600
C  32.40800 2.67600 28.41500
C  31.17400 3.12100 28.93000
C  31.31100 3.21500 30.30300
C  32.62100 2.84600 30.54300
C  29.84300 3.20800 28.18000
C  30.62900 3.55300 31.60000
O  29.48800 3.78700 31.93900
C  31.80800 3.41400 32.68000
C  31.92200 4.68200 33.39000
O  32.68600 5.65200 33.17300
O  31.05000 4.63000 34.48300
C  31.33400 5.55100 35.59300
H  38.55400 1.94800 32.49000
H  38.03400 0.58800 26.08600
H  31.90100 2.33600 26.31300
H  34.56300 3.72000 34.13000
H  36.77700 2.08200 34.48800
H  36.29100 4.77900 34.41100
H  37.21900 4.71300 32.93600
H  37.89800 4.09500 34.47900
H  34.96000 0.88200 34.92800
H  33.30100 1.12100 34.53100
H  34.12200 1.32300 36.88300
H  32.77300 2.33300 36.50000
H  41.21800 0.20800 30.74500
H  40.45100 1.48900 31.84700
H  41.36200 1.92400 30.48300
H  42.21000 0.81000 28.77900
H  42.52700 -0.06900 27.24200
H  41.84600 -0.88400 28.74700
H  36.02900 0.22300 24.73300
H  33.90700 2.11400 24.32600
H  36.88500 1.89400 23.10900
H  37.27700 2.60100 24.59900
H  35.75200 3.11800 23.81700
H  33.25500 -0.34000 25.90400
H  33.88900 -0.55400 24.22800
H  31.95100 -0.34700 23.34700
H  31.80900 1.29600 24.14200
H  31.18500 -0.18300 24.83000
H  29.40400 2.21400 28.09000
H  30.01600 3.52000 27.15000
H  29.14400 3.88300 28.67300
H  31.56900 2.51700 33.25100
H  30.92700 5.16300 36.52700
H  30.67400 6.41600 35.52500
H  32.28900 6.06400 35.70500
Mg -1.69900 34.40500 26.83900
C  -3.35600 32.46300 29.25500
C  -0.30300 36.16100 29.34500
C  -0.37700 36.25100 24.47600
C  -3.07500 32.24400 24.28800
N  -2.03300 34.33900 29.09300
C  -2.69000 33.50400 29.88200
C  -2.52000 33.81100 31.37500
C  -1.69900 35.18000 31.27900
C  -1.30100 35.22700 29.83200
C  -2.40600 36.49200 31.71500
C  -1.77100 32.74600 32.27700
C  -2.44500 32.50900 33.65900
H  -1.63800 32.27200 35.01800
N  -0.57900 36.05800 26.95100
C  -0.00600 36.62200 28.05400
C  1.02900 37.64900 27.67900
C  0.93200 37.70800 26.22500
C  -0.05700 36.61500 25.80400
C  1.82100 38.40400 28.65200
C  1.65200 38.76000 25.31700
O  1.50900 38.77500 24.09800
C  2.58200 39.83000 25.99000
N  -1.70600 34.25500 24.70800
C  -1.24700 35.30100 23.98100
C  -1.58800 35.14800 22.48600
C  -2.16000 33.67500 22.39400
C  -2.34600 33.33400 23.89300
C  -2.58100 36.23100 21.90500
C  -1.35000 32.60400 21.63300
C  -0.55500 31.60800 22.44500
N  -3.00300 32.75700 26.71900
C  -3.35400 31.90700 25.64800
C  -4.09200 30.79200 26.14400
C  -4.16300 31.04900 27.53000
C  -3.42200 32.17700 27.80800
C  -4.80200 29.78400 25.38100
C  -4.68200 30.41100 28.76500
O  -5.28400 29.35400 28.86400
C  -4.10900 31.27500 29.95200
C  -5.17400 31.66200 30.91200
O  -5.55800 32.82500 31.03500
O  -5.60300 30.65200 31.78400
C  -6.39800 31.26800 32.90100
H  0.19400 36.59800 30.21300
H  0.08100 36.98500 23.80900
H  -3.36400 31.54700 23.49900
H  -3.51400 34.09600 31.71900
H  -0.76100 35.08900 31.82600
H  -3.41600 36.25800 32.05200
H  -2.42100 37.21000 30.89500
H  -1.86900 36.90000 32.57100
H  -0.75400 33.11900 32.39400
H  -1.63400 31.77600 31.79800
H  -3.05300 31.61000 33.55600
H  -3.19500 33.26500 33.89300
H  2.11900 37.82000 29.52200
H  1.25500 39.27800 28.97400
H  2.76700 38.80500 28.28900
H  2.09900 40.40300 26.78200
H  3.02200 40.42100 25.18700
H  3.33100 39.13700 26.37300
H  -0.67900 35.10200 21.88600
H  -3.18100 33.57500 22.02700
H  -3.56600 35.80300 21.71800
H  -2.18900 36.53000 20.93300
H  -2.56100 37.05800 22.61600
H  -0.62800 33.11400 20.99600
H  -1.99700 32.01600 20.98300
H  0.13300 31.08100 21.78400
H  -1.31900 30.92900 22.82400
H  0.03200 32.08200 23.23100
H  -4.31300 29.61800 24.42100
H  -5.81500 30.14600 25.20800
H  -4.85200 28.84900 25.93800
H  -3.45000 30.67100 30.57600
H  -5.79200 32.03900 33.37700
H  -6.77900 30.52100 33.59800
H  -7.33900 31.60800 32.47000

