158

Mg 5.43600 54.15900 40.10500
C  4.61700 50.65800 40.13700
C  8.56600 53.21100 39.05700
C  6.04400 57.31800 39.43300
C  2.05600 54.93400 40.54600
N  6.37300 52.12500 39.45400
C  5.88300 50.87900 39.57000
C  6.95900 49.82700 39.22000
C  8.24500 50.72700 39.38400
C  7.69900 52.15500 39.32500
C  9.20300 50.61300 40.66300
C  6.79300 49.13300 37.87800
C  6.27500 49.84500 36.64600
H  7.12900 50.95200 36.05900
N  7.08200 55.09100 39.23100
C  8.30900 54.60700 39.03200
C  9.23500 55.68200 38.82400
C  8.55500 56.93000 38.79500
C  7.15600 56.49700 39.14800
C  10.76300 55.34700 38.64100
C  9.17200 58.33000 38.59000
O  10.38500 58.49800 38.44700
C  8.26800 59.54200 38.29800
N  4.24300 55.80300 39.94500
C  4.80800 57.06000 39.84700
C  3.76100 58.17700 40.14900
C  2.43800 57.37300 40.28400
C  2.96100 55.94200 40.23100
C  4.01200 59.04200 41.39900
C  1.37600 57.64700 39.23200
C  -0.01700 58.03200 39.86400
N  3.69700 53.04100 40.42800
C  2.41600 53.52400 40.70800
C  1.63200 52.34900 41.04200
C  2.41500 51.18900 40.91500
C  3.65400 51.69900 40.44500
C  0.18100 52.34400 41.36700
C  2.48400 49.81500 41.05000
O  1.61500 49.00300 41.38500
C  3.98200 49.37200 40.64700
C  3.90300 48.33000 39.65500
O  3.86800 48.50400 38.46000
O  4.16500 47.05700 40.14800
C  4.13600 45.88100 39.20700
H  9.59000 52.95400 38.78000
H  6.18900 58.40000 39.39600
H  1.08900 55.16900 40.99700
H  6.96900 49.10200 40.03400
H  8.93500 50.50300 38.57100
H  8.92900 49.72700 41.23600
H  9.04900 51.45600 41.33700
H  10.25200 50.55200 40.37200
H  6.28500 48.20900 38.15400
H  7.77000 48.87100 37.47200
H  5.27300 50.21500 36.86700
H  6.15300 49.06700 35.89200
H  11.17300 56.06700 37.93300
H  10.83600 54.41000 38.08900
H  11.43000 55.20000 39.49000
H  8.76200 60.35500 37.76700
H  7.95600 60.03500 39.21900
H  7.35700 59.25300 37.77400
H  3.76300 58.88700 39.32200
H  2.03900 57.50700 41.29000
H  4.57700 58.37200 42.04800
H  3.06500 59.35900 41.83400
H  4.50700 59.98000 41.14900
H  1.37200 56.87000 38.46800
H  1.69300 58.50600 38.64000
H  0.00400 58.00000 40.95300
H  -0.86700 57.39200 39.62600
H  -0.20000 59.08500 39.65400
H  -0.44000 53.19900 41.09900
H  0.23400 52.32500 42.45600
H  -0.26700 51.42100 41.00000
H  4.47600 48.90000 41.49600
H  3.16800 45.39100 39.09800
H  4.60800 44.98600 39.61200
H  4.47900 46.13200 38.20300
Mg -2.58600 35.25300 26.61400
C  -4.31700 33.84700 29.33500
C  -1.25300 37.57900 28.85400
C  -1.20800 36.81800 24.02500
C  -3.98900 32.93900 24.55000
N  -2.71000 35.61900 28.93400
C  -3.50900 34.98700 29.77200
C  -3.26300 35.47600 31.27000
C  -2.32000 36.73800 31.07600
C  -2.12100 36.70300 29.51300
C  -2.60600 38.10200 31.68300
C  -2.79800 34.31000 32.19800
C  -2.30600 34.71800 33.63700
H  -3.31600 34.41400 34.74000
N  -1.33700 36.93600 26.43700
C  -0.92400 37.73700 27.49600
C  -0.05700 38.78300 26.89800
C  -0.09500 38.59100 25.43800
C  -0.95000 37.41000 25.20100
C  0.69500 39.77200 27.68200
C  0.55500 39.30800 24.32200
O  0.51700 39.01100 23.15800
C  1.48000 40.47000 24.60000
N  -2.78600 35.07100 24.64100
C  -2.05200 35.78300 23.67800
C  -2.12300 35.16900 22.34400
C  -2.59200 33.73400 22.61500
C  -3.20100 33.91600 24.02200
C  -3.11400 35.95700 21.34900
C  -1.39700 32.75700 22.69500
C  -1.71400 31.37400 22.11100
N  -3.93000 33.67000 26.82400
C  -4.38100 32.80900 25.89300
C  -5.22800 31.85000 26.52300
C  -5.25700 32.17700 27.89700
C  -4.38800 33.32800 28.01700
C  -6.02000 30.77200 25.76600
C  -5.71100 31.80600 29.20700
O  -6.53900 31.00800 29.56600
C  -5.15300 32.87100 30.18400
C  -6.15000 33.53700 31.10300
O  -6.59000 34.70600 31.02400
O  -6.40500 32.71200 32.07200
C  -7.36400 33.16700 33.05200
H  -0.77300 38.33500 29.47900
H  -0.69800 37.16500 23.12400
H  -4.35400 32.23900 23.79600
H  -4.21100 35.81600 31.68800
H  -1.33100 36.57300 31.50400
H  -3.52300 38.02300 32.26600
H  -2.68100 38.92800 30.97500
H  -1.70700 38.36600 32.24000
H  -2.04900 33.71300 31.67700
H  -3.67200 33.68200 32.37200
H  -2.09500 35.78400 33.72200
H  -1.38900 34.18600 33.89300
H  1.71100 39.41000 27.84000
H  0.35100 39.98000 28.69500
H  0.76300 40.77700 27.26500
H  0.94400 41.33800 24.98300
H  1.95300 40.74300 23.65600
H  2.24000 40.19700 25.33200
H  -1.15500 35.15800 21.84200
H  -3.30000 33.39600 21.85800
H  -3.15900 37.03200 21.52300
H  -4.11800 35.56400 21.50800
H  -2.91000 35.74400 20.30000
H  -1.09600 32.55000 23.72200
H  -0.52000 33.13100 22.16700
H  -0.89400 31.23100 21.40600
H  -2.63900 31.18000 21.56800
H  -1.59900 30.59600 22.86600
H  -6.66200 30.31400 26.51900
H  -5.39100 29.96000 25.40000
H  -6.61300 31.30000 25.02000
H  -4.48800 32.30300 30.83500
H  -8.29400 33.24700 32.48800
H  -7.18500 34.15900 33.46600
H  -7.50200 32.47900 33.88600

