158

Mg 35.93600 48.45400 26.33900
C  36.24200 46.35600 29.08300
C  34.15900 50.73900 28.41400
C  35.16500 50.50000 23.59100
C  37.06300 45.99700 24.34200
N  35.09500 48.46600 28.52500
C  35.65600 47.58000 29.40800
C  35.48400 48.22600 30.85000
C  34.46100 49.35800 30.64200
C  34.63400 49.61100 29.13700
C  32.93600 48.97800 30.88600
C  36.78900 48.79900 31.43700
C  37.22100 48.38700 32.87500
H  36.97500 49.52400 33.88600
N  34.89900 50.38700 26.16300
C  34.39300 51.18300 27.11100
C  33.89000 52.43800 26.56100
C  34.22200 52.41800 25.22500
C  34.78800 51.00200 24.89100
C  33.19900 53.44400 27.48600
C  34.23900 53.53600 24.15100
O  34.67500 53.40400 23.02100
C  33.90800 54.89100 24.49400
N  35.93600 48.14800 24.24100
C  35.69500 49.18300 23.39400
C  36.15200 48.79700 21.98700
C  36.96500 47.44800 22.22300
C  36.64200 47.18100 23.69700
C  34.93900 48.68400 21.08100
C  38.48900 47.43200 21.85900
C  38.96200 46.40300 20.77600
N  36.49500 46.53000 26.56100
C  36.98300 45.64400 25.66400
C  37.36300 44.36200 26.34600
C  37.11800 44.64000 27.72800
C  36.54400 45.95300 27.77500
C  37.91700 43.13100 25.70300
C  37.23700 44.15300 29.10400
O  37.54000 43.08200 29.47100
C  36.77400 45.28700 30.02500
C  35.71900 44.74800 30.92300
O  34.69500 44.31200 30.46100
O  36.10600 44.81300 32.24800
C  35.07900 44.53200 33.17000
H  33.69500 51.49600 29.04900
H  34.88600 51.09600 22.72000
H  37.55100 45.24800 23.71500
H  35.09200 47.45200 31.51000
H  34.60800 50.28500 31.19500
H  32.46100 49.50000 31.71600
H  32.82200 47.90600 31.04800
H  32.31400 49.28500 30.04500
H  36.88700 49.88500 31.41000
H  37.57700 48.33700 30.84300
H  38.29300 48.21600 32.78400
H  36.66200 47.53700 33.26700
H  32.99800 54.38900 26.98300
H  33.83100 53.53700 28.37000
H  32.19800 53.09100 27.73000
H  32.95700 54.74300 25.00600
H  33.77800 55.55700 23.64100
H  34.79200 55.13400 25.08300
H  36.86700 49.52200 21.59700
H  36.42700 46.68600 21.66000
H  34.02400 48.79300 21.66200
H  34.82000 47.78900 20.46900
H  34.87300 49.50400 20.36600
H  39.00000 47.14400 22.77800
H  38.77500 48.45600 21.61800
H  38.14300 45.84700 20.32000
H  39.54700 45.69600 21.36400
H  39.61800 46.88700 20.05300
H  38.77900 43.42300 25.10200
H  37.15600 42.75900 25.01600
H  38.19100 42.33900 26.40100
H  37.51800 45.65100 30.73400
H  34.58400 45.46600 33.43600
H  35.65200 44.14400 34.01200
H  34.35100 43.76700 32.89900
Mg 1.11600 43.73300 25.65100
C  3.19700 43.38000 28.45200
C  -1.59300 43.06600 27.72000
C  -0.89800 43.36000 22.98700
C  3.97300 43.39500 23.56100
N  0.90100 43.28800 27.85100
C  1.85100 43.32900 28.83000
C  1.33800 43.11200 30.19300
C  -0.19100 42.74500 29.92500
C  -0.35000 43.01400 28.37700
C  -0.50600 41.31100 30.29600
C  1.49400 44.36300 31.21800
C  1.67300 43.94200 32.72900
H  1.21000 42.49700 33.11900
N  -0.98300 43.61100 25.41700
C  -1.89400 43.39000 26.39500
C  -3.19600 43.50400 25.79900
C  -2.97100 43.50800 24.40600
C  -1.57800 43.48700 24.22700
C  -4.52200 43.53800 26.60100
C  -4.03200 43.42600 23.33000
O  -3.77500 43.52700 22.15500
C  -5.46600 43.24300 23.68000
N  1.56200 43.50800 23.59600
C  0.50500 43.28600 22.74700
C  1.00500 42.88900 21.31100
C  2.48400 43.34500 21.42000
C  2.74200 43.39100 22.96200
C  0.75700 41.40200 20.88000
C  2.82000 44.73500 20.75500
C  4.00700 44.69700 19.75600
N  3.11100 43.46800 25.88900
C  4.13000 43.48100 24.95500
C  5.40800 43.39700 25.62600
C  5.03700 43.40800 26.96100
C  3.66300 43.43700 27.11500
C  6.78900 43.57600 25.11200
C  5.65300 43.48000 28.32600
O  6.80600 43.64600 28.67400
C  4.45300 43.42100 29.30200
C  4.63200 42.22600 30.11500
O  4.48700 41.08100 29.78300
O  5.21900 42.71500 31.29000
C  5.74500 41.68800 32.22200
H  -2.42900 42.97600 28.41600
H  -1.52600 43.36600 22.09400
H  4.74500 43.19800 22.81400
H  1.90500 42.29900 30.64600
H  -0.86900 43.41800 30.44900
H  0.37200 40.86300 30.76300
H  -0.75100 40.84800 29.34100
H  -1.37500 41.27800 30.95400
H  0.56000 44.91500 31.10700
H  2.28800 45.02800 30.88100
H  1.04400 44.50900 33.41600
H  2.66800 44.25300 33.04600
H  -4.78800 44.59200 26.68200
H  -4.20200 43.12800 27.55900
H  -5.36100 42.91900 26.28200
H  -6.00600 43.11800 22.74100
H  -5.77600 44.19700 24.10600
H  -5.62100 42.32200 24.24100
H  0.41000 43.44800 20.58900
H  3.25500 42.61600 21.17100
H  1.62700 40.99900 20.36200
H  -0.04500 41.38400 20.14300
H  0.51400 40.78400 21.74500
H  2.85200 45.46300 21.56600
H  1.90600 45.00100 20.22300
H  4.47500 45.68200 19.76300
H  3.75800 44.71200 18.69500
H  4.81900 44.02300 20.03000
H  7.27700 44.23600 25.83000
H  6.92100 44.12300 24.17800
H  7.39100 42.66700 25.12100
H  4.44300 44.28900 29.96000
H  6.80600 41.74500 32.46400
H  5.62100 40.65100 31.90900
H  5.26700 41.68500 33.20100

