158

Mg 24.71000 -6.72600 47.32300
C  27.15900 -4.59500 46.19500
C  22.69900 -5.92100 44.75100
C  22.47500 -9.34800 48.24700
C  27.17700 -8.24800 49.42700
N  25.02500 -5.58600 45.41200
C  25.97800 -4.57200 45.31800
C  25.80200 -3.77500 44.01600
C  24.26900 -4.16600 43.61200
C  23.96500 -5.31600 44.64300
C  23.16100 -3.11800 43.53800
C  26.78700 -3.94400 42.85400
C  27.58900 -2.64600 42.53500
H  27.49400 -2.20300 41.10400
N  22.74600 -7.50200 46.70800
C  22.10500 -6.98900 45.60600
C  20.87900 -7.64500 45.45900
C  20.72000 -8.55300 46.51400
C  21.98900 -8.48700 47.29100
C  19.92400 -7.42300 44.39300
C  19.42600 -9.48300 46.76800
O  18.46500 -9.53100 46.02400
C  19.38000 -10.25100 48.06300
N  24.81600 -8.44700 48.59600
C  23.81900 -9.38300 48.83200
C  24.37400 -10.65400 49.44700
C  25.78100 -10.27500 49.84900
C  25.94700 -8.82500 49.33200
C  23.47100 -11.17700 50.58600
C  26.84300 -11.23800 49.20800
C  27.78400 -11.88200 50.31600
N  26.63400 -6.35600 47.92500
C  27.48900 -6.97600 48.77800
C  28.67800 -6.21600 48.91100
C  28.62100 -5.24700 47.94700
C  27.34900 -5.41500 47.33800
C  29.83800 -6.50800 49.82500
C  29.23200 -4.12900 47.20800
O  30.35300 -3.67300 47.35200
C  28.38500 -3.64900 46.08400
C  28.06200 -2.21300 46.17500
O  28.78100 -1.36400 45.62300
O  27.01600 -1.92600 46.97700
C  26.91100 -0.47700 47.13800
H  21.94200 -5.50700 44.08200
H  21.82900 -10.15600 48.59700
H  27.96500 -8.69900 50.03400
H  25.80100 -2.74700 44.38000
H  24.20000 -4.72300 42.67700
H  23.60000 -2.12100 43.50900
H  22.46100 -3.20200 44.36900
H  22.58100 -3.26900 42.62700
H  26.33800 -4.36500 41.95300
H  27.51100 -4.71100 43.12800
H  28.60600 -2.57400 42.91900
H  27.11800 -1.81800 43.06500
H  19.88500 -6.43000 43.94700
H  18.91200 -7.50500 44.78900
H  20.04900 -8.17100 43.60900
H  19.95400 -11.16200 48.23400
H  18.33000 -10.50400 48.20500
H  19.63800 -9.44600 48.75000
H  24.39100 -11.40900 48.66200
H  25.76900 -10.14100 50.93100
H  22.70000 -11.87600 50.26200
H  23.01400 -10.41200 51.21400
H  24.00800 -11.76400 51.33100
H  27.47300 -10.66300 48.52900
H  26.39500 -11.99400 48.56200
H  27.87800 -12.95000 50.12400
H  27.46200 -11.69900 51.34100
H  28.81500 -11.53000 50.30100
H  30.18700 -7.47900 49.47500
H  29.46900 -6.58000 50.84800
H  30.57100 -5.70200 49.78100
H  28.96300 -3.95200 45.21100
H  26.16500 -0.29600 47.91200
H  26.47600 0.07100 46.30200
H  27.89400 -0.08800 47.40600
Mg 25.88100 0.69500 29.19100
C  27.79900 0.32500 31.99500
C  23.19300 1.26200 31.19900
C  24.06800 0.82400 26.38900
C  28.70000 -0.36000 27.15000
N  25.64200 0.75300 31.33200
C  26.54700 0.73300 32.34500
C  25.88900 1.06900 33.73200
C  24.38000 1.19000 33.37600
C  24.43200 1.11100 31.86600
C  23.41500 0.10900 34.01500
C  26.49100 2.39500 34.44200
C  27.28300 2.16900 35.77800
H  27.04200 3.05200 36.94000
N  23.87900 0.88400 28.77900
C  22.92600 1.10000 29.78000
C  21.67000 1.18300 29.16100
C  21.81100 1.17200 27.75500
C  23.32100 1.02800 27.58000
C  20.31900 1.34200 29.85000
C  20.89200 1.31100 26.50400
O  21.27700 1.50300 25.30400
C  19.48000 1.35200 26.83100
N  26.41200 0.28100 27.05500
C  25.39500 0.52800 26.15500
C  25.92900 0.24900 24.69900
C  27.43200 -0.08000 24.86700
C  27.58300 0.05100 26.44400
C  25.08900 -0.79900 23.83000
C  28.44500 0.75600 24.02200
C  28.46600 0.48800 22.54200
N  27.86500 0.17900 29.47400
C  28.83300 -0.25800 28.57200
C  30.06800 -0.54600 29.38200
C  29.71200 -0.32600 30.69800
C  28.35700 0.10500 30.70400
C  31.45300 -1.07000 28.86500
C  30.17300 -0.43900 32.01800
O  31.18600 -0.86800 32.54100
C  29.04000 0.06200 32.95300
C  28.78500 -0.91500 34.05300
O  28.19800 -1.95300 33.98000
O  29.41000 -0.44500 35.15700
C  29.23000 -1.20400 36.34700
H  22.31100 1.50400 31.79400
H  23.52100 1.12400 25.49300
H  29.48100 -0.74000 26.48900
H  26.10500 0.19900 34.35200
H  23.97100 2.12200 33.76700
H  23.88100 -0.53400 34.76100
H  23.05100 -0.57400 33.24700
H  22.54200 0.55000 34.49700
H  25.76700 3.19600 34.58800
H  27.20500 2.71000 33.68100
H  28.34000 2.13200 35.51600
H  27.10200 1.14900 36.11900
H  20.53000 1.68800 30.86200
H  19.83700 0.36800 29.76700
H  19.69100 2.14000 29.45400
H  19.27400 0.46900 27.43500
H  19.03200 1.23800 25.84400
H  19.15100 2.28300 27.29200
H  25.85200 1.15400 24.09600
H  27.60500 -1.14100 24.68800
H  24.49500 -1.27100 24.61200
H  25.73200 -1.55700 23.38200
H  24.46700 -0.39000 23.03400
H  29.41600 0.44900 24.41200
H  28.34500 1.81800 24.24500
H  29.52000 0.33900 22.30600
H  27.95100 1.29600 22.02300
H  27.92100 -0.43100 22.32400
H  31.37900 -1.04000 27.77800
H  31.69500 -1.95800 29.44800
H  32.19300 -0.38500 29.27800
H  29.23200 1.05700 33.35400
H  28.21200 -1.45300 36.64800
H  29.70500 -0.74700 37.21600
H  29.74300 -2.16100 36.25700

