158

Mg 16.05300 -3.16800 27.73300
C  15.04100 -1.07600 30.27100
C  17.91800 -4.99100 29.99800
C  17.48400 -4.95500 25.13600
C  14.64100 -1.09900 25.27600
N  16.48200 -2.88900 29.90900
C  15.96700 -1.98000 30.79600
C  16.52400 -2.07800 32.25300
C  17.59400 -3.30200 32.03200
C  17.34500 -3.74900 30.54700
C  19.14600 -2.93600 32.27400
C  15.43500 -2.45700 33.23000
C  15.43100 -1.61900 34.49100
H  16.78200 -0.92900 34.91600
N  17.38100 -4.77300 27.61600
C  18.00500 -5.41500 28.68200
C  18.78300 -6.54300 28.17100
C  18.71500 -6.46600 26.74900
C  17.86900 -5.33800 26.43500
C  19.53200 -7.49900 29.11800
C  19.30200 -7.43800 25.78400
O  19.11000 -7.42400 24.58400
C  20.32600 -8.55400 26.31000
N  16.03800 -3.04900 25.47500
C  16.69700 -3.86200 24.69200
C  16.34600 -3.72500 23.17500
C  15.19900 -2.57700 23.26600
C  15.25300 -2.23700 24.76200
C  17.55800 -3.34700 22.31000
C  13.77400 -3.14200 22.82200
C  13.38700 -2.78100 21.41700
N  14.95200 -1.54800 27.73100
C  14.44900 -0.83200 26.68300
C  13.69300 0.33200 27.26100
C  13.89000 0.28000 28.68500
C  14.69400 -0.84400 28.89800
C  12.80600 1.30600 26.48500
C  13.53300 0.89800 29.94200
O  12.82700 1.87500 30.21000
C  14.31000 0.08700 31.00700
C  15.20600 1.19900 31.52500
O  16.11400 1.66900 30.89100
O  14.77200 1.61500 32.71600
C  15.42900 2.81000 33.27500
H  18.57700 -5.46600 30.72800
H  17.85500 -5.57700 24.31900
H  14.08000 -0.42700 24.62400
H  16.99500 -1.11500 32.44900
H  17.26600 -4.15500 32.62500
H  19.56900 -3.59500 33.03200
H  19.33000 -1.90700 32.58200
H  19.71600 -3.07400 31.35500
H  15.43600 -3.53200 33.40700
H  14.50500 -2.15500 32.74800
H  15.08600 -2.20100 35.34600
H  14.71600 -0.80200 34.39300
H  19.38600 -8.52800 28.78800
H  19.27000 -7.36700 30.16700
H  20.60900 -7.33200 29.10600
H  20.81800 -8.94600 25.42000
H  19.83700 -9.41200 26.77100
H  21.16700 -8.14400 26.86900
H  15.85100 -4.64600 22.86800
H  15.49900 -1.78700 22.57800
H  18.36000 -3.99600 22.66000
H  17.96500 -2.35100 22.48400
H  17.30800 -3.60700 21.28100
H  13.10000 -2.67900 23.54200
H  13.65600 -4.22500 22.84800
H  13.75000 -3.62800 20.83500
H  13.85800 -1.83600 21.14800
H  12.29800 -2.75400 21.36500
H  12.46900 0.92000 25.52400
H  13.31700 2.24400 26.27000
H  11.93000 1.57600 27.07500
H  13.63400 -0.26700 31.78500
H  15.71700 3.58800 32.56700
H  16.28300 2.53400 33.89400
H  14.54800 3.02600 33.87900
Mg 10.67900 47.86800 25.37800
C  8.78500 47.91100 28.37600
C  13.16400 49.61500 27.03900
C  12.46100 47.56700 22.75000
C  7.68900 46.59000 23.75400
N  10.93300 48.58400 27.54000
C  10.08500 48.46900 28.59200
C  10.67900 49.05300 29.85700
C  11.85000 49.98900 29.26100
C  12.01100 49.34300 27.86300
C  11.35700 51.45500 29.09400
C  11.38200 47.97400 30.76200
C  11.16500 48.26200 32.27600
H  10.96700 47.07500 33.26500
N  12.58800 48.47100 24.93600
C  13.46300 49.19200 25.76700
C  14.76800 49.34300 25.12800
C  14.58100 48.78900 23.82100
C  13.16100 48.22400 23.79300
C  16.00500 49.84200 25.81100
C  15.70400 48.65500 22.68100
O  15.35100 48.39500 21.49400
C  17.13300 48.98900 22.91100
N  10.00000 47.39800 23.49800
C  11.08400 47.21800 22.60900
C  10.65500 46.62900 21.27500
C  9.14400 46.24900 21.57000
C  8.88500 46.71200 23.04200
C  10.72300 47.59100 20.00000
C  8.93600 44.68000 21.33700
C  9.82600 43.69900 22.15500
N  8.61100 47.43300 25.89100
C  7.59200 46.93100 25.10900
C  6.44300 46.74100 25.97400
C  6.83800 47.14800 27.31500
C  8.16000 47.57500 27.12600
C  5.06000 46.29000 25.50400
C  6.47800 47.32100 28.72800
O  5.38700 47.03400 29.25000
C  7.75300 47.72300 29.49100
C  8.06600 46.59200 30.38700
O  8.80000 45.63300 30.12500
O  7.42600 46.75000 31.59700
C  7.62200 45.81900 32.69700
H  13.75500 50.36500 27.56900
H  13.14300 47.41700 21.91100
H  6.94500 46.12500 23.10500
H  9.96500 49.68100 30.38900
H  12.83200 49.85800 29.71500
H  11.96200 52.09400 29.73700
H  10.28500 51.51400 29.27900
H  11.43000 51.81700 28.06800
H  12.46900 47.96500 30.69400
H  11.01600 46.96200 30.59000
H  10.27000 48.87200 32.40100
H  12.11600 48.63500 32.65600
H  16.84700 49.15900 25.69500
H  15.84900 50.04400 26.87100
H  16.19900 50.80600 25.34100
H  17.15400 49.83000 23.60500
H  17.56800 49.15400 21.92500
H  17.58500 48.13900 23.42200
H  11.31500 45.79000 21.05300
H  8.45300 46.89100 21.02400
H  11.10900 48.56700 20.29400
H  9.75600 47.86300 19.57900
H  11.36200 47.05300 19.30000
H  9.18000 44.48600 20.29200
H  7.92000 44.35500 21.55900
H  10.09400 44.24100 23.06200
H  10.64800 43.23400 21.61000
H  9.11800 42.91800 22.43200
H  5.11200 45.82200 24.52000
H  4.48400 47.21600 25.52300
H  4.59800 45.61900 26.22700
H  7.73200 48.63400 30.08900
H  7.24800 44.84800 32.37200
H  7.17300 46.19100 33.61800
H  8.68800 45.68900 32.88200

