158

Mg 8.84500 3.37900 27.08600
C  10.12000 1.55900 29.75600
C  7.44900 5.61100 29.16300
C  7.10900 4.48800 24.44500
C  10.16900 0.70500 24.94100
N  8.88100 3.53900 29.31000
C  9.37700 2.70800 30.18300
C  9.13700 3.18800 31.58900
C  8.21300 4.44300 31.33700
C  8.19100 4.59400 29.85600
C  6.87200 4.42800 32.01600
C  10.41400 3.50200 32.48500
C  10.24500 4.51200 33.64300
H  11.06800 4.30600 34.90100
N  7.45200 4.86800 26.80500
C  7.14100 5.78700 27.79600
C  6.27700 6.83200 27.28800
C  6.07300 6.43300 25.91800
C  6.85300 5.16000 25.63600
C  5.81600 8.07200 28.02900
C  5.31500 7.15700 24.78400
O  5.18500 6.79300 23.60900
C  4.71100 8.54800 25.00300
N  8.63900 2.68700 24.98000
C  7.87700 3.39900 24.09100
C  7.88200 2.69100 22.77400
C  8.98200 1.60400 22.96600
C  9.35000 1.73200 24.35000
C  6.48800 2.13800 22.42700
C  10.14200 1.73600 21.89900
C  10.37200 0.61600 20.88700
N  10.05900 1.54900 27.21600
C  10.50100 0.61700 26.29000
C  11.08200 -0.53800 27.00400
C  11.03700 -0.16600 28.36300
C  10.41300 1.12200 28.43900
C  11.53600 -1.80900 26.45400
C  11.36700 -0.49700 29.64000
O  12.00900 -1.46400 30.05400
C  10.76400 0.58800 30.63400
C  9.87600 -0.09000 31.52800
O  8.74300 -0.48700 31.28600
O  10.52100 -0.25500 32.77900
C  9.68400 -0.81300 33.86600
H  6.85900 6.22000 29.85300
H  6.58000 4.88800 23.57700
H  10.47300 -0.14900 24.33200
H  8.55600 2.47100 32.16900
H  8.71200 5.35900 31.65200
H  6.67300 5.47900 32.22900
H  6.85600 3.80500 32.91000
H  6.09800 3.93000 31.43100
H  11.27500 3.79400 31.88400
H  10.66500 2.56700 32.98500
H  9.19000 4.47000 33.91400
H  10.38100 5.52700 33.27000
H  6.08600 8.00000 29.08300
H  4.72700 8.03500 27.99600
H  6.22300 9.02000 27.67600
H  5.46000 9.34000 24.98200
H  4.11100 8.54300 25.91300
H  4.00000 8.66500 24.18500
H  8.16200 3.37200 21.97000
H  8.52100 0.61900 22.88700
H  6.17700 2.50800 21.45000
H  5.63500 2.31500 23.08200
H  6.60600 1.07300 22.22900
H  11.07100 1.87600 22.45000
H  10.04600 2.66100 21.33000
H  9.99600 1.09900 19.98600
H  9.71700 -0.23800 21.05800
H  11.37300 0.22300 20.70800
H  12.57400 -1.85000 26.12500
H  10.79900 -2.01200 25.67800
H  11.42600 -2.45100 27.32800
H  11.58700 1.07200 31.15900
H  8.61400 -0.62600 33.78500
H  10.01700 -0.50500 34.85700
H  9.87200 -1.88700 33.84700
Mg 41.62100 41.31100 27.41900
C  40.95300 43.77400 29.75800
C  41.98700 39.00500 29.89500
C  42.52800 39.11400 25.02200
C  41.69500 43.93100 24.99800
N  41.40100 41.34700 29.57800
C  40.99000 42.47400 30.34500
C  40.83400 42.14700 31.77900
C  41.22900 40.64700 31.86500
C  41.51100 40.25900 30.37400
C  42.34300 40.23800 32.83300
C  39.47900 42.58900 32.51000
C  38.90900 41.81700 33.73500
H  38.18900 42.65700 34.80500
N  42.14300 39.34400 27.47100
C  42.18000 38.50400 28.57000
C  42.45300 37.12000 28.16100
C  42.63600 37.18400 26.75600
C  42.41800 38.56100 26.37300
C  42.57300 35.88300 29.06100
C  42.99400 36.03500 25.71900
O  43.26900 36.17500 24.51400
C  43.14600 34.62800 26.28200
N  42.13900 41.49900 25.42100
C  42.43800 40.44400 24.59000
C  42.60200 40.84000 23.13800
C  42.10800 42.31700 23.15600
C  41.99100 42.67100 24.63300
C  44.08600 40.65600 22.57300
C  40.83400 42.77900 22.38600
C  39.50200 42.12600 22.92000
N  41.33600 43.41900 27.35800
C  41.38000 44.33600 26.37600
C  41.10800 45.65700 26.79500
C  40.87500 45.53300 28.19000
C  41.09800 44.12600 28.45900
C  41.02800 46.91800 26.01900
C  40.53100 46.15900 29.35600
O  40.27400 47.34500 29.56100
C  40.57100 45.02400 30.46100
C  41.54700 45.42700 31.59300
O  42.72500 45.12700 31.57900
O  40.77000 45.98500 32.59600
C  41.45600 46.13300 33.86300
H  42.13900 38.23000 30.64900
H  42.84200 38.36500 24.29100
H  41.54000 44.68100 24.22000
H  41.67700 42.74900 32.11900
H  40.30200 40.17900 32.19400
H  42.15400 39.26900 33.29600
H  42.16500 41.03800 33.55100
H  43.36700 40.38300 32.48800
H  38.62300 42.61700 31.83600
H  39.73000 43.62100 32.75500
H  39.73600 41.39500 34.30600
H  38.27300 40.96900 33.48200
H  42.59000 36.35600 30.04300
H  43.50600 35.36200 28.84500
H  41.80400 35.12100 28.93700
H  42.20000 34.35900 26.75100
H  43.90100 34.66000 27.06800
H  43.48000 34.01800 25.44200
H  41.84400 40.19800 22.68900
H  42.91800 42.95600 22.80600
H  44.67600 40.11400 23.31200
H  44.53500 41.57600 22.19900
H  43.97600 39.93300 21.76400
H  40.98900 42.42800 21.36600
H  40.80500 43.86700 22.43400
H  39.64000 41.60600 23.86800
H  39.10100 41.44400 22.17000
H  38.73600 42.87100 23.13900
H  40.18900 46.88800 25.32300
H  41.93400 47.07600 25.43500
H  40.97600 47.70700 26.76900
H  39.54300 44.86600 30.78700
H  42.53000 46.31100 33.81600
H  41.26800 45.33000 34.57600
H  41.09900 47.07000 34.29200

