158

Mg 46.53200 24.96300 27.80400
C  47.39500 27.29100 30.30600
C  45.59000 22.82800 30.28000
C  45.94700 22.79200 25.35200
C  47.72000 27.35300 25.47100
N  46.50200 25.03500 30.02300
C  46.89900 26.09400 30.79900
C  46.85000 25.72600 32.34000
C  46.41900 24.24600 32.26600
C  46.13700 24.00000 30.77500
C  47.40300 23.34400 33.07500
C  45.88400 26.67100 33.10300
C  46.44400 27.25900 34.35600
H  45.45600 27.62900 35.45100
N  45.68000 23.08200 27.81600
C  45.39400 22.32300 28.92200
C  44.92200 21.01500 28.50500
C  44.92100 21.08700 27.07900
C  45.60500 22.37400 26.69400
C  44.50200 19.92700 29.49600
C  44.34100 20.08000 26.12800
O  44.55700 20.10700 24.93300
C  43.32000 19.08800 26.57400
N  46.92600 24.98600 25.74500
C  46.65900 23.88400 24.97900
C  46.94500 24.19800 23.48200
C  47.14100 25.69300 23.47700
C  47.21900 26.08800 24.96100
C  48.06600 23.33800 22.81700
C  46.06400 26.55100 22.75700
C  46.46300 27.03200 21.35200
N  47.43300 26.90100 27.81900
C  47.91100 27.73000 26.85100
C  48.48800 28.88500 27.42400
C  48.25700 28.78900 28.78700
C  47.64100 27.58100 28.96200
C  49.25600 29.92500 26.69100
C  48.51400 29.47900 30.09600
O  49.08400 30.51100 30.38400
C  48.05300 28.44900 31.17800
C  49.21900 28.03700 31.92800
O  49.98100 27.17000 31.61700
O  49.23600 28.76300 33.10300
C  50.52000 28.76200 33.87100
H  45.35300 22.12300 31.08000
H  45.80500 22.06500 24.55000
H  48.03000 28.12600 24.76500
H  47.84400 25.80200 32.78200
H  45.42500 24.12200 32.69700
H  48.10900 22.96300 32.33800
H  46.97000 22.47600 33.57300
H  48.04700 23.88100 33.77200
H  45.01200 26.11600 33.45000
H  45.61100 27.53300 32.49500
H  46.86400 28.21500 34.04500
H  47.23900 26.66300 34.80300
H  44.90500 18.96200 29.18900
H  43.43100 19.81600 29.66600
H  44.97900 20.16000 30.44900
H  43.70300 18.50300 27.41100
H  43.06500 18.44600 25.73100
H  42.44700 19.55900 27.02600
H  46.00200 24.08100 22.94800
H  48.13000 25.95400 23.10100
H  48.35500 22.54300 23.50400
H  48.90100 24.01000 22.62200
H  47.81500 22.95800 21.82700
H  45.80800 27.33800 23.46600
H  45.14300 25.97700 22.65700
H  45.72200 26.65600 20.64700
H  47.41900 26.59200 21.06900
H  46.34000 28.11500 21.35200
H  49.90500 30.38700 27.43500
H  48.63400 30.74600 26.33300
H  49.78900 29.47700 25.85200
H  47.32500 28.98400 31.78700
H  50.47800 28.23000 34.82200
H  50.64400 29.81700 34.11500
H  51.41000 28.52800 33.28600
Mg 47.14400 34.59900 27.19300
C  45.54000 32.84100 29.87000
C  47.75300 37.09000 29.27600
C  47.87100 36.45500 24.52300
C  46.23500 31.84200 25.03300
N  46.71200 34.85300 29.35400
C  46.19800 34.01100 30.31900
C  46.51600 34.53100 31.72000
C  46.88100 36.04600 31.46500
C  47.12200 36.01400 29.92900
C  45.80700 37.05700 31.91700
C  47.67000 33.73000 32.40300
C  47.81700 33.90600 34.00300
H  46.82700 34.91000 34.63100
N  47.75200 36.56400 26.93700
C  48.04600 37.39700 27.94500
C  48.57600 38.60100 27.45800
C  48.67100 38.47200 26.04100
C  48.10800 37.13900 25.74700
C  48.83300 39.87600 28.31100
C  49.25300 39.43600 25.01700
O  49.33300 39.12800 23.83800
C  49.97800 40.76600 25.36200
N  47.10800 34.10400 25.13300
C  47.40200 35.12700 24.22800
C  47.18400 34.67700 22.85300
C  47.05100 33.18600 22.98000
C  46.70800 33.01600 24.47900
C  45.91000 35.30700 22.28500
C  48.36800 32.35900 22.72200
C  48.32700 30.97400 22.02900
N  46.16300 32.64000 27.36400
C  45.84700 31.69000 26.42300
C  45.21600 30.55000 27.03800
C  45.00800 31.00900 28.41100
C  45.61600 32.27800 28.53800
C  44.79100 29.29600 26.40200
C  44.49200 30.62100 29.67600
O  43.86800 29.62300 29.96000
C  44.68800 31.89700 30.60900
C  45.00100 31.55600 31.98300
O  45.89700 30.75500 32.34900
O  44.00500 32.16000 32.76900
C  44.16400 31.86600 34.22200
H  48.08400 37.84200 29.99600
H  48.10300 37.10000 23.67300
H  45.85400 31.00900 24.43800
H  45.56700 34.40100 32.24100
H  47.79500 36.40500 31.93800
H  44.82900 36.62700 32.13400
H  45.58300 37.69500 31.06100
H  46.18500 37.71000 32.70300
H  48.61100 33.96400 31.90600
H  47.60900 32.67900 32.12200
H  48.82800 34.13500 34.34100
H  47.42400 32.95000 34.34900
H  49.89100 39.97400 28.55000
H  48.36100 39.82900 29.29200
H  48.56400 40.82900 27.85400
H  49.38300 41.56600 25.80200
H  50.44200 41.08100 24.42700
H  50.83300 40.51500 25.99000
H  48.06800 34.89600 22.25300
H  46.19300 32.72600 22.49000
H  45.03600 34.65900 22.35900
H  46.12400 35.55500 21.24600
H  45.75200 36.21600 22.86600
H  48.92700 32.16000 23.63700
H  49.02900 32.88800 22.03600
H  48.88900 30.23600 22.60200
H  48.73200 31.07100 21.02200
H  47.27800 30.69400 21.92600
H  44.82900 29.34500 25.31300
H  43.73700 29.16900 26.64700
H  45.49700 28.59400 26.84700
H  43.66700 32.27800 30.58000
H  44.19300 30.80200 34.45900
H  43.26000 32.16400 34.75400
H  45.08400 32.15200 34.73100

